MODEL 1
REMARK VINA RESULT: -7.424251564      0.000      0.000
REMARK  7 active torsions:
REMARK  status: ('A' for Active; 'I' for Inactive)
REMARK    1  A    between atoms: C2_2  and  C4_4 
REMARK    2  A    between atoms: C21_25  and  O5_26 
REMARK    3  A    between atoms: O5_26  and  C22_27 
REMARK    4  A    between atoms: C22_27  and  C23_29 
REMARK    5  A    between atoms: C23_29  and  C24_30 
REMARK    6  A    between atoms: C24_30  and  C25_31 
REMARK    7  A    between atoms: C26_34  and  O9_35 
ROOT
HETATM    1  C4  UNL     1      88.850  46.190 266.429  1.00  0.00     0.000 C 
HETATM    2  C5  UNL     1      88.865  45.047 265.454  1.00  0.00     0.018 C 
HETATM    3  C6  UNL     1      89.318  43.841 266.209  1.00  0.00     0.075 C 
HETATM    4  C7  UNL     1      89.052  44.117 267.685  1.00  0.00     0.234 C 
HETATM    5  O1  UNL     1      87.790  43.588 267.963  1.00  0.00    -0.194 OA
HETATM    6  O2  UNL     1      87.558  43.854 269.238  1.00  0.00    -0.194 OA
HETATM    7  C8  UNL     1      88.409  43.056 269.974  1.00  0.00     0.234 C 
HETATM    8  C9  UNL     1      88.342  43.505 271.441  1.00  0.00     0.079 C 
HETATM    9  C10 UNL     1      87.313  42.759 272.221  1.00  0.00    -0.009 C 
HETATM   10  C11 UNL     1      87.809  41.456 272.795  1.00  0.00     0.009 C 
HETATM   11  C12 UNL     1      87.783  40.323 271.823  1.00  0.00    -0.013 C 
HETATM   12  C13 UNL     1      86.449  40.200 271.097  1.00  0.00     0.010 C 
HETATM   13  C14 UNL     1      86.447  41.524 270.319  1.00  0.00    -0.004 C 
HETATM   14  C15 UNL     1      86.090  42.586 271.368  1.00  0.00     0.010 C 
HETATM   15  C16 UNL     1      87.862  41.627 269.862  1.00  0.00     0.058 C 
HETATM   16  C17 UNL     1      88.700  40.687 270.667  1.00  0.00     0.015 C 
HETATM   17  O3  UNL     1      89.714  43.111 269.600  1.00  0.00    -0.194 OA
HETATM   18  O4  UNL     1      89.997  43.458 268.409  1.00  0.00    -0.194 OA
HETATM   19  C18 UNL     1      89.103  45.608 267.782  1.00  0.00     0.065 C 
HETATM   20  C19 UNL     1      90.375  46.105 268.419  1.00  0.00     0.014 C 
HETATM   21  C20 UNL     1      91.547  45.966 267.481  1.00  0.00     0.036 C 
HETATM   22  C21 UNL     1      91.293  46.580 266.128  1.00  0.00     0.161 C 
HETATM   23  C26 UNL     1      89.920  47.171 265.993  1.00  0.00     0.157 C 
ENDROOT
BRANCH   1  24
HETATM   24  C2  UNL     1      87.543  46.973 266.357  1.00  0.00    -0.011 C 
HETATM   25  C1  UNL     1      86.765  46.458 265.168  1.00  0.00     0.010 C 
HETATM   26  C3  UNL     1      86.709  46.846 267.580  1.00  0.00     0.010 C 
ENDBRANCH   1  24
BRANCH  23  27
HETATM   27  O9  UNL     1      89.742  48.344 266.686  1.00  0.00    -0.392 OA
ATOM     28  H9  UNL     1      89.970  48.193 267.596  1.00  0.00     0.210 HD
ENDBRANCH  23  27
BRANCH  22  29
HETATM   29  O5  UNL     1      92.322  47.469 265.864  1.00  0.00    -0.313 OA
BRANCH  29  30
HETATM   30  C22 UNL     1      93.603  47.402 266.401  1.00  0.00     0.259 C 
HETATM   31  O6  UNL     1      94.302  46.481 265.934  1.00  0.00    -0.265 OA
BRANCH  30  32
HETATM   32  C23 UNL     1      94.115  48.314 267.420  1.00  0.00     0.121 C 
BRANCH  32  33
HETATM   33  C24 UNL     1      93.722  49.727 267.095  1.00  0.00     0.123 C 
BRANCH  33  34
HETATM   34  C25 UNL     1      92.732  50.315 268.017  1.00  0.00     0.172 C 
HETATM   35  O7  UNL     1      91.513  50.194 267.789  1.00  0.00    -0.648 OA
HETATM   36  O8  UNL     1      93.118  51.021 269.158  1.00  0.00    -0.648 OA
ENDBRANCH  33  34
ENDBRANCH  32  33
ENDBRANCH  30  32
ENDBRANCH  29  30
ENDBRANCH  22  29
TORSDOF 7
ENDMDL
MODEL 2
REMARK VINA RESULT: -7.299013499      2.995      4.556
REMARK  7 active torsions:
REMARK  status: ('A' for Active; 'I' for Inactive)
REMARK    1  A    between atoms: C2_2  and  C4_4 
REMARK    2  A    between atoms: C21_25  and  O5_26 
REMARK    3  A    between atoms: O5_26  and  C22_27 
REMARK    4  A    between atoms: C22_27  and  C23_29 
REMARK    5  A    between atoms: C23_29  and  C24_30 
REMARK    6  A    between atoms: C24_30  and  C25_31 
REMARK    7  A    between atoms: C26_34  and  O9_35 
ROOT
HETATM    1  C4  UNL     1      90.074  46.916 266.095  1.00  0.00     0.000 C 
HETATM    2  C5  UNL     1      89.051  47.888 266.612  1.00  0.00     0.018 C 
HETATM    3  C6  UNL     1      87.852  47.086 267.001  1.00  0.00     0.075 C 
HETATM    4  C7  UNL     1      88.331  45.658 267.233  1.00  0.00     0.234 C 
HETATM    5  O1  UNL     1      88.613  45.553 268.595  1.00  0.00    -0.194 OA
HETATM    6  O2  UNL     1      89.051  44.319 268.782  1.00  0.00    -0.194 OA
HETATM    7  C8  UNL     1      87.968  43.481 268.614  1.00  0.00     0.234 C 
HETATM    8  C9  UNL     1      88.479  42.034 268.584  1.00  0.00     0.079 C 
HETATM    9  C10 UNL     1      88.487  41.402 269.935  1.00  0.00    -0.009 C 
HETATM   10  C11 UNL     1      87.172  40.774 270.322  1.00  0.00     0.009 C 
HETATM   11  C12 UNL     1      86.180  41.749 270.868  1.00  0.00    -0.013 C 
HETATM   12  C13 UNL     1      86.769  42.646 271.949  1.00  0.00     0.010 C 
HETATM   13  C14 UNL     1      87.813  43.410 271.121  1.00  0.00    -0.004 C 
HETATM   14  C15 UNL     1      88.964  42.410 270.939  1.00  0.00     0.010 C 
HETATM   15  C16 UNL     1      87.080  43.673 269.850  1.00  0.00     0.058 C 
HETATM   16  C17 UNL     1      85.892  42.770 269.780  1.00  0.00     0.015 C 
HETATM   17  O3  UNL     1      87.263  43.677 267.470  1.00  0.00    -0.194 OA
HETATM   18  O4  UNL     1      87.311  44.818 266.908  1.00  0.00    -0.194 OA
HETATM   19  C18 UNL     1      89.545  45.545 266.367  1.00  0.00     0.065 C 
HETATM   20  C19 UNL     1      89.295  44.742 265.117  1.00  0.00     0.014 C 
HETATM   21  C20 UNL     1      88.463  45.517 264.126  1.00  0.00     0.036 C 
HETATM   22  C21 UNL     1      89.019  46.887 263.838  1.00  0.00     0.161 C 
HETATM   23  C26 UNL     1      90.262  47.200 264.618  1.00  0.00     0.157 C 
ENDROOT
BRANCH   1  24
HETATM   24  C2  UNL     1      91.444  47.157 266.721  1.00  0.00    -0.011 C 
HETATM   25  C1  UNL     1      91.401  48.498 267.417  1.00  0.00     0.010 C 
HETATM   26  C3  UNL     1      91.839  46.110 267.699  1.00  0.00     0.010 C 
ENDBRANCH   1  24
BRANCH  23  27
HETATM   27  O9  UNL     1      91.381  46.530 264.186  1.00  0.00    -0.392 OA
ATOM     28  H9  UNL     1      91.816  47.063 263.531  1.00  0.00     0.210 HD
ENDBRANCH  23  27
BRANCH  22  29
HETATM   29  O5  UNL     1      89.165  47.006 262.465  1.00  0.00    -0.313 OA
BRANCH  29  30
HETATM   30  C22 UNL     1      90.306  46.674 261.744  1.00  0.00     0.259 C 
HETATM   31  O6  UNL     1      90.591  45.460 261.773  1.00  0.00    -0.265 OA
BRANCH  30  32
HETATM   32  C23 UNL     1      91.120  47.636 261.006  1.00  0.00     0.121 C 
BRANCH  32  33
HETATM   33  C24 UNL     1      92.216  46.926 260.264  1.00  0.00     0.123 C 
BRANCH  33  34
HETATM   34  C25 UNL     1      93.118  47.813 259.505  1.00  0.00     0.172 C 
HETATM   35  O7  UNL     1      92.693  48.441 258.515  1.00  0.00    -0.648 OA
HETATM   36  O8  UNL     1      94.458  47.978 259.860  1.00  0.00    -0.648 OA
ENDBRANCH  33  34
ENDBRANCH  32  33
ENDBRANCH  30  32
ENDBRANCH  29  30
ENDBRANCH  22  29
TORSDOF 7
ENDMDL
MODEL 3
REMARK VINA RESULT: -7.135436377      1.114      1.749
REMARK  7 active torsions:
REMARK  status: ('A' for Active; 'I' for Inactive)
REMARK    1  A    between atoms: C2_2  and  C4_4 
REMARK    2  A    between atoms: C21_25  and  O5_26 
REMARK    3  A    between atoms: O5_26  and  C22_27 
REMARK    4  A    between atoms: C22_27  and  C23_29 
REMARK    5  A    between atoms: C23_29  and  C24_30 
REMARK    6  A    between atoms: C24_30  and  C25_31 
REMARK    7  A    between atoms: C26_34  and  O9_35 
ROOT
HETATM    1  C4  UNL     1      88.720  46.123 266.452  1.00  0.00     0.000 C 
HETATM    2  C5  UNL     1      88.667  44.967 265.493  1.00  0.00     0.018 C 
HETATM    3  C6  UNL     1      89.149  43.766 266.239  1.00  0.00     0.075 C 
HETATM    4  C7  UNL     1      88.969  44.065 267.723  1.00  0.00     0.234 C 
HETATM    5  O1  UNL     1      87.719  43.554 268.079  1.00  0.00    -0.194 OA
HETATM    6  O2  UNL     1      87.562  43.840 269.361  1.00  0.00    -0.194 OA
HETATM    7  C8  UNL     1      88.444  43.042 270.059  1.00  0.00     0.234 C 
HETATM    8  C9  UNL     1      88.465  43.511 271.521  1.00  0.00     0.079 C 
HETATM    9  C10 UNL     1      87.473  42.788 272.368  1.00  0.00    -0.009 C 
HETATM   10  C11 UNL     1      87.987  41.487 272.932  1.00  0.00     0.009 C 
HETATM   11  C12 UNL     1      87.894  40.342 271.978  1.00  0.00    -0.013 C 
HETATM   12  C13 UNL     1      86.519  40.224 271.330  1.00  0.00     0.010 C 
HETATM   13  C14 UNL     1      86.489  41.538 270.534  1.00  0.00    -0.004 C 
HETATM   14  C15 UNL     1      86.202  42.618 271.588  1.00  0.00     0.010 C 
HETATM   15  C16 UNL     1      87.876  41.618 269.998  1.00  0.00     0.058 C 
HETATM   16  C17 UNL     1      88.748  40.680 270.767  1.00  0.00     0.015 C 
HETATM   17  O3  UNL     1      89.727  43.077 269.612  1.00  0.00    -0.194 OA
HETATM   18  O4  UNL     1      89.946  43.405 268.402  1.00  0.00    -0.194 OA
HETATM   19  C18 UNL     1      89.042  45.557 267.797  1.00  0.00     0.065 C 
HETATM   20  C19 UNL     1      90.353  46.047 268.354  1.00  0.00     0.014 C 
HETATM   21  C20 UNL     1      91.469  45.882 267.354  1.00  0.00     0.036 C 
HETATM   22  C21 UNL     1      91.145  46.481 266.009  1.00  0.00     0.161 C 
HETATM   23  C26 UNL     1      89.774  47.085 265.943  1.00  0.00     0.157 C 
ENDROOT
BRANCH   1  24
HETATM   24  C2  UNL     1      87.419  46.921 266.442  1.00  0.00    -0.011 C 
HETATM   25  C1  UNL     1      86.599  46.446 265.264  1.00  0.00     0.010 C 
HETATM   26  C3  UNL     1      86.622  46.767 267.687  1.00  0.00     0.010 C 
ENDBRANCH   1  24
BRANCH  23  27
HETATM   27  O9  UNL     1      89.648  48.270 266.628  1.00  0.00    -0.392 OA
ATOM     28  H9  UNL     1      89.563  48.974 265.997  1.00  0.00     0.210 HD
ENDBRANCH  23  27
BRANCH  22  29
HETATM   29  O5  UNL     1      92.168  47.354 265.676  1.00  0.00    -0.313 OA
BRANCH  29  30
HETATM   30  C22 UNL     1      93.017  47.984 266.578  1.00  0.00     0.259 C 
HETATM   31  O6  UNL     1      92.597  49.085 266.987  1.00  0.00    -0.265 OA
BRANCH  30  32
HETATM   32  C23 UNL     1      94.292  47.433 267.028  1.00  0.00     0.121 C 
BRANCH  32  33
HETATM   33  C24 UNL     1      95.105  48.498 267.706  1.00  0.00     0.123 C 
BRANCH  33  34
HETATM   34  C25 UNL     1      96.563  48.270 267.674  1.00  0.00     0.172 C 
HETATM   35  O7  UNL     1      97.300  48.799 268.529  1.00  0.00    -0.648 OA
HETATM   36  O8  UNL     1      97.161  47.468 266.699  1.00  0.00    -0.648 OA
ENDBRANCH  33  34
ENDBRANCH  32  33
ENDBRANCH  30  32
ENDBRANCH  29  30
ENDBRANCH  22  29
TORSDOF 7
ENDMDL
MODEL 4
REMARK VINA RESULT: -7.105256783      3.056      4.097
REMARK  7 active torsions:
REMARK  status: ('A' for Active; 'I' for Inactive)
REMARK    1  A    between atoms: C2_2  and  C4_4 
REMARK    2  A    between atoms: C21_25  and  O5_26 
REMARK    3  A    between atoms: O5_26  and  C22_27 
REMARK    4  A    between atoms: C22_27  and  C23_29 
REMARK    5  A    between atoms: C23_29  and  C24_30 
REMARK    6  A    between atoms: C24_30  and  C25_31 
REMARK    7  A    between atoms: C26_34  and  O9_35 
ROOT
HETATM    1  C4  UNL     1      89.465  46.552 264.343  1.00  0.00     0.000 C 
HETATM    2  C5  UNL     1      89.484  45.050 264.339  1.00  0.00     0.018 C 
HETATM    3  C6  UNL     1      88.922  44.607 265.651  1.00  0.00     0.075 C 
HETATM    4  C7  UNL     1      88.089  45.765 266.188  1.00  0.00     0.234 C 
HETATM    5  O1  UNL     1      86.780  45.540 265.762  1.00  0.00    -0.194 OA
HETATM    6  O2  UNL     1      86.070  46.562 266.212  1.00  0.00    -0.194 OA
HETATM    7  C8  UNL     1      85.989  46.419 267.581  1.00  0.00     0.234 C 
HETATM    8  C9  UNL     1      85.384  47.704 268.165  1.00  0.00     0.079 C 
HETATM    9  C10 UNL     1      83.899  47.634 268.284  1.00  0.00    -0.009 C 
HETATM   10  C11 UNL     1      83.420  47.001 269.566  1.00  0.00     0.009 C 
HETATM   11  C12 UNL     1      83.412  45.508 269.532  1.00  0.00    -0.013 C 
HETATM   12  C13 UNL     1      82.733  44.950 268.286  1.00  0.00     0.010 C 
HETATM   13  C14 UNL     1      83.695  45.468 267.206  1.00  0.00    -0.004 C 
HETATM   14  C15 UNL     1      83.346  46.956 267.064  1.00  0.00     0.010 C 
HETATM   15  C16 UNL     1      85.027  45.252 267.836  1.00  0.00     0.058 C 
HETATM   16  C17 UNL     1      84.841  45.044 269.304  1.00  0.00     0.015 C 
HETATM   17  O3  UNL     1      87.178  46.219 268.209  1.00  0.00    -0.194 OA
HETATM   18  O4  UNL     1      88.144  45.722 267.547  1.00  0.00    -0.194 OA
HETATM   19  C18 UNL     1      88.715  46.973 265.566  1.00  0.00     0.065 C 
HETATM   20  C19 UNL     1      89.553  47.760 266.540  1.00  0.00     0.014 C 
HETATM   21  C20 UNL     1      90.847  47.050 266.848  1.00  0.00     0.036 C 
HETATM   22  C21 UNL     1      91.609  46.654 265.609  1.00  0.00     0.161 C 
HETATM   23  C26 UNL     1      90.905  47.024 264.336  1.00  0.00     0.157 C 
ENDROOT
BRANCH   1  24
HETATM   24  C2  UNL     1      88.860  47.110 263.058  1.00  0.00    -0.011 C 
HETATM   25  C1  UNL     1      89.783  46.740 261.920  1.00  0.00     0.010 C 
HETATM   26  C3  UNL     1      87.497  46.591 262.772  1.00  0.00     0.010 C 
ENDBRANCH   1  24
BRANCH  23  27
HETATM   27  O9  UNL     1      90.920  48.369 264.055  1.00  0.00    -0.392 OA
ATOM     28  H9  UNL     1      91.322  48.824 264.786  1.00  0.00     0.210 HD
ENDBRANCH  23  27
BRANCH  22  29
HETATM   29  O5  UNL     1      92.892  47.166 265.718  1.00  0.00    -0.313 OA
BRANCH  29  30
HETATM   30  C22 UNL     1      93.307  48.111 266.648  1.00  0.00     0.259 C 
HETATM   31  O6  UNL     1      94.024  47.649 267.558  1.00  0.00    -0.265 OA
BRANCH  30  32
HETATM   32  C23 UNL     1      92.954  49.527 266.594  1.00  0.00     0.121 C 
BRANCH  32  33
HETATM   33  C24 UNL     1      92.995  50.124 267.971  1.00  0.00     0.123 C 
BRANCH  33  34
HETATM   34  C25 UNL     1      94.135  51.028 268.214  1.00  0.00     0.172 C 
HETATM   35  O7  UNL     1      95.043  51.134 267.367  1.00  0.00    -0.648 OA
HETATM   36  O8  UNL     1      94.238  51.785 269.383  1.00  0.00    -0.648 OA
ENDBRANCH  33  34
ENDBRANCH  32  33
ENDBRANCH  30  32
ENDBRANCH  29  30
ENDBRANCH  22  29
TORSDOF 7
ENDMDL
MODEL 5
REMARK VINA RESULT: -6.886954910      3.071      4.224
REMARK  7 active torsions:
REMARK  status: ('A' for Active; 'I' for Inactive)
REMARK    1  A    between atoms: C2_2  and  C4_4 
REMARK    2  A    between atoms: C21_25  and  O5_26 
REMARK    3  A    between atoms: O5_26  and  C22_27 
REMARK    4  A    between atoms: C22_27  and  C23_29 
REMARK    5  A    between atoms: C23_29  and  C24_30 
REMARK    6  A    between atoms: C24_30  and  C25_31 
REMARK    7  A    between atoms: C26_34  and  O9_35 
ROOT
HETATM    1  C4  UNL     1      88.286  45.543 267.178  1.00  0.00     0.000 C 
HETATM    2  C5  UNL     1      88.110  44.177 266.577  1.00  0.00     0.018 C 
HETATM    3  C6  UNL     1      89.239  43.337 267.078  1.00  0.00     0.075 C 
HETATM    4  C7  UNL     1      89.750  43.997 268.353  1.00  0.00     0.234 C 
HETATM    5  O1  UNL     1      89.072  43.388 269.411  1.00  0.00    -0.194 OA
HETATM    6  O2  UNL     1      89.503  43.984 270.510  1.00  0.00    -0.194 OA
HETATM    7  C8  UNL     1      90.810  43.583 270.695  1.00  0.00     0.234 C 
HETATM    8  C9  UNL     1      91.421  44.434 271.818  1.00  0.00     0.079 C 
HETATM    9  C10 UNL     1      91.263  43.807 273.162  1.00  0.00    -0.009 C 
HETATM   10  C11 UNL     1      92.355  42.828 273.510  1.00  0.00     0.009 C 
HETATM   11  C12 UNL     1      92.146  41.466 272.934  1.00  0.00    -0.013 C 
HETATM   12  C13 UNL     1      90.743  40.928 273.186  1.00  0.00     0.010 C 
HETATM   13  C14 UNL     1      89.921  41.942 272.377  1.00  0.00    -0.004 C 
HETATM   14  C15 UNL     1      89.893  43.201 273.256  1.00  0.00     0.010 C 
HETATM   15  C16 UNL     1      90.750  42.120 271.152  1.00  0.00     0.058 C 
HETATM   16  C17 UNL     1      92.126  41.604 271.420  1.00  0.00     0.015 C 
HETATM   17  O3  UNL     1      91.613  43.723 269.608  1.00  0.00    -0.194 OA
HETATM   18  O4  UNL     1      91.082  43.738 268.452  1.00  0.00    -0.194 OA
HETATM   19  C18 UNL     1      89.395  45.439 268.175  1.00  0.00     0.065 C 
HETATM   20  C19 UNL     1      90.589  46.292 267.833  1.00  0.00     0.014 C 
HETATM   21  C20 UNL     1      91.039  46.060 266.412  1.00  0.00     0.036 C 
HETATM   22  C21 UNL     1      89.919  46.195 265.413  1.00  0.00     0.161 C 
HETATM   23  C26 UNL     1      88.593  46.501 266.045  1.00  0.00     0.157 C 
ENDROOT
BRANCH   1  24
HETATM   24  C2  UNL     1      86.987  46.059 267.790  1.00  0.00    -0.011 C 
HETATM   25  C1  UNL     1      86.012  46.299 266.661  1.00  0.00     0.010 C 
HETATM   26  C3  UNL     1      86.382  45.119 268.770  1.00  0.00     0.010 C 
ENDBRANCH   1  24
BRANCH  23  27
HETATM   27  O9  UNL     1      88.478  47.785 266.518  1.00  0.00    -0.392 OA
ATOM     28  H9  UNL     1      87.704  47.835 267.067  1.00  0.00     0.210 HD
ENDBRANCH  23  27
BRANCH  22  29
HETATM   29  O5  UNL     1      90.315  47.112 264.452  1.00  0.00    -0.313 OA
BRANCH  29  30
HETATM   30  C22 UNL     1      90.178  46.951 263.078  1.00  0.00     0.259 C 
HETATM   31  O6  UNL     1      89.009  47.083 262.665  1.00  0.00    -0.265 OA
BRANCH  30  32
HETATM   32  C23 UNL     1      91.284  46.654 262.172  1.00  0.00     0.121 C 
BRANCH  32  33
HETATM   33  C24 UNL     1      91.085  47.363 260.863  1.00  0.00     0.123 C 
BRANCH  33  34
HETATM   34  C25 UNL     1      92.246  47.309 259.954  1.00  0.00     0.172 C 
HETATM   35  O7  UNL     1      93.316  46.794 260.333  1.00  0.00    -0.648 OA
HETATM   36  O8  UNL     1      92.191  47.826 258.658  1.00  0.00    -0.648 OA
ENDBRANCH  33  34
ENDBRANCH  32  33
ENDBRANCH  30  32
ENDBRANCH  29  30
ENDBRANCH  22  29
TORSDOF 7
ENDMDL
