MODEL 1
REMARK VINA RESULT: -9.086210657      0.000      0.000
REMARK  3 active torsions:
REMARK  status: ('A' for Active; 'I' for Inactive)
REMARK    1  A    between atoms: C6_9  and  N3_10 
REMARK    2  A    between atoms: N3_10  and  C7_12 
REMARK    3  A    between atoms: C10_19  and  C11_20 
ROOT
HETATM    1  N1  UNL     1       8.380  21.954  30.603  1.00  0.00    -0.191 NA
HETATM    2  C1  UNL     1       8.564  22.797  31.358  1.00  0.00     0.101 C 
HETATM    3  C2  UNL     1       8.777  23.858  32.302  1.00  0.00     0.060 A 
HETATM    4  C3  UNL     1       7.691  24.388  32.974  1.00  0.00     0.028 A 
HETATM    5  C4  UNL     1       7.838  25.408  33.890  1.00  0.00     0.051 A 
HETATM    6  C5  UNL     1       9.095  25.904  34.136  1.00  0.00     0.112 A 
HETATM    7  N2  UNL     1       9.268  26.916  35.038  1.00  0.00    -0.327 N 
ATOM      8  H2  UNL     1       8.450  27.289  35.520  1.00  0.00     0.169 HD
HETATM    9  C6  UNL     1      10.471  27.439  35.314  1.00  0.00     0.120 A 
HETATM   10  C10 UNL     1      11.592  26.930  34.658  1.00  0.00     0.037 A 
HETATM   11  C17 UNL     1      11.362  25.894  33.744  1.00  0.00     0.114 A 
HETATM   12  N9  UNL     1      10.155  25.388  33.483  1.00  0.00    -0.317 N 
HETATM   13  C18 UNL     1      10.017  24.389  32.584  1.00  0.00     0.120 A 
ENDROOT
BRANCH  10  14
HETATM   14  C11 UNL     1      12.918  27.376  34.839  1.00  0.00     0.011 A 
HETATM   15  C12 UNL     1      13.491  28.453  34.206  1.00  0.00     0.032 A 
HETATM   16  C13 UNL     1      14.798  28.797  34.453  1.00  0.00     0.090 A 
HETATM   17  N6  UNL     1      15.559  28.081  35.330  1.00  0.00    -0.350 N 
HETATM   18  C14 UNL     1      15.044  27.013  35.977  1.00  0.00     0.134 A 
ATOM     19  H6  UNL     1      16.527  28.354  35.499  1.00  0.00     0.166 HD
HETATM   20  N7  UNL     1      15.574  26.152  36.880  1.00  0.00    -0.337 N 
HETATM   21  C16 UNL     1      13.728  26.656  35.738  1.00  0.00     0.089 A 
HETATM   22  C15 UNL     1      14.622  25.267  37.210  1.00  0.00     0.182 A 
ATOM     23  H7  UNL     1      16.526  26.173  37.244  1.00  0.00     0.168 HD
HETATM   24  N8  UNL     1      13.514  25.578  36.518  1.00  0.00    -0.349 N 
ATOM     25  H8  UNL     1      12.632  25.068  36.575  1.00  0.00     0.167 HD
ENDBRANCH  10  14
BRANCH   9  26
HETATM   26  N3  UNL     1      10.707  28.367  36.132  1.00  0.00    -0.339 N 
ATOM     27  H3  UNL     1      10.434  29.296  35.811  1.00  0.00     0.167 HD
BRANCH  26  28
HETATM   28  C7  UNL     1      11.278  28.337  37.404  1.00  0.00     0.067 A 
HETATM   29  C8  UNL     1      11.463  27.246  38.229  1.00  0.00     0.138 A 
HETATM   30  N4  UNL     1      12.054  27.645  39.380  1.00  0.00    -0.310 N 
HETATM   31  N5  UNL     1      12.252  28.971  39.312  1.00  0.00    -0.310 N 
ATOM     32  H4  UNL     1      12.306  27.042  40.163  1.00  0.00     0.186 HD
HETATM   33  C9  UNL     1      11.783  29.398  38.115  1.00  0.00     0.138 A 
ATOM     34  H5  UNL     1      12.679  29.553  40.032  1.00  0.00     0.186 HD
ENDBRANCH  26  28
ENDBRANCH   9  26
TORSDOF 3
ENDMDL
MODEL 2
REMARK VINA RESULT: -8.806881336      2.503      6.960
REMARK  3 active torsions:
REMARK  status: ('A' for Active; 'I' for Inactive)
REMARK    1  A    between atoms: C6_9  and  N3_10 
REMARK    2  A    between atoms: N3_10  and  C7_12 
REMARK    3  A    between atoms: C10_19  and  C11_20 
ROOT
HETATM    1  N1  UNL     1      17.124  26.809  37.334  1.00  0.00    -0.191 NA
HETATM    2  C1  UNL     1      16.066  26.908  36.905  1.00  0.00     0.101 C 
HETATM    3  C2  UNL     1      14.743  27.051  36.365  1.00  0.00     0.060 A 
HETATM    4  C3  UNL     1      14.469  28.117  35.529  1.00  0.00     0.028 A 
HETATM    5  C4  UNL     1      13.217  28.303  34.984  1.00  0.00     0.051 A 
HETATM    6  C5  UNL     1      12.222  27.404  35.283  1.00  0.00     0.112 A 
HETATM    7  N2  UNL     1      10.971  27.566  34.758  1.00  0.00    -0.327 N 
ATOM      8  H2  UNL     1      10.796  28.361  34.143  1.00  0.00     0.169 HD
HETATM    9  C6  UNL     1       9.964  26.721  35.018  1.00  0.00     0.120 A 
HETATM   10  C10 UNL     1      10.201  25.631  35.856  1.00  0.00     0.037 A 
HETATM   11  C17 UNL     1      11.498  25.509  36.368  1.00  0.00     0.114 A 
HETATM   12  N9  UNL     1      12.487  26.363  36.097  1.00  0.00    -0.317 N 
HETATM   13  C18 UNL     1      13.712  26.177  36.634  1.00  0.00     0.120 A 
ENDROOT
BRANCH  10  14
HETATM   14  C11 UNL     1       9.245  24.660  36.225  1.00  0.00     0.011 A 
HETATM   15  C12 UNL     1       8.257  24.830  37.164  1.00  0.00     0.032 A 
HETATM   16  C13 UNL     1       7.380  23.812  37.451  1.00  0.00     0.090 A 
HETATM   17  N6  UNL     1       7.467  22.609  36.812  1.00  0.00    -0.350 N 
HETATM   18  C14 UNL     1       8.421  22.390  35.881  1.00  0.00     0.134 A 
ATOM     19  H6  UNL     1       6.805  21.867  37.040  1.00  0.00     0.166 HD
HETATM   20  N7  UNL     1       8.718  21.312  35.116  1.00  0.00    -0.337 N 
HETATM   21  C16 UNL     1       9.311  23.409  35.582  1.00  0.00     0.089 A 
HETATM   22  C15 UNL     1       9.770  21.631  34.348  1.00  0.00     0.182 A 
ATOM     23  H7  UNL     1       8.228  20.417  35.123  1.00  0.00     0.168 HD
HETATM   24  N8  UNL     1      10.120  22.895  34.635  1.00  0.00    -0.349 N 
ATOM     25  H8  UNL     1      10.892  23.397  34.196  1.00  0.00     0.167 HD
ENDBRANCH  10  14
BRANCH   9  26
HETATM   26  N3  UNL     1       8.790  26.804  34.569  1.00  0.00    -0.339 N 
ATOM     27  H3  UNL     1       8.212  27.512  35.020  1.00  0.00     0.167 HD
BRANCH  26  28
HETATM   28  C7  UNL     1       8.149  26.090  33.557  1.00  0.00     0.067 A 
HETATM   29  C8  UNL     1       6.903  25.497  33.591  1.00  0.00     0.138 A 
HETATM   30  N4  UNL     1       6.652  24.903  32.400  1.00  0.00    -0.310 N 
HETATM   31  N5  UNL     1       7.714  25.100  31.602  1.00  0.00    -0.310 N 
ATOM     32  H4  UNL     1       5.805  24.393  32.153  1.00  0.00     0.186 HD
HETATM   33  C9  UNL     1       8.626  25.820  32.298  1.00  0.00     0.138 A 
ATOM     34  H5  UNL     1       7.815  24.768  30.643  1.00  0.00     0.186 HD
ENDBRANCH  26  28
ENDBRANCH   9  26
TORSDOF 3
ENDMDL
MODEL 3
REMARK VINA RESULT: -8.279009237      2.378      6.460
REMARK  3 active torsions:
REMARK  status: ('A' for Active; 'I' for Inactive)
REMARK    1  A    between atoms: C6_9  and  N3_10 
REMARK    2  A    between atoms: N3_10  and  C7_12 
REMARK    3  A    between atoms: C10_19  and  C11_20 
ROOT
HETATM    1  N1  UNL     1      15.858  29.412  34.323  1.00  0.00    -0.191 NA
HETATM    2  C1  UNL     1      14.864  28.905  34.585  1.00  0.00     0.101 C 
HETATM    3  C2  UNL     1      13.622  28.271  34.930  1.00  0.00     0.060 A 
HETATM    4  C3  UNL     1      13.051  28.537  36.161  1.00  0.00     0.028 A 
HETATM    5  C4  UNL     1      11.862  27.956  36.544  1.00  0.00     0.051 A 
HETATM    6  C5  UNL     1      11.233  27.094  35.677  1.00  0.00     0.112 A 
HETATM    7  N2  UNL     1      10.054  26.503  36.033  1.00  0.00    -0.327 N 
ATOM      8  H2  UNL     1       9.654  26.716  36.947  1.00  0.00     0.169 HD
HETATM    9  C6  UNL     1       9.401  25.653  35.228  1.00  0.00     0.120 A 
HETATM   10  C10 UNL     1       9.944  25.361  33.977  1.00  0.00     0.037 A 
HETATM   11  C17 UNL     1      11.153  25.991  33.660  1.00  0.00     0.114 A 
HETATM   12  N9  UNL     1      11.788  26.834  34.477  1.00  0.00    -0.317 N 
HETATM   13  C18 UNL     1      12.954  27.401  34.096  1.00  0.00     0.120 A 
ENDROOT
BRANCH  10  14
HETATM   14  C11 UNL     1       9.378  24.488  33.024  1.00  0.00     0.011 A 
HETATM   15  C12 UNL     1       8.265  24.751  32.261  1.00  0.00     0.032 A 
HETATM   16  C13 UNL     1       7.794  23.823  31.364  1.00  0.00     0.090 A 
HETATM   17  N6  UNL     1       8.418  22.619  31.208  1.00  0.00    -0.350 N 
HETATM   18  C14 UNL     1       9.514  22.310  31.934  1.00  0.00     0.134 A 
ATOM     19  H6  UNL     1       8.052  21.945  30.535  1.00  0.00     0.166 HD
HETATM   20  N7  UNL     1      10.304  21.210  31.968  1.00  0.00    -0.337 N 
HETATM   21  C16 UNL     1       9.999  23.237  32.841  1.00  0.00     0.089 A 
HETATM   22  C15 UNL     1      11.270  21.426  32.873  1.00  0.00     0.182 A 
ATOM     23  H7  UNL     1      10.186  20.367  31.406  1.00  0.00     0.168 HD
HETATM   24  N8  UNL     1      11.079  22.649  33.394  1.00  0.00    -0.349 N 
ATOM     25  H8  UNL     1      11.669  23.074  34.109  1.00  0.00     0.167 HD
ENDBRANCH  10  14
BRANCH   9  26
HETATM   26  N3  UNL     1       8.312  25.075  35.486  1.00  0.00    -0.339 N 
ATOM     27  H3  UNL     1       7.542  25.323  34.864  1.00  0.00     0.167 HD
BRANCH  26  28
HETATM   28  C7  UNL     1       7.982  24.153  36.479  1.00  0.00     0.067 A 
HETATM   29  C8  UNL     1       8.140  22.782  36.454  1.00  0.00     0.138 A 
HETATM   30  N4  UNL     1       7.695  22.255  37.620  1.00  0.00    -0.310 N 
HETATM   31  N5  UNL     1       7.253  23.261  38.393  1.00  0.00    -0.310 N 
ATOM     32  H4  UNL     1       7.694  21.266  37.867  1.00  0.00     0.186 HD
HETATM   33  C9  UNL     1       7.425  24.415  37.707  1.00  0.00     0.138 A 
ATOM     34  H5  UNL     1       6.860  23.171  39.329  1.00  0.00     0.186 HD
ENDBRANCH  26  28
ENDBRANCH   9  26
TORSDOF 3
ENDMDL
MODEL 4
REMARK VINA RESULT: -8.174638315      2.393      6.741
REMARK  3 active torsions:
REMARK  status: ('A' for Active; 'I' for Inactive)
REMARK    1  A    between atoms: C6_9  and  N3_10 
REMARK    2  A    between atoms: N3_10  and  C7_12 
REMARK    3  A    between atoms: C10_19  and  C11_20 
ROOT
HETATM    1  N1  UNL     1      15.641  29.470  34.351  1.00  0.00    -0.191 NA
HETATM    2  C1  UNL     1      14.852  28.710  34.687  1.00  0.00     0.101 C 
HETATM    3  C2  UNL     1      13.875  27.751  35.122  1.00  0.00     0.060 A 
HETATM    4  C3  UNL     1      13.911  27.300  36.428  1.00  0.00     0.028 A 
HETATM    5  C4  UNL     1      12.998  26.380  36.898  1.00  0.00     0.051 A 
HETATM    6  C5  UNL     1      12.033  25.905  36.043  1.00  0.00     0.112 A 
HETATM    7  N2  UNL     1      11.117  24.991  36.483  1.00  0.00    -0.327 N 
ATOM      8  H2  UNL     1      11.166  24.675  37.451  1.00  0.00     0.169 HD
HETATM    9  C6  UNL     1      10.157  24.493  35.691  1.00  0.00     0.120 A 
HETATM   10  C10 UNL     1      10.086  24.925  34.367  1.00  0.00     0.037 A 
HETATM   11  C17 UNL     1      11.046  25.862  33.965  1.00  0.00     0.114 A 
HETATM   12  N9  UNL     1      11.995  26.344  34.769  1.00  0.00    -0.317 N 
HETATM   13  C18 UNL     1      12.888  27.245  34.304  1.00  0.00     0.120 A 
ENDROOT
BRANCH  10  14
HETATM   14  C11 UNL     1       9.139  24.493  33.415  1.00  0.00     0.011 A 
HETATM   15  C12 UNL     1       7.883  25.022  33.241  1.00  0.00     0.032 A 
HETATM   16  C13 UNL     1       7.035  24.518  32.284  1.00  0.00     0.090 A 
HETATM   17  N6  UNL     1       7.418  23.482  31.484  1.00  0.00    -0.350 N 
HETATM   18  C14 UNL     1       8.642  22.925  31.614  1.00  0.00     0.134 A 
ATOM     19  H6  UNL     1       6.773  23.124  30.779  1.00  0.00     0.166 HD
HETATM   20  N7  UNL     1       9.255  21.910  30.959  1.00  0.00    -0.337 N 
HETATM   21  C16 UNL     1       9.505  23.424  32.575  1.00  0.00     0.089 A 
HETATM   22  C15 UNL     1      10.480  21.763  31.485  1.00  0.00     0.182 A 
ATOM     23  H7  UNL     1       8.857  21.357  30.200  1.00  0.00     0.168 HD
HETATM   24  N8  UNL     1      10.622  22.678  32.457  1.00  0.00    -0.349 N 
ATOM     25  H8  UNL     1      11.460  22.794  33.028  1.00  0.00     0.167 HD
ENDBRANCH  10  14
BRANCH   9  26
HETATM   26  N3  UNL     1       9.279  23.654  36.027  1.00  0.00    -0.339 N 
ATOM     27  H3  UNL     1       9.452  22.704  35.697  1.00  0.00     0.167 HD
BRANCH  26  28
HETATM   28  C7  UNL     1       8.112  23.805  36.774  1.00  0.00     0.067 A 
HETATM   29  C8  UNL     1       7.378  24.955  36.982  1.00  0.00     0.138 A 
HETATM   30  N4  UNL     1       6.311  24.674  37.768  1.00  0.00    -0.310 N 
HETATM   31  N5  UNL     1       6.346  23.366  38.070  1.00  0.00    -0.310 N 
ATOM     32  H4  UNL     1       5.604  25.340  38.078  1.00  0.00     0.186 HD
HETATM   33  C9  UNL     1       7.437  22.832  37.470  1.00  0.00     0.138 A 
ATOM     34  H5  UNL     1       5.672  22.864  38.647  1.00  0.00     0.186 HD
ENDBRANCH  26  28
ENDBRANCH   9  26
TORSDOF 3
ENDMDL
MODEL 5
REMARK VINA RESULT: -8.122155967      2.070      6.330
REMARK  3 active torsions:
REMARK  status: ('A' for Active; 'I' for Inactive)
REMARK    1  A    between atoms: C6_9  and  N3_10 
REMARK    2  A    between atoms: N3_10  and  C7_12 
REMARK    3  A    between atoms: C10_19  and  C11_20 
ROOT
HETATM    1  N1  UNL     1      19.191  26.346  36.256  1.00  0.00    -0.191 NA
HETATM    2  C1  UNL     1      18.075  26.467  36.486  1.00  0.00     0.101 C 
HETATM    3  C2  UNL     1      16.679  26.613  36.791  1.00  0.00     0.060 A 
HETATM    4  C3  UNL     1      16.288  26.731  38.112  1.00  0.00     0.028 A 
HETATM    5  C4  UNL     1      14.962  26.871  38.461  1.00  0.00     0.051 A 
HETATM    6  C5  UNL     1      14.012  26.894  37.469  1.00  0.00     0.112 A 
HETATM    7  N2  UNL     1      12.691  27.030  37.788  1.00  0.00    -0.327 N 
ATOM      8  H2  UNL     1      12.430  27.116  38.771  1.00  0.00     0.169 HD
HETATM    9  C6  UNL     1      11.723  27.056  36.861  1.00  0.00     0.120 A 
HETATM   10  C10 UNL     1      12.077  26.942  35.517  1.00  0.00     0.037 A 
HETATM   11  C17 UNL     1      13.443  26.804  35.242  1.00  0.00     0.114 A 
HETATM   12  N9  UNL     1      14.391  26.780  36.181  1.00  0.00    -0.317 N 
HETATM   13  C18 UNL     1      15.689  26.642  35.833  1.00  0.00     0.120 A 
ENDROOT
BRANCH  10  14
HETATM   14  C11 UNL     1      11.177  26.949  34.431  1.00  0.00     0.011 A 
HETATM   15  C12 UNL     1      10.623  28.069  33.860  1.00  0.00     0.032 A 
HETATM   16  C13 UNL     1       9.748  27.960  32.806  1.00  0.00     0.090 A 
HETATM   17  N6  UNL     1       9.409  26.740  32.299  1.00  0.00    -0.350 N 
HETATM   18  C14 UNL     1       9.924  25.607  32.825  1.00  0.00     0.134 A 
ATOM     19  H6  UNL     1       8.758  26.682  31.515  1.00  0.00     0.166 HD
HETATM   20  N7  UNL     1       9.755  24.299  32.513  1.00  0.00    -0.337 N 
HETATM   21  C16 UNL     1      10.807  25.703  33.887  1.00  0.00     0.089 A 
HETATM   22  C15 UNL     1      10.510  23.576  33.354  1.00  0.00     0.182 A 
ATOM     23  H7  UNL     1       9.160  23.930  31.771  1.00  0.00     0.168 HD
HETATM   24  N8  UNL     1      11.140  24.430  34.178  1.00  0.00    -0.349 N 
ATOM     25  H8  UNL     1      11.782  24.153  34.920  1.00  0.00     0.167 HD
ENDBRANCH  10  14
BRANCH   9  26
HETATM   26  N3  UNL     1      10.489  27.182  37.080  1.00  0.00    -0.339 N 
ATOM     27  H3  UNL     1      10.203  28.116  37.373  1.00  0.00     0.167 HD
BRANCH  26  28
HETATM   28  C7  UNL     1       9.448  26.258  36.987  1.00  0.00     0.067 A 
HETATM   29  C8  UNL     1       8.137  26.487  36.623  1.00  0.00     0.138 A 
HETATM   30  N4  UNL     1       7.449  25.321  36.659  1.00  0.00    -0.310 N 
HETATM   31  N5  UNL     1       8.292  24.348  37.040  1.00  0.00    -0.310 N 
ATOM     32  H4  UNL     1       6.461  25.202  36.435  1.00  0.00     0.186 HD
HETATM   33  C9  UNL     1       9.507  24.910  37.241  1.00  0.00     0.138 A 
ATOM     34  H5  UNL     1       8.058  23.362  37.157  1.00  0.00     0.186 HD
ENDBRANCH  26  28
ENDBRANCH   9  26
TORSDOF 3
ENDMDL
