MODEL 1
REMARK VINA RESULT: -7.427094379      0.000      0.000
REMARK  6 active torsions:
REMARK  status: ('A' for Active; 'I' for Inactive)
REMARK    1  A    between atoms: C2_2  and  O1_5 
REMARK    2  A    between atoms: O1_5  and  C5_6 
REMARK       I    between atoms: C5_6  and  N1_8 
REMARK       I    between atoms: N2_10  and  C6_12 
REMARK    3  A    between atoms: C6_12  and  C7_14 
REMARK    4  A    between atoms: C7_14  and  O4_15 
REMARK    5  A    between atoms: O4_15  and  C8_16 
REMARK    6  A    between atoms: C8_16  and  C9_18 
ROOT
HETATM    1  O4  UNL     1      13.457   7.851 -10.161  1.00  0.00    -0.308 OA
ENDROOT
BRANCH   1   2
HETATM    2  C7  UNL     1      12.900   8.855  -9.372  1.00  0.00     0.283 C 
BRANCH   2   3
HETATM    3  C6  UNL     1      12.059   9.831 -10.112  1.00  0.00     0.260 C 
HETATM    4  N2  UNL     1      12.110  11.214  -9.805  1.00  0.00    -0.264 N 
HETATM    5  N1  UNL     1      11.169  12.027  -9.837  1.00  0.00    -0.243 N 
ATOM      6  H2  UNL     1      13.020  11.584  -9.528  1.00  0.00     0.190 HD
HETATM    7  C5  UNL     1       9.845  11.693 -10.197  1.00  0.00     0.380 C 
ATOM      8  H1  UNL     1      11.366  12.996  -9.588  1.00  0.00     0.192 HD
HETATM    9  O2  UNL     1       9.195  12.289 -11.082  1.00  0.00    -0.237 OA
HETATM   10  O3  UNL     1      11.315   9.340 -11.012  1.00  0.00    -0.269 OA
BRANCH   7  11
HETATM   11  O1  UNL     1       9.223  10.647  -9.536  1.00  0.00    -0.293 OA
BRANCH  11  12
HETATM   12  C2  UNL     1       8.362  10.785  -8.442  1.00  0.00     0.061 C 
HETATM   13  C1  UNL     1       6.920  10.982  -8.808  1.00  0.00     0.046 C 
HETATM   14  C3  UNL     1       8.438   9.475  -7.654  1.00  0.00     0.046 C 
HETATM   15  C4  UNL     1       8.832  11.867  -7.489  1.00  0.00     0.046 C 
ENDBRANCH  11  12
ENDBRANCH   7  11
ENDBRANCH   2   3
ENDBRANCH   1   2
BRANCH   1  16
HETATM   16  C8  UNL     1      14.538   7.991 -11.012  1.00  0.00     0.295 C 
HETATM   17  O5  UNL     1      14.448   7.444 -12.142  1.00  0.00    -0.259 OA
BRANCH  16  18
HETATM   18  C9  UNL     1      15.749   8.716 -10.687  1.00  0.00     0.063 A 
HETATM   19  C10 UNL     1      16.760   8.217  -9.895  1.00  0.00     0.020 A 
HETATM   20  C11 UNL     1      17.898   8.935  -9.604  1.00  0.00     0.015 A 
HETATM   21  C12 UNL     1      18.045  10.197 -10.112  1.00  0.00    -0.008 A 
HETATM   22  C13 UNL     1      19.191  10.904  -9.810  1.00  0.00     0.017 A 
HETATM   23  C16 UNL     1      17.058  10.731 -10.907  1.00  0.00     0.066 A 
HETATM   24  C14 UNL     1      19.336  12.182 -10.327  1.00  0.00     0.042 A 
HETATM   25  C15 UNL     1      18.304  12.663 -11.121  1.00  0.00     0.101 A 
HETATM   26  S1  UNL     1      18.463  14.170 -11.736  1.00  0.00    -0.060 SA
HETATM   27  N3  UNL     1      17.210  11.961 -11.398  1.00  0.00    -0.345 N 
ATOM     28  H3  UNL     1      16.483  12.366 -11.989  1.00  0.00     0.167 HD
HETATM   29  C17 UNL     1      15.937   9.989 -11.178  1.00  0.00     0.077 A 
HETATM   30 CL1  UNL     1      14.718  10.732 -12.201  1.00  0.00    -0.081 Cl
ENDBRANCH  16  18
ENDBRANCH   1  16
TORSDOF 6
ENDMDL
MODEL 2
REMARK VINA RESULT: -7.238109643      7.760     10.111
REMARK  6 active torsions:
REMARK  status: ('A' for Active; 'I' for Inactive)
REMARK    1  A    between atoms: C2_2  and  O1_5 
REMARK    2  A    between atoms: O1_5  and  C5_6 
REMARK       I    between atoms: C5_6  and  N1_8 
REMARK       I    between atoms: N2_10  and  C6_12 
REMARK    3  A    between atoms: C6_12  and  C7_14 
REMARK    4  A    between atoms: C7_14  and  O4_15 
REMARK    5  A    between atoms: O4_15  and  C8_16 
REMARK    6  A    between atoms: C8_16  and  C9_18 
ROOT
HETATM    1  O4  UNL     1      22.503  10.186 -12.917  1.00  0.00    -0.308 OA
ENDROOT
BRANCH   1   2
HETATM    2  C7  UNL     1      23.123  10.951 -13.902  1.00  0.00     0.283 C 
BRANCH   2   3
HETATM    3  C6  UNL     1      23.705  12.231 -13.418  1.00  0.00     0.260 C 
HETATM    4  N2  UNL     1      23.764  12.523 -12.032  1.00  0.00    -0.264 N 
HETATM    5  N1  UNL     1      23.632  13.636 -11.491  1.00  0.00    -0.243 N 
ATOM      6  H2  UNL     1      23.933  11.733 -11.408  1.00  0.00     0.190 HD
HETATM    7  C5  UNL     1      23.392  14.835 -12.196  1.00  0.00     0.380 C 
ATOM      8  H1  UNL     1      23.702  13.685 -10.475  1.00  0.00     0.192 HD
HETATM    9  O2  UNL     1      24.086  15.866 -12.069  1.00  0.00    -0.237 OA
HETATM   10  O3  UNL     1      24.129  13.014 -14.318  1.00  0.00    -0.269 OA
BRANCH   7  11
HETATM   11  O1  UNL     1      22.328  14.883 -13.082  1.00  0.00    -0.293 OA
BRANCH  11  12
HETATM   12  C2  UNL     1      20.978  14.915 -12.716  1.00  0.00     0.061 C 
HETATM   13  C1  UNL     1      20.738  15.073 -11.243  1.00  0.00     0.046 C 
HETATM   14  C3  UNL     1      20.368  16.146 -13.391  1.00  0.00     0.046 C 
HETATM   15  C4  UNL     1      20.216  13.724 -13.264  1.00  0.00     0.046 C 
ENDBRANCH  11  12
ENDBRANCH   7  11
ENDBRANCH   2   3
ENDBRANCH   1   2
BRANCH   1  16
HETATM   16  C8  UNL     1      21.145  10.137 -12.659  1.00  0.00     0.295 C 
HETATM   17  O5  UNL     1      20.375  10.156 -13.654  1.00  0.00    -0.259 OA
BRANCH  16  18
HETATM   18  C9  UNL     1      20.564  10.066 -11.334  1.00  0.00     0.063 A 
HETATM   19  C10 UNL     1      19.605  10.936 -10.863  1.00  0.00     0.020 A 
HETATM   20  C11 UNL     1      19.075  10.841  -9.596  1.00  0.00     0.015 A 
HETATM   21  C12 UNL     1      19.509   9.850  -8.758  1.00  0.00    -0.008 A 
HETATM   22  C13 UNL     1      18.969   9.768  -7.491  1.00  0.00     0.017 A 
HETATM   23  C16 UNL     1      20.465   8.961  -9.191  1.00  0.00     0.066 A 
HETATM   24  C14 UNL     1      19.411   8.763  -6.645  1.00  0.00     0.042 A 
HETATM   25  C15 UNL     1      20.377   7.900  -7.143  1.00  0.00     0.101 A 
HETATM   26  S1  UNL     1      20.908   6.710  -6.154  1.00  0.00    -0.060 SA
HETATM   27  N3  UNL     1      20.882   7.998  -8.369  1.00  0.00    -0.345 N 
ATOM     28  H3  UNL     1      21.590   7.334  -8.681  1.00  0.00     0.167 HD
HETATM   29  C17 UNL     1      20.973   9.083 -10.460  1.00  0.00     0.077 A 
HETATM   30 CL1  UNL     1      22.189   7.914 -10.947  1.00  0.00    -0.081 Cl
ENDBRANCH  16  18
ENDBRANCH   1  16
TORSDOF 6
ENDMDL
MODEL 3
REMARK VINA RESULT: -7.225808807      5.463      9.917
REMARK  6 active torsions:
REMARK  status: ('A' for Active; 'I' for Inactive)
REMARK    1  A    between atoms: C2_2  and  O1_5 
REMARK    2  A    between atoms: O1_5  and  C5_6 
REMARK       I    between atoms: C5_6  and  N1_8 
REMARK       I    between atoms: N2_10  and  C6_12 
REMARK    3  A    between atoms: C6_12  and  C7_14 
REMARK    4  A    between atoms: C7_14  and  O4_15 
REMARK    5  A    between atoms: O4_15  and  C8_16 
REMARK    6  A    between atoms: C8_16  and  C9_18 
ROOT
HETATM    1  O4  UNL     1      20.910   9.866 -11.680  1.00  0.00    -0.308 OA
ENDROOT
BRANCH   1   2
HETATM    2  C7  UNL     1      20.983  10.096 -13.052  1.00  0.00     0.283 C 
BRANCH   2   3
HETATM    3  C6  UNL     1      22.212  10.802 -13.497  1.00  0.00     0.260 C 
HETATM    4  N2  UNL     1      23.313  10.967 -12.619  1.00  0.00    -0.264 N 
HETATM    5  N1  UNL     1      24.086  11.941 -12.555  1.00  0.00    -0.243 N 
ATOM      6  H2  UNL     1      23.492  10.202 -11.968  1.00  0.00     0.190 HD
HETATM    7  C5  UNL     1      23.988  13.085 -13.377  1.00  0.00     0.380 C 
ATOM      8  H1  UNL     1      24.837  11.910 -11.866  1.00  0.00     0.192 HD
HETATM    9  O2  UNL     1      24.934  13.533 -14.058  1.00  0.00    -0.237 OA
HETATM   10  O3  UNL     1      22.195  11.232 -14.688  1.00  0.00    -0.269 OA
BRANCH   7  11
HETATM   11  O1  UNL     1      22.777  13.755 -13.439  1.00  0.00    -0.293 OA
BRANCH  11  12
HETATM   12  C2  UNL     1      22.277  14.604 -12.446  1.00  0.00     0.061 C 
HETATM   13  C1  UNL     1      23.331  15.261 -11.603  1.00  0.00     0.046 C 
HETATM   14  C3  UNL     1      21.530  15.730 -13.165  1.00  0.00     0.046 C 
HETATM   15  C4  UNL     1      21.243  13.912 -11.579  1.00  0.00     0.046 C 
ENDBRANCH  11  12
ENDBRANCH   7  11
ENDBRANCH   2   3
ENDBRANCH   1   2
BRANCH   1  16
HETATM   16  C8  UNL     1      20.058  10.498 -10.793  1.00  0.00     0.295 C 
HETATM   17  O5  UNL     1      20.550  10.866  -9.694  1.00  0.00    -0.259 OA
BRANCH  16  18
HETATM   18  C9  UNL     1      18.656  10.759 -11.047  1.00  0.00     0.063 A 
HETATM   19  C10 UNL     1      18.192  11.786 -11.840  1.00  0.00     0.020 A 
HETATM   20  C11 UNL     1      16.852  12.008 -12.059  1.00  0.00     0.015 A 
HETATM   21  C12 UNL     1      15.930  11.184 -11.473  1.00  0.00    -0.008 A 
HETATM   22  C13 UNL     1      14.589  11.419 -11.701  1.00  0.00     0.017 A 
HETATM   23  C16 UNL     1      16.352  10.147 -10.674  1.00  0.00     0.066 A 
HETATM   24  C14 UNL     1      13.658  10.583 -11.104  1.00  0.00     0.042 A 
HETATM   25  C15 UNL     1      14.150   9.556 -10.310  1.00  0.00     0.101 A 
HETATM   26  S1  UNL     1      13.061   8.564  -9.600  1.00  0.00    -0.060 SA
HETATM   27  N3  UNL     1      15.447   9.350 -10.106  1.00  0.00    -0.345 N 
ATOM     28  H3  UNL     1      15.751   8.578  -9.512  1.00  0.00     0.167 HD
HETATM   29  C17 UNL     1      17.696   9.954 -10.476  1.00  0.00     0.077 A 
HETATM   30 CL1  UNL     1      18.164   8.611  -9.446  1.00  0.00    -0.081 Cl
ENDBRANCH  16  18
ENDBRANCH   1  16
TORSDOF 6
ENDMDL
MODEL 4
REMARK VINA RESULT: -7.159072295      5.472      9.305
REMARK  6 active torsions:
REMARK  status: ('A' for Active; 'I' for Inactive)
REMARK    1  A    between atoms: C2_2  and  O1_5 
REMARK    2  A    between atoms: O1_5  and  C5_6 
REMARK       I    between atoms: C5_6  and  N1_8 
REMARK       I    between atoms: N2_10  and  C6_12 
REMARK    3  A    between atoms: C6_12  and  C7_14 
REMARK    4  A    between atoms: C7_14  and  O4_15 
REMARK    5  A    between atoms: O4_15  and  C8_16 
REMARK    6  A    between atoms: C8_16  and  C9_18 
ROOT
HETATM    1  O4  UNL     1      20.866   9.729 -11.553  1.00  0.00    -0.308 OA
ENDROOT
BRANCH   1   2
HETATM    2  C7  UNL     1      21.293   9.972 -12.857  1.00  0.00     0.283 C 
BRANCH   2   3
HETATM    3  C6  UNL     1      22.039  11.245 -13.036  1.00  0.00     0.260 C 
HETATM    4  N2  UNL     1      23.311  11.432 -12.436  1.00  0.00    -0.264 N 
HETATM    5  N1  UNL     1      23.775  12.489 -11.972  1.00  0.00    -0.243 N 
ATOM      6  H2  UNL     1      23.911  10.609 -12.379  1.00  0.00     0.190 HD
HETATM    7  C5  UNL     1      23.086  13.722 -11.966  1.00  0.00     0.380 C 
ATOM      8  H1  UNL     1      24.713  12.464 -11.572  1.00  0.00     0.192 HD
HETATM    9  O2  UNL     1      23.557  14.782 -12.430  1.00  0.00    -0.237 OA
HETATM   10  O3  UNL     1      21.463  12.121 -13.746  1.00  0.00    -0.269 OA
BRANCH   7  11
HETATM   11  O1  UNL     1      21.816  13.769 -11.416  1.00  0.00    -0.293 OA
BRANCH  11  12
HETATM   12  C2  UNL     1      20.979  14.889 -11.422  1.00  0.00     0.061 C 
HETATM   13  C1  UNL     1      20.364  15.198 -12.756  1.00  0.00     0.046 C 
HETATM   14  C3  UNL     1      19.821  14.579 -10.469  1.00  0.00     0.046 C 
HETATM   15  C4  UNL     1      21.669  16.112 -10.847  1.00  0.00     0.046 C 
ENDBRANCH  11  12
ENDBRANCH   7  11
ENDBRANCH   2   3
ENDBRANCH   1   2
BRANCH   1  16
HETATM   16  C8  UNL     1      20.046  10.548 -10.799  1.00  0.00     0.295 C 
HETATM   17  O5  UNL     1      20.572  11.132  -9.816  1.00  0.00    -0.259 OA
BRANCH  16  18
HETATM   18  C9  UNL     1      18.640  10.772 -11.067  1.00  0.00     0.063 A 
HETATM   19  C10 UNL     1      18.160  11.765 -11.894  1.00  0.00     0.020 A 
HETATM   20  C11 UNL     1      16.816  11.951 -12.126  1.00  0.00     0.015 A 
HETATM   21  C12 UNL     1      15.908  11.128 -11.517  1.00  0.00    -0.008 A 
HETATM   22  C13 UNL     1      14.564  11.329 -11.758  1.00  0.00     0.017 A 
HETATM   23  C16 UNL     1      16.347  10.125 -10.685  1.00  0.00     0.066 A 
HETATM   24  C14 UNL     1      13.647  10.492 -11.140  1.00  0.00     0.042 A 
HETATM   25  C15 UNL     1      14.155   9.502 -10.312  1.00  0.00     0.101 A 
HETATM   26  S1  UNL     1      13.084   8.510  -9.575  1.00  0.00    -0.060 SA
HETATM   27  N3  UNL     1      15.456   9.328 -10.096  1.00  0.00    -0.345 N 
ATOM     28  H3  UNL     1      15.772   8.581  -9.477  1.00  0.00     0.167 HD
HETATM   29  C17 UNL     1      17.694   9.966 -10.475  1.00  0.00     0.077 A 
HETATM   30 CL1  UNL     1      18.184   8.665  -9.402  1.00  0.00    -0.081 Cl
ENDBRANCH  16  18
ENDBRANCH   1  16
TORSDOF 6
ENDMDL
MODEL 5
REMARK VINA RESULT: -7.156524333      5.181      8.954
REMARK  6 active torsions:
REMARK  status: ('A' for Active; 'I' for Inactive)
REMARK    1  A    between atoms: C2_2  and  O1_5 
REMARK    2  A    between atoms: O1_5  and  C5_6 
REMARK       I    between atoms: C5_6  and  N1_8 
REMARK       I    between atoms: N2_10  and  C6_12 
REMARK    3  A    between atoms: C6_12  and  C7_14 
REMARK    4  A    between atoms: C7_14  and  O4_15 
REMARK    5  A    between atoms: O4_15  and  C8_16 
REMARK    6  A    between atoms: C8_16  and  C9_18 
ROOT
HETATM    1  O4  UNL     1      20.006   8.802  -9.390  1.00  0.00    -0.308 OA
ENDROOT
BRANCH   1   2
HETATM    2  C7  UNL     1      20.386   8.543 -10.705  1.00  0.00     0.283 C 
BRANCH   2   3
HETATM    3  C6  UNL     1      21.595   9.281 -11.156  1.00  0.00     0.260 C 
HETATM    4  N2  UNL     1      21.775  10.649 -10.830  1.00  0.00    -0.264 N 
HETATM    5  N1  UNL     1      22.308  11.527 -11.534  1.00  0.00    -0.243 N 
ATOM      6  H2  UNL     1      21.428  10.947  -9.918  1.00  0.00     0.190 HD
HETATM    7  C5  UNL     1      22.841  11.295 -12.820  1.00  0.00     0.380 C 
ATOM      8  H1  UNL     1      22.364  12.472 -11.157  1.00  0.00     0.192 HD
HETATM    9  O2  UNL     1      24.005  11.600 -13.155  1.00  0.00    -0.237 OA
HETATM   10  O3  UNL     1      22.425   8.607 -11.835  1.00  0.00    -0.269 OA
BRANCH   7  11
HETATM   11  O1  UNL     1      22.035  10.694 -13.774  1.00  0.00    -0.293 OA
BRANCH  11  12
HETATM   12  C2  UNL     1      21.036  11.344 -14.506  1.00  0.00     0.061 C 
HETATM   13  C1  UNL     1      21.397  12.729 -14.955  1.00  0.00     0.046 C 
HETATM   14  C3  UNL     1      20.812  10.518 -15.775  1.00  0.00     0.046 C 
HETATM   15  C4  UNL     1      19.708  11.341 -13.773  1.00  0.00     0.046 C 
ENDBRANCH  11  12
ENDBRANCH   7  11
ENDBRANCH   2   3
ENDBRANCH   1   2
BRANCH   1  16
HETATM   16  C8  UNL     1      18.800   9.342  -8.983  1.00  0.00     0.295 C 
HETATM   17  O5  UNL     1      18.751   9.812  -7.816  1.00  0.00    -0.259 OA
BRANCH  16  18
HETATM   18  C9  UNL     1      17.608   9.400  -9.804  1.00  0.00     0.063 A 
HETATM   19  C10 UNL     1      16.673   8.391  -9.881  1.00  0.00     0.020 A 
HETATM   20  C11 UNL     1      15.551   8.478 -10.674  1.00  0.00     0.015 A 
HETATM   21  C12 UNL     1      15.343   9.604 -11.423  1.00  0.00    -0.008 A 
HETATM   22  C13 UNL     1      14.215   9.675 -12.215  1.00  0.00     0.017 A 
HETATM   23  C16 UNL     1      16.254  10.634 -11.375  1.00  0.00     0.066 A 
HETATM   24  C14 UNL     1      14.008  10.817 -12.973  1.00  0.00     0.042 A 
HETATM   25  C15 UNL     1      14.964  11.819 -12.879  1.00  0.00     0.101 A 
HETATM   26  S1  UNL     1      14.732  13.170 -13.770  1.00  0.00    -0.060 SA
HETATM   27  N3  UNL     1      16.044  11.726 -12.109  1.00  0.00    -0.345 N 
ATOM     28  H3  UNL     1      16.713  12.495 -12.079  1.00  0.00     0.167 HD
HETATM   29  C17 UNL     1      17.361  10.515 -10.574  1.00  0.00     0.077 A 
HETATM   30 CL1  UNL     1      18.481  11.868 -10.559  1.00  0.00    -0.081 Cl
ENDBRANCH  16  18
ENDBRANCH   1  16
TORSDOF 6
ENDMDL
