MODEL 1
REMARK VINA RESULT: -5.521093498      0.000      0.000
REMARK  7 active torsions:
REMARK  status: ('A' for Active; 'I' for Inactive)
REMARK    1  A    between atoms: N1_1  and  C1_5 
REMARK    2  A    between atoms: C1_5  and  C2_6 
REMARK    3  A    between atoms: C2_6  and  N2_7 
REMARK    4  A    between atoms: N2_7  and  C3_8 
REMARK    5  A    between atoms: C4_15  and  C5_16 
REMARK    6  A    between atoms: C5_16  and  N6_17 
REMARK    7  A    between atoms: N6_17  and  C6_19 
ROOT
HETATM    1  C3  UNL     1     -56.082 -39.593  19.489  1.00  0.00     0.218 A 
HETATM    2  N3  UNL     1     -56.679 -40.792  18.986  1.00  0.00    -0.258 N 
ATOM      3  H3  UNL     1     -57.605 -40.863  18.565  1.00  0.00     0.191 HD
HETATM    4  N4  UNL     1     -55.843 -41.779  19.155  1.00  0.00    -0.240 N 
ATOM      5  H4  UNL     1     -56.018 -42.748  18.891  1.00  0.00     0.208 HD
HETATM    6  N5  UNL     1     -54.756 -41.340  19.710  1.00  0.00    -0.280 N 
ATOM      7  H5  UNL     1     -53.946 -41.912  19.950  1.00  0.00     0.188 HD
HETATM    8  C4  UNL     1     -54.859 -40.006  19.921  1.00  0.00     0.123 A 
ENDROOT
BRANCH   1   9
HETATM    9  N2  UNL     1     -56.690 -38.553  19.543  1.00  0.00    -0.426 NA
BRANCH   9  10
HETATM   10  C2  UNL     1     -57.253 -37.340  19.590  1.00  0.00     0.247 C 
BRANCH  10  11
HETATM   11  C1  UNL     1     -56.180 -36.233  19.832  1.00  0.00     0.263 C 
BRANCH  11  12
HETATM   12  N1  UNL     1     -56.701 -34.938  19.556  1.00  0.00    -0.077 N 
ATOM     13  H13 UNL     1     -56.592 -34.692  18.572  1.00  0.00     0.274 HD
ATOM     14  H12 UNL     1     -57.720 -34.925  19.610  1.00  0.00     0.274 HD
ATOM     15  H11 UNL     1     -56.286 -34.233  20.165  1.00  0.00     0.274 HD
ENDBRANCH  11  12
ENDBRANCH  10  11
ENDBRANCH   9  10
ENDBRANCH   1   9
BRANCH   8  16
HETATM   16  C5  UNL     1     -53.647 -39.248  20.336  1.00  0.00     0.119 C 
BRANCH  16  17
HETATM   17  N6  UNL     1     -53.931 -38.630  21.568  1.00  0.00    -0.392 N 
ATOM     18  H6  UNL     1     -54.885 -38.718  21.919  1.00  0.00     0.159 HD
BRANCH  17  19
HETATM   19  C6  UNL     1     -53.056 -37.925  22.338  1.00  0.00     0.081 A 
HETATM   20  C7  UNL     1     -51.567 -38.008  22.222  1.00  0.00     0.027 A 
HETATM   21  C8  UNL     1     -52.304 -38.396  23.524  1.00  0.00     0.027 A 
ENDBRANCH  17  19
ENDBRANCH  16  17
ENDBRANCH   8  16
TORSDOF 7
ENDMDL
MODEL 2
REMARK VINA RESULT: -5.503121722      1.396      3.744
REMARK  7 active torsions:
REMARK  status: ('A' for Active; 'I' for Inactive)
REMARK    1  A    between atoms: N1_1  and  C1_5 
REMARK    2  A    between atoms: C1_5  and  C2_6 
REMARK    3  A    between atoms: C2_6  and  N2_7 
REMARK    4  A    between atoms: N2_7  and  C3_8 
REMARK    5  A    between atoms: C4_15  and  C5_16 
REMARK    6  A    between atoms: C5_16  and  N6_17 
REMARK    7  A    between atoms: N6_17  and  C6_19 
ROOT
HETATM    1  C3  UNL     1     -56.914 -38.760  20.038  1.00  0.00     0.218 A 
HETATM    2  N3  UNL     1     -58.129 -38.462  19.346  1.00  0.00    -0.258 N 
ATOM      3  H3  UNL     1     -58.850 -39.137  19.093  1.00  0.00     0.191 HD
HETATM    4  N4  UNL     1     -58.164 -37.182  19.090  1.00  0.00    -0.240 N 
ATOM      5  H4  UNL     1     -58.917 -36.702  18.599  1.00  0.00     0.208 HD
HETATM    6  N5  UNL     1     -57.094 -36.616  19.558  1.00  0.00    -0.280 N 
ATOM      7  H5  UNL     1     -56.877 -35.622  19.487  1.00  0.00     0.188 HD
HETATM    8  C4  UNL     1     -56.309 -37.546  20.153  1.00  0.00     0.123 A 
ENDROOT
BRANCH   1   9
HETATM    9  N2  UNL     1     -56.592 -39.891  20.302  1.00  0.00    -0.426 NA
BRANCH   9  10
HETATM   10  C2  UNL     1     -56.212 -41.163  20.472  1.00  0.00     0.247 C 
BRANCH  10  11
HETATM   11  C1  UNL     1     -55.055 -41.537  19.494  1.00  0.00     0.263 C 
BRANCH  11  12
HETATM   12  N1  UNL     1     -55.402 -42.658  18.687  1.00  0.00    -0.077 N 
ATOM     13  H13 UNL     1     -56.319 -43.029  18.936  1.00  0.00     0.274 HD
ATOM     14  H12 UNL     1     -55.599 -42.381  17.726  1.00  0.00     0.274 HD
ATOM     15  H11 UNL     1     -54.683 -43.381  18.729  1.00  0.00     0.274 HD
ENDBRANCH  11  12
ENDBRANCH  10  11
ENDBRANCH   9  10
ENDBRANCH   1   9
BRANCH   8  16
HETATM   16  C5  UNL     1     -55.143 -37.092  20.959  1.00  0.00     0.119 C 
BRANCH  16  17
HETATM   17  N6  UNL     1     -54.504 -38.238  21.468  1.00  0.00    -0.392 N 
ATOM     18  H6  UNL     1     -55.096 -39.045  21.669  1.00  0.00     0.159 HD
BRANCH  17  19
HETATM   19  C6  UNL     1     -53.172 -38.375  21.720  1.00  0.00     0.081 A 
HETATM   20  C7  UNL     1     -52.550 -38.262  23.075  1.00  0.00     0.027 A 
HETATM   21  C8  UNL     1     -52.170 -37.304  21.923  1.00  0.00     0.027 A 
ENDBRANCH  17  19
ENDBRANCH  16  17
ENDBRANCH   8  16
TORSDOF 7
ENDMDL
MODEL 3
REMARK VINA RESULT: -5.257812347      1.443      3.660
REMARK  7 active torsions:
REMARK  status: ('A' for Active; 'I' for Inactive)
REMARK    1  A    between atoms: N1_1  and  C1_5 
REMARK    2  A    between atoms: C1_5  and  C2_6 
REMARK    3  A    between atoms: C2_6  and  N2_7 
REMARK    4  A    between atoms: N2_7  and  C3_8 
REMARK    5  A    between atoms: C4_15  and  C5_16 
REMARK    6  A    between atoms: C5_16  and  N6_17 
REMARK    7  A    between atoms: N6_17  and  C6_19 
ROOT
HETATM    1  C3  UNL     1     -54.651 -40.326  19.926  1.00  0.00     0.218 A 
HETATM    2  N3  UNL     1     -54.565 -41.707  19.565  1.00  0.00    -0.258 N 
ATOM      3  H3  UNL     1     -53.714 -42.269  19.561  1.00  0.00     0.191 HD
HETATM    4  N4  UNL     1     -55.756 -42.131  19.243  1.00  0.00    -0.240 N 
ATOM      5  H4  UNL     1     -55.981 -43.078  18.939  1.00  0.00     0.208 HD
HETATM    6  N5  UNL     1     -56.612 -41.163  19.367  1.00  0.00    -0.280 N 
ATOM      7  H5  UNL     1     -57.611 -41.234  19.173  1.00  0.00     0.188 HD
HETATM    8  C4  UNL     1     -55.976 -40.045  19.792  1.00  0.00     0.123 A 
ENDROOT
BRANCH   1   9
HETATM    9  N2  UNL     1     -53.670 -39.669  20.169  1.00  0.00    -0.426 NA
BRANCH   9  10
HETATM   10  C2  UNL     1     -52.547 -38.957  20.320  1.00  0.00     0.247 C 
BRANCH  10  11
HETATM   11  C1  UNL     1     -52.477 -38.316  21.741  1.00  0.00     0.263 C 
BRANCH  11  12
HETATM   12  N1  UNL     1     -51.878 -37.025  21.698  1.00  0.00    -0.077 N 
ATOM     13  H13 UNL     1     -50.871 -37.074  21.853  1.00  0.00     0.274 HD
ATOM     14  H12 UNL     1     -51.873 -36.646  20.751  1.00  0.00     0.274 HD
ATOM     15  H11 UNL     1     -52.326 -36.387  22.355  1.00  0.00     0.274 HD
ENDBRANCH  11  12
ENDBRANCH  10  11
ENDBRANCH   9  10
ENDBRANCH   1   9
BRANCH   8  16
HETATM   16  C5  UNL     1     -56.790 -38.876  20.222  1.00  0.00     0.119 C 
BRANCH  16  17
HETATM   17  N6  UNL     1     -55.970 -38.056  21.022  1.00  0.00    -0.392 N 
ATOM     18  H6  UNL     1     -55.566 -38.483  21.856  1.00  0.00     0.159 HD
BRANCH  17  19
HETATM   19  C6  UNL     1     -55.665 -36.749  20.790  1.00  0.00     0.081 A 
HETATM   20  C7  UNL     1     -56.321 -35.897  19.752  1.00  0.00     0.027 A 
HETATM   21  C8  UNL     1     -54.805 -36.192  19.722  1.00  0.00     0.027 A 
ENDBRANCH  17  19
ENDBRANCH  16  17
ENDBRANCH   8  16
TORSDOF 7
ENDMDL
MODEL 4
REMARK VINA RESULT: -5.242113330      9.690     12.641
REMARK  7 active torsions:
REMARK  status: ('A' for Active; 'I' for Inactive)
REMARK    1  A    between atoms: N1_1  and  C1_5 
REMARK    2  A    between atoms: C1_5  and  C2_6 
REMARK    3  A    between atoms: C2_6  and  N2_7 
REMARK    4  A    between atoms: N2_7  and  C3_8 
REMARK    5  A    between atoms: C4_15  and  C5_16 
REMARK    6  A    between atoms: C5_16  and  N6_17 
REMARK    7  A    between atoms: N6_17  and  C6_19 
ROOT
HETATM    1  C3  UNL     1     -45.865 -37.554  29.810  1.00  0.00     0.218 A 
HETATM    2  N3  UNL     1     -44.629 -38.273  29.782  1.00  0.00    -0.258 N 
ATOM      3  H3  UNL     1     -43.735 -37.932  30.134  1.00  0.00     0.191 HD
HETATM    4  N4  UNL     1     -44.835 -39.439  29.233  1.00  0.00    -0.240 N 
ATOM      5  H4  UNL     1     -44.121 -40.151  29.082  1.00  0.00     0.208 HD
HETATM    6  N5  UNL     1     -46.085 -39.554  28.909  1.00  0.00    -0.280 N 
ATOM      7  H5  UNL     1     -46.504 -40.369  28.462  1.00  0.00     0.188 HD
HETATM    8  C4  UNL     1     -46.751 -38.425  29.254  1.00  0.00     0.123 A 
ENDROOT
BRANCH   1   9
HETATM    9  N2  UNL     1     -45.927 -36.408  30.178  1.00  0.00    -0.426 NA
BRANCH   9  10
HETATM   10  C2  UNL     1     -46.021 -35.179  30.701  1.00  0.00     0.247 C 
BRANCH  10  11
HETATM   11  C1  UNL     1     -45.281 -34.133  29.810  1.00  0.00     0.263 C 
BRANCH  11  12
HETATM   12  N1  UNL     1     -45.977 -32.892  29.783  1.00  0.00    -0.077 N 
ATOM     13  H13 UNL     1     -46.917 -32.998  29.402  1.00  0.00     0.274 HD
ATOM     14  H12 UNL     1     -46.222 -32.580  30.723  1.00  0.00     0.274 HD
ATOM     15  H11 UNL     1     -45.447 -32.181  29.279  1.00  0.00     0.274 HD
ENDBRANCH  11  12
ENDBRANCH  10  11
ENDBRANCH   9  10
ENDBRANCH   1   9
BRANCH   8  16
HETATM   16  C5  UNL     1     -48.238 -38.419  29.187  1.00  0.00     0.119 C 
BRANCH  16  17
HETATM   17  N6  UNL     1     -48.632 -37.226  28.551  1.00  0.00    -0.392 N 
ATOM     18  H6  UNL     1     -48.223 -36.360  28.904  1.00  0.00     0.159 HD
BRANCH  17  19
HETATM   19  C6  UNL     1     -49.504 -37.116  27.512  1.00  0.00     0.081 A 
HETATM   20  C7  UNL     1     -50.993 -37.085  27.655  1.00  0.00     0.027 A 
HETATM   21  C8  UNL     1     -50.275 -38.195  26.853  1.00  0.00     0.027 A 
ENDBRANCH  17  19
ENDBRANCH  16  17
ENDBRANCH   8  16
TORSDOF 7
ENDMDL
MODEL 5
REMARK VINA RESULT: -5.208210421     10.015     12.882
REMARK  7 active torsions:
REMARK  status: ('A' for Active; 'I' for Inactive)
REMARK    1  A    between atoms: N1_1  and  C1_5 
REMARK    2  A    between atoms: C1_5  and  C2_6 
REMARK    3  A    between atoms: C2_6  and  N2_7 
REMARK    4  A    between atoms: N2_7  and  C3_8 
REMARK    5  A    between atoms: C4_15  and  C5_16 
REMARK    6  A    between atoms: C5_16  and  N6_17 
REMARK    7  A    between atoms: N6_17  and  C6_19 
ROOT
HETATM    1  C3  UNL     1     -46.722 -38.392  29.506  1.00  0.00     0.218 A 
HETATM    2  N3  UNL     1     -46.067 -39.459  28.815  1.00  0.00    -0.258 N 
ATOM      3  H3  UNL     1     -46.511 -40.103  28.159  1.00  0.00     0.191 HD
HETATM    4  N4  UNL     1     -44.810 -39.474  29.161  1.00  0.00    -0.240 N 
ATOM      5  H4  UNL     1     -44.115 -40.139  28.822  1.00  0.00     0.208 HD
HETATM    6  N5  UNL     1     -44.578 -38.515  30.004  1.00  0.00    -0.280 N 
ATOM      7  H5  UNL     1     -43.673 -38.312  30.429  1.00  0.00     0.188 HD
HETATM    8  C4  UNL     1     -45.721 -37.824  30.232  1.00  0.00     0.123 A 
ENDROOT
BRANCH   1   9
HETATM    9  N2  UNL     1     -47.914 -38.225  29.437  1.00  0.00    -0.426 NA
BRANCH   9  10
HETATM   10  C2  UNL     1     -49.229 -38.070  29.239  1.00  0.00     0.247 C 
BRANCH  10  11
HETATM   11  C1  UNL     1     -49.586 -38.199  27.725  1.00  0.00     0.263 C 
BRANCH  11  12
HETATM   12  N1  UNL     1     -48.948 -37.186  26.955  1.00  0.00    -0.077 N 
ATOM     13  H13 UNL     1     -48.736 -37.511  26.012  1.00  0.00     0.274 HD
ATOM     14  H12 UNL     1     -49.594 -36.431  26.721  1.00  0.00     0.274 HD
ATOM     15  H11 UNL     1     -48.114 -36.833  27.425  1.00  0.00     0.274 HD
ENDBRANCH  11  12
ENDBRANCH  10  11
ENDBRANCH   9  10
ENDBRANCH   1   9
BRANCH   8  16
HETATM   16  C5  UNL     1     -45.647 -36.543  30.986  1.00  0.00     0.119 C 
BRANCH  16  17
HETATM   17  N6  UNL     1     -46.026 -35.509  30.108  1.00  0.00    -0.392 N 
ATOM     18  H6  UNL     1     -46.404 -35.789  29.203  1.00  0.00     0.159 HD
BRANCH  17  19
HETATM   19  C6  UNL     1     -45.938 -34.172  30.350  1.00  0.00     0.081 A 
HETATM   20  C7  UNL     1     -44.867 -33.281  29.806  1.00  0.00     0.027 A 
HETATM   21  C8  UNL     1     -45.065 -33.480  31.326  1.00  0.00     0.027 A 
ENDBRANCH  17  19
ENDBRANCH  16  17
ENDBRANCH   8  16
TORSDOF 7
ENDMDL
