MODEL 1
REMARK VINA RESULT: -10.669864462      0.000      0.000
REMARK  7 active torsions:
REMARK  status: ('A' for Active; 'I' for Inactive)
REMARK    1  A    between atoms: O1_2  and  C2_3 
REMARK    2  A    between atoms: C3_4  and  O2_5 
REMARK    3  A    between atoms: O2_5  and  C4_6 
REMARK    4  A    between atoms: C31_35  and  C32_36 
REMARK    5  A    between atoms: C32_36  and  O5_37 
REMARK    6  A    between atoms: C33_39  and  O6_40 
REMARK    7  A    between atoms: C34_42  and  O7_43 
ROOT
HETATM    1  C4  UNL     1      -7.712 -17.318  17.571  1.00  0.00     0.133 C 
HETATM    2  C5  UNL     1      -8.769 -16.542  18.378  1.00  0.00     0.034 C 
HETATM    3  C6  UNL     1      -8.304 -16.535  19.804  1.00  0.00     0.013 C 
HETATM    4  C7  UNL     1      -6.913 -17.002  19.783  1.00  0.00    -0.030 C 
HETATM    5  C8  UNL     1      -6.915 -18.479  20.225  1.00  0.00     0.016 C 
HETATM    6  C9  UNL     1      -5.932 -16.317  20.707  1.00  0.00     0.003 C 
HETATM    7  C10 UNL     1      -6.404 -16.532  22.127  1.00  0.00     0.007 C 
HETATM    8  C11 UNL     1      -5.870 -15.484  23.064  1.00  0.00     0.010 C 
HETATM    9  C12 UNL     1      -6.239 -14.073  22.655  1.00  0.00    -0.035 C 
HETATM   10  C13 UNL     1      -7.758 -13.975  22.909  1.00  0.00     0.016 C 
HETATM   11  C14 UNL     1      -5.657 -13.108  23.670  1.00  0.00     0.003 C 
HETATM   12  C15 UNL     1      -4.377 -13.641  24.280  1.00  0.00     0.013 C 
HETATM   13  C16 UNL     1      -3.941 -12.858  25.482  1.00  0.00     0.079 C 
HETATM   14  C17 UNL     1      -4.788 -11.629  25.526  1.00  0.00     0.131 C 
HETATM   15  O3  UNL     1      -5.398 -11.292  26.513  1.00  0.00    -0.298 OA
HETATM   16  C18 UNL     1      -4.786 -10.887  24.228  1.00  0.00     0.060 C 
HETATM   17  C19 UNL     1      -3.363 -10.670  23.844  1.00  0.00     0.018 C 
HETATM   18  C20 UNL     1      -5.583 -11.689  23.204  1.00  0.00    -0.030 C 
HETATM   19  C21 UNL     1      -6.980 -11.041  23.249  1.00  0.00     0.016 C 
HETATM   20  C22 UNL     1      -5.081 -11.495  21.819  1.00  0.00     0.011 C 
HETATM   21  C23 UNL     1      -4.799 -12.760  21.067  1.00  0.00     0.007 C 
HETATM   22  C24 UNL     1      -5.893 -13.815  21.243  1.00  0.00     0.003 C 
HETATM   23  C25 UNL     1      -5.510 -14.964  20.363  1.00  0.00    -0.035 C 
HETATM   24  C26 UNL     1      -3.980 -14.962  20.162  1.00  0.00     0.016 C 
HETATM   25  C27 UNL     1      -6.018 -14.619  18.956  1.00  0.00     0.011 C 
HETATM   26  C28 UNL     1      -5.803 -15.749  17.984  1.00  0.00     0.013 C 
HETATM   27  C29 UNL     1      -6.453 -17.031  18.346  1.00  0.00    -0.010 C 
HETATM   28  C30 UNL     1      -5.427 -18.153  18.144  1.00  0.00     0.018 C 
ENDROOT
BRANCH   1  29
HETATM   29  O2  UNL     1      -7.761 -16.794  16.311  1.00  0.00    -0.352 OA
BRANCH  29  30
HETATM   30  C3  UNL     1      -7.311 -17.622  15.290  1.00  0.00     0.292 C 
HETATM   31  C2  UNL     1      -6.591 -16.956  14.198  1.00  0.00     0.207 C 
HETATM   32  C34 UNL     1      -6.745 -17.828  12.940  1.00  0.00     0.185 C 
HETATM   33  C33 UNL     1      -8.215 -17.688  12.585  1.00  0.00     0.180 C 
HETATM   34  C31 UNL     1      -8.968 -18.259  13.769  1.00  0.00     0.179 C 
HETATM   35  O4  UNL     1      -8.232 -18.523  14.864  1.00  0.00    -0.348 OA
BRANCH  31  36
HETATM   36  O1  UNL     1      -5.217 -16.808  14.355  1.00  0.00    -0.383 OA
HETATM   37  C1  UNL     1      -4.711 -17.937  15.041  1.00  0.00     0.202 C 
ENDBRANCH  31  36
BRANCH  32  38
HETATM   38  O7  UNL     1      -5.892 -17.444  11.944  1.00  0.00    -0.385 OA
HETATM   39  C35 UNL     1      -4.941 -18.440  11.727  1.00  0.00     0.202 C 
ENDBRANCH  32  38
BRANCH  33  40
HETATM   40  O6  UNL     1      -8.516 -16.367  12.336  1.00  0.00    -0.390 OA
ATOM     41  H6  UNL     1      -8.781 -16.206  11.438  1.00  0.00     0.210 HD
ENDBRANCH  33  40
BRANCH  34  42
HETATM   42  C32 UNL     1     -10.151 -17.381  14.030  1.00  0.00     0.198 C 
BRANCH  42  43
HETATM   43  O5  UNL     1     -10.642 -17.443  15.303  1.00  0.00    -0.398 OA
ATOM     44  H5  UNL     1     -11.300 -16.789  15.510  1.00  0.00     0.209 HD
ENDBRANCH  42  43
ENDBRANCH  34  42
ENDBRANCH  29  30
ENDBRANCH   1  29
TORSDOF 7
ENDMDL
MODEL 2
REMARK VINA RESULT: -9.805392947      1.019      1.330
REMARK  7 active torsions:
REMARK  status: ('A' for Active; 'I' for Inactive)
REMARK    1  A    between atoms: O1_2  and  C2_3 
REMARK    2  A    between atoms: C3_4  and  O2_5 
REMARK    3  A    between atoms: O2_5  and  C4_6 
REMARK    4  A    between atoms: C31_35  and  C32_36 
REMARK    5  A    between atoms: C32_36  and  O5_37 
REMARK    6  A    between atoms: C33_39  and  O6_40 
REMARK    7  A    between atoms: C34_42  and  O7_43 
ROOT
HETATM    1  C4  UNL     1      -7.942 -17.084  18.038  1.00  0.00     0.133 C 
HETATM    2  C5  UNL     1      -8.860 -16.353  19.035  1.00  0.00     0.034 C 
HETATM    3  C6  UNL     1      -8.164 -16.381  20.363  1.00  0.00     0.013 C 
HETATM    4  C7  UNL     1      -6.791 -16.823  20.097  1.00  0.00    -0.030 C 
HETATM    5  C8  UNL     1      -6.701 -18.312  20.483  1.00  0.00     0.016 C 
HETATM    6  C9  UNL     1      -5.678 -16.150  20.868  1.00  0.00     0.003 C 
HETATM    7  C10 UNL     1      -5.906 -16.417  22.339  1.00  0.00     0.007 C 
HETATM    8  C11 UNL     1      -5.236 -15.389  23.210  1.00  0.00     0.010 C 
HETATM    9  C12 UNL     1      -5.686 -13.973  22.915  1.00  0.00    -0.035 C 
HETATM   10  C13 UNL     1      -7.142 -13.909  23.420  1.00  0.00     0.016 C 
HETATM   11  C14 UNL     1      -4.955 -13.029  23.851  1.00  0.00     0.003 C 
HETATM   12  C15 UNL     1      -3.585 -13.559  24.223  1.00  0.00     0.013 C 
HETATM   13  C16 UNL     1      -2.965 -12.805  25.361  1.00  0.00     0.079 C 
HETATM   14  C17 UNL     1      -3.808 -11.593  25.586  1.00  0.00     0.131 C 
HETATM   15  O3  UNL     1      -4.250 -11.299  26.671  1.00  0.00    -0.298 OA
HETATM   16  C18 UNL     1      -4.031 -10.812  24.331  1.00  0.00     0.060 C 
HETATM   17  C19 UNL     1      -2.694 -10.558  23.724  1.00  0.00     0.018 C 
HETATM   18  C20 UNL     1      -4.977 -11.596  23.427  1.00  0.00    -0.030 C 
HETATM   19  C21 UNL     1      -6.355 -10.974  23.724  1.00  0.00     0.016 C 
HETATM   20  C22 UNL     1      -4.714 -11.350  21.985  1.00  0.00     0.011 C 
HETATM   21  C23 UNL     1      -4.546 -12.586  21.155  1.00  0.00     0.007 C 
HETATM   22  C24 UNL     1      -5.582 -13.665  21.474  1.00  0.00     0.003 C 
HETATM   23  C25 UNL     1      -5.337 -14.780  20.504  1.00  0.00    -0.035 C 
HETATM   24  C26 UNL     1      -3.860 -14.744  20.053  1.00  0.00     0.016 C 
HETATM   25  C27 UNL     1      -6.075 -14.400  19.214  1.00  0.00     0.011 C 
HETATM   26  C28 UNL     1      -6.010 -15.495  18.182  1.00  0.00     0.013 C 
HETATM   27  C29 UNL     1      -6.576 -16.799  18.604  1.00  0.00    -0.010 C 
HETATM   28  C30 UNL     1      -5.583 -17.896  18.197  1.00  0.00     0.018 C 
ENDROOT
BRANCH   1  29
HETATM   29  O2  UNL     1      -8.206 -16.523  16.823  1.00  0.00    -0.352 OA
BRANCH  29  30
HETATM   30  C3  UNL     1      -8.227 -17.395  15.741  1.00  0.00     0.292 C 
HETATM   31  C2  UNL     1      -8.006 -16.785  14.424  1.00  0.00     0.207 C 
HETATM   32  C34 UNL     1      -8.676 -17.690  13.375  1.00  0.00     0.185 C 
HETATM   33  C33 UNL     1     -10.160 -17.515  13.647  1.00  0.00     0.180 C 
HETATM   34  C31 UNL     1     -10.372 -18.026  15.057  1.00  0.00     0.179 C 
HETATM   35  O4  UNL     1      -9.256 -18.280  15.766  1.00  0.00    -0.348 OA
BRANCH  31  36
HETATM   36  O1  UNL     1      -6.686 -16.676  14.000  1.00  0.00    -0.383 OA
HETATM   37  C1  UNL     1      -5.936 -17.732  14.565  1.00  0.00     0.202 C 
ENDBRANCH  31  36
BRANCH  32  38
HETATM   38  O7  UNL     1      -8.300 -17.364  12.103  1.00  0.00    -0.385 OA
HETATM   39  C35 UNL     1      -9.032 -16.261  11.664  1.00  0.00     0.202 C 
ENDBRANCH  32  38
BRANCH  33  40
HETATM   40  O6  UNL     1     -10.515 -16.194  13.489  1.00  0.00    -0.390 OA
ATOM     41  H6  UNL     1     -10.723 -15.967  12.590  1.00  0.00     0.210 HD
ENDBRANCH  33  40
BRANCH  34  42
HETATM   42  C32 UNL     1     -11.330 -17.104  15.743  1.00  0.00     0.198 C 
BRANCH  42  43
HETATM   43  O5  UNL     1     -12.630 -17.226  15.345  1.00  0.00    -0.398 OA
ATOM     44  H5  UNL     1     -12.851 -16.754  14.550  1.00  0.00     0.209 HD
ENDBRANCH  42  43
ENDBRANCH  34  42
ENDBRANCH  29  30
ENDBRANCH   1  29
TORSDOF 7
ENDMDL
MODEL 3
REMARK VINA RESULT: -9.740705631      3.499      5.575
REMARK  7 active torsions:
REMARK  status: ('A' for Active; 'I' for Inactive)
REMARK    1  A    between atoms: O1_2  and  C2_3 
REMARK    2  A    between atoms: C3_4  and  O2_5 
REMARK    3  A    between atoms: O2_5  and  C4_6 
REMARK    4  A    between atoms: C31_35  and  C32_36 
REMARK    5  A    between atoms: C32_36  and  O5_37 
REMARK    6  A    between atoms: C33_39  and  O6_40 
REMARK    7  A    between atoms: C34_42  and  O7_43 
ROOT
HETATM    1  C4  UNL     1      -3.954 -17.002  17.839  1.00  0.00     0.133 C 
HETATM    2  C5  UNL     1      -3.537 -15.526  17.703  1.00  0.00     0.034 C 
HETATM    3  C6  UNL     1      -4.625 -14.710  18.335  1.00  0.00     0.013 C 
HETATM    4  C7  UNL     1      -5.472 -15.656  19.070  1.00  0.00    -0.030 C 
HETATM    5  C8  UNL     1      -6.728 -15.913  18.214  1.00  0.00     0.016 C 
HETATM    6  C9  UNL     1      -5.998 -15.222  20.418  1.00  0.00     0.003 C 
HETATM    7  C10 UNL     1      -6.857 -13.996  20.208  1.00  0.00     0.007 C 
HETATM    8  C11 UNL     1      -6.975 -13.167  21.458  1.00  0.00     0.010 C 
HETATM    9  C12 UNL     1      -5.636 -12.714  22.001  1.00  0.00    -0.035 C 
HETATM   10  C13 UNL     1      -5.130 -11.672  20.982  1.00  0.00     0.016 C 
HETATM   11  C14 UNL     1      -5.876 -11.886  23.250  1.00  0.00     0.003 C 
HETATM   12  C15 UNL     1      -7.125 -12.329  23.983  1.00  0.00     0.013 C 
HETATM   13  C16 UNL     1      -7.547 -11.356  25.044  1.00  0.00     0.079 C 
HETATM   14  C17 UNL     1      -6.427 -10.381  25.204  1.00  0.00     0.131 C 
HETATM   15  O3  UNL     1      -6.592  -9.185  25.158  1.00  0.00    -0.298 OA
HETATM   16  C18 UNL     1      -5.111 -11.055  25.423  1.00  0.00     0.060 C 
HETATM   17  C19 UNL     1      -5.287 -12.017  26.547  1.00  0.00     0.018 C 
HETATM   18  C20 UNL     1      -4.671 -11.709  24.117  1.00  0.00    -0.030 C 
HETATM   19  C21 UNL     1      -3.718 -10.671  23.498  1.00  0.00     0.016 C 
HETATM   20  C22 UNL     1      -3.860 -12.934  24.343  1.00  0.00     0.011 C 
HETATM   21  C23 UNL     1      -4.328 -14.147  23.600  1.00  0.00     0.007 C 
HETATM   22  C24 UNL     1      -4.702 -13.849  22.147  1.00  0.00     0.003 C 
HETATM   23  C25 UNL     1      -5.052 -15.167  21.527  1.00  0.00    -0.035 C 
HETATM   24  C26 UNL     1      -5.530 -16.135  22.630  1.00  0.00     0.016 C 
HETATM   25  C27 UNL     1      -3.726 -15.805  21.093  1.00  0.00     0.011 C 
HETATM   26  C28 UNL     1      -3.938 -17.094  20.343  1.00  0.00     0.013 C 
HETATM   27  C29 UNL     1      -4.758 -16.985  19.112  1.00  0.00    -0.010 C 
HETATM   28  C30 UNL     1      -5.777 -18.131  19.122  1.00  0.00     0.018 C 
ENDROOT
BRANCH   1  29
HETATM   29  O2  UNL     1      -2.786 -17.706  17.889  1.00  0.00    -0.352 OA
BRANCH  29  30
HETATM   30  C3  UNL     1      -1.701 -17.133  17.235  1.00  0.00     0.292 C 
HETATM   31  C2  UNL     1      -0.742 -18.073  16.643  1.00  0.00     0.207 C 
HETATM   32  C34 UNL     1       0.618 -17.358  16.561  1.00  0.00     0.185 C 
HETATM   33  C33 UNL     1       1.041 -17.227  18.013  1.00  0.00     0.180 C 
HETATM   34  C31 UNL     1      -0.019 -16.360  18.662  1.00  0.00     0.179 C 
HETATM   35  O4  UNL     1      -1.117 -16.119  17.922  1.00  0.00    -0.348 OA
BRANCH  31  36
HETATM   36  O1  UNL     1      -0.998 -18.489  15.341  1.00  0.00    -0.383 OA
HETATM   37  C1  UNL     1      -1.933 -17.605  14.754  1.00  0.00     0.202 C 
ENDBRANCH  31  36
BRANCH  32  38
HETATM   38  O7  UNL     1       1.509 -18.041  15.781  1.00  0.00    -0.385 OA
HETATM   39  C35 UNL     1       2.677 -17.295  15.636  1.00  0.00     0.202 C 
ENDBRANCH  32  38
BRANCH  33  40
HETATM   40  O6  UNL     1       1.148 -18.474  18.588  1.00  0.00    -0.390 OA
ATOM     41  H6  UNL     1       2.042 -18.793  18.626  1.00  0.00     0.210 HD
ENDBRANCH  33  40
BRANCH  34  42
HETATM   42  C32 UNL     1      -0.311 -16.924  20.016  1.00  0.00     0.198 C 
BRANCH  42  43
HETATM   43  O5  UNL     1       0.603 -16.608  20.980  1.00  0.00    -0.398 OA
ATOM     44  H5  UNL     1       0.245 -16.512  21.855  1.00  0.00     0.209 HD
ENDBRANCH  42  43
ENDBRANCH  34  42
ENDBRANCH  29  30
ENDBRANCH   1  29
TORSDOF 7
ENDMDL
MODEL 4
REMARK VINA RESULT: -9.634513222      1.701      3.224
REMARK  7 active torsions:
REMARK  status: ('A' for Active; 'I' for Inactive)
REMARK    1  A    between atoms: O1_2  and  C2_3 
REMARK    2  A    between atoms: C3_4  and  O2_5 
REMARK    3  A    between atoms: O2_5  and  C4_6 
REMARK    4  A    between atoms: C31_35  and  C32_36 
REMARK    5  A    between atoms: C32_36  and  O5_37 
REMARK    6  A    between atoms: C33_39  and  O6_40 
REMARK    7  A    between atoms: C34_42  and  O7_43 
ROOT
HETATM    1  C4  UNL     1      -6.371 -17.487  17.723  1.00  0.00     0.133 C 
HETATM    2  C5  UNL     1      -6.491 -15.989  17.386  1.00  0.00     0.034 C 
HETATM    3  C6  UNL     1      -7.063 -15.318  18.600  1.00  0.00     0.013 C 
HETATM    4  C7  UNL     1      -6.992 -16.304  19.684  1.00  0.00    -0.030 C 
HETATM    5  C8  UNL     1      -8.401 -16.902  19.859  1.00  0.00     0.016 C 
HETATM    6  C9  UNL     1      -6.604 -15.805  21.057  1.00  0.00     0.003 C 
HETATM    7  C10 UNL     1      -7.646 -14.801  21.497  1.00  0.00     0.007 C 
HETATM    8  C11 UNL     1      -7.114 -13.854  22.538  1.00  0.00     0.010 C 
HETATM    9  C12 UNL     1      -5.891 -13.089  22.079  1.00  0.00    -0.035 C 
HETATM   10  C13 UNL     1      -6.416 -12.112  21.007  1.00  0.00     0.016 C 
HETATM   11  C14 UNL     1      -5.449 -12.166  23.200  1.00  0.00     0.003 C 
HETATM   12  C15 UNL     1      -5.786 -12.738  24.561  1.00  0.00     0.013 C 
HETATM   13  C16 UNL     1      -5.631 -11.733  25.663  1.00  0.00     0.079 C 
HETATM   14  C17 UNL     1      -4.933 -10.552  25.074  1.00  0.00     0.131 C 
HETATM   15  O3  UNL     1      -5.356  -9.425  25.180  1.00  0.00    -0.298 OA
HETATM   16  C18 UNL     1      -3.678 -10.930  24.355  1.00  0.00     0.060 C 
HETATM   17  C19 UNL     1      -2.863 -11.753  25.292  1.00  0.00     0.018 C 
HETATM   18  C20 UNL     1      -4.051 -11.654  23.065  1.00  0.00    -0.030 C 
HETATM   19  C21 UNL     1      -3.992 -10.543  22.000  1.00  0.00     0.016 C 
HETATM   20  C22 UNL     1      -3.034 -12.663  22.669  1.00  0.00     0.011 C 
HETATM   21  C23 UNL     1      -3.579 -14.029  22.384  1.00  0.00     0.007 C 
HETATM   22  C24 UNL     1      -4.857 -13.999  21.545  1.00  0.00     0.003 C 
HETATM   23  C25 UNL     1      -5.212 -15.428  21.272  1.00  0.00    -0.035 C 
HETATM   24  C26 UNL     1      -4.628 -16.318  22.391  1.00  0.00     0.016 C 
HETATM   25  C27 UNL     1      -4.379 -15.855  20.056  1.00  0.00     0.011 C 
HETATM   26  C28 UNL     1      -4.724 -17.247  19.595  1.00  0.00     0.013 C 
HETATM   27  C29 UNL     1      -6.140 -17.456  19.211  1.00  0.00    -0.010 C 
HETATM   28  C30 UNL     1      -6.616 -18.763  19.858  1.00  0.00     0.018 C 
ENDROOT
BRANCH   1  29
HETATM   29  O2  UNL     1      -5.327 -17.944  16.973  1.00  0.00    -0.352 OA
BRANCH  29  30
HETATM   30  C3  UNL     1      -5.179 -17.367  15.718  1.00  0.00     0.292 C 
HETATM   31  C2  UNL     1      -5.080 -18.303  14.591  1.00  0.00     0.207 C 
HETATM   32  C34 UNL     1      -4.309 -17.593  13.465  1.00  0.00     0.185 C 
HETATM   33  C33 UNL     1      -2.896 -17.483  14.011  1.00  0.00     0.180 C 
HETATM   34  C31 UNL     1      -3.014 -16.620  15.252  1.00  0.00     0.179 C 
HETATM   35  O4  UNL     1      -4.265 -16.365  15.676  1.00  0.00    -0.348 OA
BRANCH  31  36
HETATM   36  O1  UNL     1      -6.275 -18.699  14.001  1.00  0.00    -0.383 OA
HETATM   37  C1  UNL     1      -7.219 -17.656  14.136  1.00  0.00     0.202 C 
ENDBRANCH  31  36
BRANCH  32  38
HETATM   38  O7  UNL     1      -4.396 -18.269  12.280  1.00  0.00    -0.385 OA
HETATM   39  C35 UNL     1      -5.092 -17.500  11.349  1.00  0.00     0.202 C 
ENDBRANCH  32  38
BRANCH  33  40
HETATM   40  O6  UNL     1      -2.392 -18.738  14.270  1.00  0.00    -0.390 OA
ATOM     41  H6  UNL     1      -2.148 -19.212  13.483  1.00  0.00     0.210 HD
ENDBRANCH  33  40
BRANCH  34  42
HETATM   42  C32 UNL     1      -2.123 -17.202  16.304  1.00  0.00     0.198 C 
BRANCH  42  43
HETATM   43  O5  UNL     1      -2.025 -16.460  17.446  1.00  0.00    -0.398 OA
ATOM     44  H5  UNL     1      -1.136 -16.252  17.712  1.00  0.00     0.209 HD
ENDBRANCH  42  43
ENDBRANCH  34  42
ENDBRANCH  29  30
ENDBRANCH   1  29
TORSDOF 7
ENDMDL
MODEL 5
REMARK VINA RESULT: -9.628154083      2.077     10.385
REMARK  7 active torsions:
REMARK  status: ('A' for Active; 'I' for Inactive)
REMARK    1  A    between atoms: O1_2  and  C2_3 
REMARK    2  A    between atoms: C3_4  and  O2_5 
REMARK    3  A    between atoms: O2_5  and  C4_6 
REMARK    4  A    between atoms: C31_35  and  C32_36 
REMARK    5  A    between atoms: C32_36  and  O5_37 
REMARK    6  A    between atoms: C33_39  and  O6_40 
REMARK    7  A    between atoms: C34_42  and  O7_43 
ROOT
HETATM    1  C4  UNL     1      -5.565 -13.363  23.643  1.00  0.00     0.133 C 
HETATM    2  C5  UNL     1      -5.263 -14.872  23.580  1.00  0.00     0.034 C 
HETATM    3  C6  UNL     1      -6.055 -15.423  22.432  1.00  0.00     0.013 C 
HETATM    4  C7  UNL     1      -6.544 -14.263  21.678  1.00  0.00    -0.030 C 
HETATM    5  C8  UNL     1      -8.023 -14.053  22.059  1.00  0.00     0.016 C 
HETATM    6  C9  UNL     1      -6.538 -14.358  20.169  1.00  0.00     0.003 C 
HETATM    7  C10 UNL     1      -7.442 -15.502  19.772  1.00  0.00     0.007 C 
HETATM    8  C11 UNL     1      -7.103 -16.044  18.410  1.00  0.00     0.010 C 
HETATM    9  C12 UNL     1      -5.669 -16.518  18.297  1.00  0.00    -0.035 C 
HETATM   10  C13 UNL     1      -5.605 -17.792  19.164  1.00  0.00     0.016 C 
HETATM   11  C14 UNL     1      -5.445 -17.045  16.892  1.00  0.00     0.003 C 
HETATM   12  C15 UNL     1      -6.318 -16.333  15.880  1.00  0.00     0.013 C 
HETATM   13  C16 UNL     1      -6.335 -17.021  14.548  1.00  0.00     0.079 C 
HETATM   14  C17 UNL     1      -5.260 -18.056  14.583  1.00  0.00     0.131 C 
HETATM   15  O3  UNL     1      -5.458 -19.213  14.294  1.00  0.00    -0.298 OA
HETATM   16  C18 UNL     1      -3.942 -17.496  15.011  1.00  0.00     0.060 C 
HETATM   17  C19 UNL     1      -3.663 -16.313  14.149  1.00  0.00     0.018 C 
HETATM   18  C20 UNL     1      -4.007 -17.170  16.500  1.00  0.00    -0.030 C 
HETATM   19  C21 UNL     1      -3.379 -18.407  17.167  1.00  0.00     0.016 C 
HETATM   20  C22 UNL     1      -3.141 -16.018  16.865  1.00  0.00     0.011 C 
HETATM   21  C23 UNL     1      -3.825 -14.938  17.645  1.00  0.00     0.007 C 
HETATM   22  C24 UNL     1      -4.722 -15.481  18.758  1.00  0.00     0.003 C 
HETATM   23  C25 UNL     1      -5.248 -14.287  19.493  1.00  0.00    -0.035 C 
HETATM   24  C26 UNL     1      -5.256 -13.070  18.543  1.00  0.00     0.016 C 
HETATM   25  C27 UNL     1      -4.165 -13.894  20.507  1.00  0.00     0.011 C 
HETATM   26  C28 UNL     1      -4.612 -12.769  21.403  1.00  0.00     0.013 C 
HETATM   27  C29 UNL     1      -5.835 -13.037  22.198  1.00  0.00    -0.010 C 
HETATM   28  C30 UNL     1      -6.750 -11.811  22.083  1.00  0.00     0.018 C 
ENDROOT
BRANCH   1  29
HETATM   29  O2  UNL     1      -4.447 -12.791  24.178  1.00  0.00    -0.352 OA
BRANCH  29  30
HETATM   30  C3  UNL     1      -4.661 -11.870  25.195  1.00  0.00     0.292 C 
HETATM   31  C2  UNL     1      -4.510 -10.458  24.822  1.00  0.00     0.207 C 
HETATM   32  C34 UNL     1      -4.144  -9.677  26.096  1.00  0.00     0.185 C 
HETATM   33  C33 UNL     1      -2.737 -10.153  26.415  1.00  0.00     0.180 C 
HETATM   34  C31 UNL     1      -2.868 -11.640  26.677  1.00  0.00     0.179 C 
HETATM   35  O4  UNL     1      -4.056 -12.191  26.367  1.00  0.00    -0.348 OA
BRANCH  31  36
HETATM   36  O1  UNL     1      -5.643  -9.817  24.332  1.00  0.00    -0.383 OA
HETATM   37  C1  UNL     1      -6.746 -10.148  25.151  1.00  0.00     0.202 C 
ENDBRANCH  31  36
BRANCH  32  38
HETATM   38  O7  UNL     1      -4.247  -8.327  25.915  1.00  0.00    -0.385 OA
HETATM   39  C35 UNL     1      -3.646  -7.661  26.982  1.00  0.00     0.202 C 
ENDBRANCH  32  38
BRANCH  33  40
HETATM   40  O6  UNL     1      -1.891  -9.858  25.369  1.00  0.00    -0.390 OA
ATOM     41  H6  UNL     1      -1.538  -8.977  25.410  1.00  0.00     0.210 HD
ENDBRANCH  33  40
BRANCH  34  42
HETATM   42  C32 UNL     1      -1.698 -12.324  26.044  1.00  0.00     0.198 C 
BRANCH  42  43
HETATM   43  O5  UNL     1      -1.957 -13.574  25.559  1.00  0.00    -0.398 OA
ATOM     44  H5  UNL     1      -2.073 -13.621  24.617  1.00  0.00     0.209 HD
ENDBRANCH  42  43
ENDBRANCH  34  42
ENDBRANCH  29  30
ENDBRANCH   1  29
TORSDOF 7
ENDMDL
