MODEL 1
REMARK VINA RESULT: -8.132782128      0.000      0.000
REMARK  19 active torsions:
REMARK  status: ('A' for Active; 'I' for Inactive)
REMARK    1  A    between atoms: C2_2  and  C3_3 
REMARK    2  A    between atoms: C3_3  and  C4_4 
REMARK    3  A    between atoms: C4_4  and  N1_5 
REMARK       I    between atoms: N1_5  and  C5_7 
REMARK    4  A    between atoms: C5_7  and  C6_9 
REMARK    5  A    between atoms: C6_9  and  C7_10 
REMARK    6  A    between atoms: C7_10  and  N2_11 
REMARK    7  A    between atoms: N2_11  and  C8_13 
REMARK    8  A    between atoms: C8_13  and  C9_14 
REMARK    9  A    between atoms: C8_13  and  C12_24 
REMARK   10  A    between atoms: C9_14  and  O2_15 
REMARK   11  A    between atoms: O2_15  and  C10_16 
REMARK   12  A    between atoms: C10_16  and  C11_17 
REMARK   13  A    between atoms: C11_17  and  N3_18 
REMARK   14  A    between atoms: N3_18  and  N4_20 
REMARK   15  A    between atoms: N4_20  and  N5_21 
REMARK       I    between atoms: C12_24  and  N6_26 
REMARK   16  A    between atoms: N6_26  and  C13_28 
REMARK   17  A    between atoms: C17_32  and  O4_33 
REMARK   18  A    between atoms: C27_45  and  O6_46 
REMARK   19  A    between atoms: O6_46  and  C28_47 
ROOT
HETATM    1  C12 UNL     1      -2.623 -39.979  15.294  1.00  0.00     0.242 C 
HETATM    2  O3  UNL     1      -3.134 -40.277  14.175  1.00  0.00    -0.271 OA
HETATM    3  N6  UNL     1      -1.743 -40.894  15.912  1.00  0.00    -0.354 N 
ATOM      4  H6  UNL     1      -1.315 -40.661  16.809  1.00  0.00     0.162 HD
ENDROOT
BRANCH   3   5
HETATM    5  C13 UNL     1      -1.437 -42.196  15.260  1.00  0.00     0.088 C 
HETATM    6  C14 UNL     1      -0.234 -42.118  14.422  1.00  0.00     0.026 C 
HETATM    7  C15 UNL     1      -0.305 -42.479  12.978  1.00  0.00     0.013 C 
HETATM    8  C16 UNL     1      -0.730 -43.855  12.585  1.00  0.00     0.064 A 
HETATM    9  C17 UNL     1       0.076 -44.677  13.428  1.00  0.00     0.103 A 
HETATM   10  C26 UNL     1      -0.181 -44.911  11.919  1.00  0.00     0.126 A 
HETATM   11  C18 UNL     1      -0.753 -45.655  14.141  1.00  0.00     0.035 C 
HETATM   12  C19 UNL     1      -1.798 -44.903  14.929  1.00  0.00     0.000 C 
HETATM   13  C24 UNL     1      -1.516 -46.506  13.197  1.00  0.00     0.025 C 
HETATM   14  C20 UNL     1      -2.910 -45.781  15.461  1.00  0.00     0.012 C 
HETATM   15  C31 UNL     1      -1.005 -44.502  16.151  1.00  0.00     0.025 C 
HETATM   16  C21 UNL     1      -2.031 -46.734  16.232  1.00  0.00     0.015 C 
HETATM   17  C22 UNL     1      -1.361 -47.739  15.437  1.00  0.00     0.007 C 
HETATM   18  C27 UNL     1      -1.243 -45.675  16.995  1.00  0.00     0.130 C 
HETATM   19  C23 UNL     1      -1.617 -47.772  13.918  1.00  0.00     0.008 C 
HETATM   20  C32 UNL     1      -1.322 -43.128  16.481  1.00  0.00     0.011 C 
HETATM   21  C33 UNL     1      -2.491 -42.853  17.363  1.00  0.00     0.012 C 
HETATM   22  C25 UNL     1      -0.867 -46.296  11.922  1.00  0.00     0.165 A 
HETATM   23  O5  UNL     1       0.389 -46.000  11.601  1.00  0.00    -0.365 OA
BRANCH   9  24
HETATM   24  O4  UNL     1       1.418 -44.509  13.639  1.00  0.00    -0.386 OA
ATOM     25  H4  UNL     1       1.862 -44.645  14.469  1.00  0.00     0.210 HD
ENDBRANCH   9  24
BRANCH  18  26
HETATM   26  O6  UNL     1      -0.101 -46.313  17.468  1.00  0.00    -0.381 OA
BRANCH  26  27
HETATM   27  C28 UNL     1       1.054 -45.553  17.301  1.00  0.00     0.114 C 
HETATM   28  C29 UNL     1       2.129 -46.351  16.587  1.00  0.00     0.039 C 
HETATM   29  C30 UNL     1       1.586 -45.215  18.673  1.00  0.00     0.039 C 
ENDBRANCH  26  27
ENDBRANCH  18  26
ENDBRANCH   3   5
BRANCH   1  30
HETATM   30  C8  UNL     1      -2.994 -38.679  15.885  1.00  0.00     0.193 C 
BRANCH  30  31
HETATM   31  N2  UNL     1      -1.879 -37.817  16.041  1.00  0.00    -0.407 N 
ATOM     32  H2  UNL     1      -0.925 -38.174  15.986  1.00  0.00     0.154 HD
BRANCH  31  33
HETATM   33  C7  UNL     1      -2.138 -36.430  16.276  1.00  0.00     0.124 C 
BRANCH  33  34
HETATM   34  C6  UNL     1      -1.099 -35.792  17.154  1.00  0.00     0.122 C 
BRANCH  34  35
HETATM   35  C5  UNL     1      -0.552 -36.610  18.222  1.00  0.00     0.219 C 
HETATM   36  N1  UNL     1      -1.289 -36.768  19.459  1.00  0.00    -0.361 N 
ATOM     37  H1  UNL     1      -2.181 -36.280  19.540  1.00  0.00     0.162 HD
HETATM   38  O1  UNL     1       0.535 -37.209  18.150  1.00  0.00    -0.274 OA
BRANCH  36  39
HETATM   39  C4  UNL     1      -0.871 -37.544  20.563  1.00  0.00     0.122 C 
BRANCH  39  40
HETATM   40  C3  UNL     1      -1.798 -38.570  21.096  1.00  0.00     0.019 C 
BRANCH  40  41
HETATM   41  C2  UNL     1      -2.198 -39.659  20.154  1.00  0.00    -0.003 C 
HETATM   42  C1  UNL     1      -1.072 -40.253  19.402  1.00  0.00     0.005 C 
ENDBRANCH  40  41
ENDBRANCH  39  40
ENDBRANCH  36  39
ENDBRANCH  34  35
ENDBRANCH  33  34
ENDBRANCH  31  33
ENDBRANCH  30  31
BRANCH  30  43
HETATM   43  C9  UNL     1      -3.944 -38.801  17.032  1.00  0.00     0.202 C 
BRANCH  43  44
HETATM   44  O2  UNL     1      -5.099 -38.120  16.750  1.00  0.00    -0.387 OA
BRANCH  44  45
HETATM   45  C10 UNL     1      -5.815 -37.812  17.884  1.00  0.00     0.189 C 
BRANCH  45  46
HETATM   46  C11 UNL     1      -7.251 -38.214  17.819  1.00  0.00     0.181 C 
BRANCH  46  47
HETATM   47  N3  UNL     1      -7.389 -39.654  18.133  1.00  0.00    -0.251 N 
ATOM     48  H3  UNL     1      -8.091 -40.213  17.648  1.00  0.00     0.197 HD
BRANCH  47  49
HETATM   49  N4  UNL     1      -6.667 -40.178  18.970  1.00  0.00    -0.248 NA
BRANCH  49  50
HETATM   50  N5  UNL     1      -5.965 -40.849  19.753  1.00  0.00    -0.261 N 
ATOM     51  H52 UNL     1      -6.646 -41.588  19.582  1.00  0.00     0.193 HD
ATOM     52  H51 UNL     1      -5.315 -41.293  20.403  1.00  0.00     0.193 HD
ENDBRANCH  49  50
ENDBRANCH  47  49
ENDBRANCH  46  47
ENDBRANCH  45  46
ENDBRANCH  44  45
ENDBRANCH  43  44
ENDBRANCH  30  43
ENDBRANCH   1  30
TORSDOF 19
ENDMDL
MODEL 2
REMARK VINA RESULT: -8.123703263      3.586      8.798
REMARK  19 active torsions:
REMARK  status: ('A' for Active; 'I' for Inactive)
REMARK    1  A    between atoms: C2_2  and  C3_3 
REMARK    2  A    between atoms: C3_3  and  C4_4 
REMARK    3  A    between atoms: C4_4  and  N1_5 
REMARK       I    between atoms: N1_5  and  C5_7 
REMARK    4  A    between atoms: C5_7  and  C6_9 
REMARK    5  A    between atoms: C6_9  and  C7_10 
REMARK    6  A    between atoms: C7_10  and  N2_11 
REMARK    7  A    between atoms: N2_11  and  C8_13 
REMARK    8  A    between atoms: C8_13  and  C9_14 
REMARK    9  A    between atoms: C8_13  and  C12_24 
REMARK   10  A    between atoms: C9_14  and  O2_15 
REMARK   11  A    between atoms: O2_15  and  C10_16 
REMARK   12  A    between atoms: C10_16  and  C11_17 
REMARK   13  A    between atoms: C11_17  and  N3_18 
REMARK   14  A    between atoms: N3_18  and  N4_20 
REMARK   15  A    between atoms: N4_20  and  N5_21 
REMARK       I    between atoms: C12_24  and  N6_26 
REMARK   16  A    between atoms: N6_26  and  C13_28 
REMARK   17  A    between atoms: C17_32  and  O4_33 
REMARK   18  A    between atoms: C27_45  and  O6_46 
REMARK   19  A    between atoms: O6_46  and  C28_47 
ROOT
HETATM    1  C12 UNL     1       0.935 -43.283  14.066  1.00  0.00     0.242 C 
HETATM    2  O3  UNL     1       1.177 -42.046  13.950  1.00  0.00    -0.271 OA
HETATM    3  N6  UNL     1      -0.260 -43.692  14.698  1.00  0.00    -0.354 N 
ATOM      4  H6  UNL     1      -0.473 -44.685  14.789  1.00  0.00     0.162 HD
ENDROOT
BRANCH   3   5
HETATM    5  C13 UNL     1      -1.209 -42.678  15.231  1.00  0.00     0.088 C 
HETATM    6  C14 UNL     1      -2.260 -42.348  14.259  1.00  0.00     0.026 C 
HETATM    7  C15 UNL     1      -2.460 -40.937  13.826  1.00  0.00     0.013 C 
HETATM    8  C16 UNL     1      -2.799 -39.897  14.841  1.00  0.00     0.064 A 
HETATM    9  C17 UNL     1      -3.858 -40.516  15.571  1.00  0.00     0.103 A 
HETATM   10  C26 UNL     1      -3.838 -39.047  15.083  1.00  0.00     0.126 A 
HETATM   11  C18 UNL     1      -3.586 -40.472  17.012  1.00  0.00     0.035 C 
HETATM   12  C19 UNL     1      -2.263 -41.152  17.264  1.00  0.00     0.000 C 
HETATM   13  C24 UNL     1      -3.403 -39.079  17.485  1.00  0.00     0.025 C 
HETATM   14  C20 UNL     1      -1.706 -40.911  18.650  1.00  0.00     0.012 C 
HETATM   15  C31 UNL     1      -2.680 -42.604  17.263  1.00  0.00     0.025 C 
HETATM   16  C21 UNL     1      -2.897 -41.434  19.414  1.00  0.00     0.015 C 
HETATM   17  C22 UNL     1      -4.023 -40.531  19.502  1.00  0.00     0.007 C 
HETATM   18  C27 UNL     1      -3.009 -42.767  18.682  1.00  0.00     0.130 C 
HETATM   19  C23 UNL     1      -3.904 -39.137  18.855  1.00  0.00     0.008 C 
HETATM   20  C32 UNL     1      -1.703 -43.369  16.515  1.00  0.00     0.011 C 
HETATM   21  C33 UNL     1      -0.504 -43.894  17.228  1.00  0.00     0.012 C 
HETATM   22  C25 UNL     1      -3.932 -38.266  16.413  1.00  0.00     0.165 A 
HETATM   23  O5  UNL     1      -4.891 -38.487  15.517  1.00  0.00    -0.365 OA
BRANCH   9  24
HETATM   24  O4  UNL     1      -4.924 -41.167  15.011  1.00  0.00    -0.386 OA
ATOM     25  H4  UNL     1      -5.753 -41.330  15.445  1.00  0.00     0.210 HD
ENDBRANCH   9  24
BRANCH  18  26
HETATM   26  O6  UNL     1      -4.288 -43.245  18.947  1.00  0.00    -0.381 OA
BRANCH  26  27
HETATM   27  C28 UNL     1      -4.284 -44.439  19.664  1.00  0.00     0.114 C 
HETATM   28  C29 UNL     1      -3.743 -45.577  18.820  1.00  0.00     0.039 C 
HETATM   29  C30 UNL     1      -5.715 -44.777  20.006  1.00  0.00     0.039 C 
ENDBRANCH  26  27
ENDBRANCH  18  26
ENDBRANCH   3   5
BRANCH   1  30
HETATM   30  C8  UNL     1       1.937 -44.225  13.532  1.00  0.00     0.193 C 
BRANCH  30  31
HETATM   31  N2  UNL     1       1.529 -44.813  12.308  1.00  0.00    -0.407 N 
ATOM     32  H2  UNL     1       1.249 -44.237  11.514  1.00  0.00     0.154 HD
BRANCH  31  33
HETATM   33  C7  UNL     1       1.523 -46.241  12.225  1.00  0.00     0.124 C 
BRANCH  33  34
HETATM   34  C6  UNL     1       0.339 -46.768  11.467  1.00  0.00     0.122 C 
BRANCH  34  35
HETATM   35  C5  UNL     1      -0.969 -46.299  11.885  1.00  0.00     0.219 C 
HETATM   36  N1  UNL     1      -2.028 -47.251  12.149  1.00  0.00    -0.361 N 
ATOM     37  H1  UNL     1      -1.812 -48.239  12.017  1.00  0.00     0.162 HD
HETATM   38  O1  UNL     1      -1.257 -45.099  12.046  1.00  0.00    -0.274 OA
BRANCH  36  39
HETATM   39  C4  UNL     1      -3.334 -46.922  12.572  1.00  0.00     0.122 C 
BRANCH  39  40
HETATM   40  C3  UNL     1      -3.701 -47.170  13.986  1.00  0.00     0.019 C 
BRANCH  40  41
HETATM   41  C2  UNL     1      -3.001 -46.338  15.011  1.00  0.00    -0.003 C 
HETATM   42  C1  UNL     1      -1.891 -47.031  15.698  1.00  0.00     0.005 C 
ENDBRANCH  40  41
ENDBRANCH  39  40
ENDBRANCH  36  39
ENDBRANCH  34  35
ENDBRANCH  33  34
ENDBRANCH  31  33
ENDBRANCH  30  31
BRANCH  30  43
HETATM   43  C9  UNL     1       2.519 -45.123  14.575  1.00  0.00     0.202 C 
BRANCH  43  44
HETATM   44  O2  UNL     1       2.736 -44.413  15.728  1.00  0.00    -0.387 OA
BRANCH  44  45
HETATM   45  C10 UNL     1       3.795 -44.906  16.454  1.00  0.00     0.189 C 
BRANCH  45  46
HETATM   46  C11 UNL     1       4.404 -46.138  15.872  1.00  0.00     0.181 C 
BRANCH  46  47
HETATM   47  N3  UNL     1       5.814 -46.260  16.306  1.00  0.00    -0.251 N 
ATOM     48  H3  UNL     1       6.040 -46.263  17.300  1.00  0.00     0.197 HD
BRANCH  47  49
HETATM   49  N4  UNL     1       6.711 -46.358  15.479  1.00  0.00    -0.248 NA
BRANCH  49  50
HETATM   50  N5  UNL     1       7.696 -46.340  14.714  1.00  0.00    -0.261 N 
ATOM     51  H52 UNL     1       8.212 -46.032  15.538  1.00  0.00     0.193 HD
ATOM     52  H51 UNL     1       8.420 -46.365  13.996  1.00  0.00     0.193 HD
ENDBRANCH  49  50
ENDBRANCH  47  49
ENDBRANCH  46  47
ENDBRANCH  45  46
ENDBRANCH  44  45
ENDBRANCH  43  44
ENDBRANCH  30  43
ENDBRANCH   1  30
TORSDOF 19
ENDMDL
MODEL 3
REMARK VINA RESULT: -7.976262608      3.442      8.764
REMARK  19 active torsions:
REMARK  status: ('A' for Active; 'I' for Inactive)
REMARK    1  A    between atoms: C2_2  and  C3_3 
REMARK    2  A    between atoms: C3_3  and  C4_4 
REMARK    3  A    between atoms: C4_4  and  N1_5 
REMARK       I    between atoms: N1_5  and  C5_7 
REMARK    4  A    between atoms: C5_7  and  C6_9 
REMARK    5  A    between atoms: C6_9  and  C7_10 
REMARK    6  A    between atoms: C7_10  and  N2_11 
REMARK    7  A    between atoms: N2_11  and  C8_13 
REMARK    8  A    between atoms: C8_13  and  C9_14 
REMARK    9  A    between atoms: C8_13  and  C12_24 
REMARK   10  A    between atoms: C9_14  and  O2_15 
REMARK   11  A    between atoms: O2_15  and  C10_16 
REMARK   12  A    between atoms: C10_16  and  C11_17 
REMARK   13  A    between atoms: C11_17  and  N3_18 
REMARK   14  A    between atoms: N3_18  and  N4_20 
REMARK   15  A    between atoms: N4_20  and  N5_21 
REMARK       I    between atoms: C12_24  and  N6_26 
REMARK   16  A    between atoms: N6_26  and  C13_28 
REMARK   17  A    between atoms: C17_32  and  O4_33 
REMARK   18  A    between atoms: C27_45  and  O6_46 
REMARK   19  A    between atoms: O6_46  and  C28_47 
ROOT
HETATM    1  C12 UNL     1       0.419 -43.267  13.672  1.00  0.00     0.242 C 
HETATM    2  O3  UNL     1       0.709 -42.038  13.580  1.00  0.00    -0.271 OA
HETATM    3  N6  UNL     1      -0.729 -43.649  14.399  1.00  0.00    -0.354 N 
ATOM      4  H6  UNL     1      -0.980 -44.635  14.472  1.00  0.00     0.162 HD
ENDROOT
BRANCH   3   5
HETATM    5  C13 UNL     1      -1.574 -42.617  15.059  1.00  0.00     0.088 C 
HETATM    6  C14 UNL     1      -2.705 -42.213  14.214  1.00  0.00     0.026 C 
HETATM    7  C15 UNL     1      -2.889 -40.781  13.847  1.00  0.00     0.013 C 
HETATM    8  C16 UNL     1      -3.076 -39.764  14.924  1.00  0.00     0.064 A 
HETATM    9  C17 UNL     1      -4.078 -40.366  15.741  1.00  0.00     0.103 A 
HETATM   10  C26 UNL     1      -4.047 -38.883  15.299  1.00  0.00     0.126 A 
HETATM   11  C18 UNL     1      -3.657 -40.383  17.147  1.00  0.00     0.035 C 
HETATM   12  C19 UNL     1      -2.345 -41.124  17.237  1.00  0.00     0.000 C 
HETATM   13  C24 UNL     1      -3.367 -39.016  17.640  1.00  0.00     0.025 C 
HETATM   14  C20 UNL     1      -1.638 -40.953  18.565  1.00  0.00     0.012 C 
HETATM   15  C31 UNL     1      -2.822 -42.557  17.236  1.00  0.00     0.025 C 
HETATM   16  C21 UNL     1      -2.765 -41.455  19.433  1.00  0.00     0.015 C 
HETATM   17  C22 UNL     1      -3.835 -40.511  19.666  1.00  0.00     0.007 C 
HETATM   18  C27 UNL     1      -3.009 -42.756  18.676  1.00  0.00     0.130 C 
HETATM   19  C23 UNL     1      -3.725 -39.102  19.053  1.00  0.00     0.008 C 
HETATM   20  C32 UNL     1      -1.961 -43.333  16.367  1.00  0.00     0.011 C 
HETATM   21  C33 UNL     1      -0.718 -43.929  16.933  1.00  0.00     0.012 C 
HETATM   22  C25 UNL     1      -3.969 -38.146  16.655  1.00  0.00     0.165 A 
HETATM   23  O5  UNL     1      -5.024 -38.298  15.859  1.00  0.00    -0.365 OA
BRANCH   9  24
HETATM   24  O4  UNL     1      -5.224 -40.955  15.277  1.00  0.00    -0.386 OA
ATOM     25  H4  UNL     1      -5.860 -41.412  15.814  1.00  0.00     0.210 HD
ENDBRANCH   9  24
BRANCH  18  26
HETATM   26  O6  UNL     1      -4.272 -43.192  19.059  1.00  0.00    -0.381 OA
BRANCH  26  27
HETATM   27  C28 UNL     1      -4.237 -44.362  19.814  1.00  0.00     0.114 C 
HETATM   28  C29 UNL     1      -3.323 -45.391  19.176  1.00  0.00     0.039 C 
HETATM   29  C30 UNL     1      -5.630 -44.947  19.824  1.00  0.00     0.039 C 
ENDBRANCH  26  27
ENDBRANCH  18  26
ENDBRANCH   3   5
BRANCH   1  30
HETATM   30  C8  UNL     1       1.320 -44.228  13.007  1.00  0.00     0.193 C 
BRANCH  30  31
HETATM   31  N2  UNL     1       0.612 -45.227  12.292  1.00  0.00    -0.407 N 
ATOM     32  H2  UNL     1      -0.369 -45.103  12.043  1.00  0.00     0.154 HD
BRANCH  31  33
HETATM   33  C7  UNL     1       1.323 -46.415  11.930  1.00  0.00     0.124 C 
BRANCH  33  34
HETATM   34  C6  UNL     1       0.418 -47.605  11.789  1.00  0.00     0.122 C 
BRANCH  34  35
HETATM   35  C5  UNL     1      -0.991 -47.335  11.566  1.00  0.00     0.219 C 
HETATM   36  N1  UNL     1      -1.989 -47.980  12.393  1.00  0.00    -0.361 N 
ATOM     37  H1  UNL     1      -1.659 -48.622  13.112  1.00  0.00     0.162 HD
HETATM   38  O1  UNL     1      -1.419 -46.560  10.692  1.00  0.00    -0.274 OA
BRANCH  36  39
HETATM   39  C4  UNL     1      -3.385 -47.789  12.284  1.00  0.00     0.122 C 
BRANCH  39  40
HETATM   40  C3  UNL     1      -4.100 -47.148  13.412  1.00  0.00     0.019 C 
BRANCH  40  41
HETATM   41  C2  UNL     1      -3.349 -46.098  14.165  1.00  0.00    -0.003 C 
HETATM   42  C1  UNL     1      -2.892 -46.524  15.505  1.00  0.00     0.005 C 
ENDBRANCH  40  41
ENDBRANCH  39  40
ENDBRANCH  36  39
ENDBRANCH  34  35
ENDBRANCH  33  34
ENDBRANCH  31  33
ENDBRANCH  30  31
BRANCH  30  43
HETATM   43  C9  UNL     1       2.458 -44.666  13.872  1.00  0.00     0.202 C 
BRANCH  43  44
HETATM   44  O2  UNL     1       2.027 -44.809  15.165  1.00  0.00    -0.387 OA
BRANCH  44  45
HETATM   45  C10 UNL     1       2.500 -45.962  15.749  1.00  0.00     0.189 C 
BRANCH  45  46
HETATM   46  C11 UNL     1       3.712 -46.522  15.082  1.00  0.00     0.181 C 
BRANCH  46  47
HETATM   47  N3  UNL     1       4.852 -46.530  16.026  1.00  0.00    -0.251 N 
ATOM     48  H3  UNL     1       5.535 -47.287  15.989  1.00  0.00     0.197 HD
BRANCH  47  49
HETATM   49  N4  UNL     1       4.982 -45.635  16.850  1.00  0.00    -0.248 NA
BRANCH  49  50
HETATM   50  N5  UNL     1       5.254 -44.786  17.723  1.00  0.00    -0.261 N 
ATOM     51  H52 UNL     1       5.666 -45.572  18.225  1.00  0.00     0.193 HD
ATOM     52  H51 UNL     1       5.419 -44.006  18.359  1.00  0.00     0.193 HD
ENDBRANCH  49  50
ENDBRANCH  47  49
ENDBRANCH  46  47
ENDBRANCH  45  46
ENDBRANCH  44  45
ENDBRANCH  43  44
ENDBRANCH  30  43
ENDBRANCH   1  30
TORSDOF 19
ENDMDL
MODEL 4
REMARK VINA RESULT: -7.843958739      2.144      5.036
REMARK  19 active torsions:
REMARK  status: ('A' for Active; 'I' for Inactive)
REMARK    1  A    between atoms: C2_2  and  C3_3 
REMARK    2  A    between atoms: C3_3  and  C4_4 
REMARK    3  A    between atoms: C4_4  and  N1_5 
REMARK       I    between atoms: N1_5  and  C5_7 
REMARK    4  A    between atoms: C5_7  and  C6_9 
REMARK    5  A    between atoms: C6_9  and  C7_10 
REMARK    6  A    between atoms: C7_10  and  N2_11 
REMARK    7  A    between atoms: N2_11  and  C8_13 
REMARK    8  A    between atoms: C8_13  and  C9_14 
REMARK    9  A    between atoms: C8_13  and  C12_24 
REMARK   10  A    between atoms: C9_14  and  O2_15 
REMARK   11  A    between atoms: O2_15  and  C10_16 
REMARK   12  A    between atoms: C10_16  and  C11_17 
REMARK   13  A    between atoms: C11_17  and  N3_18 
REMARK   14  A    between atoms: N3_18  and  N4_20 
REMARK   15  A    between atoms: N4_20  and  N5_21 
REMARK       I    between atoms: C12_24  and  N6_26 
REMARK   16  A    between atoms: N6_26  and  C13_28 
REMARK   17  A    between atoms: C17_32  and  O4_33 
REMARK   18  A    between atoms: C27_45  and  O6_46 
REMARK   19  A    between atoms: O6_46  and  C28_47 
ROOT
HETATM    1  C12 UNL     1      -2.444 -41.657  18.198  1.00  0.00     0.242 C 
HETATM    2  O3  UNL     1      -1.247 -41.681  18.607  1.00  0.00    -0.271 OA
HETATM    3  N6  UNL     1      -2.813 -42.473  17.106  1.00  0.00    -0.354 N 
ATOM      4  H6  UNL     1      -3.777 -42.471  16.772  1.00  0.00     0.162 HD
ENDROOT
BRANCH   3   5
HETATM    5  C13 UNL     1      -1.799 -43.335  16.440  1.00  0.00     0.088 C 
HETATM    6  C14 UNL     1      -1.416 -44.476  17.279  1.00  0.00     0.026 C 
HETATM    7  C15 UNL     1       0.013 -44.690  17.643  1.00  0.00     0.013 C 
HETATM    8  C16 UNL     1       1.025 -44.892  16.563  1.00  0.00     0.064 A 
HETATM    9  C17 UNL     1       0.402 -45.879  15.743  1.00  0.00     0.103 A 
HETATM   10  C26 UNL     1       1.886 -45.878  16.183  1.00  0.00     0.126 A 
HETATM   11  C18 UNL     1       0.391 -45.451  14.339  1.00  0.00     0.035 C 
HETATM   12  C19 UNL     1      -0.324 -44.125  14.256  1.00  0.00     0.000 C 
HETATM   13  C24 UNL     1       1.763 -45.185  13.845  1.00  0.00     0.025 C 
HETATM   14  C20 UNL     1      -0.142 -43.415  12.931  1.00  0.00     0.012 C 
HETATM   15  C31 UNL     1      -1.766 -44.573  14.257  1.00  0.00     0.025 C 
HETATM   16  C21 UNL     1      -0.667 -44.528  12.059  1.00  0.00     0.015 C 
HETATM   17  C22 UNL     1       0.255 -45.616  11.820  1.00  0.00     0.007 C 
HETATM   18  C27 UNL     1      -1.971 -44.750  12.817  1.00  0.00     0.130 C 
HETATM   19  C23 UNL     1       1.668 -45.535  12.430  1.00  0.00     0.008 C 
HETATM   20  C32 UNL     1      -2.524 -43.702  15.132  1.00  0.00     0.011 C 
HETATM   21  C33 UNL     1      -3.097 -42.445  14.572  1.00  0.00     0.012 C 
HETATM   22  C25 UNL     1       2.623 -45.809  14.826  1.00  0.00     0.165 A 
HETATM   23  O5  UNL     1       2.451 -46.864  15.618  1.00  0.00    -0.365 OA
BRANCH   9  24
HETATM   24  O4  UNL     1      -0.208 -47.015  16.203  1.00  0.00    -0.386 OA
ATOM     25  H4  UNL     1       0.212 -47.863  16.291  1.00  0.00     0.210 HD
ENDBRANCH   9  24
BRANCH  18  26
HETATM   26  O6  UNL     1      -2.432 -46.003  12.429  1.00  0.00    -0.381 OA
BRANCH  26  27
HETATM   27  C28 UNL     1      -2.965 -46.738  13.485  1.00  0.00     0.114 C 
HETATM   28  C29 UNL     1      -2.238 -48.060  13.647  1.00  0.00     0.039 C 
HETATM   29  C30 UNL     1      -4.402 -47.057  13.149  1.00  0.00     0.039 C 
ENDBRANCH  26  27
ENDBRANCH  18  26
ENDBRANCH   3   5
BRANCH   1  30
HETATM   30  C8  UNL     1      -3.383 -40.759  18.897  1.00  0.00     0.193 C 
BRANCH  30  31
HETATM   31  N2  UNL     1      -4.544 -40.487  18.131  1.00  0.00    -0.407 N 
ATOM     32  H2  UNL     1      -4.579 -40.697  17.134  1.00  0.00     0.154 HD
BRANCH  31  33
HETATM   33  C7  UNL     1      -5.665 -39.907  18.804  1.00  0.00     0.124 C 
BRANCH  33  34
HETATM   34  C6  UNL     1      -6.060 -38.579  18.225  1.00  0.00     0.122 C 
BRANCH  34  35
HETATM   35  C5  UNL     1      -5.166 -38.004  17.236  1.00  0.00     0.219 C 
HETATM   36  N1  UNL     1      -4.098 -37.121  17.655  1.00  0.00    -0.361 N 
ATOM     37  H1  UNL     1      -4.017 -36.923  18.652  1.00  0.00     0.162 HD
HETATM   38  O1  UNL     1      -5.249 -38.225  16.014  1.00  0.00    -0.274 OA
BRANCH  36  39
HETATM   39  C4  UNL     1      -3.159 -36.512  16.793  1.00  0.00     0.122 C 
BRANCH  39  40
HETATM   40  C3  UNL     1      -2.888 -35.064  16.954  1.00  0.00     0.019 C 
BRANCH  40  41
HETATM   41  C2  UNL     1      -3.939 -34.265  17.654  1.00  0.00    -0.003 C 
HETATM   42  C1  UNL     1      -4.193 -32.940  17.051  1.00  0.00     0.005 C 
ENDBRANCH  40  41
ENDBRANCH  39  40
ENDBRANCH  36  39
ENDBRANCH  34  35
ENDBRANCH  33  34
ENDBRANCH  31  33
ENDBRANCH  30  31
BRANCH  30  43
HETATM   43  C9  UNL     1      -2.709 -39.608  19.571  1.00  0.00     0.202 C 
BRANCH  43  44
HETATM   44  O2  UNL     1      -3.207 -39.459  20.839  1.00  0.00    -0.387 OA
BRANCH  44  45
HETATM   45  C10 UNL     1      -2.754 -38.310  21.447  1.00  0.00     0.189 C 
BRANCH  45  46
HETATM   46  C11 UNL     1      -1.349 -38.403  21.940  1.00  0.00     0.181 C 
BRANCH  46  47
HETATM   47  N3  UNL     1      -0.566 -37.240  21.465  1.00  0.00    -0.251 N 
ATOM     48  H3  UNL     1      -0.602 -36.973  20.481  1.00  0.00     0.197 HD
BRANCH  47  49
HETATM   49  N4  UNL     1       0.122 -36.595  22.245  1.00  0.00    -0.248 NA
BRANCH  49  50
HETATM   50  N5  UNL     1       0.907 -35.891  22.913  1.00  0.00    -0.261 N 
ATOM     51  H52 UNL     1       0.742 -36.575  23.651  1.00  0.00     0.193 HD
ATOM     52  H51 UNL     1       1.556 -35.240  23.355  1.00  0.00     0.193 HD
ENDBRANCH  49  50
ENDBRANCH  47  49
ENDBRANCH  46  47
ENDBRANCH  45  46
ENDBRANCH  44  45
ENDBRANCH  43  44
ENDBRANCH  30  43
ENDBRANCH   1  30
TORSDOF 19
ENDMDL
MODEL 5
REMARK VINA RESULT: -7.798796827      1.716      3.946
REMARK  19 active torsions:
REMARK  status: ('A' for Active; 'I' for Inactive)
REMARK    1  A    between atoms: C2_2  and  C3_3 
REMARK    2  A    between atoms: C3_3  and  C4_4 
REMARK    3  A    between atoms: C4_4  and  N1_5 
REMARK       I    between atoms: N1_5  and  C5_7 
REMARK    4  A    between atoms: C5_7  and  C6_9 
REMARK    5  A    between atoms: C6_9  and  C7_10 
REMARK    6  A    between atoms: C7_10  and  N2_11 
REMARK    7  A    between atoms: N2_11  and  C8_13 
REMARK    8  A    between atoms: C8_13  and  C9_14 
REMARK    9  A    between atoms: C8_13  and  C12_24 
REMARK   10  A    between atoms: C9_14  and  O2_15 
REMARK   11  A    between atoms: O2_15  and  C10_16 
REMARK   12  A    between atoms: C10_16  and  C11_17 
REMARK   13  A    between atoms: C11_17  and  N3_18 
REMARK   14  A    between atoms: N3_18  and  N4_20 
REMARK   15  A    between atoms: N4_20  and  N5_21 
REMARK       I    between atoms: C12_24  and  N6_26 
REMARK   16  A    between atoms: N6_26  and  C13_28 
REMARK   17  A    between atoms: C17_32  and  O4_33 
REMARK   18  A    between atoms: C27_45  and  O6_46 
REMARK   19  A    between atoms: O6_46  and  C28_47 
ROOT
HETATM    1  C12 UNL     1      -3.225 -41.886  18.025  1.00  0.00     0.242 C 
HETATM    2  O3  UNL     1      -3.625 -41.384  16.934  1.00  0.00    -0.271 OA
HETATM    3  N6  UNL     1      -2.370 -43.009  17.990  1.00  0.00    -0.354 N 
ATOM      4  H6  UNL     1      -2.031 -43.417  18.862  1.00  0.00     0.162 HD
ENDROOT
BRANCH   3   5
HETATM    5  C13 UNL     1      -1.962 -43.600  16.687  1.00  0.00     0.088 C 
HETATM    6  C14 UNL     1      -0.698 -43.034  16.202  1.00  0.00     0.026 C 
HETATM    7  C15 UNL     1      -0.634 -42.387  14.862  1.00  0.00     0.013 C 
HETATM    8  C16 UNL     1      -0.973 -43.182  13.644  1.00  0.00     0.064 A 
HETATM    9  C17 UNL     1      -0.210 -44.372  13.835  1.00  0.00     0.103 A 
HETATM   10  C26 UNL     1      -0.331 -43.581  12.510  1.00  0.00     0.126 A 
HETATM   11  C18 UNL     1      -1.058 -45.559  13.682  1.00  0.00     0.035 C 
HETATM   12  C19 UNL     1      -2.192 -45.460  14.673  1.00  0.00     0.000 C 
HETATM   13  C24 UNL     1      -1.707 -45.591  12.350  1.00  0.00     0.025 C 
HETATM   14  C20 UNL     1      -3.311 -46.447  14.421  1.00  0.00     0.012 C 
HETATM   15  C31 UNL     1      -1.519 -45.953  15.932  1.00  0.00     0.025 C 
HETATM   16  C21 UNL     1      -2.465 -47.694  14.478  1.00  0.00     0.015 C 
HETATM   17  C22 UNL     1      -1.693 -47.975  13.288  1.00  0.00     0.007 C 
HETATM   18  C27 UNL     1      -1.783 -47.388  15.807  1.00  0.00     0.130 C 
HETATM   19  C23 UNL     1      -1.820 -47.023  12.083  1.00  0.00     0.008 C 
HETATM   20  C32 UNL     1      -1.914 -45.100  17.035  1.00  0.00     0.011 C 
HETATM   21  C33 UNL     1      -3.163 -45.424  17.781  1.00  0.00     0.012 C 
HETATM   22  C25 UNL     1      -0.963 -44.630  11.567  1.00  0.00     0.165 A 
HETATM   23  O5  UNL     1       0.304 -44.228  11.621  1.00  0.00    -0.365 OA
BRANCH   9  24
HETATM   24  O4  UNL     1       1.103 -44.411  14.222  1.00  0.00    -0.386 OA
ATOM     25  H4  UNL     1       1.412 -44.320  15.116  1.00  0.00     0.210 HD
ENDBRANCH   9  24
BRANCH  18  26
HETATM   26  O6  UNL     1      -0.662 -48.208  15.861  1.00  0.00    -0.381 OA
BRANCH  26  27
HETATM   27  C28 UNL     1       0.482 -47.538  16.291  1.00  0.00     0.114 C 
HETATM   28  C29 UNL     1       1.625 -47.735  15.314  1.00  0.00     0.039 C 
HETATM   29  C30 UNL     1       0.908 -48.148  17.605  1.00  0.00     0.039 C 
ENDBRANCH  26  27
ENDBRANCH  18  26
ENDBRANCH   3   5
BRANCH   1  30
HETATM   30  C8  UNL     1      -3.692 -41.256  19.274  1.00  0.00     0.193 C 
BRANCH  30  31
HETATM   31  N2  UNL     1      -5.008 -40.738  19.160  1.00  0.00    -0.407 N 
ATOM     32  H2  UNL     1      -5.794 -41.343  18.925  1.00  0.00     0.154 HD
BRANCH  31  33
HETATM   33  C7  UNL     1      -5.193 -39.338  19.387  1.00  0.00     0.124 C 
BRANCH  33  34
HETATM   34  C6  UNL     1      -5.881 -38.656  18.239  1.00  0.00     0.122 C 
BRANCH  34  35
HETATM   35  C5  UNL     1      -5.062 -38.325  17.087  1.00  0.00     0.219 C 
HETATM   36  N1  UNL     1      -3.641 -38.100  17.253  1.00  0.00    -0.361 N 
ATOM     37  H1  UNL     1      -3.261 -38.176  18.197  1.00  0.00     0.162 HD
HETATM   38  O1  UNL     1      -5.502 -38.221  15.928  1.00  0.00    -0.274 OA
BRANCH  36  39
HETATM   39  C4  UNL     1      -2.738 -37.786  16.214  1.00  0.00     0.122 C 
BRANCH  39  40
HETATM   40  C3  UNL     1      -2.128 -36.436  16.193  1.00  0.00     0.019 C 
BRANCH  40  41
HETATM   41  C2  UNL     1      -2.401 -35.564  17.375  1.00  0.00    -0.003 C 
HETATM   42  C1  UNL     1      -3.397 -34.501  17.126  1.00  0.00     0.005 C 
ENDBRANCH  40  41
ENDBRANCH  39  40
ENDBRANCH  36  39
ENDBRANCH  34  35
ENDBRANCH  33  34
ENDBRANCH  31  33
ENDBRANCH  30  31
BRANCH  30  43
HETATM   43  C9  UNL     1      -2.659 -40.393  19.923  1.00  0.00     0.202 C 
BRANCH  43  44
HETATM   44  O2  UNL     1      -1.817 -39.884  18.969  1.00  0.00    -0.387 OA
BRANCH  44  45
HETATM   45  C10 UNL     1      -0.908 -38.994  19.495  1.00  0.00     0.189 C 
BRANCH  45  46
HETATM   46  C11 UNL     1      -1.535 -37.810  20.153  1.00  0.00     0.181 C 
BRANCH  46  47
HETATM   47  N3  UNL     1      -1.180 -37.782  21.590  1.00  0.00    -0.251 N 
ATOM     48  H3  UNL     1      -1.653 -38.409  22.241  1.00  0.00     0.197 HD
BRANCH  47  49
HETATM   49  N4  UNL     1      -0.322 -37.013  22.002  1.00  0.00    -0.248 NA
BRANCH  49  50
HETATM   50  N5  UNL     1       0.458 -36.206  22.547  1.00  0.00    -0.261 N 
ATOM     51  H52 UNL     1       1.157 -36.604  21.921  1.00  0.00     0.193 HD
ATOM     52  H51 UNL     1       0.995 -35.510  23.064  1.00  0.00     0.193 HD
ENDBRANCH  49  50
ENDBRANCH  47  49
ENDBRANCH  46  47
ENDBRANCH  45  46
ENDBRANCH  44  45
ENDBRANCH  43  44
ENDBRANCH  30  43
ENDBRANCH   1  30
TORSDOF 19
ENDMDL
