MODEL 1
REMARK VINA RESULT: -8.144299520      0.000      0.000
REMARK  13 active torsions:
REMARK  status: ('A' for Active; 'I' for Inactive)
REMARK    1  A    between atoms: C2_2  and  C3_3 
REMARK    2  A    between atoms: C3_3  and  C27_37 
REMARK    3  A    between atoms: C4_4  and  C5_5 
REMARK    4  A    between atoms: C5_5  and  C6_6 
REMARK    5  A    between atoms: C7_7  and  C8_8 
REMARK    6  A    between atoms: C8_8  and  O1_9 
REMARK    7  A    between atoms: C9_11  and  O2_12 
REMARK    8  A    between atoms: O2_12  and  C10_13 
REMARK    9  A    between atoms: C12_16  and  C13_17 
REMARK   10  A    between atoms: C13_17  and  S1_18 
REMARK   11  A    between atoms: S1_18  and  N1_21 
REMARK   12  A    between atoms: C18_26  and  C19_27 
REMARK   13  A    between atoms: C27_37  and  O8_38 
ROOT
HETATM    1  C6  UNL     1       1.536 -45.007  14.783  1.00  0.00     0.002 C 
HETATM    2  C7  UNL     1       1.021 -45.351  13.437  1.00  0.00     0.044 C 
HETATM    3  C9  UNL     1      -0.462 -45.632  13.610  1.00  0.00     0.149 C 
HETATM    4  C12 UNL     1      -0.771 -45.606  15.113  1.00  0.00     0.012 C 
HETATM    5  C20 UNL     1       0.624 -45.862  15.668  1.00  0.00     0.003 C 
HETATM    6  C21 UNL     1       1.095 -47.253  15.582  1.00  0.00     0.006 C 
HETATM    7  C22 UNL     1       0.065 -48.206  16.153  1.00  0.00     0.001 C 
HETATM    8  C23 UNL     1      -1.153 -48.083  15.289  1.00  0.00     0.010 C 
HETATM    9  C24 UNL     1      -1.732 -46.686  15.436  1.00  0.00    -0.036 C 
HETATM   10  C25 UNL     1      -3.030 -46.659  14.671  1.00  0.00     0.015 C 
HETATM   11  C26 UNL     1      -2.157 -46.711  16.919  1.00  0.00     0.015 C 
ENDROOT
BRANCH   4  12
HETATM   12  C13 UNL     1      -1.231 -44.224  15.338  1.00  0.00     0.176 C 
BRANCH  12  13
HETATM   13  S1  UNL     1      -1.957 -43.134  14.271  1.00  0.00     0.233 S 
HETATM   14  O4  UNL     1      -1.156 -42.309  13.319  1.00  0.00    -0.205 OA
HETATM   15  O5  UNL     1      -3.081 -43.704  13.447  1.00  0.00    -0.205 OA
BRANCH  13  16
HETATM   16  N1  UNL     1      -2.730 -41.906  15.285  1.00  0.00    -0.275 N 
HETATM   17  C14 UNL     1      -2.403 -42.044  16.625  1.00  0.00     0.077 C 
HETATM   18  C15 UNL     1      -1.663 -40.956  17.301  1.00  0.00     0.046 C 
HETATM   19  C16 UNL     1      -1.820 -39.595  16.718  1.00  0.00     0.008 C 
HETATM   20  C17 UNL     1      -3.019 -39.613  15.815  1.00  0.00     0.038 C 
HETATM   21  C18 UNL     1      -2.775 -40.637  14.726  1.00  0.00     0.201 C 
BRANCH  21  22
HETATM   22  C19 UNL     1      -3.901 -40.430  13.745  1.00  0.00     0.197 C 
HETATM   23  O6  UNL     1      -5.016 -40.973  14.008  1.00  0.00    -0.646 OA
HETATM   24  O7  UNL     1      -3.790 -39.697  12.597  1.00  0.00    -0.646 OA
ENDBRANCH  21  22
ENDBRANCH  13  16
ENDBRANCH  12  13
ENDBRANCH   4  12
BRANCH   3  25
HETATM   25  O2  UNL     1      -0.758 -46.748  12.898  1.00  0.00    -0.315 OA
BRANCH  25  26
HETATM   26  C10 UNL     1      -1.127 -46.724  11.562  1.00  0.00     0.255 C 
HETATM   27  C11 UNL     1      -0.842 -47.821  10.601  1.00  0.00     0.126 C 
HETATM   28  O3  UNL     1      -1.744 -45.701  11.155  1.00  0.00    -0.266 OA
ENDBRANCH  25  26
ENDBRANCH   3  25
BRANCH   2  29
HETATM   29  C8  UNL     1       1.343 -44.405  12.326  1.00  0.00     0.171 C 
BRANCH  29  30
HETATM   30  O1  UNL     1       0.274 -43.872  11.641  1.00  0.00    -0.400 OA
ATOM     31  H1  UNL     1       0.440 -43.584  10.751  1.00  0.00     0.209 HD
ENDBRANCH  29  30
ENDBRANCH   2  29
BRANCH   1  32
HETATM   32  C5  UNL     1       2.998 -45.365  14.929  1.00  0.00     0.033 C 
BRANCH  32  33
HETATM   33  C4  UNL     1       3.514 -45.047  16.269  1.00  0.00    -0.017 C 
HETATM   34  C3  UNL     1       4.427 -45.688  16.959  1.00  0.00    -0.039 C 
BRANCH  34  35
HETATM   35  C2  UNL     1       4.801 -45.201  18.288  1.00  0.00    -0.001 C 
HETATM   36  C1  UNL     1       3.931 -45.021  19.243  1.00  0.00     0.012 C 
ENDBRANCH  34  35
BRANCH  34  37
HETATM   37  C27 UNL     1       5.122 -46.904  16.484  1.00  0.00     0.202 C 
BRANCH  37  38
HETATM   38  O8  UNL     1       6.433 -46.567  16.092  1.00  0.00    -0.396 OA
ATOM     39  H8  UNL     1       7.014 -46.649  16.840  1.00  0.00     0.209 HD
ENDBRANCH  37  38
ENDBRANCH  34  37
ENDBRANCH  32  33
ENDBRANCH   1  32
TORSDOF 13
ENDMDL
MODEL 2
REMARK VINA RESULT: -7.938268617      1.200      1.606
REMARK  13 active torsions:
REMARK  status: ('A' for Active; 'I' for Inactive)
REMARK    1  A    between atoms: C2_2  and  C3_3 
REMARK    2  A    between atoms: C3_3  and  C27_37 
REMARK    3  A    between atoms: C4_4  and  C5_5 
REMARK    4  A    between atoms: C5_5  and  C6_6 
REMARK    5  A    between atoms: C7_7  and  C8_8 
REMARK    6  A    between atoms: C8_8  and  O1_9 
REMARK    7  A    between atoms: C9_11  and  O2_12 
REMARK    8  A    between atoms: O2_12  and  C10_13 
REMARK    9  A    between atoms: C12_16  and  C13_17 
REMARK   10  A    between atoms: C13_17  and  S1_18 
REMARK   11  A    between atoms: S1_18  and  N1_21 
REMARK   12  A    between atoms: C18_26  and  C19_27 
REMARK   13  A    between atoms: C27_37  and  O8_38 
ROOT
HETATM    1  C6  UNL     1       1.017 -44.283  16.133  1.00  0.00     0.002 C 
HETATM    2  C7  UNL     1       1.033 -44.441  14.660  1.00  0.00     0.044 C 
HETATM    3  C9  UNL     1      -0.392 -44.774  14.253  1.00  0.00     0.149 C 
HETATM    4  C12 UNL     1      -1.211 -44.970  15.536  1.00  0.00     0.012 C 
HETATM    5  C20 UNL     1      -0.086 -45.274  16.517  1.00  0.00     0.003 C 
HETATM    6  C21 UNL     1       0.481 -46.629  16.430  1.00  0.00     0.006 C 
HETATM    7  C22 UNL     1      -0.614 -47.675  16.468  1.00  0.00     0.001 C 
HETATM    8  C23 UNL     1      -1.455 -47.454  15.249  1.00  0.00     0.010 C 
HETATM    9  C24 UNL     1      -2.146 -46.105  15.354  1.00  0.00    -0.036 C 
HETATM   10  C25 UNL     1      -3.090 -45.994  14.185  1.00  0.00     0.015 C 
HETATM   11  C26 UNL     1      -3.062 -46.350  16.570  1.00  0.00     0.015 C 
ENDROOT
BRANCH   4  12
HETATM   12  C13 UNL     1      -1.816 -43.644  15.754  1.00  0.00     0.176 C 
BRANCH  12  13
HETATM   13  S1  UNL     1      -2.322 -42.484  14.635  1.00  0.00     0.233 S 
HETATM   14  O4  UNL     1      -1.363 -41.798  13.720  1.00  0.00    -0.205 OA
HETATM   15  O5  UNL     1      -3.470 -42.906  13.756  1.00  0.00    -0.205 OA
BRANCH  13  16
HETATM   16  N1  UNL     1      -2.969 -41.140  15.590  1.00  0.00    -0.275 N 
HETATM   17  C14 UNL     1      -2.718 -41.286  16.945  1.00  0.00     0.077 C 
HETATM   18  C15 UNL     1      -1.869 -40.286  17.631  1.00  0.00     0.046 C 
HETATM   19  C16 UNL     1      -1.822 -38.932  17.016  1.00  0.00     0.008 C 
HETATM   20  C17 UNL     1      -2.975 -38.816  16.061  1.00  0.00     0.038 C 
HETATM   21  C18 UNL     1      -2.824 -39.891  15.004  1.00  0.00     0.201 C 
BRANCH  21  22
HETATM   22  C19 UNL     1      -3.871 -39.564  13.971  1.00  0.00     0.197 C 
HETATM   23  O6  UNL     1      -4.931 -38.994  14.370  1.00  0.00    -0.646 OA
HETATM   24  O7  UNL     1      -3.746 -39.844  12.640  1.00  0.00    -0.646 OA
ENDBRANCH  21  22
ENDBRANCH  13  16
ENDBRANCH  12  13
ENDBRANCH   4  12
BRANCH   3  25
HETATM   25  O2  UNL     1      -0.339 -45.782  13.347  1.00  0.00    -0.315 OA
BRANCH  25  26
HETATM   26  C10 UNL     1      -0.645 -45.618  12.005  1.00  0.00     0.255 C 
HETATM   27  C11 UNL     1      -1.092 -46.719  11.113  1.00  0.00     0.126 C 
HETATM   28  O3  UNL     1      -0.530 -44.455  11.528  1.00  0.00    -0.266 OA
ENDBRANCH  25  26
ENDBRANCH   3  25
BRANCH   2  29
HETATM   29  C8  UNL     1       1.659 -43.340  13.867  1.00  0.00     0.171 C 
BRANCH  29  30
HETATM   30  O1  UNL     1       1.976 -43.627  12.558  1.00  0.00    -0.400 OA
ATOM     31  H1  UNL     1       1.258 -43.616  11.935  1.00  0.00     0.209 HD
ENDBRANCH  29  30
ENDBRANCH   2  29
BRANCH   1  32
HETATM   32  C5  UNL     1       2.355 -44.628  16.746  1.00  0.00     0.033 C 
BRANCH  32  33
HETATM   33  C4  UNL     1       3.304 -45.145  15.749  1.00  0.00    -0.017 C 
HETATM   34  C3  UNL     1       4.454 -45.741  15.956  1.00  0.00    -0.039 C 
BRANCH  34  35
HETATM   35  C2  UNL     1       5.254 -46.183  14.812  1.00  0.00    -0.001 C 
HETATM   36  C1  UNL     1       6.513 -46.507  14.915  1.00  0.00     0.012 C 
ENDBRANCH  34  35
BRANCH  34  37
HETATM   37  C27 UNL     1       5.022 -45.999  17.297  1.00  0.00     0.202 C 
BRANCH  37  38
HETATM   38  O8  UNL     1       5.500 -44.789  17.839  1.00  0.00    -0.396 OA
ATOM     39  H8  UNL     1       5.902 -44.273  17.149  1.00  0.00     0.209 HD
ENDBRANCH  37  38
ENDBRANCH  34  37
ENDBRANCH  32  33
ENDBRANCH   1  32
TORSDOF 13
ENDMDL
MODEL 3
REMARK VINA RESULT: -7.924206445      0.915      1.559
REMARK  13 active torsions:
REMARK  status: ('A' for Active; 'I' for Inactive)
REMARK    1  A    between atoms: C2_2  and  C3_3 
REMARK    2  A    between atoms: C3_3  and  C27_37 
REMARK    3  A    between atoms: C4_4  and  C5_5 
REMARK    4  A    between atoms: C5_5  and  C6_6 
REMARK    5  A    between atoms: C7_7  and  C8_8 
REMARK    6  A    between atoms: C8_8  and  O1_9 
REMARK    7  A    between atoms: C9_11  and  O2_12 
REMARK    8  A    between atoms: O2_12  and  C10_13 
REMARK    9  A    between atoms: C12_16  and  C13_17 
REMARK   10  A    between atoms: C13_17  and  S1_18 
REMARK   11  A    between atoms: S1_18  and  N1_21 
REMARK   12  A    between atoms: C18_26  and  C19_27 
REMARK   13  A    between atoms: C27_37  and  O8_38 
ROOT
HETATM    1  C6  UNL     1       1.521 -44.701  15.234  1.00  0.00     0.002 C 
HETATM    2  C7  UNL     1       1.188 -45.117  13.852  1.00  0.00     0.044 C 
HETATM    3  C9  UNL     1      -0.281 -45.503  13.867  1.00  0.00     0.149 C 
HETATM    4  C12 UNL     1      -0.760 -45.461  15.325  1.00  0.00     0.012 C 
HETATM    5  C20 UNL     1       0.577 -45.597  16.040  1.00  0.00     0.003 C 
HETATM    6  C21 UNL     1       1.152 -46.952  16.056  1.00  0.00     0.006 C 
HETATM    7  C22 UNL     1       0.134 -47.964  16.540  1.00  0.00     0.001 C 
HETATM    8  C23 UNL     1      -0.982 -47.954  15.542  1.00  0.00     0.010 C 
HETATM    9  C24 UNL     1      -1.673 -46.601  15.575  1.00  0.00    -0.036 C 
HETATM   10  C25 UNL     1      -2.873 -46.690  14.669  1.00  0.00     0.015 C 
HETATM   11  C26 UNL     1      -2.261 -46.618  17.001  1.00  0.00     0.015 C 
ENDROOT
BRANCH   4  12
HETATM   12  C13 UNL     1      -1.340 -44.112  15.449  1.00  0.00     0.176 C 
BRANCH  12  13
HETATM   13  S1  UNL     1      -2.057 -43.126  14.279  1.00  0.00     0.233 S 
HETATM   14  O4  UNL     1      -1.248 -42.395  13.259  1.00  0.00    -0.205 OA
HETATM   15  O5  UNL     1      -3.177 -43.769  13.505  1.00  0.00    -0.205 OA
BRANCH  13  16
HETATM   16  N1  UNL     1      -2.834 -41.806  15.168  1.00  0.00    -0.275 N 
HETATM   17  C14 UNL     1      -2.532 -41.830  16.520  1.00  0.00     0.077 C 
HETATM   18  C15 UNL     1      -1.791 -40.694  17.112  1.00  0.00     0.046 C 
HETATM   19  C16 UNL     1      -1.922 -39.388  16.411  1.00  0.00     0.008 C 
HETATM   20  C17 UNL     1      -3.106 -39.473  15.491  1.00  0.00     0.038 C 
HETATM   21  C18 UNL     1      -2.855 -40.591  14.499  1.00  0.00     0.201 C 
BRANCH  21  22
HETATM   22  C19 UNL     1      -3.961 -40.459  13.484  1.00  0.00     0.197 C 
HETATM   23  O6  UNL     1      -3.792 -39.634  12.537  1.00  0.00    -0.646 OA
HETATM   24  O7  UNL     1      -5.126 -41.171  13.526  1.00  0.00    -0.646 OA
ENDBRANCH  21  22
ENDBRANCH  13  16
ENDBRANCH  12  13
ENDBRANCH   4  12
BRANCH   3  25
HETATM   25  O2  UNL     1      -0.413 -46.656  13.165  1.00  0.00    -0.315 OA
BRANCH  25  26
HETATM   26  C10 UNL     1      -0.911 -46.709  11.872  1.00  0.00     0.255 C 
HETATM   27  C11 UNL     1      -0.824 -47.906  10.997  1.00  0.00     0.126 C 
HETATM   28  O3  UNL     1      -1.468 -45.668  11.429  1.00  0.00    -0.266 OA
ENDBRANCH  25  26
ENDBRANCH   3  25
BRANCH   2  29
HETATM   29  C8  UNL     1       1.567 -44.179  12.752  1.00  0.00     0.171 C 
BRANCH  29  30
HETATM   30  O1  UNL     1       0.572 -43.839  11.863  1.00  0.00    -0.400 OA
ATOM     31  H1  UNL     1       0.285 -44.521  11.265  1.00  0.00     0.209 HD
ENDBRANCH  29  30
ENDBRANCH   2  29
BRANCH   1  32
HETATM   32  C5  UNL     1       2.978 -44.944  15.555  1.00  0.00     0.033 C 
BRANCH  32  33
HETATM   33  C4  UNL     1       3.529 -46.077  14.797  1.00  0.00    -0.017 C 
HETATM   34  C3  UNL     1       4.672 -46.695  14.978  1.00  0.00    -0.039 C 
BRANCH  34  35
HETATM   35  C2  UNL     1       5.036 -47.812  14.104  1.00  0.00    -0.001 C 
HETATM   36  C1  UNL     1       4.471 -48.984  14.185  1.00  0.00     0.012 C 
ENDBRANCH  34  35
BRANCH  34  37
HETATM   37  C27 UNL     1       5.652 -46.332  16.025  1.00  0.00     0.202 C 
BRANCH  37  38
HETATM   38  O8  UNL     1       6.954 -46.591  15.552  1.00  0.00    -0.396 OA
ATOM     39  H8  UNL     1       6.909 -46.863  14.643  1.00  0.00     0.209 HD
ENDBRANCH  37  38
ENDBRANCH  34  37
ENDBRANCH  32  33
ENDBRANCH   1  32
TORSDOF 13
ENDMDL
MODEL 4
REMARK VINA RESULT: -7.714023289      1.501      1.770
REMARK  13 active torsions:
REMARK  status: ('A' for Active; 'I' for Inactive)
REMARK    1  A    between atoms: C2_2  and  C3_3 
REMARK    2  A    between atoms: C3_3  and  C27_37 
REMARK    3  A    between atoms: C4_4  and  C5_5 
REMARK    4  A    between atoms: C5_5  and  C6_6 
REMARK    5  A    between atoms: C7_7  and  C8_8 
REMARK    6  A    between atoms: C8_8  and  O1_9 
REMARK    7  A    between atoms: C9_11  and  O2_12 
REMARK    8  A    between atoms: O2_12  and  C10_13 
REMARK    9  A    between atoms: C12_16  and  C13_17 
REMARK   10  A    between atoms: C13_17  and  S1_18 
REMARK   11  A    between atoms: S1_18  and  N1_21 
REMARK   12  A    between atoms: C18_26  and  C19_27 
REMARK   13  A    between atoms: C27_37  and  O8_38 
ROOT
HETATM    1  C6  UNL     1       1.500 -46.178  14.421  1.00  0.00     0.002 C 
HETATM    2  C7  UNL     1       1.180 -46.641  13.051  1.00  0.00     0.044 C 
HETATM    3  C9  UNL     1      -0.297 -46.349  12.839  1.00  0.00     0.149 C 
HETATM    4  C12 UNL     1      -0.872 -45.857  14.174  1.00  0.00     0.012 C 
HETATM    5  C20 UNL     1       0.166 -46.430  15.130  1.00  0.00     0.003 C 
HETATM    6  C21 UNL     1       0.063 -47.875  15.386  1.00  0.00     0.006 C 
HETATM    7  C22 UNL     1      -1.351 -48.252  15.778  1.00  0.00     0.001 C 
HETATM    8  C23 UNL     1      -2.219 -47.935  14.599  1.00  0.00     0.010 C 
HETATM    9  C24 UNL     1      -2.223 -46.433  14.370  1.00  0.00    -0.036 C 
HETATM   10  C25 UNL     1      -3.219 -46.152  13.275  1.00  0.00     0.015 C 
HETATM   11  C26 UNL     1      -2.918 -45.952  15.660  1.00  0.00     0.015 C 
ENDROOT
BRANCH   4  12
HETATM   12  C13 UNL     1      -0.791 -44.391  14.054  1.00  0.00     0.176 C 
BRANCH  12  13
HETATM   13  S1  UNL     1      -0.279 -43.235  15.175  1.00  0.00     0.233 S 
HETATM   14  O4  UNL     1       0.542 -43.600  16.367  1.00  0.00    -0.205 OA
HETATM   15  O5  UNL     1       0.404 -42.032  14.581  1.00  0.00    -0.205 OA
BRANCH  13  16
HETATM   16  N1  UNL     1      -1.754 -42.587  15.910  1.00  0.00    -0.275 N 
HETATM   17  C14 UNL     1      -1.817 -42.832  17.273  1.00  0.00     0.077 C 
HETATM   18  C15 UNL     1      -1.830 -41.687  18.210  1.00  0.00     0.046 C 
HETATM   19  C16 UNL     1      -2.349 -40.401  17.669  1.00  0.00     0.008 C 
HETATM   20  C17 UNL     1      -3.104 -40.701  16.406  1.00  0.00     0.038 C 
HETATM   21  C18 UNL     1      -2.146 -41.348  15.426  1.00  0.00     0.201 C 
BRANCH  21  22
HETATM   22  C19 UNL     1      -2.907 -41.402  14.126  1.00  0.00     0.197 C 
HETATM   23  O6  UNL     1      -2.840 -40.390  13.364  1.00  0.00    -0.646 OA
HETATM   24  O7  UNL     1      -3.660 -42.469  13.724  1.00  0.00    -0.646 OA
ENDBRANCH  21  22
ENDBRANCH  13  16
ENDBRANCH  12  13
ENDBRANCH   4  12
BRANCH   3  25
HETATM   25  O2  UNL     1      -0.852 -47.435  12.245  1.00  0.00    -0.315 OA
BRANCH  25  26
HETATM   26  C10 UNL     1      -0.874 -47.626  10.872  1.00  0.00     0.255 C 
HETATM   27  C11 UNL     1      -0.102 -48.682  10.167  1.00  0.00     0.126 C 
HETATM   28  O3  UNL     1      -1.599 -46.845  10.196  1.00  0.00    -0.266 OA
ENDBRANCH  25  26
ENDBRANCH   3  25
BRANCH   2  29
HETATM   29  C8  UNL     1       2.066 -46.160  11.948  1.00  0.00     0.171 C 
BRANCH  29  30
HETATM   30  O1  UNL     1       2.998 -47.056  11.473  1.00  0.00    -0.400 OA
ATOM     31  H1  UNL     1       3.191 -47.015  10.543  1.00  0.00     0.209 HD
ENDBRANCH  29  30
ENDBRANCH   2  29
BRANCH   1  32
HETATM   32  C5  UNL     1       2.642 -46.965  15.023  1.00  0.00     0.033 C 
BRANCH  32  33
HETATM   33  C4  UNL     1       3.284 -46.246  16.133  1.00  0.00    -0.017 C 
HETATM   34  C3  UNL     1       4.524 -45.825  16.218  1.00  0.00    -0.039 C 
BRANCH  34  35
HETATM   35  C2  UNL     1       4.967 -45.123  17.423  1.00  0.00    -0.001 C 
HETATM   36  C1  UNL     1       4.266 -45.096  18.522  1.00  0.00     0.012 C 
ENDBRANCH  34  35
BRANCH  34  37
HETATM   37  C27 UNL     1       5.538 -46.021  15.159  1.00  0.00     0.202 C 
BRANCH  37  38
HETATM   38  O8  UNL     1       6.754 -46.421  15.749  1.00  0.00    -0.396 OA
ATOM     39  H8  UNL     1       7.270 -46.898  15.109  1.00  0.00     0.209 HD
ENDBRANCH  37  38
ENDBRANCH  34  37
ENDBRANCH  32  33
ENDBRANCH   1  32
TORSDOF 13
ENDMDL
MODEL 5
REMARK VINA RESULT: -7.503330494      2.576      6.523
REMARK  13 active torsions:
REMARK  status: ('A' for Active; 'I' for Inactive)
REMARK    1  A    between atoms: C2_2  and  C3_3 
REMARK    2  A    between atoms: C3_3  and  C27_37 
REMARK    3  A    between atoms: C4_4  and  C5_5 
REMARK    4  A    between atoms: C5_5  and  C6_6 
REMARK    5  A    between atoms: C7_7  and  C8_8 
REMARK    6  A    between atoms: C8_8  and  O1_9 
REMARK    7  A    between atoms: C9_11  and  O2_12 
REMARK    8  A    between atoms: O2_12  and  C10_13 
REMARK    9  A    between atoms: C12_16  and  C13_17 
REMARK   10  A    between atoms: C13_17  and  S1_18 
REMARK   11  A    between atoms: S1_18  and  N1_21 
REMARK   12  A    between atoms: C18_26  and  C19_27 
REMARK   13  A    between atoms: C27_37  and  O8_38 
ROOT
HETATM    1  C6  UNL     1      -1.488 -45.493  14.921  1.00  0.00     0.002 C 
HETATM    2  C7  UNL     1      -1.991 -44.099  14.919  1.00  0.00     0.044 C 
HETATM    3  C9  UNL     1      -1.476 -43.461  16.198  1.00  0.00     0.149 C 
HETATM    4  C12 UNL     1      -0.800 -44.560  17.030  1.00  0.00     0.012 C 
HETATM    5  C20 UNL     1      -1.465 -45.789  16.424  1.00  0.00     0.003 C 
HETATM    6  C21 UNL     1      -2.851 -46.036  16.852  1.00  0.00     0.006 C 
HETATM    7  C22 UNL     1      -2.961 -46.007  18.362  1.00  0.00     0.001 C 
HETATM    8  C23 UNL     1      -2.592 -44.620  18.790  1.00  0.00     0.010 C 
HETATM    9  C24 UNL     1      -1.130 -44.366  18.461  1.00  0.00    -0.036 C 
HETATM   10  C25 UNL     1      -0.769 -43.024  19.041  1.00  0.00     0.015 C 
HETATM   11  C26 UNL     1      -0.449 -45.388  19.395  1.00  0.00     0.015 C 
ENDROOT
BRANCH   4  12
HETATM   12  C13 UNL     1       0.620 -44.436  16.658  1.00  0.00     0.176 C 
BRANCH  12  13
HETATM   13  S1  UNL     1       1.937 -45.418  17.053  1.00  0.00     0.233 S 
HETATM   14  O4  UNL     1       3.022 -44.953  17.967  1.00  0.00    -0.205 OA
HETATM   15  O5  UNL     1       1.578 -46.797  17.540  1.00  0.00    -0.205 OA
BRANCH  13  16
HETATM   16  N1  UNL     1       2.806 -45.697  15.537  1.00  0.00    -0.275 N 
HETATM   17  C14 UNL     1       3.408 -46.945  15.495  1.00  0.00     0.077 C 
HETATM   18  C15 UNL     1       2.973 -47.920  14.470  1.00  0.00     0.046 C 
HETATM   19  C16 UNL     1       2.378 -47.348  13.231  1.00  0.00     0.008 C 
HETATM   20  C17 UNL     1       2.737 -45.891  13.175  1.00  0.00     0.038 C 
HETATM   21  C18 UNL     1       2.166 -45.215  14.405  1.00  0.00     0.201 C 
BRANCH  21  22
HETATM   22  C19 UNL     1       2.364 -43.741  14.160  1.00  0.00     0.197 C 
HETATM   23  O6  UNL     1       1.731 -43.217  13.194  1.00  0.00    -0.646 OA
HETATM   24  O7  UNL     1       3.181 -42.944  14.911  1.00  0.00    -0.646 OA
ENDBRANCH  21  22
ENDBRANCH  13  16
ENDBRANCH  12  13
ENDBRANCH   4  12
BRANCH   3  25
HETATM   25  O2  UNL     1      -2.496 -42.755  16.748  1.00  0.00    -0.315 OA
BRANCH  25  26
HETATM   26  C10 UNL     1      -2.745 -41.423  16.457  1.00  0.00     0.255 C 
HETATM   27  C11 UNL     1      -1.730 -40.344  16.571  1.00  0.00     0.126 C 
HETATM   28  O3  UNL     1      -3.910 -41.127  16.073  1.00  0.00    -0.266 OA
ENDBRANCH  25  26
ENDBRANCH   3  25
BRANCH   2  29
HETATM   29  C8  UNL     1      -1.744 -43.292  13.686  1.00  0.00     0.171 C 
BRANCH  29  30
HETATM   30  O1  UNL     1      -0.787 -42.305  13.777  1.00  0.00    -0.400 OA
ATOM     31  H1  UNL     1      -0.855 -41.590  13.156  1.00  0.00     0.209 HD
ENDBRANCH  29  30
ENDBRANCH   2  29
BRANCH   1  32
HETATM   32  C5  UNL     1      -2.407 -46.419  14.156  1.00  0.00     0.033 C 
BRANCH  32  33
HETATM   33  C4  UNL     1      -1.660 -47.391  13.344  1.00  0.00    -0.017 C 
HETATM   34  C3  UNL     1      -1.179 -47.237  12.133  1.00  0.00    -0.039 C 
BRANCH  34  35
HETATM   35  C2  UNL     1      -0.459 -48.341  11.497  1.00  0.00    -0.001 C 
HETATM   36  C1  UNL     1      -0.445 -48.523  10.206  1.00  0.00     0.012 C 
ENDBRANCH  34  35
BRANCH  34  37
HETATM   37  C27 UNL     1      -1.320 -45.998  11.338  1.00  0.00     0.202 C 
BRANCH  37  38
HETATM   38  O8  UNL     1      -0.167 -45.204  11.506  1.00  0.00    -0.396 OA
ATOM     39  H8  UNL     1      -0.020 -44.695  10.717  1.00  0.00     0.209 HD
ENDBRANCH  37  38
ENDBRANCH  34  37
ENDBRANCH  32  33
ENDBRANCH   1  32
TORSDOF 13
ENDMDL
