MODEL 1
REMARK VINA RESULT: -7.277412943      0.000      0.000
REMARK  11 active torsions:
REMARK  status: ('A' for Active; 'I' for Inactive)
REMARK    1  A    between atoms: O1_2  and  C2_3 
REMARK    2  A    between atoms: C2_3  and  C3_4 
REMARK       I    between atoms: C3_4  and  N1_6 
REMARK       I    between atoms: N1_6  and  C4_8 
REMARK    3  A    between atoms: C4_8  and  C5_10 
REMARK    4  A    between atoms: C5_10  and  C6_11 
REMARK    5  A    between atoms: C6_11  and  C7_12 
REMARK    6  A    between atoms: C7_12  and  O4_13 
REMARK    7  A    between atoms: O4_13  and  C8_14 
REMARK    8  A    between atoms: C8_14  and  C9_16 
REMARK    9  A    between atoms: C11_20  and  N3_21 
REMARK   10  A    between atoms: N3_21  and  N4_23 
REMARK   11  A    between atoms: C12_28  and  N6_29 
ROOT
HETATM    1  C9  UNL     1     -62.613  29.232  -6.332  1.00  0.00     0.153 A 
HETATM    2  N2  UNL     1     -63.204  29.883  -7.310  1.00  0.00    -0.340 N 
ATOM      3  H2  UNL     1     -64.183  29.697  -7.530  1.00  0.00     0.167 HD
HETATM    4  C10 UNL     1     -62.539  30.766  -7.999  1.00  0.00     0.114 A 
HETATM    5  C11 UNL     1     -63.032  31.542  -9.071  1.00  0.00     0.165 A 
HETATM    6  N5  UNL     1     -62.219  32.409  -9.679  1.00  0.00    -0.173 N 
ATOM      7  H5  UNL     1     -62.600  32.956 -10.450  1.00  0.00     0.186 HD
HETATM    8  C12 UNL     1     -60.935  32.612  -9.345  1.00  0.00     0.678 A 
HETATM    9  N7  UNL     1     -60.442  31.883  -8.324  1.00  0.00    -0.183 N 
ATOM     10  H7  UNL     1     -59.470  32.007  -8.038  1.00  0.00     0.185 HD
HETATM   11  C13 UNL     1     -61.231  30.980  -7.667  1.00  0.00     0.123 A 
HETATM   12  S1  UNL     1     -61.032  29.882  -6.365  1.00  0.00    -0.045 SA
ENDROOT
BRANCH   1  13
HETATM   13  C8  UNL     1     -63.149  28.202  -5.427  1.00  0.00     0.317 C 
HETATM   14  O5  UNL     1     -62.539  27.965  -4.359  1.00  0.00    -0.257 OA
BRANCH  13  15
HETATM   15  O4  UNL     1     -64.287  27.502  -5.719  1.00  0.00    -0.316 OA
BRANCH  15  16
HETATM   16  C7  UNL     1     -64.594  26.225  -5.255  1.00  0.00     0.179 C 
BRANCH  16  17
HETATM   17  C6  UNL     1     -65.750  25.692  -6.114  1.00  0.00     0.036 C 
BRANCH  17  18
HETATM   18  C5  UNL     1     -66.923  26.634  -5.991  1.00  0.00     0.105 C 
BRANCH  18  19
HETATM   19  C4  UNL     1     -67.070  27.392  -7.262  1.00  0.00     0.224 C 
HETATM   20  N1  UNL     1     -65.916  27.673  -8.045  1.00  0.00    -0.296 N 
HETATM   21  C3  UNL     1     -65.904  28.379  -9.266  1.00  0.00     0.247 C 
ATOM     22  H1  UNL     1     -65.020  27.334  -7.694  1.00  0.00     0.171 HD
HETATM   23  O2  UNL     1     -64.795  28.559  -9.823  1.00  0.00    -0.271 OA
HETATM   24  O3  UNL     1     -68.222  27.757  -7.592  1.00  0.00    -0.273 OA
BRANCH  21  25
HETATM   25  C2  UNL     1     -67.124  28.899  -9.888  1.00  0.00     0.270 C 
BRANCH  25  26
HETATM   26  O1  UNL     1     -67.174  30.256 -10.024  1.00  0.00    -0.387 OA
HETATM   27  C1  UNL     1     -67.985  30.754 -11.013  1.00  0.00     0.202 C 
ENDBRANCH  25  26
ENDBRANCH  21  25
ENDBRANCH  18  19
ENDBRANCH  17  18
ENDBRANCH  16  17
ENDBRANCH  15  16
ENDBRANCH  13  15
ENDBRANCH   1  13
BRANCH   5  28
HETATM   28  N3  UNL     1     -64.242  31.437  -9.481  1.00  0.00    -0.290 N 
ATOM     29  H3  UNL     1     -64.970  31.235  -8.795  1.00  0.00     0.188 HD
BRANCH  28  30
HETATM   30  N4  UNL     1     -64.615  31.584 -10.820  1.00  0.00    -0.344 N 
ATOM     31  H42 UNL     1     -63.998  32.134 -11.419  1.00  0.00     0.176 HD
ATOM     32  H41 UNL     1     -65.461  31.174 -11.214  1.00  0.00     0.176 HD
ENDBRANCH  28  30
ENDBRANCH   5  28
BRANCH   8  33
HETATM   33  N6  UNL     1     -60.157  33.446  -9.931  1.00  0.00    -0.234 N 
ATOM     34  H62 UNL     1     -60.526  34.365 -10.175  1.00  0.00     0.174 HD
ATOM     35  H61 UNL     1     -59.184  33.256 -10.171  1.00  0.00     0.174 HD
ENDBRANCH   8  33
TORSDOF 11
ENDMDL
MODEL 2
REMARK VINA RESULT: -7.266230416      2.429      5.078
REMARK  11 active torsions:
REMARK  status: ('A' for Active; 'I' for Inactive)
REMARK    1  A    between atoms: O1_2  and  C2_3 
REMARK    2  A    between atoms: C2_3  and  C3_4 
REMARK       I    between atoms: C3_4  and  N1_6 
REMARK       I    between atoms: N1_6  and  C4_8 
REMARK    3  A    between atoms: C4_8  and  C5_10 
REMARK    4  A    between atoms: C5_10  and  C6_11 
REMARK    5  A    between atoms: C6_11  and  C7_12 
REMARK    6  A    between atoms: C7_12  and  O4_13 
REMARK    7  A    between atoms: O4_13  and  C8_14 
REMARK    8  A    between atoms: C8_14  and  C9_16 
REMARK    9  A    between atoms: C11_20  and  N3_21 
REMARK   10  A    between atoms: N3_21  and  N4_23 
REMARK   11  A    between atoms: C12_28  and  N6_29 
ROOT
HETATM    1  C9  UNL     1     -62.700  31.104  -8.368  1.00  0.00     0.153 A 
HETATM    2  N2  UNL     1     -63.366  30.237  -7.636  1.00  0.00    -0.340 N 
ATOM      3  H2  UNL     1     -64.333  30.010  -7.867  1.00  0.00     0.167 HD
HETATM    4  C10 UNL     1     -62.790  29.670  -6.615  1.00  0.00     0.114 A 
HETATM    5  C11 UNL     1     -63.369  28.725  -5.739  1.00  0.00     0.165 A 
HETATM    6  N5  UNL     1     -62.643  28.234  -4.733  1.00  0.00    -0.173 N 
ATOM      7  H5  UNL     1     -63.087  27.555  -4.115  1.00  0.00     0.186 HD
HETATM    8  C12 UNL     1     -61.370  28.572  -4.477  1.00  0.00     0.678 A 
HETATM    9  N7  UNL     1     -60.794  29.472  -5.299  1.00  0.00    -0.183 N 
ATOM     10  H7  UNL     1     -59.827  29.756  -5.140  1.00  0.00     0.185 HD
HETATM   11  C13 UNL     1     -61.494  30.007  -6.346  1.00  0.00     0.123 A 
HETATM   12  S1  UNL     1     -61.175  31.138  -7.595  1.00  0.00    -0.045 SA
ENDROOT
BRANCH   1  13
HETATM   13  C8  UNL     1     -63.130  31.864  -9.552  1.00  0.00     0.317 C 
HETATM   14  O5  UNL     1     -62.516  32.915  -9.847  1.00  0.00    -0.257 OA
BRANCH  13  15
HETATM   15  O4  UNL     1     -64.177  31.457 -10.334  1.00  0.00    -0.316 OA
BRANCH  15  16
HETATM   16  C7  UNL     1     -64.977  32.289 -11.113  1.00  0.00     0.179 C 
BRANCH  16  17
HETATM   17  C6  UNL     1     -65.984  31.395 -11.850  1.00  0.00     0.036 C 
BRANCH  17  18
HETATM   18  C5  UNL     1     -67.336  31.538 -11.194  1.00  0.00     0.105 C 
BRANCH  18  19
HETATM   19  C4  UNL     1     -67.486  30.479 -10.161  1.00  0.00     0.224 C 
HETATM   20  N1  UNL     1     -66.375  29.648  -9.844  1.00  0.00    -0.296 N 
HETATM   21  C3  UNL     1     -66.372  28.608  -8.892  1.00  0.00     0.247 C 
ATOM     22  H1  UNL     1     -65.506  29.820 -10.351  1.00  0.00     0.171 HD
HETATM   23  O2  UNL     1     -65.311  27.955  -8.747  1.00  0.00    -0.271 OA
HETATM   24  O3  UNL     1     -68.603  30.362  -9.605  1.00  0.00    -0.273 OA
BRANCH  21  25
HETATM   25  C2  UNL     1     -67.548  28.275  -8.085  1.00  0.00     0.270 C 
BRANCH  25  26
HETATM   26  O1  UNL     1     -67.443  28.571  -6.757  1.00  0.00    -0.387 OA
HETATM   27  C1  UNL     1     -68.430  28.092  -5.931  1.00  0.00     0.202 C 
ENDBRANCH  25  26
ENDBRANCH  21  25
ENDBRANCH  18  19
ENDBRANCH  17  18
ENDBRANCH  16  17
ENDBRANCH  15  16
ENDBRANCH  13  15
ENDBRANCH   1  13
BRANCH   5  28
HETATM   28  N3  UNL     1     -64.579  28.325  -5.883  1.00  0.00    -0.290 N 
ATOM     29  H3  UNL     1     -65.317  29.026  -5.950  1.00  0.00     0.188 HD
BRANCH  28  30
HETATM   30  N4  UNL     1     -64.937  26.976  -5.953  1.00  0.00    -0.344 N 
ATOM     31  H42 UNL     1     -64.181  26.293  -6.001  1.00  0.00     0.176 HD
ATOM     32  H41 UNL     1     -65.905  26.653  -5.958  1.00  0.00     0.176 HD
ENDBRANCH  28  30
ENDBRANCH   5  28
BRANCH   8  33
HETATM   33  N6  UNL     1     -60.674  28.098  -3.509  1.00  0.00    -0.234 N 
ATOM     34  H62 UNL     1     -60.569  28.662  -2.666  1.00  0.00     0.174 HD
ATOM     35  H61 UNL     1     -60.215  27.187  -3.521  1.00  0.00     0.174 HD
ENDBRANCH   8  33
TORSDOF 11
ENDMDL
MODEL 3
REMARK VINA RESULT: -7.127297264      4.231      8.029
REMARK  11 active torsions:
REMARK  status: ('A' for Active; 'I' for Inactive)
REMARK    1  A    between atoms: O1_2  and  C2_3 
REMARK    2  A    between atoms: C2_3  and  C3_4 
REMARK       I    between atoms: C3_4  and  N1_6 
REMARK       I    between atoms: N1_6  and  C4_8 
REMARK    3  A    between atoms: C4_8  and  C5_10 
REMARK    4  A    between atoms: C5_10  and  C6_11 
REMARK    5  A    between atoms: C6_11  and  C7_12 
REMARK    6  A    between atoms: C7_12  and  O4_13 
REMARK    7  A    between atoms: O4_13  and  C8_14 
REMARK    8  A    between atoms: C8_14  and  C9_16 
REMARK    9  A    between atoms: C11_20  and  N3_21 
REMARK   10  A    between atoms: N3_21  and  N4_23 
REMARK   11  A    between atoms: C12_28  and  N6_29 
ROOT
HETATM    1  C9  UNL     1     -63.933  29.018  -6.432  1.00  0.00     0.153 A 
HETATM    2  N2  UNL     1     -65.089  29.326  -6.979  1.00  0.00    -0.340 N 
ATOM      3  H2  UNL     1     -65.200  30.212  -7.472  1.00  0.00     0.167 HD
HETATM    4  C10 UNL     1     -66.091  28.499  -6.890  1.00  0.00     0.114 A 
HETATM    5  C11 UNL     1     -67.386  28.686  -7.422  1.00  0.00     0.165 A 
HETATM    6  N5  UNL     1     -68.310  27.739  -7.244  1.00  0.00    -0.173 N 
ATOM      7  H5  UNL     1     -69.236  27.901  -7.638  1.00  0.00     0.186 HD
HETATM    8  C12 UNL     1     -68.104  26.589  -6.583  1.00  0.00     0.678 A 
HETATM    9  N7  UNL     1     -66.875  26.388  -6.066  1.00  0.00    -0.183 N 
ATOM     10  H7  UNL     1     -66.677  25.526  -5.556  1.00  0.00     0.185 HD
HETATM   11  C13 UNL     1     -65.892  27.326  -6.219  1.00  0.00     0.123 A 
HETATM   12  S1  UNL     1     -64.251  27.483  -5.748  1.00  0.00    -0.045 SA
ENDROOT
BRANCH   1  13
HETATM   13  C8  UNL     1     -62.673  29.779  -6.399  1.00  0.00     0.317 C 
HETATM   14  O5  UNL     1     -62.281  30.245  -5.305  1.00  0.00    -0.257 OA
BRANCH  13  15
HETATM   15  O4  UNL     1     -61.925  29.989  -7.525  1.00  0.00    -0.316 OA
BRANCH  15  16
HETATM   16  C7  UNL     1     -61.907  31.160  -8.279  1.00  0.00     0.179 C 
BRANCH  16  17
HETATM   17  C6  UNL     1     -60.501  31.763  -8.153  1.00  0.00     0.036 C 
BRANCH  17  18
HETATM   18  C5  UNL     1     -59.876  31.834  -9.525  1.00  0.00     0.105 C 
BRANCH  18  19
HETATM   19  C4  UNL     1     -58.586  31.094  -9.508  1.00  0.00     0.224 C 
HETATM   20  N1  UNL     1     -57.368  31.806  -9.691  1.00  0.00    -0.296 N 
HETATM   21  C3  UNL     1     -56.078  31.238  -9.699  1.00  0.00     0.247 C 
ATOM     22  H1  UNL     1     -57.435  32.815  -9.828  1.00  0.00     0.171 HD
HETATM   23  O2  UNL     1     -55.105  32.006  -9.893  1.00  0.00    -0.271 OA
HETATM   24  O3  UNL     1     -58.629  29.854  -9.331  1.00  0.00    -0.273 OA
BRANCH  21  25
HETATM   25  C2  UNL     1     -55.845  29.807  -9.492  1.00  0.00     0.270 C 
BRANCH  25  26
HETATM   26  O1  UNL     1     -55.256  29.157 -10.537  1.00  0.00    -0.387 OA
HETATM   27  C1  UNL     1     -56.029  28.257 -11.228  1.00  0.00     0.202 C 
ENDBRANCH  25  26
ENDBRANCH  21  25
ENDBRANCH  18  19
ENDBRANCH  17  18
ENDBRANCH  16  17
ENDBRANCH  15  16
ENDBRANCH  13  15
ENDBRANCH   1  13
BRANCH   5  28
HETATM   28  N3  UNL     1     -67.702  29.745  -8.073  1.00  0.00    -0.290 N 
ATOM     29  H3  UNL     1     -67.487  29.783  -9.070  1.00  0.00     0.188 HD
BRANCH  28  30
HETATM   30  N4  UNL     1     -68.326  30.849  -7.485  1.00  0.00    -0.344 N 
ATOM     31  H42 UNL     1     -67.728  31.533  -7.022  1.00  0.00     0.176 HD
ATOM     32  H41 UNL     1     -69.336  30.995  -7.500  1.00  0.00     0.176 HD
ENDBRANCH  28  30
ENDBRANCH   5  28
BRANCH   8  33
HETATM   33  N6  UNL     1     -68.994  25.681  -6.414  1.00  0.00    -0.234 N 
ATOM     34  H62 UNL     1     -69.935  25.851  -6.770  1.00  0.00     0.174 HD
ATOM     35  H61 UNL     1     -68.827  24.790  -5.946  1.00  0.00     0.174 HD
ENDBRANCH   8  33
TORSDOF 11
ENDMDL
MODEL 4
REMARK VINA RESULT: -7.073907576      3.231      5.857
REMARK  11 active torsions:
REMARK  status: ('A' for Active; 'I' for Inactive)
REMARK    1  A    between atoms: O1_2  and  C2_3 
REMARK    2  A    between atoms: C2_3  and  C3_4 
REMARK       I    between atoms: C3_4  and  N1_6 
REMARK       I    between atoms: N1_6  and  C4_8 
REMARK    3  A    between atoms: C4_8  and  C5_10 
REMARK    4  A    between atoms: C5_10  and  C6_11 
REMARK    5  A    between atoms: C6_11  and  C7_12 
REMARK    6  A    between atoms: C7_12  and  O4_13 
REMARK    7  A    between atoms: O4_13  and  C8_14 
REMARK    8  A    between atoms: C8_14  and  C9_16 
REMARK    9  A    between atoms: C11_20  and  N3_21 
REMARK   10  A    between atoms: N3_21  and  N4_23 
REMARK   11  A    between atoms: C12_28  and  N6_29 
ROOT
HETATM    1  C9  UNL     1     -61.365  31.073  -9.534  1.00  0.00     0.153 A 
HETATM    2  N2  UNL     1     -60.495  30.086  -9.558  1.00  0.00    -0.340 N 
ATOM      3  H2  UNL     1     -60.820  29.119  -9.569  1.00  0.00     0.167 HD
HETATM    4  C10 UNL     1     -59.219  30.345  -9.567  1.00  0.00     0.114 A 
HETATM    5  C11 UNL     1     -58.169  29.400  -9.593  1.00  0.00     0.165 A 
HETATM    6  N5  UNL     1     -56.905  29.827  -9.599  1.00  0.00    -0.173 N 
ATOM      7  H5  UNL     1     -56.167  29.124  -9.617  1.00  0.00     0.186 HD
HETATM    8  C12 UNL     1     -56.536  31.118  -9.583  1.00  0.00     0.678 A 
HETATM    9  N7  UNL     1     -57.521  32.039  -9.559  1.00  0.00    -0.183 N 
ATOM     10  H7  UNL     1     -57.284  33.031  -9.546  1.00  0.00     0.185 HD
HETATM   11  C13 UNL     1     -58.834  31.655  -9.551  1.00  0.00     0.123 A 
HETATM   12  S1  UNL     1     -60.352  32.451  -9.523  1.00  0.00    -0.045 SA
ENDROOT
BRANCH   1  13
HETATM   13  C8  UNL     1     -62.836  31.032  -9.518  1.00  0.00     0.317 C 
HETATM   14  O5  UNL     1     -63.469  32.101  -9.680  1.00  0.00    -0.257 OA
BRANCH  13  15
HETATM   15  O4  UNL     1     -63.527  29.866  -9.332  1.00  0.00    -0.316 OA
BRANCH  15  16
HETATM   16  C7  UNL     1     -64.803  29.758  -8.784  1.00  0.00     0.179 C 
BRANCH  16  17
HETATM   17  C6  UNL     1     -64.678  30.034  -7.279  1.00  0.00     0.036 C 
BRANCH  17  18
HETATM   18  C5  UNL     1     -64.580  28.716  -6.548  1.00  0.00     0.105 C 
BRANCH  18  19
HETATM   19  C4  UNL     1     -63.198  28.556  -6.024  1.00  0.00     0.224 C 
HETATM   20  N1  UNL     1     -62.197  29.497  -6.392  1.00  0.00    -0.296 N 
HETATM   21  C3  UNL     1     -60.850  29.470  -5.975  1.00  0.00     0.247 C 
ATOM     22  H1  UNL     1     -62.478  30.257  -7.013  1.00  0.00     0.171 HD
HETATM   23  O2  UNL     1     -60.089  30.367  -6.408  1.00  0.00    -0.271 OA
HETATM   24  O3  UNL     1     -62.971  27.582  -5.268  1.00  0.00    -0.273 OA
BRANCH  21  25
HETATM   25  C2  UNL     1     -60.327  28.446  -5.068  1.00  0.00     0.270 C 
BRANCH  25  26
HETATM   26  O1  UNL     1     -59.501  28.907  -4.085  1.00  0.00    -0.387 OA
HETATM   27  C1  UNL     1     -60.063  29.137  -2.854  1.00  0.00     0.202 C 
ENDBRANCH  25  26
ENDBRANCH  21  25
ENDBRANCH  18  19
ENDBRANCH  17  18
ENDBRANCH  16  17
ENDBRANCH  15  16
ENDBRANCH  13  15
ENDBRANCH   1  13
BRANCH   5  28
HETATM   28  N3  UNL     1     -58.397  28.138  -9.610  1.00  0.00    -0.290 N 
ATOM     29  H3  UNL     1     -59.112  27.766  -8.985  1.00  0.00     0.188 HD
BRANCH  28  30
HETATM   30  N4  UNL     1     -57.713  27.247 -10.442  1.00  0.00    -0.344 N 
ATOM     31  H42 UNL     1     -56.867  27.588 -10.899  1.00  0.00     0.176 HD
ATOM     32  H41 UNL     1     -58.021  26.288 -10.607  1.00  0.00     0.176 HD
ENDBRANCH  28  30
ENDBRANCH   5  28
BRANCH   8  33
HETATM   33  N6  UNL     1     -55.320  31.525  -9.589  1.00  0.00    -0.234 N 
ATOM     34  H62 UNL     1     -55.112  32.425 -10.021  1.00  0.00     0.174 HD
ATOM     35  H61 UNL     1     -54.537  31.008  -9.188  1.00  0.00     0.174 HD
ENDBRANCH   8  33
TORSDOF 11
ENDMDL
MODEL 5
REMARK VINA RESULT: -6.960338011      1.395      1.662
REMARK  11 active torsions:
REMARK  status: ('A' for Active; 'I' for Inactive)
REMARK    1  A    between atoms: O1_2  and  C2_3 
REMARK    2  A    between atoms: C2_3  and  C3_4 
REMARK       I    between atoms: C3_4  and  N1_6 
REMARK       I    between atoms: N1_6  and  C4_8 
REMARK    3  A    between atoms: C4_8  and  C5_10 
REMARK    4  A    between atoms: C5_10  and  C6_11 
REMARK    5  A    between atoms: C6_11  and  C7_12 
REMARK    6  A    between atoms: C7_12  and  O4_13 
REMARK    7  A    between atoms: O4_13  and  C8_14 
REMARK    8  A    between atoms: C8_14  and  C9_16 
REMARK    9  A    between atoms: C11_20  and  N3_21 
REMARK   10  A    between atoms: N3_21  and  N4_23 
REMARK   11  A    between atoms: C12_28  and  N6_29 
ROOT
HETATM    1  C9  UNL     1     -63.149  29.304  -6.639  1.00  0.00     0.153 A 
HETATM    2  N2  UNL     1     -63.650  29.960  -7.663  1.00  0.00    -0.340 N 
ATOM      3  H2  UNL     1     -64.597  29.756  -7.985  1.00  0.00     0.167 HD
HETATM    4  C10 UNL     1     -62.938  30.868  -8.265  1.00  0.00     0.114 A 
HETATM    5  C11 UNL     1     -63.335  31.653  -9.371  1.00  0.00     0.165 A 
HETATM    6  N5  UNL     1     -62.484  32.547  -9.878  1.00  0.00    -0.173 N 
ATOM      7  H5  UNL     1     -62.796  33.099 -10.677  1.00  0.00     0.186 HD
HETATM    8  C12 UNL     1     -61.246  32.772  -9.410  1.00  0.00     0.678 A 
HETATM    9  N7  UNL     1     -60.845  32.035  -8.354  1.00  0.00    -0.183 N 
ATOM     10  H7  UNL     1     -59.911  32.174  -7.967  1.00  0.00     0.185 HD
HETATM   11  C13 UNL     1     -61.677  31.104  -7.797  1.00  0.00     0.123 A 
HETATM   12  S1  UNL     1     -61.587  29.988  -6.498  1.00  0.00    -0.045 SA
ENDROOT
BRANCH   1  13
HETATM   13  C8  UNL     1     -63.751  28.248  -5.809  1.00  0.00     0.317 C 
HETATM   14  O5  UNL     1     -63.018  27.617  -5.014  1.00  0.00    -0.257 OA
BRANCH  13  15
HETATM   15  O4  UNL     1     -65.081  27.938  -5.884  1.00  0.00    -0.316 OA
BRANCH  15  16
HETATM   16  C7  UNL     1     -65.607  26.719  -6.304  1.00  0.00     0.179 C 
BRANCH  16  17
HETATM   17  C6  UNL     1     -67.082  26.954  -6.658  1.00  0.00     0.036 C 
BRANCH  17  18
HETATM   18  C5  UNL     1     -67.302  28.432  -6.876  1.00  0.00     0.105 C 
BRANCH  18  19
HETATM   19  C4  UNL     1     -67.098  28.744  -8.316  1.00  0.00     0.224 C 
HETATM   20  N1  UNL     1     -67.465  27.783  -9.298  1.00  0.00    -0.296 N 
HETATM   21  C3  UNL     1     -67.328  27.940 -10.693  1.00  0.00     0.247 C 
ATOM     22  H1  UNL     1     -67.861  26.904  -8.965  1.00  0.00     0.171 HD
HETATM   23  O2  UNL     1     -67.683  26.985 -11.424  1.00  0.00    -0.271 OA
HETATM   24  O3  UNL     1     -66.602  29.858  -8.605  1.00  0.00    -0.273 OA
BRANCH  21  25
HETATM   25  C2  UNL     1     -66.794  29.162 -11.299  1.00  0.00     0.270 C 
BRANCH  25  26
HETATM   26  O1  UNL     1     -65.453  29.147 -11.551  1.00  0.00    -0.387 OA
HETATM   27  C1  UNL     1     -65.065  28.969 -12.856  1.00  0.00     0.202 C 
ENDBRANCH  25  26
ENDBRANCH  21  25
ENDBRANCH  18  19
ENDBRANCH  17  18
ENDBRANCH  16  17
ENDBRANCH  15  16
ENDBRANCH  13  15
ENDBRANCH   1  13
BRANCH   5  28
HETATM   28  N3  UNL     1     -64.494  31.529  -9.905  1.00  0.00    -0.290 N 
ATOM     29  H3  UNL     1     -65.170  30.908  -9.459  1.00  0.00     0.188 HD
BRANCH  28  30
HETATM   30  N4  UNL     1     -64.879  32.201 -11.069  1.00  0.00    -0.344 N 
ATOM     31  H42 UNL     1     -64.184  32.288 -11.810  1.00  0.00     0.176 HD
ATOM     32  H41 UNL     1     -65.807  32.602 -11.202  1.00  0.00     0.176 HD
ENDBRANCH  28  30
ENDBRANCH   5  28
BRANCH   8  33
HETATM   33  N6  UNL     1     -60.431  33.632  -9.899  1.00  0.00    -0.234 N 
ATOM     34  H62 UNL     1     -59.487  33.327 -10.135  1.00  0.00     0.174 HD
ATOM     35  H61 UNL     1     -60.662  34.611 -10.073  1.00  0.00     0.174 HD
ENDBRANCH   8  33
TORSDOF 11
ENDMDL
