MODEL 1
REMARK VINA RESULT: -7.422681485      0.000      0.000
REMARK  5 active torsions:
REMARK  status: ('A' for Active; 'I' for Inactive)
REMARK    1  A    between atoms: C2_2  and  O1_4 
REMARK    2  A    between atoms: O1_4  and  C4_5 
REMARK       I    between atoms: C4_5  and  N1_7 
REMARK    3  A    between atoms: N1_7  and  N2_9 
REMARK       I    between atoms: N2_9  and  C5_11 
REMARK    4  A    between atoms: C5_11  and  C6_13 
REMARK    5  A    between atoms: C11_20  and  O4_21 
ROOT
HETATM    1  N2  UNL     1      40.255  11.825  10.909  1.00  0.00    -0.261 N 
ATOM      2  H2  UNL     1      39.504  12.298  10.407  1.00  0.00     0.190 HD
HETATM    3  C5  UNL     1      39.974  10.557  11.410  1.00  0.00     0.273 C 
HETATM    4  O3  UNL     1      40.922   9.979  12.044  1.00  0.00    -0.266 OA
ENDROOT
BRANCH   3   5
HETATM    5  C6  UNL     1      38.730   9.811  11.296  1.00  0.00     0.069 A 
HETATM    6  C7  UNL     1      37.571  10.556  11.072  1.00  0.00     0.039 A 
HETATM    7  C8  UNL     1      36.321   9.954  10.929  1.00  0.00     0.013 A 
HETATM    8 BR1  UNL     1      34.743  10.991  10.623  1.00  0.00    -0.051 Br
HETATM    9  C9  UNL     1      36.260   8.595  11.009  1.00  0.00     0.041 A 
HETATM   10  C10 UNL     1      37.367   7.823  11.226  1.00  0.00     0.046 A 
HETATM   11 BR2  UNL     1      37.204   5.941  11.332  1.00  0.00    -0.048 Br
HETATM   12  C11 UNL     1      38.617   8.463  11.372  1.00  0.00     0.099 A 
BRANCH  12  13
HETATM   13  O4  UNL     1      39.720   7.664  11.594  1.00  0.00    -0.358 OA
ATOM     14  H4  UNL     1      39.865   7.246  12.435  1.00  0.00     0.217 HD
ENDBRANCH  12  13
ENDBRANCH   3   5
BRANCH   1  15
HETATM   15  N1  UNL     1      41.450  12.506  11.026  1.00  0.00    -0.242 N 
HETATM   16  C4  UNL     1      42.221  13.267  10.184  1.00  0.00     0.379 C 
HETATM   17  O2  UNL     1      42.028  13.572   8.964  1.00  0.00    -0.237 OA
ATOM     18  H1  UNL     1      41.857  12.423  11.958  1.00  0.00     0.192 HD
BRANCH  16  19
HETATM   19  O1  UNL     1      43.420  13.844  10.658  1.00  0.00    -0.298 OA
BRANCH  19  20
HETATM   20  C2  UNL     1      43.895  15.113  10.296  1.00  0.00     0.125 C 
HETATM   21  C1  UNL     1      44.168  15.879  11.599  1.00  0.00     0.040 C 
HETATM   22  C3  UNL     1      45.287  14.992   9.646  1.00  0.00     0.040 C 
ENDBRANCH  19  20
ENDBRANCH  16  19
ENDBRANCH   1  15
TORSDOF 5
ENDMDL
MODEL 2
REMARK VINA RESULT: -7.227965813      1.131      2.528
REMARK  5 active torsions:
REMARK  status: ('A' for Active; 'I' for Inactive)
REMARK    1  A    between atoms: C2_2  and  O1_4 
REMARK    2  A    between atoms: O1_4  and  C4_5 
REMARK       I    between atoms: C4_5  and  N1_7 
REMARK    3  A    between atoms: N1_7  and  N2_9 
REMARK       I    between atoms: N2_9  and  C5_11 
REMARK    4  A    between atoms: C5_11  and  C6_13 
REMARK    5  A    between atoms: C11_20  and  O4_21 
ROOT
HETATM    1  N2  UNL     1      40.260  12.058  10.925  1.00  0.00    -0.261 N 
ATOM      2  H2  UNL     1      39.567  12.475  10.303  1.00  0.00     0.190 HD
HETATM    3  C5  UNL     1      39.938  10.825  11.486  1.00  0.00     0.273 C 
HETATM    4  O3  UNL     1      40.812  10.318  12.269  1.00  0.00    -0.266 OA
ENDROOT
BRANCH   3   5
HETATM    5  C6  UNL     1      38.726  10.046  11.286  1.00  0.00     0.069 A 
HETATM    6  C7  UNL     1      38.853   8.658  11.361  1.00  0.00     0.039 A 
HETATM    7  C8  UNL     1      37.760   7.806  11.204  1.00  0.00     0.013 A 
HETATM    8 BR1  UNL     1      37.954   5.905  11.310  1.00  0.00    -0.051 Br
HETATM    9  C9  UNL     1      36.543   8.373  10.977  1.00  0.00     0.041 A 
HETATM   10  C10 UNL     1      36.368   9.726  10.895  1.00  0.00     0.046 A 
HETATM   11 BR2  UNL     1      34.647  10.441  10.569  1.00  0.00    -0.048 Br
HETATM   12  C11 UNL     1      37.495  10.561  11.054  1.00  0.00     0.099 A 
BRANCH  12  13
HETATM   13  O4  UNL     1      37.295  11.925  10.964  1.00  0.00    -0.358 OA
ATOM     14  H4  UNL     1      36.787  12.303  10.255  1.00  0.00     0.217 HD
ENDBRANCH  12  13
ENDBRANCH   3   5
BRANCH   1  15
HETATM   15  N1  UNL     1      41.424  12.772  11.127  1.00  0.00    -0.242 N 
HETATM   16  C4  UNL     1      42.286  13.474  10.323  1.00  0.00     0.379 C 
HETATM   17  O2  UNL     1      42.243  13.667   9.066  1.00  0.00    -0.237 OA
ATOM     18  H1  UNL     1      41.711  12.779  12.106  1.00  0.00     0.192 HD
BRANCH  16  19
HETATM   19  O1  UNL     1      43.409  14.115  10.888  1.00  0.00    -0.298 OA
BRANCH  19  20
HETATM   20  C2  UNL     1      43.360  15.295  11.645  1.00  0.00     0.125 C 
HETATM   21  C1  UNL     1      44.204  15.056  12.906  1.00  0.00     0.040 C 
HETATM   22  C3  UNL     1      44.109  16.426  10.913  1.00  0.00     0.040 C 
ENDBRANCH  19  20
ENDBRANCH  16  19
ENDBRANCH   1  15
TORSDOF 5
ENDMDL
MODEL 3
REMARK VINA RESULT: -7.167577543      5.258      7.963
REMARK  5 active torsions:
REMARK  status: ('A' for Active; 'I' for Inactive)
REMARK    1  A    between atoms: C2_2  and  O1_4 
REMARK    2  A    between atoms: O1_4  and  C4_5 
REMARK       I    between atoms: C4_5  and  N1_7 
REMARK    3  A    between atoms: N1_7  and  N2_9 
REMARK       I    between atoms: N2_9  and  C5_11 
REMARK    4  A    between atoms: C5_11  and  C6_13 
REMARK    5  A    between atoms: C11_20  and  O4_21 
ROOT
HETATM    1  N2  UNL     1      34.363  10.404   9.926  1.00  0.00    -0.261 N 
ATOM      2  H2  UNL     1      34.329   9.518   9.422  1.00  0.00     0.190 HD
HETATM    3  C5  UNL     1      35.473  10.622  10.737  1.00  0.00     0.273 C 
HETATM    4  O3  UNL     1      35.498  11.732  11.369  1.00  0.00    -0.266 OA
ENDROOT
BRANCH   3   5
HETATM    5  C6  UNL     1      36.608   9.736  10.950  1.00  0.00     0.069 A 
HETATM    6  C7  UNL     1      37.847  10.343  11.154  1.00  0.00     0.039 A 
HETATM    7  C8  UNL     1      39.005   9.601  11.386  1.00  0.00     0.013 A 
HETATM    8 BR1  UNL     1      40.697  10.451  11.663  1.00  0.00    -0.051 Br
HETATM    9  C9  UNL     1      38.892   8.243  11.414  1.00  0.00     0.041 A 
HETATM   10  C10 UNL     1      37.700   7.603  11.219  1.00  0.00     0.046 A 
HETATM   11 BR2  UNL     1      37.620   5.713  11.264  1.00  0.00    -0.048 Br
HETATM   12  C11 UNL     1      36.547   8.383  10.982  1.00  0.00     0.099 A 
BRANCH  12  13
HETATM   13  O4  UNL     1      35.355   7.714  10.786  1.00  0.00    -0.358 OA
ATOM     14  H4  UNL     1      35.316   6.765  10.792  1.00  0.00     0.217 HD
ENDBRANCH  12  13
ENDBRANCH   3   5
BRANCH   1  15
HETATM   15  N1  UNL     1      33.303  11.268   9.738  1.00  0.00    -0.242 N 
HETATM   16  C4  UNL     1      32.973  12.209   8.796  1.00  0.00     0.379 C 
HETATM   17  O2  UNL     1      33.612  12.574   7.758  1.00  0.00    -0.237 OA
ATOM     18  H1  UNL     1      32.599  11.188  10.472  1.00  0.00     0.192 HD
BRANCH  16  19
HETATM   19  O1  UNL     1      31.760  12.923   8.912  1.00  0.00    -0.298 OA
BRANCH  19  20
HETATM   20  C2  UNL     1      30.483  12.347   8.836  1.00  0.00     0.125 C 
HETATM   21  C1  UNL     1      29.869  12.428  10.241  1.00  0.00     0.040 C 
HETATM   22  C3  UNL     1      29.554  13.230   7.980  1.00  0.00     0.040 C 
ENDBRANCH  19  20
ENDBRANCH  16  19
ENDBRANCH   1  15
TORSDOF 5
ENDMDL
MODEL 4
REMARK VINA RESULT: -7.089060616      1.996      2.404
REMARK  5 active torsions:
REMARK  status: ('A' for Active; 'I' for Inactive)
REMARK    1  A    between atoms: C2_2  and  O1_4 
REMARK    2  A    between atoms: O1_4  and  C4_5 
REMARK       I    between atoms: C4_5  and  N1_7 
REMARK    3  A    between atoms: N1_7  and  N2_9 
REMARK       I    between atoms: N2_9  and  C5_11 
REMARK    4  A    between atoms: C5_11  and  C6_13 
REMARK    5  A    between atoms: C11_20  and  O4_21 
ROOT
HETATM    1  N2  UNL     1      39.374  12.878  10.497  1.00  0.00    -0.261 N 
ATOM      2  H2  UNL     1      39.075  13.214   9.581  1.00  0.00     0.190 HD
HETATM    3  C5  UNL     1      38.442  12.153  11.234  1.00  0.00     0.273 C 
HETATM    4  O3  UNL     1      38.828  11.746  12.383  1.00  0.00    -0.266 OA
ENDROOT
BRANCH   3   5
HETATM    5  C6  UNL     1      37.082  11.804  10.852  1.00  0.00     0.069 A 
HETATM    6  C7  UNL     1      36.276  12.843  10.386  1.00  0.00     0.039 A 
HETATM    7  C8  UNL     1      34.960  12.630   9.974  1.00  0.00     0.013 A 
HETATM    8 BR1  UNL     1      33.869  14.067   9.337  1.00  0.00    -0.051 Br
HETATM    9  C9  UNL     1      34.476  11.358  10.034  1.00  0.00     0.041 A 
HETATM   10  C10 UNL     1      35.227  10.308  10.484  1.00  0.00     0.046 A 
HETATM   11 BR2  UNL     1      34.484   8.569  10.547  1.00  0.00    -0.048 Br
HETATM   12  C11 UNL     1      36.554  10.557  10.898  1.00  0.00     0.099 A 
BRANCH  12  13
HETATM   13  O4  UNL     1      37.292   9.482  11.351  1.00  0.00    -0.358 OA
ATOM     14  H4  UNL     1      36.985   8.590  11.237  1.00  0.00     0.217 HD
ENDBRANCH  12  13
ENDBRANCH   3   5
BRANCH   1  15
HETATM   15  N1  UNL     1      40.663  13.188  10.883  1.00  0.00    -0.242 N 
HETATM   16  C4  UNL     1      41.851  13.389  10.228  1.00  0.00     0.379 C 
HETATM   17  O2  UNL     1      42.108  13.334   8.983  1.00  0.00    -0.237 OA
ATOM     18  H1  UNL     1      40.753  13.292  11.894  1.00  0.00     0.192 HD
BRANCH  16  19
HETATM   19  O1  UNL     1      43.011  13.718  10.963  1.00  0.00    -0.298 OA
BRANCH  19  20
HETATM   20  C2  UNL     1      43.855  14.803  10.683  1.00  0.00     0.125 C 
HETATM   21  C1  UNL     1      44.158  15.493  12.022  1.00  0.00     0.040 C 
HETATM   22  C3  UNL     1      45.233  14.296  10.214  1.00  0.00     0.040 C 
ENDBRANCH  19  20
ENDBRANCH  16  19
ENDBRANCH   1  15
TORSDOF 5
ENDMDL
MODEL 5
REMARK VINA RESULT: -7.078139591      1.298      1.504
REMARK  5 active torsions:
REMARK  status: ('A' for Active; 'I' for Inactive)
REMARK    1  A    between atoms: C2_2  and  O1_4 
REMARK    2  A    between atoms: O1_4  and  C4_5 
REMARK       I    between atoms: C4_5  and  N1_7 
REMARK    3  A    between atoms: N1_7  and  N2_9 
REMARK       I    between atoms: N2_9  and  C5_11 
REMARK    4  A    between atoms: C5_11  and  C6_13 
REMARK    5  A    between atoms: C11_20  and  O4_21 
ROOT
HETATM    1  N2  UNL     1      40.149  11.459  10.854  1.00  0.00    -0.261 N 
ATOM      2  H2  UNL     1      40.318  10.761  10.129  1.00  0.00     0.190 HD
HETATM    3  C5  UNL     1      38.913  11.414  11.493  1.00  0.00     0.273 C 
HETATM    4  O3  UNL     1      38.712  12.300  12.393  1.00  0.00    -0.266 OA
ENDROOT
BRANCH   3   5
HETATM    5  C6  UNL     1      37.824  10.478  11.259  1.00  0.00     0.069 A 
HETATM    6  C7  UNL     1      36.601  11.025  10.871  1.00  0.00     0.039 A 
HETATM    7  C8  UNL     1      35.487  10.229  10.601  1.00  0.00     0.013 A 
HETATM    8 BR1  UNL     1      33.817  10.997  10.070  1.00  0.00    -0.051 Br
HETATM    9  C9  UNL     1      35.629   8.880  10.723  1.00  0.00     0.041 A 
HETATM   10  C10 UNL     1      36.807   8.297  11.100  1.00  0.00     0.046 A 
HETATM   11 BR2  UNL     1      36.927   6.416  11.256  1.00  0.00    -0.048 Br
HETATM   12  C11 UNL     1      37.914   9.131  11.371  1.00  0.00     0.099 A 
BRANCH  12  13
HETATM   13  O4  UNL     1      39.092   8.521  11.753  1.00  0.00    -0.358 OA
ATOM     14  H4  UNL     1      39.779   8.337  11.122  1.00  0.00     0.217 HD
ENDBRANCH  12  13
ENDBRANCH   3   5
BRANCH   1  15
HETATM   15  N1  UNL     1      41.168  12.356  11.103  1.00  0.00    -0.242 N 
HETATM   16  C4  UNL     1      41.949  13.179  10.331  1.00  0.00     0.379 C 
HETATM   17  O2  UNL     1      41.947  13.346   9.070  1.00  0.00    -0.237 OA
ATOM     18  H1  UNL     1      41.395  12.423  12.096  1.00  0.00     0.192 HD
BRANCH  16  19
HETATM   19  O1  UNL     1      42.920  14.002  10.942  1.00  0.00    -0.298 OA
BRANCH  19  20
HETATM   20  C2  UNL     1      42.698  14.789  12.083  1.00  0.00     0.125 C 
HETATM   21  C1  UNL     1      44.076  15.116  12.677  1.00  0.00     0.040 C 
HETATM   22  C3  UNL     1      42.139  16.166  11.676  1.00  0.00     0.040 C 
ENDBRANCH  19  20
ENDBRANCH  16  19
ENDBRANCH   1  15
TORSDOF 5
ENDMDL
