MODEL 1
REMARK VINA RESULT: -8.106506418      0.000      0.000
REMARK  5 active torsions:
REMARK  status: ('A' for Active; 'I' for Inactive)
REMARK    1  A    between atoms: C3_3  and  O1_4 
REMARK    2  A    between atoms: C5_7  and  O2_8 
REMARK    3  A    between atoms: C11_15  and  O3_16 
REMARK    4  A    between atoms: C16_23  and  C17_24 
REMARK    5  A    between atoms: C17_24  and  C18_25 
ROOT
HETATM    1  C1  UNL     1      38.420  12.871  11.445  1.00  0.00     0.022 C 
HETATM    2  C2  UNL     1      39.794  13.134  11.958  1.00  0.00     0.024 C 
HETATM    3  C3  UNL     1      39.975  12.279  13.217  1.00  0.00     0.132 C 
HETATM    4  C4  UNL     1      39.692  10.863  12.809  1.00  0.00     0.064 C 
HETATM    5  C5  UNL     1      40.417  10.369  11.631  1.00  0.00     0.121 C 
HETATM    6  C6  UNL     1      40.655  11.317  10.519  1.00  0.00     0.037 C 
HETATM    7  C7  UNL     1      40.913  12.735  11.053  1.00  0.00     0.006 C 
HETATM    8  C8  UNL     1      41.276  13.699  10.009  1.00  0.00    -0.005 C 
HETATM    9  C9  UNL     1      40.058  14.603   9.754  1.00  0.00     0.009 C 
HETATM   10  C10 UNL     1      39.647  15.350  10.971  1.00  0.00     0.046 C 
HETATM   11  C11 UNL     1      39.866  14.610  12.274  1.00  0.00     0.121 C 
HETATM   12  C12 UNL     1      41.097  15.019  12.959  1.00  0.00     0.125 C 
HETATM   13  F1  UNL     1      40.933  15.611  14.192  1.00  0.00    -0.208 F 
HETATM   14  C13 UNL     1      42.407  14.973  12.701  1.00  0.00     0.019 C 
HETATM   15  C14 UNL     1      43.158  14.447  11.528  1.00  0.00     0.015 C 
HETATM   16  C15 UNL     1      44.317  15.436  11.303  1.00  0.00     0.014 C 
HETATM   17  C16 UNL     1      44.633  15.267   9.813  1.00  0.00    -0.005 C 
HETATM   18  C19 UNL     1      43.553  14.426   9.221  1.00  0.00     0.010 C 
HETATM   19  C20 UNL     1      42.422  14.596  10.247  1.00  0.00    -0.002 C 
ENDROOT
BRANCH  17  20
HETATM   20  C17 UNL     1      44.717  16.646   9.228  1.00  0.00     0.101 C 
BRANCH  20  21
HETATM   21  C18 UNL     1      44.197  16.717   7.846  1.00  0.00     0.219 C 
HETATM   22  O4  UNL     1      44.858  16.535   6.849  1.00  0.00    -0.280 OA
HETATM   23 CL1  UNL     1      42.489  17.096   7.642  1.00  0.00    -0.044 Cl
ENDBRANCH  20  21
ENDBRANCH  17  20
BRANCH  11  24
HETATM   24  O3  UNL     1      38.751  14.897  13.071  1.00  0.00    -0.382 OA
ATOM     25  H3  UNL     1      38.440  15.752  12.798  1.00  0.00     0.211 HD
ENDBRANCH  11  24
BRANCH   3  26
HETATM   26  O1  UNL     1      39.050  12.689  14.147  1.00  0.00    -0.395 OA
ATOM     27  H1  UNL     1      38.744  11.922  14.616  1.00  0.00     0.210 HD
ENDBRANCH   3  26
BRANCH   5  28
HETATM   28  O2  UNL     1      41.634   9.795  12.071  1.00  0.00    -0.395 OA
ATOM     29  H2  UNL     1      41.443   8.939  12.436  1.00  0.00     0.210 HD
ENDBRANCH   5  28
TORSDOF 5
ENDMDL
MODEL 2
REMARK VINA RESULT: -8.102302854      3.774      6.666
REMARK  5 active torsions:
REMARK  status: ('A' for Active; 'I' for Inactive)
REMARK    1  A    between atoms: C3_3  and  O1_4 
REMARK    2  A    between atoms: C5_7  and  O2_8 
REMARK    3  A    between atoms: C11_15  and  O3_16 
REMARK    4  A    between atoms: C16_23  and  C17_24 
REMARK    5  A    between atoms: C17_24  and  C18_25 
ROOT
HETATM    1  C1  UNL     1      41.351  16.388  11.014  1.00  0.00     0.022 C 
HETATM    2  C2  UNL     1      40.575  15.188  11.437  1.00  0.00     0.024 C 
HETATM    3  C3  UNL     1      41.252  14.634  12.695  1.00  0.00     0.132 C 
HETATM    4  C4  UNL     1      41.294  15.764  13.683  1.00  0.00     0.064 C 
HETATM    5  C5  UNL     1      40.023  16.456  13.932  1.00  0.00     0.121 C 
HETATM    6  C6  UNL     1      39.103  16.644  12.787  1.00  0.00     0.037 C 
HETATM    7  C7  UNL     1      39.158  15.439  11.836  1.00  0.00     0.006 C 
HETATM    8  C8  UNL     1      38.181  15.507  10.744  1.00  0.00    -0.005 C 
HETATM    9  C9  UNL     1      38.935  15.870   9.454  1.00  0.00     0.009 C 
HETATM   10  C10 UNL     1      39.971  14.864   9.105  1.00  0.00     0.046 C 
HETATM   11  C11 UNL     1      40.640  14.204  10.292  1.00  0.00     0.121 C 
HETATM   12  C12 UNL     1      40.074  12.885  10.601  1.00  0.00     0.125 C 
HETATM   13  F1  UNL     1      40.934  11.816  10.476  1.00  0.00    -0.208 F 
HETATM   14  C13 UNL     1      38.888  12.410  10.992  1.00  0.00     0.019 C 
HETATM   15  C14 UNL     1      37.602  13.102  11.279  1.00  0.00     0.015 C 
HETATM   16  C15 UNL     1      36.502  12.172  10.732  1.00  0.00     0.014 C 
HETATM   17  C16 UNL     1      35.344  13.134  10.448  1.00  0.00    -0.005 C 
HETATM   18  C19 UNL     1      35.869  14.522  10.600  1.00  0.00     0.010 C 
HETATM   19  C20 UNL     1      37.383  14.306  10.439  1.00  0.00    -0.002 C 
ENDROOT
BRANCH  17  20
HETATM   20  C17 UNL     1      34.848  12.821   9.068  1.00  0.00     0.101 C 
BRANCH  20  21
HETATM   21  C18 UNL     1      33.488  12.241   9.063  1.00  0.00     0.219 C 
HETATM   22  O4  UNL     1      32.608  12.551   8.292  1.00  0.00    -0.280 OA
HETATM   23 CL1  UNL     1      33.129  11.009  10.269  1.00  0.00    -0.044 Cl
ENDBRANCH  20  21
ENDBRANCH  17  20
BRANCH  11  24
HETATM   24  O3  UNL     1      41.992  14.081   9.953  1.00  0.00    -0.382 OA
ATOM     25  H3  UNL     1      42.018  13.643   9.110  1.00  0.00     0.211 HD
ENDBRANCH  11  24
BRANCH   3  26
HETATM   26  O1  UNL     1      42.532  14.261  12.361  1.00  0.00    -0.395 OA
ATOM     27  H1  UNL     1      42.868  14.889  11.733  1.00  0.00     0.210 HD
ENDBRANCH   3  26
BRANCH   5  28
HETATM   28  O2  UNL     1      39.367  15.801  15.002  1.00  0.00    -0.395 OA
ATOM     29  H2  UNL     1      38.442  16.009  14.953  1.00  0.00     0.210 HD
ENDBRANCH   5  28
TORSDOF 5
ENDMDL
MODEL 3
REMARK VINA RESULT: -7.901356134      3.285      6.422
REMARK  5 active torsions:
REMARK  status: ('A' for Active; 'I' for Inactive)
REMARK    1  A    between atoms: C3_3  and  O1_4 
REMARK    2  A    between atoms: C5_7  and  O2_8 
REMARK    3  A    between atoms: C11_15  and  O3_16 
REMARK    4  A    between atoms: C16_23  and  C17_24 
REMARK    5  A    between atoms: C17_24  and  C18_25 
ROOT
HETATM    1  C1  UNL     1      42.349  15.479  12.460  1.00  0.00     0.022 C 
HETATM    2  C2  UNL     1      41.197  15.798  11.571  1.00  0.00     0.024 C 
HETATM    3  C3  UNL     1      41.684  16.839  10.558  1.00  0.00     0.132 C 
HETATM    4  C4  UNL     1      42.882  16.239   9.881  1.00  0.00     0.064 C 
HETATM    5  C5  UNL     1      42.708  14.890   9.328  1.00  0.00     0.121 C 
HETATM    6  C6  UNL     1      41.860  13.939  10.082  1.00  0.00     0.037 C 
HETATM    7  C7  UNL     1      40.680  14.665  10.746  1.00  0.00     0.006 C 
HETATM    8  C8  UNL     1      39.732  13.762  11.409  1.00  0.00    -0.005 C 
HETATM    9  C9  UNL     1      39.951  13.875  12.927  1.00  0.00     0.009 C 
HETATM   10  C10 UNL     1      39.725  15.256  13.427  1.00  0.00     0.046 C 
HETATM   11  C11 UNL     1      40.105  16.353  12.456  1.00  0.00     0.121 C 
HETATM   12  C12 UNL     1      38.951  16.888  11.724  1.00  0.00     0.125 C 
HETATM   13  F1  UNL     1      38.660  18.217  11.945  1.00  0.00    -0.208 F 
HETATM   14  C13 UNL     1      38.055  16.414  10.854  1.00  0.00     0.019 C 
HETATM   15  C14 UNL     1      37.886  15.059  10.261  1.00  0.00     0.015 C 
HETATM   16  C15 UNL     1      36.365  14.825  10.194  1.00  0.00     0.014 C 
HETATM   17  C16 UNL     1      36.248  13.298  10.221  1.00  0.00    -0.005 C 
HETATM   18  C19 UNL     1      37.601  12.752  10.530  1.00  0.00     0.010 C 
HETATM   19  C20 UNL     1      38.290  13.964  11.177  1.00  0.00    -0.002 C 
ENDROOT
BRANCH  17  20
HETATM   20  C17 UNL     1      35.208  12.960  11.248  1.00  0.00     0.101 C 
BRANCH  20  21
HETATM   21  C18 UNL     1      34.324  11.852  10.829  1.00  0.00     0.219 C 
HETATM   22  O4  UNL     1      33.864  11.016  11.574  1.00  0.00    -0.280 OA
HETATM   23 CL1  UNL     1      33.915  11.745   9.119  1.00  0.00    -0.044 Cl
ENDBRANCH  20  21
ENDBRANCH  17  20
BRANCH  11  24
HETATM   24  O3  UNL     1      40.697  17.361  13.227  1.00  0.00    -0.382 OA
ATOM     25  H3  UNL     1      40.858  16.983  14.084  1.00  0.00     0.211 HD
ENDBRANCH  11  24
BRANCH   3  26
HETATM   26  O1  UNL     1      42.057  17.966  11.250  1.00  0.00    -0.395 OA
ATOM     27  H1  UNL     1      42.959  17.858  11.525  1.00  0.00     0.210 HD
ENDBRANCH   3  26
BRANCH   5  28
HETATM   28  O2  UNL     1      42.258  15.016   7.992  1.00  0.00    -0.395 OA
ATOM     29  H2  UNL     1      41.311  14.943   7.992  1.00  0.00     0.210 HD
ENDBRANCH   5  28
TORSDOF 5
ENDMDL
MODEL 4
REMARK VINA RESULT: -7.736023409      3.124      6.073
REMARK  5 active torsions:
REMARK  status: ('A' for Active; 'I' for Inactive)
REMARK    1  A    between atoms: C3_3  and  O1_4 
REMARK    2  A    between atoms: C5_7  and  O2_8 
REMARK    3  A    between atoms: C11_15  and  O3_16 
REMARK    4  A    between atoms: C16_23  and  C17_24 
REMARK    5  A    between atoms: C17_24  and  C18_25 
ROOT
HETATM    1  C1  UNL     1      42.677  13.648   9.882  1.00  0.00     0.022 C 
HETATM    2  C2  UNL     1      41.991  14.911  10.277  1.00  0.00     0.024 C 
HETATM    3  C3  UNL     1      43.055  16.014  10.298  1.00  0.00     0.132 C 
HETATM    4  C4  UNL     1      43.689  16.014   8.937  1.00  0.00     0.064 C 
HETATM    5  C5  UNL     1      42.771  16.079   7.793  1.00  0.00     0.121 C 
HETATM    6  C6  UNL     1      41.485  15.352   7.897  1.00  0.00     0.037 C 
HETATM    7  C7  UNL     1      40.942  15.401   9.333  1.00  0.00     0.006 C 
HETATM    8  C8  UNL     1      39.610  14.803   9.479  1.00  0.00    -0.005 C 
HETATM    9  C9  UNL     1      39.777  13.438  10.168  1.00  0.00     0.009 C 
HETATM   10  C10 UNL     1      40.395  13.558  11.513  1.00  0.00     0.046 C 
HETATM   11  C11 UNL     1      41.406  14.677  11.650  1.00  0.00     0.121 C 
HETATM   12  C12 UNL     1      40.840  15.878  12.274  1.00  0.00     0.125 C 
HETATM   13  F1  UNL     1      41.390  16.246  13.482  1.00  0.00    -0.208 F 
HETATM   14  C13 UNL     1      39.883  16.763  11.976  1.00  0.00     0.019 C 
HETATM   15  C14 UNL     1      38.968  16.861  10.807  1.00  0.00     0.015 C 
HETATM   16  C15 UNL     1      37.615  17.323  11.379  1.00  0.00     0.014 C 
HETATM   17  C16 UNL     1      36.606  16.798  10.352  1.00  0.00    -0.005 C 
HETATM   18  C19 UNL     1      37.346  15.901   9.419  1.00  0.00     0.010 C 
HETATM   19  C20 UNL     1      38.589  15.539  10.247  1.00  0.00    -0.002 C 
ENDROOT
BRANCH  17  20
HETATM   20  C17 UNL     1      35.521  16.107  11.124  1.00  0.00     0.101 C 
BRANCH  20  21
HETATM   21  C18 UNL     1      34.713  15.195  10.288  1.00  0.00     0.219 C 
HETATM   22  O4  UNL     1      33.924  15.550   9.440  1.00  0.00    -0.280 OA
HETATM   23 CL1  UNL     1      34.915  13.465  10.550  1.00  0.00    -0.044 Cl
ENDBRANCH  20  21
ENDBRANCH  17  20
BRANCH  11  24
HETATM   24  O3  UNL     1      42.443  14.166  12.439  1.00  0.00    -0.382 OA
ATOM     25  H3  UNL     1      42.424  13.222  12.327  1.00  0.00     0.211 HD
ENDBRANCH  11  24
BRANCH   3  26
HETATM   26  O1  UNL     1      43.992  15.683  11.248  1.00  0.00    -0.395 OA
ATOM     27  H1  UNL     1      44.852  15.753  10.850  1.00  0.00     0.210 HD
ENDBRANCH   3  26
BRANCH   5  28
HETATM   28  O2  UNL     1      42.554  17.442   7.480  1.00  0.00    -0.395 OA
ATOM     29  H2  UNL     1      41.812  17.748   7.989  1.00  0.00     0.210 HD
ENDBRANCH   5  28
TORSDOF 5
ENDMDL
MODEL 5
REMARK VINA RESULT: -7.648171550      2.889      6.112
REMARK  5 active torsions:
REMARK  status: ('A' for Active; 'I' for Inactive)
REMARK    1  A    between atoms: C3_3  and  O1_4 
REMARK    2  A    between atoms: C5_7  and  O2_8 
REMARK    3  A    between atoms: C11_15  and  O3_16 
REMARK    4  A    between atoms: C16_23  and  C17_24 
REMARK    5  A    between atoms: C17_24  and  C18_25 
ROOT
HETATM    1  C1  UNL     1      43.423  14.457  10.682  1.00  0.00     0.022 C 
HETATM    2  C2  UNL     1      42.325  15.459  10.778  1.00  0.00     0.024 C 
HETATM    3  C3  UNL     1      42.953  16.839  10.556  1.00  0.00     0.132 C 
HETATM    4  C4  UNL     1      43.660  16.772   9.233  1.00  0.00     0.064 C 
HETATM    5  C5  UNL     1      42.870  16.276   8.099  1.00  0.00     0.121 C 
HETATM    6  C6  UNL     1      41.897  15.189   8.358  1.00  0.00     0.037 C 
HETATM    7  C7  UNL     1      41.253  15.348   9.743  1.00  0.00     0.006 C 
HETATM    8  C8  UNL     1      40.191  14.373  10.014  1.00  0.00    -0.005 C 
HETATM    9  C9  UNL     1      40.747  13.326  10.992  1.00  0.00     0.009 C 
HETATM   10  C10 UNL     1      41.177  13.930  12.280  1.00  0.00     0.046 C 
HETATM   11  C11 UNL     1      41.740  15.331  12.165  1.00  0.00     0.121 C 
HETATM   12  C12 UNL     1      40.756  16.367  12.500  1.00  0.00     0.125 C 
HETATM   13  F1  UNL     1      41.051  17.146  13.598  1.00  0.00    -0.208 F 
HETATM   14  C13 UNL     1      39.587  16.784  12.006  1.00  0.00     0.019 C 
HETATM   15  C14 UNL     1      38.791  16.313  10.840  1.00  0.00     0.015 C 
HETATM   16  C15 UNL     1      37.319  16.390  11.287  1.00  0.00     0.014 C 
HETATM   17  C16 UNL     1      36.632  15.347  10.400  1.00  0.00    -0.005 C 
HETATM   18  C19 UNL     1      37.703  14.585   9.696  1.00  0.00     0.010 C 
HETATM   19  C20 UNL     1      38.923  14.856  10.591  1.00  0.00    -0.002 C 
ENDROOT
BRANCH  17  20
HETATM   20  C17 UNL     1      35.780  14.504  11.302  1.00  0.00     0.101 C 
BRANCH  20  21
HETATM   21  C18 UNL     1      35.521  13.156  10.753  1.00  0.00     0.219 C 
HETATM   22  O4  UNL     1      35.884  12.120  11.264  1.00  0.00    -0.280 OA
HETATM   23 CL1  UNL     1      34.617  13.056   9.245  1.00  0.00    -0.044 Cl
ENDBRANCH  20  21
ENDBRANCH  17  20
BRANCH  11  24
HETATM   24  O3  UNL     1      42.820  15.386  13.055  1.00  0.00    -0.382 OA
ATOM     25  H3  UNL     1      43.594  15.162  12.550  1.00  0.00     0.211 HD
ENDBRANCH  11  24
BRANCH   3  26
HETATM   26  O1  UNL     1      43.865  17.058  11.560  1.00  0.00    -0.395 OA
ATOM     27  H1  UNL     1      43.950  17.996  11.681  1.00  0.00     0.210 HD
ENDBRANCH   3  26
BRANCH   5  28
HETATM   28  O2  UNL     1      42.235  17.382   7.486  1.00  0.00    -0.395 OA
ATOM     29  H2  UNL     1      41.478  17.616   8.009  1.00  0.00     0.210 HD
ENDBRANCH   5  28
TORSDOF 5
ENDMDL
