MODEL 1
REMARK VINA RESULT: -6.669919721      0.000      0.000
REMARK  13 active torsions:
REMARK  status: ('A' for Active; 'I' for Inactive)
REMARK    1  A    between atoms: O1_2  and  C2_3 
REMARK    2  A    between atoms: C3_4  and  C4_5 
REMARK    3  A    between atoms: C4_5  and  N1_6 
REMARK    4  A    between atoms: N1_6  and  N2_8 
REMARK    5  A    between atoms: C5_13  and  O2_14 
REMARK    6  A    between atoms: C6_16  and  O3_17 
REMARK    7  A    between atoms: C7_19  and  O4_20 
REMARK    8  A    between atoms: C8_22  and  O5_23 
REMARK    9  A    between atoms: O5_23  and  C9_24 
REMARK   10  A    between atoms: C10_25  and  C11_26 
REMARK   11  A    between atoms: C11_26  and  O6_27 
REMARK   12  A    between atoms: C14_31  and  O7_32 
REMARK   13  A    between atoms: C16_35  and  O8_36 
ROOT
HETATM    1  C2  UNL     1     -17.551  37.494  27.059  1.00  0.00     0.160 C 
HETATM    2  C3  UNL     1     -16.167  37.193  27.465  1.00  0.00     0.068 C 
HETATM    3  C5  UNL     1     -15.783  35.740  27.377  1.00  0.00     0.157 C 
HETATM    4  C6  UNL     1     -17.041  34.941  27.681  1.00  0.00     0.178 C 
HETATM    5  C7  UNL     1     -17.945  35.086  26.498  1.00  0.00     0.180 C 
HETATM    6  C8  UNL     1     -18.175  36.495  26.099  1.00  0.00     0.182 C 
ENDROOT
BRANCH   6   7
HETATM    7  O5  UNL     1     -17.614  36.751  24.873  1.00  0.00    -0.374 OA
BRANCH   7   8
HETATM    8  C9  UNL     1     -17.933  35.854  23.857  1.00  0.00     0.135 C 
HETATM    9  C10 UNL     1     -16.885  35.926  22.807  1.00  0.00     0.039 C 
HETATM   10  C12 UNL     1     -17.570  36.152  21.507  1.00  0.00     0.017 C 
HETATM   11  C13 UNL     1     -18.864  36.815  21.847  1.00  0.00     0.024 C 
HETATM   12  C14 UNL     1     -19.974  36.422  20.891  1.00  0.00     0.131 C 
HETATM   13  C20 UNL     1     -19.228  36.261  23.185  1.00  0.00     0.051 C 
HETATM   14  C15 UNL     1     -20.982  35.737  21.753  1.00  0.00     0.073 C 
HETATM   15  C16 UNL     1     -21.748  34.751  20.940  1.00  0.00     0.129 C 
HETATM   16  C19 UNL     1     -20.126  35.105  22.833  1.00  0.00     0.137 C 
HETATM   17  C17 UNL     1     -20.923  33.562  20.550  1.00  0.00     0.058 C 
HETATM   18  C18 UNL     1     -20.107  33.080  21.712  1.00  0.00     0.170 C 
HETATM   19  O9  UNL     1     -19.378  34.085  22.319  1.00  0.00    -0.385 OA
BRANCH   9  20
HETATM   20  C11 UNL     1     -15.981  34.699  22.742  1.00  0.00     0.171 C 
BRANCH  20  21
HETATM   21  O6  UNL     1     -16.123  33.984  23.916  1.00  0.00    -0.400 OA
ATOM     22  H6  UNL     1     -16.066  33.057  23.715  1.00  0.00     0.209 HD
ENDBRANCH  20  21
ENDBRANCH   9  20
BRANCH  12  23
HETATM   23  O7  UNL     1     -20.513  37.529  20.230  1.00  0.00    -0.395 OA
ATOM     24  H7  UNL     1     -20.012  37.762  19.458  1.00  0.00     0.210 HD
ENDBRANCH  12  23
BRANCH  15  25
HETATM   25  O8  UNL     1     -22.137  35.407  19.753  1.00  0.00    -0.395 OA
ATOM     26  H8  UNL     1     -22.583  34.765  19.213  1.00  0.00     0.210 HD
ENDBRANCH  15  25
ENDBRANCH   7   8
ENDBRANCH   6   7
BRANCH   1  27
HETATM   27  O1  UNL     1     -18.326  37.618  28.210  1.00  0.00    -0.388 OA
HETATM   28  C1  UNL     1     -18.532  38.941  28.563  1.00  0.00     0.202 C 
ENDBRANCH   1  27
BRANCH   5  29
HETATM   29  O4  UNL     1     -19.148  34.456  26.812  1.00  0.00    -0.390 OA
ATOM     30  H4  UNL     1     -19.688  34.469  26.031  1.00  0.00     0.210 HD
ENDBRANCH   5  29
BRANCH   2  31
HETATM   31  C4  UNL     1     -15.207  37.967  26.584  1.00  0.00     0.150 C 
BRANCH  31  32
HETATM   32  N1  UNL     1     -15.892  38.951  25.776  1.00  0.00    -0.322 N 
ATOM     33  H1  UNL     1     -16.445  39.672  26.240  1.00  0.00     0.181 HD
BRANCH  32  34
HETATM   34  N2  UNL     1     -15.831  38.946  24.547  1.00  0.00    -0.254 N 
HETATM   35  N3  UNL     1     -15.992  39.303  23.379  1.00  0.00    -0.331 N 
ATOM     36  H32 UNL     1     -16.521  40.151  23.583  1.00  0.00     0.178 HD
ATOM     37  H31 UNL     1     -15.941  39.299  22.361  1.00  0.00     0.178 HD
ATOM     38  H2  UNL     1     -15.299  38.088  24.399  1.00  0.00     0.207 HD
ENDBRANCH  32  34
ENDBRANCH  31  32
ENDBRANCH   2  31
BRANCH   4  39
HETATM   39  O3  UNL     1     -16.724  33.605  27.903  1.00  0.00    -0.390 OA
ATOM     40  H3  UNL     1     -17.116  33.302  28.714  1.00  0.00     0.210 HD
ENDBRANCH   4  39
BRANCH   3  41
HETATM   41  O2  UNL     1     -15.207  35.402  26.178  1.00  0.00    -0.392 OA
ATOM     42  H2  UNL     1     -14.496  34.777  26.265  1.00  0.00     0.210 HD
ENDBRANCH   3  41
TORSDOF 13
ENDMDL
MODEL 2
REMARK VINA RESULT: -6.380136012      3.167      4.067
REMARK  13 active torsions:
REMARK  status: ('A' for Active; 'I' for Inactive)
REMARK    1  A    between atoms: O1_2  and  C2_3 
REMARK    2  A    between atoms: C3_4  and  C4_5 
REMARK    3  A    between atoms: C4_5  and  N1_6 
REMARK    4  A    between atoms: N1_6  and  N2_8 
REMARK    5  A    between atoms: C5_13  and  O2_14 
REMARK    6  A    between atoms: C6_16  and  O3_17 
REMARK    7  A    between atoms: C7_19  and  O4_20 
REMARK    8  A    between atoms: C8_22  and  O5_23 
REMARK    9  A    between atoms: O5_23  and  C9_24 
REMARK   10  A    between atoms: C10_25  and  C11_26 
REMARK   11  A    between atoms: C11_26  and  O6_27 
REMARK   12  A    between atoms: C14_31  and  O7_32 
REMARK   13  A    between atoms: C16_35  and  O8_36 
ROOT
HETATM    1  C2  UNL     1     -17.368  37.758  25.880  1.00  0.00     0.160 C 
HETATM    2  C3  UNL     1     -16.447  37.596  27.019  1.00  0.00     0.068 C 
HETATM    3  C5  UNL     1     -17.083  37.746  28.375  1.00  0.00     0.157 C 
HETATM    4  C6  UNL     1     -18.204  38.762  28.217  1.00  0.00     0.178 C 
HETATM    5  C7  UNL     1     -19.295  38.090  27.445  1.00  0.00     0.180 C 
HETATM    6  C8  UNL     1     -18.828  37.467  26.184  1.00  0.00     0.182 C 
ENDROOT
BRANCH   6   7
HETATM    7  O5  UNL     1     -18.933  36.100  26.250  1.00  0.00    -0.374 OA
BRANCH   7   8
HETATM    8  C9  UNL     1     -19.786  35.508  25.323  1.00  0.00     0.135 C 
HETATM    9  C10 UNL     1     -19.954  36.428  24.169  1.00  0.00     0.039 C 
HETATM   10  C12 UNL     1     -21.413  36.612  23.952  1.00  0.00     0.017 C 
HETATM   11  C13 UNL     1     -22.050  36.347  25.276  1.00  0.00     0.024 C 
HETATM   12  C14 UNL     1     -23.420  35.713  25.133  1.00  0.00     0.131 C 
HETATM   13  C20 UNL     1     -21.167  35.328  25.919  1.00  0.00     0.051 C 
HETATM   14  C15 UNL     1     -23.286  34.382  25.794  1.00  0.00     0.073 C 
HETATM   15  C16 UNL     1     -24.248  33.421  25.184  1.00  0.00     0.129 C 
HETATM   16  C19 UNL     1     -21.832  34.030  25.547  1.00  0.00     0.137 C 
HETATM   17  C17 UNL     1     -23.866  33.031  23.789  1.00  0.00     0.058 C 
HETATM   18  C18 UNL     1     -22.395  32.753  23.701  1.00  0.00     0.170 C 
HETATM   19  O9  UNL     1     -21.617  33.768  24.225  1.00  0.00    -0.385 OA
BRANCH   9  20
HETATM   20  C11 UNL     1     -19.266  35.957  22.891  1.00  0.00     0.171 C 
BRANCH  20  21
HETATM   21  O6  UNL     1     -18.002  35.504  23.212  1.00  0.00    -0.400 OA
ATOM     22  H6  UNL     1     -17.530  35.323  22.407  1.00  0.00     0.209 HD
ENDBRANCH  20  21
ENDBRANCH   9  20
BRANCH  12  23
HETATM   23  O7  UNL     1     -24.422  36.491  25.718  1.00  0.00    -0.395 OA
ATOM     24  H7  UNL     1     -24.665  36.171  26.579  1.00  0.00     0.210 HD
ENDBRANCH  12  23
BRANCH  15  25
HETATM   25  O8  UNL     1     -25.498  34.073  25.117  1.00  0.00    -0.395 OA
ATOM     26  H8  UNL     1     -26.078  33.626  25.723  1.00  0.00     0.210 HD
ENDBRANCH  15  25
ENDBRANCH   7   8
ENDBRANCH   6   7
BRANCH   1  27
HETATM   27  O1  UNL     1     -17.220  39.050  25.380  1.00  0.00    -0.388 OA
HETATM   28  C1  UNL     1     -17.207  39.077  23.996  1.00  0.00     0.202 C 
ENDBRANCH   1  27
BRANCH   5  29
HETATM   29  O4  UNL     1     -20.277  39.047  27.193  1.00  0.00    -0.390 OA
ATOM     30  H4  UNL     1     -19.837  39.876  27.048  1.00  0.00     0.210 HD
ENDBRANCH   5  29
BRANCH   2  31
HETATM   31  C4  UNL     1     -15.822  36.216  26.964  1.00  0.00     0.150 C 
BRANCH  31  32
HETATM   32  N1  UNL     1     -15.837  35.671  25.624  1.00  0.00    -0.322 N 
ATOM     33  H1  UNL     1     -15.517  36.254  24.851  1.00  0.00     0.181 HD
BRANCH  32  34
HETATM   34  N2  UNL     1     -16.224  34.527  25.387  1.00  0.00    -0.254 N 
HETATM   35  N3  UNL     1     -16.379  33.458  24.797  1.00  0.00    -0.331 N 
ATOM     36  H32 UNL     1     -15.814  33.687  23.979  1.00  0.00     0.178 HD
ATOM     37  H31 UNL     1     -16.699  32.510  24.600  1.00  0.00     0.178 HD
ATOM     38  H2  UNL     1     -16.778  34.349  26.225  1.00  0.00     0.207 HD
ENDBRANCH  32  34
ENDBRANCH  31  32
ENDBRANCH   2  31
BRANCH   4  39
HETATM   39  O3  UNL     1     -18.660  39.177  29.464  1.00  0.00    -0.390 OA
ATOM     40  H3  UNL     1     -19.605  39.093  29.515  1.00  0.00     0.210 HD
ENDBRANCH   4  39
BRANCH   3  41
HETATM   41  O2  UNL     1     -17.507  36.555  28.911  1.00  0.00    -0.392 OA
ATOM     42  H2  UNL     1     -18.348  36.269  28.573  1.00  0.00     0.210 HD
ENDBRANCH   3  41
TORSDOF 13
ENDMDL
MODEL 3
REMARK VINA RESULT: -6.223873229      1.401      1.598
REMARK  13 active torsions:
REMARK  status: ('A' for Active; 'I' for Inactive)
REMARK    1  A    between atoms: O1_2  and  C2_3 
REMARK    2  A    between atoms: C3_4  and  C4_5 
REMARK    3  A    between atoms: C4_5  and  N1_6 
REMARK    4  A    between atoms: N1_6  and  N2_8 
REMARK    5  A    between atoms: C5_13  and  O2_14 
REMARK    6  A    between atoms: C6_16  and  O3_17 
REMARK    7  A    between atoms: C7_19  and  O4_20 
REMARK    8  A    between atoms: C8_22  and  O5_23 
REMARK    9  A    between atoms: O5_23  and  C9_24 
REMARK   10  A    between atoms: C10_25  and  C11_26 
REMARK   11  A    between atoms: C11_26  and  O6_27 
REMARK   12  A    between atoms: C14_31  and  O7_32 
REMARK   13  A    between atoms: C16_35  and  O8_36 
ROOT
HETATM    1  C2  UNL     1     -17.425  37.520  27.233  1.00  0.00     0.160 C 
HETATM    2  C3  UNL     1     -16.034  37.035  27.267  1.00  0.00     0.068 C 
HETATM    3  C5  UNL     1     -15.865  35.574  26.947  1.00  0.00     0.157 C 
HETATM    4  C6  UNL     1     -17.113  34.871  27.459  1.00  0.00     0.178 C 
HETATM    5  C7  UNL     1     -18.234  35.253  26.544  1.00  0.00     0.180 C 
HETATM    6  C8  UNL     1     -18.368  36.716  26.354  1.00  0.00     0.182 C 
ENDROOT
BRANCH   6   7
HETATM    7  O5  UNL     1     -18.069  37.067  25.061  1.00  0.00    -0.374 OA
BRANCH   7   8
HETATM    8  C9  UNL     1     -18.814  36.435  24.069  1.00  0.00     0.135 C 
HETATM    9  C10 UNL     1     -18.213  36.744  22.747  1.00  0.00     0.039 C 
HETATM   10  C12 UNL     1     -19.295  37.273  21.876  1.00  0.00     0.017 C 
HETATM   11  C13 UNL     1     -20.312  37.847  22.805  1.00  0.00     0.024 C 
HETATM   12  C14 UNL     1     -21.723  37.696  22.271  1.00  0.00     0.131 C 
HETATM   13  C20 UNL     1     -20.221  36.997  24.031  1.00  0.00     0.051 C 
HETATM   14  C15 UNL     1     -22.412  36.835  23.276  1.00  0.00     0.073 C 
HETATM   15  C16 UNL     1     -23.508  36.072  22.614  1.00  0.00     0.129 C 
HETATM   16  C19 UNL     1     -21.288  35.962  23.797  1.00  0.00     0.137 C 
HETATM   17  C17 UNL     1     -22.993  35.003  21.700  1.00  0.00     0.058 C 
HETATM   18  C18 UNL     1     -21.863  34.256  22.343  1.00  0.00     0.170 C 
HETATM   19  O9  UNL     1     -20.874  35.086  22.836  1.00  0.00    -0.385 OA
BRANCH   9  20
HETATM   20  C11 UNL     1     -17.510  35.560  22.089  1.00  0.00     0.171 C 
BRANCH  20  21
HETATM   21  O6  UNL     1     -17.100  34.687  23.076  1.00  0.00    -0.400 OA
ATOM     22  H6  UNL     1     -17.737  33.986  23.146  1.00  0.00     0.209 HD
ENDBRANCH  20  21
ENDBRANCH   9  20
BRANCH  12  23
HETATM   23  O7  UNL     1     -22.359  38.930  22.112  1.00  0.00    -0.395 OA
ATOM     24  H7  UNL     1     -23.305  38.844  22.091  1.00  0.00     0.210 HD
ENDBRANCH  12  23
BRANCH  15  25
HETATM   25  O8  UNL     1     -24.235  36.991  21.827  1.00  0.00    -0.395 OA
ATOM     26  H8  UNL     1     -25.122  36.658  21.758  1.00  0.00     0.210 HD
ENDBRANCH  15  25
ENDBRANCH   7   8
ENDBRANCH   6   7
BRANCH   1  27
HETATM   27  O1  UNL     1     -17.901  37.574  28.541  1.00  0.00    -0.388 OA
HETATM   28  C1  UNL     1     -18.639  38.720  28.783  1.00  0.00     0.202 C 
ENDBRANCH   1  27
BRANCH   5  29
HETATM   29  O4  UNL     1     -19.405  34.710  27.070  1.00  0.00    -0.390 OA
ATOM     30  H4  UNL     1     -20.080  34.796  26.408  1.00  0.00     0.210 HD
ENDBRANCH   5  29
BRANCH   2  31
HETATM   31  C4  UNL     1     -15.206  37.815  26.265  1.00  0.00     0.150 C 
BRANCH  31  32
HETATM   32  N1  UNL     1     -15.964  38.889  25.662  1.00  0.00    -0.322 N 
ATOM     33  H1  UNL     1     -16.489  39.522  26.266  1.00  0.00     0.181 HD
BRANCH  32  34
HETATM   34  N2  UNL     1     -15.995  39.066  24.445  1.00  0.00    -0.254 N 
HETATM   35  N3  UNL     1     -15.606  39.175  23.281  1.00  0.00    -0.331 N 
ATOM     36  H32 UNL     1     -14.617  39.010  23.468  1.00  0.00     0.178 HD
ATOM     37  H31 UNL     1     -15.631  39.321  22.273  1.00  0.00     0.178 HD
ATOM     38  H2  UNL     1     -16.994  39.225  24.314  1.00  0.00     0.207 HD
ENDBRANCH  32  34
ENDBRANCH  31  32
ENDBRANCH   2  31
BRANCH   4  39
HETATM   39  O3  UNL     1     -16.924  33.493  27.466  1.00  0.00    -0.390 OA
ATOM     40  H3  UNL     1     -17.397  33.098  28.189  1.00  0.00     0.210 HD
ENDBRANCH   4  39
BRANCH   3  41
HETATM   41  O2  UNL     1     -15.619  35.334  25.618  1.00  0.00    -0.392 OA
ATOM     42  H2  UNL     1     -16.305  35.655  25.044  1.00  0.00     0.210 HD
ENDBRANCH   3  41
TORSDOF 13
ENDMDL
MODEL 4
REMARK VINA RESULT: -6.208886859      2.944      3.848
REMARK  13 active torsions:
REMARK  status: ('A' for Active; 'I' for Inactive)
REMARK    1  A    between atoms: O1_2  and  C2_3 
REMARK    2  A    between atoms: C3_4  and  C4_5 
REMARK    3  A    between atoms: C4_5  and  N1_6 
REMARK    4  A    between atoms: N1_6  and  N2_8 
REMARK    5  A    between atoms: C5_13  and  O2_14 
REMARK    6  A    between atoms: C6_16  and  O3_17 
REMARK    7  A    between atoms: C7_19  and  O4_20 
REMARK    8  A    between atoms: C8_22  and  O5_23 
REMARK    9  A    between atoms: O5_23  and  C9_24 
REMARK   10  A    between atoms: C10_25  and  C11_26 
REMARK   11  A    between atoms: C11_26  and  O6_27 
REMARK   12  A    between atoms: C14_31  and  O7_32 
REMARK   13  A    between atoms: C16_35  and  O8_36 
ROOT
HETATM    1  C2  UNL     1     -16.825  36.287  26.049  1.00  0.00     0.160 C 
HETATM    2  C3  UNL     1     -15.896  35.235  26.497  1.00  0.00     0.068 C 
HETATM    3  C5  UNL     1     -16.032  34.844  27.944  1.00  0.00     0.157 C 
HETATM    4  C6  UNL     1     -16.455  36.098  28.693  1.00  0.00     0.178 C 
HETATM    5  C7  UNL     1     -17.878  36.369  28.319  1.00  0.00     0.180 C 
HETATM    6  C8  UNL     1     -18.108  36.403  26.856  1.00  0.00     0.182 C 
ENDROOT
BRANCH   6   7
HETATM    7  O5  UNL     1     -18.895  35.349  26.464  1.00  0.00    -0.374 OA
BRANCH   7   8
HETATM    8  C9  UNL     1     -19.653  35.548  25.313  1.00  0.00     0.135 C 
HETATM    9  C10 UNL     1     -19.852  37.007  25.116  1.00  0.00     0.039 C 
HETATM   10  C12 UNL     1     -21.311  37.242  24.957  1.00  0.00     0.017 C 
HETATM   11  C13 UNL     1     -21.978  36.104  25.657  1.00  0.00     0.024 C 
HETATM   12  C14 UNL     1     -23.280  35.708  24.989  1.00  0.00     0.131 C 
HETATM   13  C20 UNL     1     -21.037  34.957  25.487  1.00  0.00     0.051 C 
HETATM   14  C15 UNL     1     -23.057  34.300  24.546  1.00  0.00     0.073 C 
HETATM   15  C16 UNL     1     -23.905  34.010  23.355  1.00  0.00     0.129 C 
HETATM   16  C19 UNL     1     -21.569  34.270  24.258  1.00  0.00     0.137 C 
HETATM   17  C17 UNL     1     -23.432  34.723  22.125  1.00  0.00     0.058 C 
HETATM   18  C18 UNL     1     -21.940  34.635  22.003  1.00  0.00     0.170 C 
HETATM   19  O9  UNL     1     -21.277  35.017  23.154  1.00  0.00    -0.385 OA
BRANCH   9  20
HETATM   20  C11 UNL     1     -19.072  37.590  23.941  1.00  0.00     0.171 C 
BRANCH  20  21
HETATM   21  O6  UNL     1     -18.624  36.550  23.150  1.00  0.00    -0.400 OA
ATOM     22  H6  UNL     1     -18.294  35.860  23.714  1.00  0.00     0.209 HD
ENDBRANCH  20  21
ENDBRANCH   9  20
BRANCH  12  23
HETATM   23  O7  UNL     1     -24.370  35.819  25.855  1.00  0.00    -0.395 OA
ATOM     24  H7  UNL     1     -24.528  35.015  26.336  1.00  0.00     0.210 HD
ENDBRANCH  12  23
BRANCH  15  25
HETATM   25  O8  UNL     1     -25.203  34.481  23.647  1.00  0.00    -0.395 OA
ATOM     26  H8  UNL     1     -25.772  34.183  22.946  1.00  0.00     0.210 HD
ENDBRANCH  15  25
ENDBRANCH   7   8
ENDBRANCH   6   7
BRANCH   1  27
HETATM   27  O1  UNL     1     -16.140  37.500  26.041  1.00  0.00    -0.388 OA
HETATM   28  C1  UNL     1     -15.363  37.655  24.906  1.00  0.00     0.202 C 
ENDBRANCH   1  27
BRANCH   5  29
HETATM   29  O4  UNL     1     -18.240  37.581  28.907  1.00  0.00    -0.390 OA
ATOM     30  H4  UNL     1     -17.495  38.165  28.837  1.00  0.00     0.210 HD
ENDBRANCH   5  29
BRANCH   2  31
HETATM   31  C4  UNL     1     -16.118  33.985  25.669  1.00  0.00     0.150 C 
BRANCH  31  32
HETATM   32  N1  UNL     1     -16.525  34.300  24.318  1.00  0.00    -0.322 N 
ATOM     33  H1  UNL     1     -15.995  34.995  23.792  1.00  0.00     0.181 HD
BRANCH  32  34
HETATM   34  N2  UNL     1     -17.490  33.755  23.781  1.00  0.00    -0.254 N 
HETATM   35  N3  UNL     1     -18.309  33.445  22.915  1.00  0.00    -0.331 N 
ATOM     36  H32 UNL     1     -17.919  34.020  22.168  1.00  0.00     0.178 HD
ATOM     37  H31 UNL     1     -19.108  32.994  22.470  1.00  0.00     0.178 HD
ATOM     38  H2  UNL     1     -17.838  33.199  24.562  1.00  0.00     0.207 HD
ENDBRANCH  32  34
ENDBRANCH  31  32
ENDBRANCH   2  31
BRANCH   4  39
HETATM   39  O3  UNL     1     -16.329  35.908  30.065  1.00  0.00    -0.390 OA
ATOM     40  H3  UNL     1     -16.841  36.555  30.537  1.00  0.00     0.210 HD
ENDBRANCH   4  39
BRANCH   3  41
HETATM   41  O2  UNL     1     -16.882  33.785  28.144  1.00  0.00    -0.392 OA
ATOM     42  H2  UNL     1     -17.582  33.739  27.502  1.00  0.00     0.210 HD
ENDBRANCH   3  41
TORSDOF 13
ENDMDL
MODEL 5
REMARK VINA RESULT: -6.181583097      3.031      4.226
REMARK  13 active torsions:
REMARK  status: ('A' for Active; 'I' for Inactive)
REMARK    1  A    between atoms: O1_2  and  C2_3 
REMARK    2  A    between atoms: C3_4  and  C4_5 
REMARK    3  A    between atoms: C4_5  and  N1_6 
REMARK    4  A    between atoms: N1_6  and  N2_8 
REMARK    5  A    between atoms: C5_13  and  O2_14 
REMARK    6  A    between atoms: C6_16  and  O3_17 
REMARK    7  A    between atoms: C7_19  and  O4_20 
REMARK    8  A    between atoms: C8_22  and  O5_23 
REMARK    9  A    between atoms: O5_23  and  C9_24 
REMARK   10  A    between atoms: C10_25  and  C11_26 
REMARK   11  A    between atoms: C11_26  and  O6_27 
REMARK   12  A    between atoms: C14_31  and  O7_32 
REMARK   13  A    between atoms: C16_35  and  O8_36 
ROOT
HETATM    1  C2  UNL     1     -17.845  37.322  25.825  1.00  0.00     0.160 C 
HETATM    2  C3  UNL     1     -16.843  36.250  25.956  1.00  0.00     0.068 C 
HETATM    3  C5  UNL     1     -16.580  35.799  27.368  1.00  0.00     0.157 C 
HETATM    4  C6  UNL     1     -16.762  37.022  28.254  1.00  0.00     0.178 C 
HETATM    5  C7  UNL     1     -18.228  37.313  28.299  1.00  0.00     0.180 C 
HETATM    6  C8  UNL     1     -18.853  37.408  26.958  1.00  0.00     0.182 C 
ENDROOT
BRANCH   6   7
HETATM    7  O5  UNL     1     -19.733  36.374  26.758  1.00  0.00    -0.374 OA
BRANCH   7   8
HETATM    8  C9  UNL     1     -20.461  36.412  25.572  1.00  0.00     0.135 C 
HETATM    9  C10 UNL     1     -21.651  37.279  25.768  1.00  0.00     0.039 C 
HETATM   10  C12 UNL     1     -22.846  36.500  25.349  1.00  0.00     0.017 C 
HETATM   11  C13 UNL     1     -22.465  35.066  25.513  1.00  0.00     0.024 C 
HETATM   12  C14 UNL     1     -23.124  34.179  24.475  1.00  0.00     0.131 C 
HETATM   13  C20 UNL     1     -20.997  35.035  25.240  1.00  0.00     0.051 C 
HETATM   14  C15 UNL     1     -21.986  33.597  23.705  1.00  0.00     0.073 C 
HETATM   15  C16 UNL     1     -22.429  33.278  22.319  1.00  0.00     0.129 C 
HETATM   16  C19 UNL     1     -20.939  34.691  23.776  1.00  0.00     0.137 C 
HETATM   17  C17 UNL     1     -22.668  34.507  21.495  1.00  0.00     0.058 C 
HETATM   18  C18 UNL     1     -21.569  35.505  21.703  1.00  0.00     0.170 C 
HETATM   19  O9  UNL     1     -21.322  35.773  23.036  1.00  0.00    -0.385 OA
BRANCH   9  20
HETATM   20  C11 UNL     1     -21.580  38.612  25.028  1.00  0.00     0.171 C 
BRANCH  20  21
HETATM   21  O6  UNL     1     -20.887  38.426  23.849  1.00  0.00    -0.400 OA
ATOM     22  H6  UNL     1     -21.207  39.049  23.207  1.00  0.00     0.209 HD
ENDBRANCH  20  21
ENDBRANCH   9  20
BRANCH  12  23
HETATM   23  O7  UNL     1     -23.923  33.192  25.058  1.00  0.00    -0.395 OA
ATOM     24  H7  UNL     1     -24.675  33.561  25.506  1.00  0.00     0.210 HD
ENDBRANCH  12  23
BRANCH  15  25
HETATM   25  O8  UNL     1     -23.657  32.591  22.425  1.00  0.00    -0.395 OA
ATOM     26  H8  UNL     1     -23.785  32.122  21.609  1.00  0.00     0.210 HD
ENDBRANCH  15  25
ENDBRANCH   7   8
ENDBRANCH   6   7
BRANCH   1  27
HETATM   27  O1  UNL     1     -17.171  38.533  25.676  1.00  0.00    -0.388 OA
HETATM   28  C1  UNL     1     -18.039  39.595  25.489  1.00  0.00     0.202 C 
ENDBRANCH   1  27
BRANCH   5  29
HETATM   29  O4  UNL     1     -18.397  38.499  29.011  1.00  0.00    -0.390 OA
ATOM     30  H4  UNL     1     -17.912  39.176  28.555  1.00  0.00     0.210 HD
ENDBRANCH   5  29
BRANCH   2  31
HETATM   31  C4  UNL     1     -17.303  35.036  25.174  1.00  0.00     0.150 C 
BRANCH  31  32
HETATM   32  N1  UNL     1     -16.198  34.175  24.817  1.00  0.00    -0.322 N 
ATOM     33  H1  UNL     1     -15.660  34.386  23.976  1.00  0.00     0.181 HD
BRANCH  32  34
HETATM   34  N2  UNL     1     -15.884  33.197  25.495  1.00  0.00    -0.254 N 
HETATM   35  N3  UNL     1     -15.534  32.528  26.468  1.00  0.00    -0.331 N 
ATOM     36  H32 UNL     1     -15.467  33.302  27.129  1.00  0.00     0.178 HD
ATOM     37  H31 UNL     1     -15.274  31.718  27.030  1.00  0.00     0.178 HD
ATOM     38  H2  UNL     1     -15.967  32.461  24.794  1.00  0.00     0.207 HD
ENDBRANCH  32  34
ENDBRANCH  31  32
ENDBRANCH   2  31
BRANCH   4  39
HETATM   39  O3  UNL     1     -16.265  36.774  29.529  1.00  0.00    -0.390 OA
ATOM     40  H3  UNL     1     -15.361  37.060  29.593  1.00  0.00     0.210 HD
ENDBRANCH   4  39
BRANCH   3  41
HETATM   41  O2  UNL     1     -17.358  34.735  27.753  1.00  0.00    -0.392 OA
ATOM     42  H2  UNL     1     -17.907  34.923  28.505  1.00  0.00     0.210 HD
ENDBRANCH   3  41
TORSDOF 13
ENDMDL
