MODEL 1
REMARK VINA RESULT: -10.213571967      0.000      0.000
REMARK  5 active torsions:
REMARK  status: ('A' for Active; 'I' for Inactive)
REMARK    1  A    between atoms: C7_8  and  N2_9 
REMARK    2  A    between atoms: C9_11  and  C10_12 
REMARK    3  A    between atoms: C12_16  and  C13_17 
REMARK    4  A    between atoms: C18_29  and  N6_30 
REMARK    5  A    between atoms: N6_30  and  C19_32 
ROOT
HETATM    1  N1  UNL     1       1.357 -22.178  25.311  1.00  0.00    -0.197 NA
HETATM    2  C1  UNL     1       0.289 -22.131  25.762  1.00  0.00     0.066 C 
HETATM    3  C2  UNL     1      -1.067 -22.075  26.326  1.00  0.00     0.117 C 
HETATM    4  C3  UNL     1      -0.960 -22.272  27.819  1.00  0.00     0.021 C 
HETATM    5  C4  UNL     1      -2.294 -22.146  28.486  1.00  0.00     0.001 C 
HETATM    6  C5  UNL     1      -3.002 -20.863  28.167  1.00  0.00     0.002 C 
HETATM    7  C6  UNL     1      -3.020 -20.649  26.683  1.00  0.00     0.028 C 
HETATM    8  C7  UNL     1      -1.650 -20.727  26.059  1.00  0.00     0.125 C 
ENDROOT
BRANCH   8   9
HETATM    9  N2  UNL     1      -1.842 -20.532  24.616  1.00  0.00    -0.295 N 
HETATM   10  C8  UNL     1      -2.385 -19.430  24.018  1.00  0.00     0.128 A 
HETATM   11  C9  UNL     1      -2.400 -19.609  22.652  1.00  0.00     0.054 A 
HETATM   12  C18 UNL     1      -1.853 -20.845  22.445  1.00  0.00     0.130 A 
HETATM   13  N7  UNL     1      -1.528 -21.372  23.652  1.00  0.00    -0.283 N 
ATOM     14  H7  UNL     1      -1.100 -22.287  23.793  1.00  0.00     0.189 HD
BRANCH  11  15
HETATM   15  C10 UNL     1      -2.893 -18.685  21.644  1.00  0.00     0.067 A 
HETATM   16  C11 UNL     1      -4.033 -17.920  21.607  1.00  0.00     0.160 A 
HETATM   17  N3  UNL     1      -4.043 -17.220  20.446  1.00  0.00    -0.176 N 
HETATM   18  F1  UNL     1      -5.043 -16.373  20.121  1.00  0.00    -0.093 F 
HETATM   19  C12 UNL     1      -2.938 -17.522  19.744  1.00  0.00     0.120 A 
HETATM   20  N5  UNL     1      -2.247 -18.406  20.468  1.00  0.00    -0.342 N 
ATOM     21  H5  UNL     1      -1.358 -18.818  20.183  1.00  0.00     0.167 HD
BRANCH  19  22
HETATM   22  C13 UNL     1      -2.564 -16.970  18.408  1.00  0.00     0.087 C 
HETATM   23  C14 UNL     1      -1.573 -17.942  17.762  1.00  0.00     0.245 C 
HETATM   24  N4  UNL     1      -1.011 -17.364  16.561  1.00  0.00    -0.069 N 
HETATM   25  C15 UNL     1      -1.809 -16.265  16.060  1.00  0.00     0.310 C 
ATOM     26  H42 UNL     1      -0.042 -17.081  16.705  1.00  0.00     0.277 HD
ATOM     27  H41 UNL     1      -0.867 -18.073  15.842  1.00  0.00     0.277 HD
HETATM   28  C16 UNL     1      -3.291 -16.570  16.099  1.00  0.00     0.268 C 
HETATM   29  F2  UNL     1      -3.565 -17.576  15.210  1.00  0.00    -0.204 F 
HETATM   30  F3  UNL     1      -3.958 -15.441  15.684  1.00  0.00    -0.204 F 
HETATM   31  C17 UNL     1      -3.764 -16.908  17.498  1.00  0.00     0.094 C 
ENDBRANCH  19  22
ENDBRANCH  11  15
BRANCH  12  32
HETATM   32  N6  UNL     1      -1.668 -21.429  21.312  1.00  0.00    -0.370 N 
ATOM     33  H6  UNL     1      -2.474 -21.711  20.755  1.00  0.00     0.161 HD
BRANCH  32  34
HETATM   34  C19 UNL     1      -0.331 -21.692  20.816  1.00  0.00     0.083 C 
HETATM   35  C20 UNL     1       0.108 -20.691  19.772  1.00  0.00     0.025 C 
HETATM   36  C21 UNL     1       0.487 -21.838  18.856  1.00  0.00     0.004 C 
HETATM   37  C22 UNL     1      -0.291 -22.770  19.752  1.00  0.00     0.025 C 
ENDBRANCH  32  34
ENDBRANCH  12  32
ENDBRANCH   8   9
TORSDOF 5
ENDMDL
MODEL 2
REMARK VINA RESULT: -9.907052182      0.872      1.047
REMARK  5 active torsions:
REMARK  status: ('A' for Active; 'I' for Inactive)
REMARK    1  A    between atoms: C7_8  and  N2_9 
REMARK    2  A    between atoms: C9_11  and  C10_12 
REMARK    3  A    between atoms: C12_16  and  C13_17 
REMARK    4  A    between atoms: C18_29  and  N6_30 
REMARK    5  A    between atoms: N6_30  and  C19_32 
ROOT
HETATM    1  N1  UNL     1       1.021 -23.903  24.632  1.00  0.00    -0.197 NA
HETATM    2  C1  UNL     1       0.088 -23.423  25.127  1.00  0.00     0.066 C 
HETATM    3  C2  UNL     1      -1.099 -22.815  25.746  1.00  0.00     0.117 C 
HETATM    4  C3  UNL     1      -1.100 -23.184  27.210  1.00  0.00     0.021 C 
HETATM    5  C4  UNL     1      -2.236 -22.535  27.938  1.00  0.00     0.001 C 
HETATM    6  C5  UNL     1      -2.283 -21.046  27.763  1.00  0.00     0.002 C 
HETATM    7  C6  UNL     1      -2.194 -20.703  26.306  1.00  0.00     0.028 C 
HETATM    8  C7  UNL     1      -1.005 -21.330  25.623  1.00  0.00     0.125 C 
ENDROOT
BRANCH   8   9
HETATM    9  N2  UNL     1      -1.079 -20.930  24.213  1.00  0.00    -0.295 N 
HETATM   10  C8  UNL     1      -1.855 -19.929  23.700  1.00  0.00     0.128 A 
HETATM   11  C9  UNL     1      -1.659 -19.847  22.339  1.00  0.00     0.054 A 
HETATM   12  C18 UNL     1      -0.747 -20.823  22.047  1.00  0.00     0.130 A 
HETATM   13  N7  UNL     1      -0.419 -21.455  23.202  1.00  0.00    -0.283 N 
ATOM     14  H7  UNL     1       0.243 -22.228  23.276  1.00  0.00     0.189 HD
BRANCH  11  15
HETATM   15  C10 UNL     1      -2.286 -18.923  21.409  1.00  0.00     0.067 A 
HETATM   16  C11 UNL     1      -3.477 -18.243  21.484  1.00  0.00     0.160 A 
HETATM   17  N3  UNL     1      -3.620 -17.501  20.358  1.00  0.00    -0.176 N 
HETATM   18  F1  UNL     1      -4.698 -16.718  20.140  1.00  0.00    -0.093 F 
HETATM   19  C12 UNL     1      -2.550 -17.694  19.570  1.00  0.00     0.120 A 
HETATM   20  N5  UNL     1      -1.747 -18.552  20.204  1.00  0.00    -0.342 N 
ATOM     21  H5  UNL     1      -0.854 -18.886  19.842  1.00  0.00     0.167 HD
BRANCH  19  22
HETATM   22  C13 UNL     1      -2.312 -17.064  18.236  1.00  0.00     0.087 C 
HETATM   23  C14 UNL     1      -1.360 -17.973  17.454  1.00  0.00     0.245 C 
HETATM   24  N4  UNL     1      -0.924 -17.319  16.239  1.00  0.00    -0.069 N 
HETATM   25  C15 UNL     1      -1.790 -16.219  15.871  1.00  0.00     0.310 C 
ATOM     26  H42 UNL     1       0.047 -17.016  16.311  1.00  0.00     0.277 HD
ATOM     27  H41 UNL     1      -0.829 -17.986  15.474  1.00  0.00     0.277 HD
HETATM   28  C16 UNL     1      -3.255 -16.568  16.026  1.00  0.00     0.268 C 
HETATM   29  F2  UNL     1      -3.584 -17.535  15.113  1.00  0.00    -0.204 F 
HETATM   30  F3  UNL     1      -3.984 -15.440  15.733  1.00  0.00    -0.204 F 
HETATM   31  C17 UNL     1      -3.591 -16.991  17.441  1.00  0.00     0.094 C 
ENDBRANCH  19  22
ENDBRANCH  11  15
BRANCH  12  32
HETATM   32  N6  UNL     1      -0.266 -21.111  20.887  1.00  0.00    -0.370 N 
ATOM     33  H6  UNL     1       0.455 -20.515  20.481  1.00  0.00     0.161 HD
BRANCH  32  34
HETATM   34  C19 UNL     1      -0.734 -22.269  20.150  1.00  0.00     0.083 C 
HETATM   35  C20 UNL     1       0.014 -23.531  20.515  1.00  0.00     0.025 C 
HETATM   36  C21 UNL     1       0.269 -23.786  19.043  1.00  0.00     0.004 C 
HETATM   37  C22 UNL     1      -0.147 -22.364  18.756  1.00  0.00     0.025 C 
ENDBRANCH  32  34
ENDBRANCH  12  32
ENDBRANCH   8   9
TORSDOF 5
ENDMDL
MODEL 3
REMARK VINA RESULT: -9.688960910      1.114      1.976
REMARK  5 active torsions:
REMARK  status: ('A' for Active; 'I' for Inactive)
REMARK    1  A    between atoms: C7_8  and  N2_9 
REMARK    2  A    between atoms: C9_11  and  C10_12 
REMARK    3  A    between atoms: C12_16  and  C13_17 
REMARK    4  A    between atoms: C18_29  and  N6_30 
REMARK    5  A    between atoms: N6_30  and  C19_32 
ROOT
HETATM    1  N1  UNL     1      -3.393 -19.884  26.058  1.00  0.00    -0.197 NA
HETATM    2  C1  UNL     1      -2.421 -20.515  26.116  1.00  0.00     0.066 C 
HETATM    3  C2  UNL     1      -1.186 -21.308  26.185  1.00  0.00     0.117 C 
HETATM    4  C3  UNL     1      -1.168 -22.029  27.511  1.00  0.00     0.021 C 
HETATM    5  C4  UNL     1       0.022 -22.929  27.630  1.00  0.00     0.001 C 
HETATM    6  C5  UNL     1       0.152 -23.900  26.495  1.00  0.00     0.002 C 
HETATM    7  C6  UNL     1       0.045 -23.170  25.189  1.00  0.00     0.028 C 
HETATM    8  C7  UNL     1      -1.196 -22.320  25.087  1.00  0.00     0.125 C 
ENDROOT
BRANCH   8   9
HETATM    9  N2  UNL     1      -1.135 -21.654  23.780  1.00  0.00    -0.295 N 
HETATM   10  C8  UNL     1      -1.842 -20.547  23.406  1.00  0.00     0.128 A 
HETATM   11  C9  UNL     1      -1.521 -20.213  22.108  1.00  0.00     0.054 A 
HETATM   12  C18 UNL     1      -0.605 -21.147  21.712  1.00  0.00     0.130 A 
HETATM   13  N7  UNL     1      -0.396 -22.000  22.746  1.00  0.00    -0.283 N 
ATOM     14  H7  UNL     1       0.243 -22.796  22.727  1.00  0.00     0.189 HD
BRANCH  11  15
HETATM   15  C10 UNL     1      -2.044 -19.106  21.325  1.00  0.00     0.067 A 
HETATM   16  C11 UNL     1      -3.006 -18.172  21.620  1.00  0.00     0.160 A 
HETATM   17  N3  UNL     1      -3.141 -17.343  20.556  1.00  0.00    -0.176 N 
HETATM   18  F1  UNL     1      -4.017 -16.315  20.546  1.00  0.00    -0.093 F 
HETATM   19  C12 UNL     1      -2.288 -17.728  19.592  1.00  0.00     0.120 A 
HETATM   20  N5  UNL     1      -1.629 -18.792  20.057  1.00  0.00    -0.342 N 
ATOM     21  H5  UNL     1      -0.913 -19.301  19.539  1.00  0.00     0.167 HD
BRANCH  19  22
HETATM   22  C13 UNL     1      -2.119 -17.082  18.255  1.00  0.00     0.087 C 
HETATM   23  C14 UNL     1      -1.204 -17.979  17.417  1.00  0.00     0.245 C 
HETATM   24  N4  UNL     1      -0.831 -17.310  16.189  1.00  0.00    -0.069 N 
HETATM   25  C15 UNL     1      -1.717 -16.210  15.877  1.00  0.00     0.310 C 
ATOM     26  H42 UNL     1       0.142 -17.005  16.216  1.00  0.00     0.277 HD
ATOM     27  H41 UNL     1      -0.772 -17.969  15.413  1.00  0.00     0.277 HD
HETATM   28  C16 UNL     1      -3.171 -16.566  16.101  1.00  0.00     0.268 C 
HETATM   29  F2  UNL     1      -3.543 -17.524  15.194  1.00  0.00    -0.204 F 
HETATM   30  F3  UNL     1      -3.917 -15.437  15.857  1.00  0.00    -0.204 F 
HETATM   31  C17 UNL     1      -3.435 -17.005  17.526  1.00  0.00     0.094 C 
ENDBRANCH  19  22
ENDBRANCH  11  15
BRANCH  12  32
HETATM   32  N6  UNL     1      -0.026 -21.225  20.565  1.00  0.00    -0.370 N 
ATOM     33  H6  UNL     1       0.714 -20.563  20.330  1.00  0.00     0.161 HD
BRANCH  32  34
HETATM   34  C19 UNL     1      -0.409 -22.239  19.601  1.00  0.00     0.083 C 
HETATM   35  C20 UNL     1       0.572 -23.387  19.546  1.00  0.00     0.025 C 
HETATM   36  C21 UNL     1       0.647 -23.229  18.040  1.00  0.00     0.004 C 
HETATM   37  C22 UNL     1      -0.023 -21.885  18.179  1.00  0.00     0.025 C 
ENDBRANCH  32  34
ENDBRANCH  12  32
ENDBRANCH   8   9
TORSDOF 5
ENDMDL
MODEL 4
REMARK VINA RESULT: -9.657244856      3.862      8.618
REMARK  5 active torsions:
REMARK  status: ('A' for Active; 'I' for Inactive)
REMARK    1  A    between atoms: C7_8  and  N2_9 
REMARK    2  A    between atoms: C9_11  and  C10_12 
REMARK    3  A    between atoms: C12_16  and  C13_17 
REMARK    4  A    between atoms: C18_29  and  N6_30 
REMARK    5  A    between atoms: N6_30  and  C19_32 
ROOT
HETATM    1  N1  UNL     1      -4.409 -16.954  21.208  1.00  0.00    -0.197 NA
HETATM    2  C1  UNL     1      -3.997 -17.096  20.132  1.00  0.00     0.066 C 
HETATM    3  C2  UNL     1      -3.476 -17.283  18.771  1.00  0.00     0.117 C 
HETATM    4  C3  UNL     1      -3.958 -16.130  17.924  1.00  0.00     0.021 C 
HETATM    5  C4  UNL     1      -3.402 -16.199  16.536  1.00  0.00     0.001 C 
HETATM    6  C5  UNL     1      -1.906 -16.300  16.497  1.00  0.00     0.002 C 
HETATM    7  C6  UNL     1      -1.447 -17.396  17.412  1.00  0.00     0.028 C 
HETATM    8  C7  UNL     1      -1.983 -17.258  18.814  1.00  0.00     0.125 C 
ENDROOT
BRANCH   8   9
HETATM    9  N2  UNL     1      -1.476 -18.412  19.566  1.00  0.00    -0.295 N 
HETATM   10  C8  UNL     1      -1.830 -18.764  20.837  1.00  0.00     0.128 A 
HETATM   11  C9  UNL     1      -1.148 -19.904  21.206  1.00  0.00     0.054 A 
HETATM   12  C18 UNL     1      -0.375 -20.226  20.125  1.00  0.00     0.130 A 
HETATM   13  N7  UNL     1      -0.599 -19.305  19.155  1.00  0.00    -0.283 N 
ATOM     14  H7  UNL     1      -0.153 -19.304  18.237  1.00  0.00     0.189 HD
BRANCH  11  15
HETATM   15  C10 UNL     1      -1.229 -20.612  22.472  1.00  0.00     0.067 A 
HETATM   16  C11 UNL     1      -1.906 -20.311  23.628  1.00  0.00     0.160 A 
HETATM   17  N3  UNL     1      -1.663 -21.289  24.536  1.00  0.00    -0.176 N 
HETATM   18  F1  UNL     1      -2.196 -21.273  25.777  1.00  0.00    -0.093 F 
HETATM   19  C12 UNL     1      -0.847 -22.203  23.984  1.00  0.00     0.120 A 
HETATM   20  N5  UNL     1      -0.586 -21.793  22.741  1.00  0.00    -0.342 N 
ATOM     21  H5  UNL     1       0.011 -22.290  22.080  1.00  0.00     0.167 HD
BRANCH  19  22
HETATM   22  C13 UNL     1      -0.334 -23.440  24.646  1.00  0.00     0.087 C 
HETATM   23  C14 UNL     1      -0.678 -24.629  23.744  1.00  0.00     0.245 C 
HETATM   24  N4  UNL     1      -0.396 -25.874  24.424  1.00  0.00    -0.069 N 
HETATM   25  C15 UNL     1       0.500 -25.693  25.546  1.00  0.00     0.310 C 
ATOM     26  H42 UNL     1      -1.256 -26.342  24.709  1.00  0.00     0.277 HD
ATOM     27  H41 UNL     1      -0.038 -26.576  23.775  1.00  0.00     0.277 HD
HETATM   28  C16 UNL     1       1.650 -24.766  25.215  1.00  0.00     0.268 C 
HETATM   29  F2  UNL     1       2.452 -25.363  24.279  1.00  0.00    -0.204 F 
HETATM   30  F3  UNL     1       2.389 -24.596  26.363  1.00  0.00    -0.204 F 
HETATM   31  C17 UNL     1       1.168 -23.404  24.760  1.00  0.00     0.094 C 
ENDBRANCH  19  22
ENDBRANCH  11  15
BRANCH  12  32
HETATM   32  N6  UNL     1       0.431 -21.225  20.021  1.00  0.00    -0.370 N 
ATOM     33  H6  UNL     1       1.253 -21.271  20.624  1.00  0.00     0.161 HD
BRANCH  32  34
HETATM   34  C19 UNL     1       0.190 -22.284  19.061  1.00  0.00     0.083 C 
HETATM   35  C20 UNL     1      -0.294 -23.559  19.712  1.00  0.00     0.025 C 
HETATM   36  C21 UNL     1       0.785 -24.326  18.974  1.00  0.00     0.004 C 
HETATM   37  C22 UNL     1       1.453 -23.013  18.648  1.00  0.00     0.025 C 
ENDBRANCH  32  34
ENDBRANCH  12  32
ENDBRANCH   8   9
TORSDOF 5
ENDMDL
MODEL 5
REMARK VINA RESULT: -9.531312516      4.249      8.194
REMARK  5 active torsions:
REMARK  status: ('A' for Active; 'I' for Inactive)
REMARK    1  A    between atoms: C7_8  and  N2_9 
REMARK    2  A    between atoms: C9_11  and  C10_12 
REMARK    3  A    between atoms: C12_16  and  C13_17 
REMARK    4  A    between atoms: C18_29  and  N6_30 
REMARK    5  A    between atoms: N6_30  and  C19_32 
ROOT
HETATM    1  N1  UNL     1      -3.464 -17.510  21.269  1.00  0.00    -0.197 NA
HETATM    2  C1  UNL     1      -3.317 -17.433  20.120  1.00  0.00     0.066 C 
HETATM    3  C2  UNL     1      -3.131 -17.346  18.665  1.00  0.00     0.117 C 
HETATM    4  C3  UNL     1      -3.773 -16.065  18.189  1.00  0.00     0.021 C 
HETATM    5  C4  UNL     1      -3.558 -15.856  16.723  1.00  0.00     0.001 C 
HETATM    6  C5  UNL     1      -2.115 -15.910  16.318  1.00  0.00     0.002 C 
HETATM    7  C6  UNL     1      -1.478 -17.148  16.875  1.00  0.00     0.028 C 
HETATM    8  C7  UNL     1      -1.669 -17.293  18.364  1.00  0.00     0.125 C 
ENDROOT
BRANCH   8   9
HETATM    9  N2  UNL     1      -1.024 -18.556  18.743  1.00  0.00    -0.295 N 
HETATM   10  C8  UNL     1      -0.373 -19.411  17.901  1.00  0.00     0.128 A 
HETATM   11  C9  UNL     1       0.103 -20.489  18.616  1.00  0.00     0.054 A 
HETATM   12  C18 UNL     1      -0.281 -20.259  19.909  1.00  0.00     0.130 A 
HETATM   13  N7  UNL     1      -0.958 -19.084  19.947  1.00  0.00    -0.283 N 
ATOM     14  H7  UNL     1      -1.358 -18.668  20.789  1.00  0.00     0.189 HD
BRANCH  11  15
HETATM   15  C10 UNL     1       0.849 -21.628  18.110  1.00  0.00     0.067 A 
HETATM   16  C11 UNL     1       1.496 -22.643  18.770  1.00  0.00     0.160 A 
HETATM   17  N3  UNL     1       2.049 -23.470  17.849  1.00  0.00    -0.176 N 
HETATM   18  F1  UNL     1       2.755 -24.569  18.195  1.00  0.00    -0.093 F 
HETATM   19  C12 UNL     1       1.770 -23.005  16.620  1.00  0.00     0.120 A 
HETATM   20  N5  UNL     1       1.047 -21.893  16.780  1.00  0.00    -0.342 N 
ATOM     21  H5  UNL     1       0.691 -21.320  16.015  1.00  0.00     0.167 HD
BRANCH  19  22
HETATM   22  C13 UNL     1       2.194 -23.620  15.327  1.00  0.00     0.087 C 
HETATM   23  C14 UNL     1       1.506 -24.983  15.211  1.00  0.00     0.245 C 
HETATM   24  N4  UNL     1       2.036 -25.721  14.085  1.00  0.00    -0.069 N 
HETATM   25  C15 UNL     1       2.723 -24.861  13.145  1.00  0.00     0.310 C 
ATOM     26  H42 UNL     1       2.637 -26.485  14.393  1.00  0.00     0.277 HD
ATOM     27  H41 UNL     1       1.307 -26.264  13.623  1.00  0.00     0.277 HD
HETATM   28  C16 UNL     1       1.965 -23.577  12.885  1.00  0.00     0.268 C 
HETATM   29  F2  UNL     1       0.796 -23.871  12.232  1.00  0.00    -0.204 F 
HETATM   30  F3  UNL     1       2.735 -22.801  12.051  1.00  0.00    -0.204 F 
HETATM   31  C17 UNL     1       1.718 -22.795  14.159  1.00  0.00     0.094 C 
ENDBRANCH  19  22
ENDBRANCH  11  15
BRANCH  12  32
HETATM   32  N6  UNL     1      -0.051 -21.010  20.929  1.00  0.00    -0.370 N 
ATOM     33  H6  UNL     1       0.911 -21.259  21.162  1.00  0.00     0.161 HD
BRANCH  32  34
HETATM   34  C19 UNL     1      -1.136 -21.507  21.752  1.00  0.00     0.083 C 
HETATM   35  C20 UNL     1      -1.460 -20.585  22.905  1.00  0.00     0.025 C 
HETATM   36  C21 UNL     1      -1.364 -21.763  23.853  1.00  0.00     0.004 C 
HETATM   37  C22 UNL     1      -0.693 -22.552  22.756  1.00  0.00     0.025 C 
ENDBRANCH  32  34
ENDBRANCH  12  32
ENDBRANCH   8   9
TORSDOF 5
ENDMDL
