MODEL 1
REMARK VINA RESULT: -8.084564047      0.000      0.000
REMARK  10 active torsions:
REMARK  status: ('A' for Active; 'I' for Inactive)
REMARK    1  A    between atoms: N1_1  and  C1_4 
REMARK    2  A    between atoms: C3_8  and  C4_9 
REMARK    3  A    between atoms: C4_9  and  C5_10 
REMARK    4  A    between atoms: C8_13  and  C9_14 
REMARK    5  A    between atoms: C9_14  and  N3_15 
REMARK       I    between atoms: N3_15  and  C10_17 
REMARK    6  A    between atoms: C10_17  and  C11_19 
REMARK    7  A    between atoms: N4_21  and  C13_22 
REMARK    8  A    between atoms: C14_25  and  C15_26 
REMARK    9  A    between atoms: C16_39  and  N12_40 
REMARK   10  A    between atoms: C21_49  and  N14_50 
ROOT
HETATM    1  C5  UNL     1      27.408 -19.739   7.876  1.00  0.00    -0.009 A 
HETATM    2  C6  UNL     1      27.503 -18.323   8.067  1.00  0.00     0.013 A 
HETATM    3  C7  UNL     1      28.242 -17.552   7.227  1.00  0.00     0.031 A 
HETATM    4  C8  UNL     1      28.912 -18.109   6.181  1.00  0.00     0.049 A 
HETATM    5  N11 UNL     1      28.821 -19.436   6.005  1.00  0.00    -0.341 N 
ATOM      6  H11 UNL     1      29.319 -19.862   5.223  1.00  0.00     0.167 HD
HETATM    7  C16 UNL     1      28.075 -20.252   6.847  1.00  0.00     0.118 A 
ENDROOT
BRANCH   4   8
HETATM    8  C9  UNL     1      29.750 -17.362   5.239  1.00  0.00     0.121 C 
BRANCH   8   9
HETATM    9  N3  UNL     1      29.090 -16.306   4.597  1.00  0.00    -0.329 N 
HETATM   10  C10 UNL     1      27.953 -16.429   3.787  1.00  0.00     0.275 C 
HETATM   11  O1  UNL     1      27.441 -17.547   3.575  1.00  0.00    -0.266 OA
ATOM     12  H3  UNL     1      29.470 -15.369   4.730  1.00  0.00     0.168 HD
BRANCH  10  13
HETATM   13  C11 UNL     1      27.369 -15.231   3.193  1.00  0.00     0.135 A 
HETATM   14  C12 UNL     1      27.287 -14.824   1.876  1.00  0.00     0.173 A 
HETATM   15  N4  UNL     1      26.670 -13.641   1.786  1.00  0.00    -0.079 N 
HETATM   16  N9  UNL     1      26.353 -13.284   3.040  1.00  0.00    -0.221 N 
HETATM   17  N10 UNL     1      26.759 -14.211   3.876  1.00  0.00    -0.279 N 
ATOM     18  H9  UNL     1      25.871 -12.425   3.303  1.00  0.00     0.209 HD
ATOM     19  H10 UNL     1      26.638 -14.177   4.889  1.00  0.00     0.189 HD
BRANCH  15  20
HETATM   20  C13 UNL     1      26.358 -12.827   0.659  1.00  0.00     0.720 A 
HETATM   21  N5  UNL     1      27.205 -12.046  -0.049  1.00  0.00    -0.167 N 
HETATM   22  C14 UNL     1      26.551 -11.417  -1.054  1.00  0.00     0.201 A 
ATOM     23  H5  UNL     1      28.201 -11.945   0.148  1.00  0.00     0.186 HD
HETATM   24  N7  UNL     1      25.278 -11.832  -0.947  1.00  0.00    -0.266 N 
HETATM   25  N8  UNL     1      25.159 -12.673   0.074  1.00  0.00    -0.128 N 
ATOM     26  H7  UNL     1      24.515 -11.543  -1.560  1.00  0.00     0.189 HD
ATOM     27  H8  UNL     1      24.295 -13.129   0.368  1.00  0.00     0.205 HD
BRANCH  22  28
HETATM   28  C15 UNL     1      27.143 -10.482  -2.041  1.00  0.00     0.300 C 
HETATM   29  N6  UNL     1      28.381  -9.911  -1.741  1.00  0.00    -0.054 NA
HETATM   30  O2  UNL     1      26.465 -10.275  -3.095  1.00  0.00    -0.268 OA
ENDBRANCH  22  28
ENDBRANCH  15  20
ENDBRANCH  10  13
ENDBRANCH   8   9
ENDBRANCH   4   8
BRANCH   7  31
HETATM   31  N12 UNL     1      28.168 -21.629   6.474  1.00  0.00    -0.284 N 
HETATM   32  C17 UNL     1      29.000 -22.491   7.266  1.00  0.00     0.144 C 
HETATM   33  C18 UNL     1      28.134 -23.708   7.642  1.00  0.00     0.123 C 
HETATM   34  C19 UNL     1      27.876 -24.387   6.324  1.00  0.00     0.227 C 
HETATM   35  O3  UNL     1      28.193 -25.589   6.121  1.00  0.00    -0.273 OA
HETATM   36  N13 UNL     1      27.260 -23.600   5.320  1.00  0.00    -0.279 N 
HETATM   37  C20 UNL     1      27.418 -22.159   5.411  1.00  0.00     0.330 C 
ATOM     38  H13 UNL     1      26.725 -24.028   4.564  1.00  0.00     0.173 HD
HETATM   39  O4  UNL     1      26.879 -21.424   4.539  1.00  0.00    -0.246 OA
ENDBRANCH   7  31
BRANCH   1  40
HETATM   40  C4  UNL     1      26.579 -20.468   8.844  1.00  0.00     0.086 C 
BRANCH  40  41
HETATM   41  C3  UNL     1      25.163 -20.647   8.538  1.00  0.00     0.006 A 
HETATM   42  C2  UNL     1      24.834 -21.838   7.847  1.00  0.00     0.117 A 
HETATM   43  N2  UNL     1      23.556 -22.137   7.612  1.00  0.00    -0.202 N 
HETATM   44  C1  UNL     1      22.593 -21.309   8.034  1.00  0.00     0.677 A 
ATOM     45  H2  UNL     1      23.313 -22.993   7.114  1.00  0.00     0.183 HD
HETATM   46  N15 UNL     1      22.857 -20.176   8.687  1.00  0.00    -0.177 N 
HETATM   47  C21 UNL     1      24.152 -19.842   8.939  1.00  0.00     0.122 A 
ATOM     48  H15 UNL     1      22.098 -19.568   8.994  1.00  0.00     0.185 HD
BRANCH  44  49
HETATM   49  N1  UNL     1      21.355 -21.620   7.800  1.00  0.00    -0.234 N 
ATOM     50  H12 UNL     1      20.827 -22.108   8.523  1.00  0.00     0.174 HD
ATOM     51  H11 UNL     1      20.947 -21.368   6.899  1.00  0.00     0.174 HD
ENDBRANCH  44  49
BRANCH  47  52
HETATM   52  N14 UNL     1      24.365 -18.673   9.498  1.00  0.00    -0.385 N 
ATOM     53 2H14 UNL     1      25.327 -18.457   9.760  1.00  0.00     0.157 HD
ATOM     54 1H14 UNL     1      23.605 -18.035   9.731  1.00  0.00     0.157 HD
ENDBRANCH  47  52
ENDBRANCH  40  41
ENDBRANCH   1  40
TORSDOF 10
ENDMDL
MODEL 2
REMARK VINA RESULT: -7.669470526      4.784     11.898
REMARK  10 active torsions:
REMARK  status: ('A' for Active; 'I' for Inactive)
REMARK    1  A    between atoms: N1_1  and  C1_4 
REMARK    2  A    between atoms: C3_8  and  C4_9 
REMARK    3  A    between atoms: C4_9  and  C5_10 
REMARK    4  A    between atoms: C8_13  and  C9_14 
REMARK    5  A    between atoms: C9_14  and  N3_15 
REMARK       I    between atoms: N3_15  and  C10_17 
REMARK    6  A    between atoms: C10_17  and  C11_19 
REMARK    7  A    between atoms: N4_21  and  C13_22 
REMARK    8  A    between atoms: C14_25  and  C15_26 
REMARK    9  A    between atoms: C16_39  and  N12_40 
REMARK   10  A    between atoms: C21_49  and  N14_50 
ROOT
HETATM    1  C5  UNL     1      22.529 -10.851  -1.013  1.00  0.00    -0.009 A 
HETATM    2  C6  UNL     1      23.683 -10.893  -1.860  1.00  0.00     0.013 A 
HETATM    3  C7  UNL     1      24.925 -11.077  -1.340  1.00  0.00     0.031 A 
HETATM    4  C8  UNL     1      25.103 -11.226   0.001  1.00  0.00     0.049 A 
HETATM    5  N11 UNL     1      24.019 -11.186   0.791  1.00  0.00    -0.341 N 
ATOM      6  H11 UNL     1      24.142 -11.299   1.798  1.00  0.00     0.167 HD
HETATM    7  C16 UNL     1      22.736 -10.998   0.291  1.00  0.00     0.118 A 
ENDROOT
BRANCH   4   8
HETATM    8  C9  UNL     1      26.403 -11.405   0.653  1.00  0.00     0.121 C 
BRANCH   8   9
HETATM    9  N3  UNL     1      26.510 -12.584   1.404  1.00  0.00    -0.329 N 
HETATM   10  C10 UNL     1      27.033 -13.800   0.943  1.00  0.00     0.275 C 
HETATM   11  O1  UNL     1      27.450 -13.908  -0.229  1.00  0.00    -0.266 OA
ATOM     12  H3  UNL     1      26.178 -12.554   2.368  1.00  0.00     0.168 HD
BRANCH  10  13
HETATM   13  C11 UNL     1      27.090 -14.940   1.849  1.00  0.00     0.135 A 
HETATM   14  C12 UNL     1      27.786 -15.124   3.028  1.00  0.00     0.173 A 
HETATM   15  N4  UNL     1      27.549 -16.342   3.530  1.00  0.00    -0.079 N 
HETATM   16  N9  UNL     1      26.704 -16.943   2.680  1.00  0.00    -0.221 N 
HETATM   17  N10 UNL     1      26.426 -16.129   1.687  1.00  0.00    -0.279 N 
ATOM     18  H9  UNL     1      26.334 -17.887   2.787  1.00  0.00     0.209 HD
ATOM     19  H10 UNL     1      25.806 -16.350   0.908  1.00  0.00     0.189 HD
BRANCH  15  20
HETATM   20  C13 UNL     1      28.034 -16.984   4.705  1.00  0.00     0.720 A 
HETATM   21  N5  UNL     1      27.525 -18.081   5.310  1.00  0.00    -0.167 N 
HETATM   22  C14 UNL     1      28.250 -18.404   6.407  1.00  0.00     0.201 A 
ATOM     23  H5  UNL     1      26.706 -18.595   4.985  1.00  0.00     0.186 HD
HETATM   24  N7  UNL     1      29.221 -17.477   6.462  1.00  0.00    -0.266 N 
HETATM   25  N8  UNL     1      29.094 -16.628   5.448  1.00  0.00    -0.128 N 
ATOM     26  H7  UNL     1      29.948 -17.432   7.176  1.00  0.00     0.189 HD
ATOM     27  H8  UNL     1      29.705 -15.832   5.263  1.00  0.00     0.205 HD
BRANCH  22  28
HETATM   28  C15 UNL     1      28.001 -19.542   7.325  1.00  0.00     0.300 C 
HETATM   29  N6  UNL     1      27.979 -20.828   6.781  1.00  0.00    -0.054 NA
HETATM   30  O2  UNL     1      27.826 -19.249   8.548  1.00  0.00    -0.268 OA
ENDBRANCH  22  28
ENDBRANCH  15  20
ENDBRANCH  10  13
ENDBRANCH   8   9
ENDBRANCH   4   8
BRANCH   7  31
HETATM   31  N12 UNL     1      21.758 -10.955   1.333  1.00  0.00    -0.284 N 
HETATM   32  C17 UNL     1      21.136  -9.694   1.627  1.00  0.00     0.144 C 
HETATM   33  C18 UNL     1      19.616  -9.944   1.608  1.00  0.00     0.123 C 
HETATM   34  C19 UNL     1      19.388 -10.863   2.778  1.00  0.00     0.227 C 
HETATM   35  O3  UNL     1      18.597 -10.567   3.712  1.00  0.00    -0.273 OA
HETATM   36  N13 UNL     1      20.115 -12.078   2.775  1.00  0.00    -0.279 N 
HETATM   37  C20 UNL     1      21.352 -12.114   2.014  1.00  0.00     0.330 C 
ATOM     38  H13 UNL     1      19.782 -12.896   3.285  1.00  0.00     0.173 HD
HETATM   39  O4  UNL     1      22.024 -13.181   1.982  1.00  0.00    -0.246 OA
ENDBRANCH   7  31
BRANCH   1  40
HETATM   40  C4  UNL     1      21.241 -10.650  -1.688  1.00  0.00     0.086 C 
BRANCH  40  41
HETATM   41  C3  UNL     1      20.617 -11.802  -2.333  1.00  0.00     0.006 A 
HETATM   42  C2  UNL     1      20.662 -13.012  -1.598  1.00  0.00     0.117 A 
HETATM   43  N2  UNL     1      20.031 -14.092  -2.060  1.00  0.00    -0.202 N 
HETATM   44  C1  UNL     1      19.357 -14.024  -3.214  1.00  0.00     0.677 A 
ATOM     45  H2  UNL     1      20.062 -14.966  -1.535  1.00  0.00     0.183 HD
HETATM   46  N15 UNL     1      19.289 -12.905  -3.939  1.00  0.00    -0.177 N 
HETATM   47  C21 UNL     1      19.924 -11.787  -3.496  1.00  0.00     0.122 A 
ATOM     48  H15 UNL     1      18.766 -12.889  -4.815  1.00  0.00     0.185 HD
BRANCH  44  49
HETATM   49  N1  UNL     1      18.746 -15.084  -3.644  1.00  0.00    -0.234 N 
ATOM     50  H12 UNL     1      18.872 -15.362  -4.618  1.00  0.00     0.174 HD
ATOM     51  H11 UNL     1      18.158 -15.609  -2.997  1.00  0.00     0.174 HD
ENDBRANCH  44  49
BRANCH  47  52
HETATM   52  N14 UNL     1      19.909 -10.741  -4.289  1.00  0.00    -0.385 N 
ATOM     53 2H14 UNL     1      19.883  -9.825  -3.844  1.00  0.00     0.157 HD
ATOM     54 1H14 UNL     1      19.851 -10.829  -5.304  1.00  0.00     0.157 HD
ENDBRANCH  47  52
ENDBRANCH  40  41
ENDBRANCH   1  40
TORSDOF 10
ENDMDL
MODEL 3
REMARK VINA RESULT: -7.668095393      4.509     11.643
REMARK  10 active torsions:
REMARK  status: ('A' for Active; 'I' for Inactive)
REMARK    1  A    between atoms: N1_1  and  C1_4 
REMARK    2  A    between atoms: C3_8  and  C4_9 
REMARK    3  A    between atoms: C4_9  and  C5_10 
REMARK    4  A    between atoms: C8_13  and  C9_14 
REMARK    5  A    between atoms: C9_14  and  N3_15 
REMARK       I    between atoms: N3_15  and  C10_17 
REMARK    6  A    between atoms: C10_17  and  C11_19 
REMARK    7  A    between atoms: N4_21  and  C13_22 
REMARK    8  A    between atoms: C14_25  and  C15_26 
REMARK    9  A    between atoms: C16_39  and  N12_40 
REMARK   10  A    between atoms: C21_49  and  N14_50 
ROOT
HETATM    1  C5  UNL     1      22.633 -11.381  -0.447  1.00  0.00    -0.009 A 
HETATM    2  C6  UNL     1      23.692 -10.934  -1.301  1.00  0.00     0.013 A 
HETATM    3  C7  UNL     1      24.982 -11.283  -1.055  1.00  0.00     0.031 A 
HETATM    4  C8  UNL     1      25.299 -12.068   0.012  1.00  0.00     0.049 A 
HETATM    5  N11 UNL     1      24.304 -12.485   0.809  1.00  0.00    -0.341 N 
ATOM      6  H11 UNL     1      24.531 -13.075   1.610  1.00  0.00     0.167 HD
HETATM    7  C16 UNL     1      22.975 -12.144   0.585  1.00  0.00     0.118 A 
ENDROOT
BRANCH   4   8
HETATM    8  C9  UNL     1      26.661 -12.475   0.368  1.00  0.00     0.121 C 
BRANCH   8   9
HETATM    9  N3  UNL     1      26.721 -13.531   1.288  1.00  0.00    -0.329 N 
HETATM   10  C10 UNL     1      26.957 -14.876   0.970  1.00  0.00     0.275 C 
HETATM   11  O1  UNL     1      27.130 -15.228  -0.215  1.00  0.00    -0.266 OA
ATOM     12  H3  UNL     1      26.580 -13.301   2.271  1.00  0.00     0.168 HD
BRANCH  10  13
HETATM   13  C11 UNL     1      27.003 -15.864   2.042  1.00  0.00     0.135 A 
HETATM   14  C12 UNL     1      27.659 -15.849   3.257  1.00  0.00     0.173 A 
HETATM   15  N4  UNL     1      27.428 -16.981   3.931  1.00  0.00    -0.079 N 
HETATM   16  N9  UNL     1      26.625 -17.725   3.156  1.00  0.00    -0.221 N 
HETATM   17  N10 UNL     1      26.367 -17.079   2.042  1.00  0.00    -0.279 N 
ATOM     18  H9  UNL     1      26.269 -18.650   3.394  1.00  0.00     0.209 HD
ATOM     19  H10 UNL     1      25.780 -17.430   1.286  1.00  0.00     0.189 HD
BRANCH  15  20
HETATM   20  C13 UNL     1      27.882 -17.425   5.206  1.00  0.00     0.720 A 
HETATM   21  N5  UNL     1      27.505 -18.542   5.868  1.00  0.00    -0.167 N 
HETATM   22  C14 UNL     1      28.149 -18.636   7.056  1.00  0.00     0.201 A 
ATOM     23  H5  UNL     1      26.828 -19.222   5.520  1.00  0.00     0.186 HD
HETATM   24  N7  UNL     1      28.934 -17.547   7.108  1.00  0.00    -0.266 N 
HETATM   25  N8  UNL     1      28.776 -16.822   6.006  1.00  0.00    -0.128 N 
ATOM     26  H7  UNL     1      29.558 -17.312   7.880  1.00  0.00     0.189 HD
ATOM     27  H8  UNL     1      29.258 -15.947   5.800  1.00  0.00     0.205 HD
BRANCH  22  28
HETATM   28  C15 UNL     1      27.999 -19.721   8.056  1.00  0.00     0.300 C 
HETATM   29  N6  UNL     1      27.425 -19.399   9.289  1.00  0.00    -0.054 NA
HETATM   30  O2  UNL     1      28.410 -20.870   7.705  1.00  0.00    -0.268 OA
ENDBRANCH  22  28
ENDBRANCH  15  20
ENDBRANCH  10  13
ENDBRANCH   8   9
ENDBRANCH   4   8
BRANCH   7  31
HETATM   31  N12 UNL     1      22.112 -12.678   1.592  1.00  0.00    -0.284 N 
HETATM   32  C17 UNL     1      21.788 -11.846   2.718  1.00  0.00     0.144 C 
HETATM   33  C18 UNL     1      20.253 -11.857   2.840  1.00  0.00     0.123 C 
HETATM   34  C19 UNL     1      19.931 -13.282   3.203  1.00  0.00     0.227 C 
HETATM   35  O3  UNL     1      19.293 -13.575   4.249  1.00  0.00    -0.273 OA
HETATM   36  N13 UNL     1      20.388 -14.278   2.306  1.00  0.00    -0.279 N 
HETATM   37  C20 UNL     1      21.528 -13.949   1.468  1.00  0.00     0.330 C 
ATOM     38  H13 UNL     1      19.934 -15.190   2.250  1.00  0.00     0.173 HD
HETATM   39  O4  UNL     1      21.961 -14.809   0.652  1.00  0.00    -0.246 OA
ENDBRANCH   7  31
BRANCH   1  40
HETATM   40  C4  UNL     1      21.280 -10.943  -0.814  1.00  0.00     0.086 C 
BRANCH  40  41
HETATM   41  C3  UNL     1      20.769 -11.322  -2.128  1.00  0.00     0.006 A 
HETATM   42  C2  UNL     1      20.370 -12.674  -2.262  1.00  0.00     0.117 A 
HETATM   43  N2  UNL     1      19.797 -13.088  -3.393  1.00  0.00    -0.202 N 
HETATM   44  C1  UNL     1      19.602 -12.221  -4.393  1.00  0.00     0.677 A 
ATOM     45  H2  UNL     1      19.509 -14.061  -3.494  1.00  0.00     0.183 HD
HETATM   46  N15 UNL     1      19.963 -10.939  -4.311  1.00  0.00    -0.177 N 
HETATM   47  C21 UNL     1      20.552 -10.487  -3.171  1.00  0.00     0.122 A 
ATOM     48  H15 UNL     1      19.798 -10.305  -5.094  1.00  0.00     0.185 HD
BRANCH  44  49
HETATM   49  N1  UNL     1      19.039 -12.643  -5.483  1.00  0.00    -0.234 N 
ATOM     50  H12 UNL     1      19.438 -13.451  -5.960  1.00  0.00     0.174 HD
ATOM     51  H11 UNL     1      18.215 -12.153  -5.832  1.00  0.00     0.174 HD
ENDBRANCH  44  49
BRANCH  47  52
HETATM   52  N14 UNL     1      20.976  -9.245  -3.174  1.00  0.00    -0.385 N 
ATOM     53 2H14 UNL     1      20.265  -8.515  -3.223  1.00  0.00     0.157 HD
ATOM     54 1H14 UNL     1      21.968  -9.009  -3.202  1.00  0.00     0.157 HD
ENDBRANCH  47  52
ENDBRANCH  40  41
ENDBRANCH   1  40
TORSDOF 10
ENDMDL
MODEL 4
REMARK VINA RESULT: -7.629711202      4.316     11.417
REMARK  10 active torsions:
REMARK  status: ('A' for Active; 'I' for Inactive)
REMARK    1  A    between atoms: N1_1  and  C1_4 
REMARK    2  A    between atoms: C3_8  and  C4_9 
REMARK    3  A    between atoms: C4_9  and  C5_10 
REMARK    4  A    between atoms: C8_13  and  C9_14 
REMARK    5  A    between atoms: C9_14  and  N3_15 
REMARK       I    between atoms: N3_15  and  C10_17 
REMARK    6  A    between atoms: C10_17  and  C11_19 
REMARK    7  A    between atoms: N4_21  and  C13_22 
REMARK    8  A    between atoms: C14_25  and  C15_26 
REMARK    9  A    between atoms: C16_39  and  N12_40 
REMARK   10  A    between atoms: C21_49  and  N14_50 
ROOT
HETATM    1  C5  UNL     1      22.806 -11.473  -0.461  1.00  0.00    -0.009 A 
HETATM    2  C6  UNL     1      23.743 -10.950  -1.409  1.00  0.00     0.013 A 
HETATM    3  C7  UNL     1      25.073 -11.205  -1.291  1.00  0.00     0.031 A 
HETATM    4  C8  UNL     1      25.547 -11.965  -0.266  1.00  0.00     0.049 A 
HETATM    5  N11 UNL     1      24.666 -12.453   0.620  1.00  0.00    -0.341 N 
ATOM      6  H11 UNL     1      25.011 -13.025   1.391  1.00  0.00     0.167 HD
HETATM    7  C16 UNL     1      23.301 -12.209   0.528  1.00  0.00     0.118 A 
ENDROOT
BRANCH   4   8
HETATM    8  C9  UNL     1      26.962 -12.273  -0.045  1.00  0.00     0.121 C 
BRANCH   8   9
HETATM    9  N3  UNL     1      27.199 -13.137   1.032  1.00  0.00    -0.329 N 
HETATM   10  C10 UNL     1      27.313 -14.532   0.948  1.00  0.00     0.275 C 
HETATM   11  O1  UNL     1      27.195 -15.114  -0.150  1.00  0.00    -0.266 OA
ATOM     12  H3  UNL     1      27.297 -12.715   1.955  1.00  0.00     0.168 HD
BRANCH  10  13
HETATM   13  C11 UNL     1      27.573 -15.300   2.161  1.00  0.00     0.135 A 
HETATM   14  C12 UNL     1      26.960 -16.432   2.662  1.00  0.00     0.173 A 
HETATM   15  N4  UNL     1      27.520 -16.796   3.821  1.00  0.00    -0.079 N 
HETATM   16  N9  UNL     1      28.490 -15.903   4.069  1.00  0.00    -0.221 N 
HETATM   17  N10 UNL     1      28.531 -15.018   3.100  1.00  0.00    -0.279 N 
ATOM     18  H9  UNL     1      29.102 -15.910   4.885  1.00  0.00     0.209 HD
ATOM     19  H10 UNL     1      29.182 -14.234   3.053  1.00  0.00     0.189 HD
BRANCH  15  20
HETATM   20  C13 UNL     1      27.235 -17.877   4.703  1.00  0.00     0.720 A 
HETATM   21  N5  UNL     1      27.913 -18.225   5.821  1.00  0.00    -0.167 N 
HETATM   22  C14 UNL     1      27.350 -19.309   6.405  1.00  0.00     0.201 A 
ATOM     23  H5  UNL     1      28.736 -17.737   6.176  1.00  0.00     0.186 HD
HETATM   24  N7  UNL     1      26.307 -19.620   5.618  1.00  0.00    -0.266 N 
HETATM   25  N8  UNL     1      26.236 -18.768   4.602  1.00  0.00    -0.128 N 
ATOM     26  H7  UNL     1      25.664 -20.396   5.778  1.00  0.00     0.189 HD
ATOM     27  H8  UNL     1      25.534 -18.787   3.862  1.00  0.00     0.205 HD
BRANCH  22  28
HETATM   28  C15 UNL     1      27.810 -19.980   7.645  1.00  0.00     0.300 C 
HETATM   29  N6  UNL     1      27.595 -19.327   8.861  1.00  0.00    -0.054 NA
HETATM   30  O2  UNL     1      28.368 -21.111   7.497  1.00  0.00    -0.268 OA
ENDBRANCH  22  28
ENDBRANCH  15  20
ENDBRANCH  10  13
ENDBRANCH   8   9
ENDBRANCH   4   8
BRANCH   7  31
HETATM   31  N12 UNL     1      22.579 -12.804   1.610  1.00  0.00    -0.284 N 
HETATM   32  C17 UNL     1      22.227 -11.973   2.728  1.00  0.00     0.144 C 
HETATM   33  C18 UNL     1      20.717 -12.169   2.958  1.00  0.00     0.123 C 
HETATM   34  C19 UNL     1      20.602 -13.607   3.388  1.00  0.00     0.227 C 
HETATM   35  O3  UNL     1      20.076 -13.933   4.485  1.00  0.00    -0.273 OA
HETATM   36  N13 UNL     1      21.122 -14.574   2.494  1.00  0.00    -0.279 N 
HETATM   37  C20 UNL     1      22.154 -14.142   1.568  1.00  0.00     0.330 C 
ATOM     38  H13 UNL     1      20.784 -15.537   2.500  1.00  0.00     0.173 HD
HETATM   39  O4  UNL     1      22.637 -14.974   0.752  1.00  0.00    -0.246 OA
ENDBRANCH   7  31
BRANCH   1  40
HETATM   40  C4  UNL     1      21.396 -11.134  -0.693  1.00  0.00     0.086 C 
BRANCH  40  41
HETATM   41  C3  UNL     1      20.811 -11.478  -1.985  1.00  0.00     0.006 A 
HETATM   42  C2  UNL     1      20.431 -12.833  -2.142  1.00  0.00     0.117 A 
HETATM   43  N2  UNL     1      19.796 -13.219  -3.249  1.00  0.00    -0.202 N 
HETATM   44  C1  UNL     1      19.522 -12.323  -4.204  1.00  0.00     0.677 A 
ATOM     45  H2  UNL     1      19.521 -14.194  -3.368  1.00  0.00     0.183 HD
HETATM   46  N15 UNL     1      19.863 -11.037  -4.099  1.00  0.00    -0.177 N 
HETATM   47  C21 UNL     1      20.513 -10.612  -2.982  1.00  0.00     0.122 A 
ATOM     48  H15 UNL     1      19.638 -10.380  -4.847  1.00  0.00     0.185 HD
BRANCH  44  49
HETATM   49  N1  UNL     1      18.900 -12.718  -5.272  1.00  0.00    -0.234 N 
ATOM     50  H12 UNL     1      19.126 -13.634  -5.660  1.00  0.00     0.174 HD
ATOM     51  H11 UNL     1      18.205 -12.101  -5.693  1.00  0.00     0.174 HD
ENDBRANCH  44  49
BRANCH  47  52
HETATM   52  N14 UNL     1      20.913  -9.361  -2.967  1.00  0.00    -0.385 N 
ATOM     53 2H14 UNL     1      20.620  -8.775  -3.748  1.00  0.00     0.157 HD
ATOM     54 1H14 UNL     1      21.545  -9.001  -2.254  1.00  0.00     0.157 HD
ENDBRANCH  47  52
ENDBRANCH  40  41
ENDBRANCH   1  40
TORSDOF 10
ENDMDL
MODEL 5
REMARK VINA RESULT: -7.554562939      4.746     11.795
REMARK  10 active torsions:
REMARK  status: ('A' for Active; 'I' for Inactive)
REMARK    1  A    between atoms: N1_1  and  C1_4 
REMARK    2  A    between atoms: C3_8  and  C4_9 
REMARK    3  A    between atoms: C4_9  and  C5_10 
REMARK    4  A    between atoms: C8_13  and  C9_14 
REMARK    5  A    between atoms: C9_14  and  N3_15 
REMARK       I    between atoms: N3_15  and  C10_17 
REMARK    6  A    between atoms: C10_17  and  C11_19 
REMARK    7  A    between atoms: N4_21  and  C13_22 
REMARK    8  A    between atoms: C14_25  and  C15_26 
REMARK    9  A    between atoms: C16_39  and  N12_40 
REMARK   10  A    between atoms: C21_49  and  N14_50 
ROOT
HETATM    1  C5  UNL     1      22.066 -11.032  -1.242  1.00  0.00    -0.009 A 
HETATM    2  C6  UNL     1      23.007 -10.499  -2.181  1.00  0.00     0.013 A 
HETATM    3  C7  UNL     1      24.344 -10.643  -1.990  1.00  0.00     0.031 A 
HETATM    4  C8  UNL     1      24.824 -11.301  -0.899  1.00  0.00     0.049 A 
HETATM    5  N11 UNL     1      23.940 -11.801  -0.021  1.00  0.00    -0.341 N 
ATOM      6  H11 UNL     1      24.289 -12.296   0.799  1.00  0.00     0.167 HD
HETATM    7  C16 UNL     1      22.566 -11.668  -0.187  1.00  0.00     0.118 A 
ENDROOT
BRANCH   4   8
HETATM    8  C9  UNL     1      26.246 -11.486  -0.598  1.00  0.00     0.121 C 
BRANCH   8   9
HETATM    9  N3  UNL     1      26.494 -12.221   0.569  1.00  0.00    -0.329 N 
HETATM   10  C10 UNL     1      27.059 -13.504   0.620  1.00  0.00     0.275 C 
HETATM   11  O1  UNL     1      27.383 -14.097  -0.429  1.00  0.00    -0.266 OA
ATOM     12  H3  UNL     1      26.242 -11.787   1.457  1.00  0.00     0.168 HD
BRANCH  10  13
HETATM   13  C11 UNL     1      27.267 -14.139   1.916  1.00  0.00     0.135 A 
HETATM   14  C12 UNL     1      27.962 -15.282   2.260  1.00  0.00     0.173 A 
HETATM   15  N4  UNL     1      27.882 -15.504   3.577  1.00  0.00    -0.079 N 
HETATM   16  N9  UNL     1      27.139 -14.508   4.083  1.00  0.00    -0.221 N 
HETATM   17  N10 UNL     1      26.771 -13.699   3.116  1.00  0.00    -0.279 N 
ATOM     18  H9  UNL     1      26.896 -14.396   5.067  1.00  0.00     0.209 HD
ATOM     19  H10 UNL     1      26.198 -12.864   3.239  1.00  0.00     0.189 HD
BRANCH  15  20
HETATM   20  C13 UNL     1      28.422 -16.541   4.390  1.00  0.00     0.720 A 
HETATM   21  N5  UNL     1      27.767 -17.610   4.899  1.00  0.00    -0.167 N 
HETATM   22  C14 UNL     1      28.608 -18.385   5.625  1.00  0.00     0.201 A 
ATOM     23  H5  UNL     1      26.776 -17.805   4.755  1.00  0.00     0.186 HD
HETATM   24  N7  UNL     1      29.798 -17.767   5.549  1.00  0.00    -0.266 N 
HETATM   25  N8  UNL     1      29.690 -16.666   4.813  1.00  0.00    -0.128 N 
ATOM     26  H7  UNL     1      30.657 -18.094   5.991  1.00  0.00     0.189 HD
ATOM     27  H8  UNL     1      30.450 -16.018   4.603  1.00  0.00     0.205 HD
BRANCH  22  28
HETATM   28  C15 UNL     1      28.257 -19.640   6.334  1.00  0.00     0.300 C 
HETATM   29  N6  UNL     1      27.905 -19.552   7.682  1.00  0.00    -0.054 NA
HETATM   30  O2  UNL     1      28.307 -20.706   5.645  1.00  0.00    -0.268 OA
ENDBRANCH  22  28
ENDBRANCH  15  20
ENDBRANCH  10  13
ENDBRANCH   8   9
ENDBRANCH   4   8
BRANCH   7  31
HETATM   31  N12 UNL     1      21.840 -12.249   0.899  1.00  0.00    -0.284 N 
HETATM   32  C17 UNL     1      21.425 -11.390   1.974  1.00  0.00     0.144 C 
HETATM   33  C18 UNL     1      19.918 -11.639   2.172  1.00  0.00     0.123 C 
HETATM   34  C19 UNL     1      19.849 -13.062   2.657  1.00  0.00     0.227 C 
HETATM   35  O3  UNL     1      19.306 -13.368   3.751  1.00  0.00    -0.273 OA
HETATM   36  N13 UNL     1      20.431 -14.042   1.815  1.00  0.00    -0.279 N 
HETATM   37  C20 UNL     1      21.470 -13.604   0.899  1.00  0.00     0.330 C 
ATOM     38  H13 UNL     1      20.132 -15.016   1.850  1.00  0.00     0.173 HD
HETATM   39  O4  UNL     1      22.008 -14.446   0.130  1.00  0.00    -0.246 OA
ENDBRANCH   7  31
BRANCH   1  40
HETATM   40  C4  UNL     1      20.648 -10.817  -1.555  1.00  0.00     0.086 C 
BRANCH  40  41
HETATM   41  C3  UNL     1      20.075 -11.549  -2.679  1.00  0.00     0.006 A 
HETATM   42  C2  UNL     1      20.145 -12.961  -2.588  1.00  0.00     0.117 A 
HETATM   43  N2  UNL     1      19.558 -13.716  -3.518  1.00  0.00    -0.202 N 
HETATM   44  C1  UNL     1      18.905 -13.133  -4.530  1.00  0.00     0.677 A 
ATOM     45  H2  UNL     1      19.608 -14.733  -3.458  1.00  0.00     0.183 HD
HETATM   46  N15 UNL     1      18.815 -11.807  -4.656  1.00  0.00    -0.177 N 
HETATM   47  C21 UNL     1      19.405 -11.011  -3.725  1.00  0.00     0.122 A 
ATOM     48  H15 UNL     1      18.308 -11.397  -5.441  1.00  0.00     0.185 HD
BRANCH  44  49
HETATM   49  N1  UNL     1      18.338 -13.884  -5.422  1.00  0.00    -0.234 N 
ATOM     50  H12 UNL     1      18.651 -13.818  -6.391  1.00  0.00     0.174 HD
ATOM     51  H11 UNL     1      17.595 -14.519  -5.130  1.00  0.00     0.174 HD
ENDBRANCH  44  49
BRANCH  47  52
HETATM   52  N14 UNL     1      19.371  -9.716  -3.944  1.00  0.00    -0.385 N 
ATOM     53 2H14 UNL     1      18.692  -9.176  -3.408  1.00  0.00     0.157 HD
ATOM     54 1H14 UNL     1      19.940  -9.271  -4.664  1.00  0.00     0.157 HD
ENDBRANCH  47  52
ENDBRANCH  40  41
ENDBRANCH   1  40
TORSDOF 10
ENDMDL
