MODEL 1
REMARK VINA RESULT: -8.588575433      0.000      0.000
REMARK  4 active torsions:
REMARK  status: ('A' for Active; 'I' for Inactive)
REMARK    1  A    between atoms: C3_6  and  C4_7 
REMARK    2  A    between atoms: C6_12  and  S1_13 
REMARK    3  A    between atoms: S1_13  and  C7_16 
REMARK    4  A    between atoms: C12_21  and  N4_22 
ROOT
HETATM    1  N1  UNL     1       3.760 -11.443  24.892  1.00  0.00    -0.188 NA
HETATM    2  C1  UNL     1       2.866 -11.805  24.252  1.00  0.00     0.137 C 
HETATM    3  C2  UNL     1       1.753 -12.268  23.480  1.00  0.00     0.190 A 
HETATM    4  N2  UNL     1       1.956 -13.183  22.515  1.00  0.00    -0.326 N 
ATOM      5  H2  UNL     1       2.910 -13.516  22.370  1.00  0.00     0.168 HD
HETATM    6  C3  UNL     1       1.001 -13.688  21.734  1.00  0.00     0.139 A 
HETATM    7  C5  UNL     1      -0.294 -13.224  21.943  1.00  0.00     0.118 A 
HETATM    8  N3  UNL     1      -1.376 -13.693  21.171  1.00  0.00    -0.097 NA
HETATM    9  C6  UNL     1      -0.533 -12.292  22.918  1.00  0.00     0.162 A 
HETATM   10  N5  UNL     1       0.482 -11.842  23.653  1.00  0.00    -0.322 N 
ATOM     11  H5  UNL     1       0.293 -11.147  24.377  1.00  0.00     0.169 HD
ENDROOT
BRANCH   6  12
HETATM   12  C4  UNL     1       1.285 -14.678  20.706  1.00  0.00     0.229 C 
HETATM   13  O1  UNL     1       1.985 -14.418  19.696  1.00  0.00    -0.643 OA
HETATM   14  O2  UNL     1       0.783 -15.976  20.796  1.00  0.00    -0.643 OA
ENDBRANCH   6  12
BRANCH   9  15
HETATM   15  S1  UNL     1      -2.143 -11.704  23.186  1.00  0.00     0.226 S 
HETATM   16  O3  UNL     1      -2.791 -11.226  21.931  1.00  0.00    -0.216 OA
HETATM   17  O4  UNL     1      -2.944 -12.915  23.667  1.00  0.00    -0.216 OA
BRANCH  15  18
HETATM   18  C7  UNL     1      -2.227 -10.512  24.424  1.00  0.00     0.098 A 
HETATM   19  C8  UNL     1      -2.439  -9.202  24.074  1.00  0.00     0.026 A 
HETATM   20  C9  UNL     1      -2.510  -8.195  25.013  1.00  0.00     0.002 A 
HETATM   21  C10 UNL     1      -2.358  -8.551  26.334  1.00  0.00     0.003 A 
HETATM   22  C11 UNL     1      -2.144  -9.844  26.730  1.00  0.00     0.037 A 
HETATM   23  C12 UNL     1      -2.078 -10.843  25.739  1.00  0.00     0.124 A 
BRANCH  23  24
HETATM   24  N4  UNL     1      -1.879 -12.143  26.258  1.00  0.00    -0.114 N 
HETATM   25  O5  UNL     1      -0.831 -12.777  26.202  1.00  0.00    -0.532 OA
HETATM   26  O6  UNL     1      -2.945 -12.758  26.905  1.00  0.00    -0.532 OA
ENDBRANCH  23  24
ENDBRANCH  15  18
ENDBRANCH   9  15
TORSDOF 4
ENDMDL
MODEL 2
REMARK VINA RESULT: -8.347215002      2.883      5.927
REMARK  4 active torsions:
REMARK  status: ('A' for Active; 'I' for Inactive)
REMARK    1  A    between atoms: C3_6  and  C4_7 
REMARK    2  A    between atoms: C6_12  and  S1_13 
REMARK    3  A    between atoms: S1_13  and  C7_16 
REMARK    4  A    between atoms: C12_21  and  N4_22 
ROOT
HETATM    1  N1  UNL     1      -2.551  -6.971  27.390  1.00  0.00    -0.188 NA
HETATM    2  C1  UNL     1      -2.582  -7.378  26.307  1.00  0.00     0.137 C 
HETATM    3  C2  UNL     1      -2.593  -7.877  24.965  1.00  0.00     0.190 A 
HETATM    4  N2  UNL     1      -3.083  -7.103  23.979  1.00  0.00    -0.326 N 
ATOM      5  H2  UNL     1      -3.433  -6.179  24.232  1.00  0.00     0.168 HD
HETATM    6  C3  UNL     1      -3.146  -7.458  22.696  1.00  0.00     0.139 A 
HETATM    7  C5  UNL     1      -2.666  -8.722  22.368  1.00  0.00     0.118 A 
HETATM    8  N3  UNL     1      -2.687  -9.194  21.040  1.00  0.00    -0.097 NA
HETATM    9  C6  UNL     1      -2.161  -9.533  23.349  1.00  0.00     0.162 A 
HETATM   10  N5  UNL     1      -2.136  -9.097  24.608  1.00  0.00    -0.322 N 
ATOM     11  H5  UNL     1      -1.758  -9.710  25.331  1.00  0.00     0.169 HD
ENDROOT
BRANCH   6  12
HETATM   12  C4  UNL     1      -3.688  -6.575  21.674  1.00  0.00     0.229 C 
HETATM   13  O1  UNL     1      -3.029  -5.622  21.189  1.00  0.00    -0.643 OA
HETATM   14  O2  UNL     1      -4.981  -6.749  21.183  1.00  0.00    -0.643 OA
ENDBRANCH   6  12
BRANCH   9  15
HETATM   15  S1  UNL     1      -1.562 -11.113  22.953  1.00  0.00     0.226 S 
HETATM   16  O3  UNL     1      -2.325 -12.198  23.634  1.00  0.00    -0.216 OA
HETATM   17  O4  UNL     1      -1.801 -11.274  21.451  1.00  0.00    -0.216 OA
BRANCH  15  18
HETATM   18  C7  UNL     1       0.130 -11.278  23.221  1.00  0.00     0.098 A 
HETATM   19  C8  UNL     1       0.992 -11.084  22.172  1.00  0.00     0.026 A 
HETATM   20  C9  UNL     1       2.358 -11.207  22.313  1.00  0.00     0.002 A 
HETATM   21  C10 UNL     1       2.837 -11.537  23.561  1.00  0.00     0.003 A 
HETATM   22  C11 UNL     1       2.014 -11.741  24.637  1.00  0.00     0.037 A 
HETATM   23  C12 UNL     1       0.625 -11.605  24.449  1.00  0.00     0.124 A 
BRANCH  23  24
HETATM   24  N4  UNL     1      -0.129 -11.812  25.628  1.00  0.00    -0.114 N 
HETATM   25  O5  UNL     1      -0.632 -10.929  26.313  1.00  0.00    -0.532 OA
HETATM   26  O6  UNL     1      -0.341 -13.122  26.045  1.00  0.00    -0.532 OA
ENDBRANCH  23  24
ENDBRANCH  15  18
ENDBRANCH   9  15
TORSDOF 4
ENDMDL
MODEL 3
REMARK VINA RESULT: -8.254240533      2.693      4.177
REMARK  4 active torsions:
REMARK  status: ('A' for Active; 'I' for Inactive)
REMARK    1  A    between atoms: C3_6  and  C4_7 
REMARK    2  A    between atoms: C6_12  and  S1_13 
REMARK    3  A    between atoms: S1_13  and  C7_16 
REMARK    4  A    between atoms: C12_21  and  N4_22 
ROOT
HETATM    1  N1  UNL     1      -0.943 -14.928  27.052  1.00  0.00    -0.188 NA
HETATM    2  C1  UNL     1      -0.601 -14.125  26.292  1.00  0.00     0.137 C 
HETATM    3  C2  UNL     1      -0.185 -13.148  25.332  1.00  0.00     0.190 A 
HETATM    4  N2  UNL     1       1.129 -12.955  25.115  1.00  0.00    -0.326 N 
ATOM      5  H2  UNL     1       1.785 -13.522  25.652  1.00  0.00     0.168 HD
HETATM    6  C3  UNL     1       1.635 -12.077  24.249  1.00  0.00     0.139 A 
HETATM    7  C5  UNL     1       0.727 -11.311  23.526  1.00  0.00     0.118 A 
HETATM    8  N3  UNL     1       1.158 -10.354  22.585  1.00  0.00    -0.097 NA
HETATM    9  C6  UNL     1      -0.618 -11.484  23.724  1.00  0.00     0.162 A 
HETATM   10  N5  UNL     1      -1.037 -12.386  24.610  1.00  0.00    -0.322 N 
ATOM     11  H5  UNL     1      -2.040 -12.506  24.749  1.00  0.00     0.169 HD
ENDROOT
BRANCH   6  12
HETATM   12  C4  UNL     1       3.069 -11.916  24.060  1.00  0.00     0.229 C 
HETATM   13  O1  UNL     1       3.813 -11.425  24.945  1.00  0.00    -0.643 OA
HETATM   14  O2  UNL     1       3.687 -12.302  22.872  1.00  0.00    -0.643 OA
ENDBRANCH   6  12
BRANCH   9  15
HETATM   15  S1  UNL     1      -1.761 -10.533  22.829  1.00  0.00     0.226 S 
HETATM   16  O3  UNL     1      -1.292 -10.235  21.445  1.00  0.00    -0.216 OA
HETATM   17  O4  UNL     1      -3.006 -11.410  22.698  1.00  0.00    -0.216 OA
BRANCH  15  18
HETATM   18  C7  UNL     1      -2.231  -9.096  23.650  1.00  0.00     0.098 A 
HETATM   19  C8  UNL     1      -1.945  -8.970  24.986  1.00  0.00     0.026 A 
HETATM   20  C9  UNL     1      -2.299  -7.850  25.709  1.00  0.00     0.002 A 
HETATM   21  C10 UNL     1      -2.960  -6.847  25.036  1.00  0.00     0.003 A 
HETATM   22  C11 UNL     1      -3.267  -6.930  23.704  1.00  0.00     0.037 A 
HETATM   23  C12 UNL     1      -2.888  -8.091  23.003  1.00  0.00     0.124 A 
BRANCH  23  24
HETATM   24  N4  UNL     1      -3.231  -8.062  21.632  1.00  0.00    -0.114 N 
HETATM   25  O5  UNL     1      -4.124  -8.720  21.109  1.00  0.00    -0.532 OA
HETATM   26  O6  UNL     1      -2.518  -7.207  20.798  1.00  0.00    -0.532 OA
ENDBRANCH  23  24
ENDBRANCH  15  18
ENDBRANCH   9  15
TORSDOF 4
ENDMDL
MODEL 4
REMARK VINA RESULT: -8.204424292      2.567      4.148
REMARK  4 active torsions:
REMARK  status: ('A' for Active; 'I' for Inactive)
REMARK    1  A    between atoms: C3_6  and  C4_7 
REMARK    2  A    between atoms: C6_12  and  S1_13 
REMARK    3  A    between atoms: S1_13  and  C7_16 
REMARK    4  A    between atoms: C12_21  and  N4_22 
ROOT
HETATM    1  N1  UNL     1       3.954 -11.642  24.604  1.00  0.00    -0.188 NA
HETATM    2  C1  UNL     1       2.809 -11.804  24.578  1.00  0.00     0.137 C 
HETATM    3  C2  UNL     1       1.388 -11.981  24.563  1.00  0.00     0.190 A 
HETATM    4  N2  UNL     1       0.837 -12.942  25.327  1.00  0.00    -0.326 N 
ATOM      5  H2  UNL     1       1.463 -13.514  25.895  1.00  0.00     0.168 HD
HETATM    6  C3  UNL     1      -0.469 -13.201  25.395  1.00  0.00     0.139 A 
HETATM    7  C5  UNL     1      -1.310 -12.415  24.615  1.00  0.00     0.118 A 
HETATM    8  N3  UNL     1      -2.706 -12.607  24.614  1.00  0.00    -0.097 NA
HETATM    9  C6  UNL     1      -0.778 -11.428  23.826  1.00  0.00     0.162 A 
HETATM   10  N5  UNL     1       0.540 -11.237  23.819  1.00  0.00    -0.322 N 
ATOM     11  H5  UNL     1       0.925 -10.500  23.228  1.00  0.00     0.169 HD
ENDROOT
BRANCH   6  12
HETATM   12  C4  UNL     1      -1.005 -14.256  26.243  1.00  0.00     0.229 C 
HETATM   13  O1  UNL     1      -0.670 -15.460  26.112  1.00  0.00    -0.643 OA
HETATM   14  O2  UNL     1      -1.927 -13.974  27.249  1.00  0.00    -0.643 OA
ENDBRANCH   6  12
BRANCH   9  15
HETATM   15  S1  UNL     1      -1.816 -10.441  22.846  1.00  0.00     0.226 S 
HETATM   16  O3  UNL     1      -1.230 -10.157  21.504  1.00  0.00    -0.216 OA
HETATM   17  O4  UNL     1      -3.074 -11.279  22.614  1.00  0.00    -0.216 OA
BRANCH  15  18
HETATM   18  C7  UNL     1      -2.305  -8.991  23.632  1.00  0.00     0.098 A 
HETATM   19  C8  UNL     1      -2.063  -8.848  24.975  1.00  0.00     0.026 A 
HETATM   20  C9  UNL     1      -2.434  -7.716  25.670  1.00  0.00     0.002 A 
HETATM   21  C10 UNL     1      -3.066  -6.719  24.962  1.00  0.00     0.003 A 
HETATM   22  C11 UNL     1      -3.329  -6.818  23.621  1.00  0.00     0.037 A 
HETATM   23  C12 UNL     1      -2.933  -7.991  22.949  1.00  0.00     0.124 A 
BRANCH  23  24
HETATM   24  N4  UNL     1      -3.230  -7.979  21.567  1.00  0.00    -0.114 N 
HETATM   25  O5  UNL     1      -4.108  -8.639  21.024  1.00  0.00    -0.532 OA
HETATM   26  O6  UNL     1      -2.485  -7.138  20.747  1.00  0.00    -0.532 OA
ENDBRANCH  23  24
ENDBRANCH  15  18
ENDBRANCH   9  15
TORSDOF 4
ENDMDL
MODEL 5
REMARK VINA RESULT: -8.119528810      2.149      3.851
REMARK  4 active torsions:
REMARK  status: ('A' for Active; 'I' for Inactive)
REMARK    1  A    between atoms: C3_6  and  C4_7 
REMARK    2  A    between atoms: C6_12  and  S1_13 
REMARK    3  A    between atoms: S1_13  and  C7_16 
REMARK    4  A    between atoms: C12_21  and  N4_22 
ROOT
HETATM    1  N1  UNL     1       1.359 -15.251  19.349  1.00  0.00    -0.188 NA
HETATM    2  C1  UNL     1       1.386 -14.623  20.320  1.00  0.00     0.137 C 
HETATM    3  C2  UNL     1       1.402 -13.829  21.511  1.00  0.00     0.190 A 
HETATM    4  N2  UNL     1       2.469 -13.051  21.769  1.00  0.00    -0.326 N 
ATOM      5  H2  UNL     1       3.236 -13.059  21.096  1.00  0.00     0.168 HD
HETATM    6  C3  UNL     1       2.598 -12.270  22.842  1.00  0.00     0.139 A 
HETATM    7  C5  UNL     1       1.546 -12.271  23.752  1.00  0.00     0.118 A 
HETATM    8  N3  UNL     1       1.583 -11.481  24.919  1.00  0.00    -0.097 NA
HETATM    9  C6  UNL     1       0.446 -13.053  23.517  1.00  0.00     0.162 A 
HETATM   10  N5  UNL     1       0.401 -13.803  22.418  1.00  0.00    -0.322 N 
ATOM     11  H5  UNL     1      -0.424 -14.382  22.253  1.00  0.00     0.169 HD
ENDROOT
BRANCH   6  12
HETATM   12  C4  UNL     1       3.780 -11.450  23.065  1.00  0.00     0.229 C 
HETATM   13  O1  UNL     1       4.084 -10.490  22.313  1.00  0.00    -0.643 OA
HETATM   14  O2  UNL     1       4.638 -11.697  24.135  1.00  0.00    -0.643 OA
ENDBRANCH   6  12
BRANCH   9  15
HETATM   15  S1  UNL     1      -0.872 -13.065  24.646  1.00  0.00     0.226 S 
HETATM   16  O3  UNL     1      -1.973 -13.978  24.225  1.00  0.00    -0.216 OA
HETATM   17  O4  UNL     1      -0.293 -13.632  25.942  1.00  0.00    -0.216 OA
BRANCH  15  18
HETATM   18  C7  UNL     1      -1.470 -11.490  25.000  1.00  0.00     0.098 A 
HETATM   19  C8  UNL     1      -1.482 -11.061  26.303  1.00  0.00     0.026 A 
HETATM   20  C9  UNL     1      -1.953  -9.815  26.659  1.00  0.00     0.002 A 
HETATM   21  C10 UNL     1      -2.418  -9.002  25.649  1.00  0.00     0.003 A 
HETATM   22  C11 UNL     1      -2.425  -9.389  24.335  1.00  0.00     0.037 A 
HETATM   23  C12 UNL     1      -1.935 -10.670  24.014  1.00  0.00     0.124 A 
BRANCH  23  24
HETATM   24  N4  UNL     1      -1.966 -10.958  22.631  1.00  0.00    -0.114 N 
HETATM   25  O5  UNL     1      -2.845 -11.587  22.055  1.00  0.00    -0.532 OA
HETATM   26  O6  UNL     1      -0.927 -10.475  21.841  1.00  0.00    -0.532 OA
ENDBRANCH  23  24
ENDBRANCH  15  18
ENDBRANCH   9  15
TORSDOF 4
ENDMDL
