MODEL 1
REMARK VINA RESULT: -10.156993547      0.000      0.000
REMARK  11 active torsions:
REMARK  status: ('A' for Active; 'I' for Inactive)
REMARK    1  A    between atoms: C2_2  and  C3_3 
REMARK    2  A    between atoms: C2_2  and  N1_11 
REMARK    3  A    between atoms: C3_3  and  C4_4 
REMARK    4  A    between atoms: C4_4  and  C5_5 
REMARK    5  A    between atoms: N1_11  and  C11_13 
REMARK    6  A    between atoms: C11_13  and  C12_14 
REMARK    7  A    between atoms: C12_14  and  C13_15 
REMARK    8  A    between atoms: C17_20  and  N3_21 
REMARK    9  A    between atoms: N3_21  and  C18_23 
REMARK   10  A    between atoms: C18_23  and  C19_24 
REMARK   11  A    between atoms: C19_24  and  N4_25 
ROOT
HETATM    1  C13 UNL     1       7.108 -67.114  61.864  1.00  0.00    -0.054 A 
HETATM    2  C14 UNL     1       7.055 -66.242  62.928  1.00  0.00     0.009 A 
HETATM    3  C15 UNL     1       7.388 -64.892  62.766  1.00  0.00     0.029 A 
HETATM    4  C16 UNL     1       7.776 -64.390  61.546  1.00  0.00     0.072 A 
HETATM    5  N2  UNL     1       8.102 -63.009  61.446  1.00  0.00    -0.100 NA
HETATM    6  C17 UNL     1       7.833 -65.249  60.473  1.00  0.00     0.053 A 
HETATM    7  C24 UNL     1       7.503 -66.587  60.641  1.00  0.00     0.038 A 
ENDROOT
BRANCH   1   8
HETATM    8  C12 UNL     1       6.768 -68.554  61.988  1.00  0.00     0.058 C 
BRANCH   8   9
HETATM    9  C11 UNL     1       6.073 -68.949  60.662  1.00  0.00     0.124 C 
BRANCH   9  10
HETATM   10  N1  UNL     1       6.626 -70.185  60.274  1.00  0.00    -0.396 N 
ATOM     11  H1  UNL     1       6.053 -71.029  60.306  1.00  0.00     0.159 HD
BRANCH  10  12
HETATM   12  C2  UNL     1       7.964 -70.263  59.841  1.00  0.00    -0.022 C 
HETATM   13  C1  UNL     1       8.120 -70.216  58.328  1.00  0.00     0.062 C 
BRANCH  12  14
HETATM   14  C3  UNL     1       8.908 -71.185  60.511  1.00  0.00     0.052 C 
BRANCH  14  15
HETATM   15  C4  UNL     1       8.340 -72.244  61.381  1.00  0.00     0.010 C 
BRANCH  15  16
HETATM   16  C5  UNL     1       8.661 -73.643  60.903  1.00  0.00    -0.014 C 
HETATM   17  C6  UNL     1       7.824 -74.108  59.760  1.00  0.00     0.004 C 
HETATM   18  C7  UNL     1       8.296 -75.432  59.207  1.00  0.00     0.000 C 
HETATM   19  C8  UNL     1       9.179 -76.144  60.219  1.00  0.00     0.000 C 
HETATM   20  C9  UNL     1      10.403 -75.311  60.501  1.00  0.00     0.000 C 
HETATM   21  C10 UNL     1      10.107 -73.829  60.560  1.00  0.00     0.004 C 
ENDBRANCH  15  16
ENDBRANCH  14  15
ENDBRANCH  12  14
ENDBRANCH  10  12
ENDBRANCH   9  10
ENDBRANCH   8   9
ENDBRANCH   1   8
BRANCH   6  22
HETATM   22  N3  UNL     1       8.231 -64.733  59.214  1.00  0.00    -0.387 N 
ATOM     23  H3  UNL     1       8.426 -63.735  59.126  1.00  0.00     0.159 HD
BRANCH  22  24
HETATM   24  C18 UNL     1       8.371 -65.590  58.040  1.00  0.00     0.150 C 
BRANCH  24  25
HETATM   25  C19 UNL     1       7.753 -64.897  56.863  1.00  0.00     0.292 C 
BRANCH  25  26
HETATM   26  N4  UNL     1       6.674 -65.717  56.295  1.00  0.00     0.090 N 
HETATM   27  C20 UNL     1       6.826 -67.051  56.862  1.00  0.00     0.272 C 
HETATM   28  C21 UNL     1       6.011 -67.886  55.926  1.00  0.00     0.032 C 
HETATM   29  C22 UNL     1       6.396 -67.323  54.562  1.00  0.00     0.032 C 
HETATM   30  C23 UNL     1       6.910 -65.941  54.879  1.00  0.00     0.272 C 
ENDBRANCH  25  26
ENDBRANCH  24  25
ENDBRANCH  22  24
ENDBRANCH   6  22
TORSDOF 11
ENDMDL
MODEL 2
REMARK VINA RESULT: -9.821503718      2.114      5.532
REMARK  11 active torsions:
REMARK  status: ('A' for Active; 'I' for Inactive)
REMARK    1  A    between atoms: C2_2  and  C3_3 
REMARK    2  A    between atoms: C2_2  and  N1_11 
REMARK    3  A    between atoms: C3_3  and  C4_4 
REMARK    4  A    between atoms: C4_4  and  C5_5 
REMARK    5  A    between atoms: N1_11  and  C11_13 
REMARK    6  A    between atoms: C11_13  and  C12_14 
REMARK    7  A    between atoms: C12_14  and  C13_15 
REMARK    8  A    between atoms: C17_20  and  N3_21 
REMARK    9  A    between atoms: N3_21  and  C18_23 
REMARK   10  A    between atoms: C18_23  and  C19_24 
REMARK   11  A    between atoms: C19_24  and  N4_25 
ROOT
HETATM    1  C13 UNL     1       7.485 -68.490  56.778  1.00  0.00    -0.054 A 
HETATM    2  C14 UNL     1       6.338 -68.518  56.016  1.00  0.00     0.009 A 
HETATM    3  C15 UNL     1       5.577 -67.359  55.826  1.00  0.00     0.029 A 
HETATM    4  C16 UNL     1       5.943 -66.158  56.387  1.00  0.00     0.072 A 
HETATM    5  N2  UNL     1       5.127 -65.017  56.156  1.00  0.00    -0.100 NA
HETATM    6  C17 UNL     1       7.087 -66.115  57.151  1.00  0.00     0.053 A 
HETATM    7  C24 UNL     1       7.837 -67.268  57.337  1.00  0.00     0.038 A 
ENDROOT
BRANCH   1   8
HETATM    8  C12 UNL     1       8.322 -69.694  57.012  1.00  0.00     0.058 C 
BRANCH   8   9
HETATM    9  C11 UNL     1       7.809 -70.328  58.327  1.00  0.00     0.124 C 
BRANCH   9  10
HETATM   10  N1  UNL     1       8.925 -70.443  59.178  1.00  0.00    -0.396 N 
ATOM     11  H1  UNL     1       9.830 -70.079  58.879  1.00  0.00     0.159 HD
BRANCH  10  12
HETATM   12  C2  UNL     1       8.800 -71.057  60.440  1.00  0.00    -0.022 C 
HETATM   13  C1  UNL     1       9.542 -72.381  60.551  1.00  0.00     0.062 C 
BRANCH  12  14
HETATM   14  C3  UNL     1       7.501 -71.039  61.149  1.00  0.00     0.052 C 
BRANCH  14  15
HETATM   15  C4  UNL     1       7.356 -70.116  62.302  1.00  0.00     0.010 C 
BRANCH  15  16
HETATM   16  C5  UNL     1       7.279 -68.662  61.893  1.00  0.00    -0.014 C 
HETATM   17  C6  UNL     1       6.352 -68.391  60.757  1.00  0.00     0.004 C 
HETATM   18  C7  UNL     1       6.176 -66.913  60.501  1.00  0.00     0.000 C 
HETATM   19  C8  UNL     1       7.308 -66.127  61.141  1.00  0.00     0.000 C 
HETATM   20  C9  UNL     1       7.289 -66.331  62.634  1.00  0.00     0.000 C 
HETATM   21  C10 UNL     1       6.940 -67.748  63.031  1.00  0.00     0.004 C 
ENDBRANCH  15  16
ENDBRANCH  14  15
ENDBRANCH  12  14
ENDBRANCH  10  12
ENDBRANCH   9  10
ENDBRANCH   8   9
ENDBRANCH   1   8
BRANCH   6  22
HETATM   22  N3  UNL     1       7.468 -64.878  57.729  1.00  0.00    -0.387 N 
ATOM     23  H3  UNL     1       7.125 -64.640  58.660  1.00  0.00     0.159 HD
BRANCH  22  24
HETATM   24  C18 UNL     1       8.336 -63.936  57.030  1.00  0.00     0.150 C 
BRANCH  24  25
HETATM   25  C19 UNL     1       7.652 -62.603  56.972  1.00  0.00     0.292 C 
BRANCH  25  26
HETATM   26  N4  UNL     1       7.820 -61.999  55.643  1.00  0.00     0.090 N 
HETATM   27  C20 UNL     1       6.770 -60.997  55.509  1.00  0.00     0.272 C 
HETATM   28  C21 UNL     1       6.738 -60.771  54.029  1.00  0.00     0.032 C 
HETATM   29  C22 UNL     1       6.854 -62.188  53.477  1.00  0.00     0.032 C 
HETATM   30  C23 UNL     1       7.480 -62.961  54.610  1.00  0.00     0.272 C 
ENDBRANCH  25  26
ENDBRANCH  24  25
ENDBRANCH  22  24
ENDBRANCH   6  22
TORSDOF 11
ENDMDL
MODEL 3
REMARK VINA RESULT: -9.808474740      0.921      1.504
REMARK  11 active torsions:
REMARK  status: ('A' for Active; 'I' for Inactive)
REMARK    1  A    between atoms: C2_2  and  C3_3 
REMARK    2  A    between atoms: C2_2  and  N1_11 
REMARK    3  A    between atoms: C3_3  and  C4_4 
REMARK    4  A    between atoms: C4_4  and  C5_5 
REMARK    5  A    between atoms: N1_11  and  C11_13 
REMARK    6  A    between atoms: C11_13  and  C12_14 
REMARK    7  A    between atoms: C12_14  and  C13_15 
REMARK    8  A    between atoms: C17_20  and  N3_21 
REMARK    9  A    between atoms: N3_21  and  C18_23 
REMARK   10  A    between atoms: C18_23  and  C19_24 
REMARK   11  A    between atoms: C19_24  and  N4_25 
ROOT
HETATM    1  C13 UNL     1       6.856 -67.452  61.980  1.00  0.00    -0.054 A 
HETATM    2  C14 UNL     1       7.154 -66.650  63.060  1.00  0.00     0.009 A 
HETATM    3  C15 UNL     1       7.547 -65.320  62.877  1.00  0.00     0.029 A 
HETATM    4  C16 UNL     1       7.649 -64.766  61.623  1.00  0.00     0.072 A 
HETATM    5  N2  UNL     1       8.054 -63.408  61.504  1.00  0.00    -0.100 NA
HETATM    6  C17 UNL     1       7.354 -65.554  60.534  1.00  0.00     0.053 A 
HETATM    7  C24 UNL     1       6.965 -66.874  60.722  1.00  0.00     0.038 A 
ENDROOT
BRANCH   1   8
HETATM    8  C12 UNL     1       6.438 -68.869  62.124  1.00  0.00     0.058 C 
BRANCH   8   9
HETATM    9  C11 UNL     1       7.568 -69.718  61.491  1.00  0.00     0.124 C 
BRANCH   9  10
HETATM   10  N1  UNL     1       6.985 -70.431  60.427  1.00  0.00    -0.396 N 
ATOM     11  H1  UNL     1       5.969 -70.514  60.369  1.00  0.00     0.159 HD
BRANCH  10  12
HETATM   12  C2  UNL     1       7.794 -71.031  59.442  1.00  0.00    -0.022 C 
HETATM   13  C1  UNL     1       8.170 -70.091  58.306  1.00  0.00     0.062 C 
BRANCH  12  14
HETATM   14  C3  UNL     1       7.526 -72.419  59.005  1.00  0.00     0.052 C 
BRANCH  14  15
HETATM   15  C4  UNL     1       7.125 -73.404  60.040  1.00  0.00     0.010 C 
BRANCH  15  16
HETATM   16  C5  UNL     1       8.152 -74.494  60.254  1.00  0.00    -0.014 C 
HETATM   17  C6  UNL     1       9.566 -74.030  60.164  1.00  0.00     0.004 C 
HETATM   18  C7  UNL     1      10.548 -75.109  60.556  1.00  0.00     0.000 C 
HETATM   19  C8  UNL     1       9.885 -76.476  60.496  1.00  0.00     0.000 C 
HETATM   20  C9  UNL     1       8.741 -76.530  61.475  1.00  0.00     0.000 C 
HETATM   21  C10 UNL     1       7.961 -75.236  61.542  1.00  0.00     0.004 C 
ENDBRANCH  15  16
ENDBRANCH  14  15
ENDBRANCH  12  14
ENDBRANCH  10  12
ENDBRANCH   9  10
ENDBRANCH   8   9
ENDBRANCH   1   8
BRANCH   6  22
HETATM   22  N3  UNL     1       7.456 -64.985  59.240  1.00  0.00    -0.387 N 
ATOM     23  H3  UNL     1       8.325 -64.527  58.967  1.00  0.00     0.159 HD
BRANCH  22  24
HETATM   24  C18 UNL     1       6.352 -65.038  58.286  1.00  0.00     0.150 C 
BRANCH  24  25
HETATM   25  C19 UNL     1       6.881 -64.723  56.919  1.00  0.00     0.292 C 
BRANCH  25  26
HETATM   26  N4  UNL     1       7.161 -65.962  56.180  1.00  0.00     0.090 N 
HETATM   27  C20 UNL     1       6.510 -65.826  54.883  1.00  0.00     0.272 C 
HETATM   28  C21 UNL     1       6.464 -67.243  54.404  1.00  0.00     0.032 C 
HETATM   29  C22 UNL     1       6.053 -68.002  55.661  1.00  0.00     0.032 C 
HETATM   30  C23 UNL     1       6.448 -67.074  56.782  1.00  0.00     0.272 C 
ENDBRANCH  25  26
ENDBRANCH  24  25
ENDBRANCH  22  24
ENDBRANCH   6  22
TORSDOF 11
ENDMDL
MODEL 4
REMARK VINA RESULT: -9.805420612      2.229      4.385
REMARK  11 active torsions:
REMARK  status: ('A' for Active; 'I' for Inactive)
REMARK    1  A    between atoms: C2_2  and  C3_3 
REMARK    2  A    between atoms: C2_2  and  N1_11 
REMARK    3  A    between atoms: C3_3  and  C4_4 
REMARK    4  A    between atoms: C4_4  and  C5_5 
REMARK    5  A    between atoms: N1_11  and  C11_13 
REMARK    6  A    between atoms: C11_13  and  C12_14 
REMARK    7  A    between atoms: C12_14  and  C13_15 
REMARK    8  A    between atoms: C17_20  and  N3_21 
REMARK    9  A    between atoms: N3_21  and  C18_23 
REMARK   10  A    between atoms: C18_23  and  C19_24 
REMARK   11  A    between atoms: C19_24  and  N4_25 
ROOT
HETATM    1  C13 UNL     1       7.394 -67.308  58.302  1.00  0.00    -0.054 A 
HETATM    2  C14 UNL     1       7.826 -68.378  57.550  1.00  0.00     0.009 A 
HETATM    3  C15 UNL     1       7.460 -68.502  56.205  1.00  0.00     0.029 A 
HETATM    4  C16 UNL     1       6.662 -67.567  55.588  1.00  0.00     0.072 A 
HETATM    5  N2  UNL     1       6.325 -67.750  54.219  1.00  0.00    -0.100 NA
HETATM    6  C17 UNL     1       6.223 -66.492  56.327  1.00  0.00     0.053 A 
HETATM    7  C24 UNL     1       6.589 -66.376  57.661  1.00  0.00     0.038 A 
ENDROOT
BRANCH   1   8
HETATM    8  C12 UNL     1       7.753 -67.136  59.732  1.00  0.00     0.058 C 
BRANCH   8   9
HETATM    9  C11 UNL     1       6.416 -67.082  60.510  1.00  0.00     0.124 C 
BRANCH   9  10
HETATM   10  N1  UNL     1       6.114 -68.406  60.881  1.00  0.00    -0.396 N 
ATOM     11  H1  UNL     1       5.534 -68.983  60.271  1.00  0.00     0.159 HD
BRANCH  10  12
HETATM   12  C2  UNL     1       6.610 -68.940  62.087  1.00  0.00    -0.022 C 
HETATM   13  C1  UNL     1       7.078 -67.881  63.075  1.00  0.00     0.062 C 
BRANCH  12  14
HETATM   14  C3  UNL     1       7.451 -70.156  62.071  1.00  0.00     0.052 C 
BRANCH  14  15
HETATM   15  C4  UNL     1       8.003 -70.598  60.766  1.00  0.00     0.010 C 
BRANCH  15  16
HETATM   16  C5  UNL     1       8.071 -72.103  60.628  1.00  0.00    -0.014 C 
HETATM   17  C6  UNL     1       7.214 -72.660  59.542  1.00  0.00     0.004 C 
HETATM   18  C7  UNL     1       7.448 -74.136  59.329  1.00  0.00     0.000 C 
HETATM   19  C8  UNL     1       8.132 -74.745  60.542  1.00  0.00     0.000 C 
HETATM   20  C9  UNL     1       9.479 -74.100  60.744  1.00  0.00     0.000 C 
HETATM   21  C10 UNL     1       9.470 -72.614  60.459  1.00  0.00     0.004 C 
ENDBRANCH  15  16
ENDBRANCH  14  15
ENDBRANCH  12  14
ENDBRANCH  10  12
ENDBRANCH   9  10
ENDBRANCH   8   9
ENDBRANCH   1   8
BRANCH   6  22
HETATM   22  N3  UNL     1       5.402 -65.527  55.693  1.00  0.00    -0.387 N 
ATOM     23  H3  UNL     1       4.496 -65.813  55.321  1.00  0.00     0.159 HD
BRANCH  22  24
HETATM   24  C18 UNL     1       5.815 -64.133  55.560  1.00  0.00     0.150 C 
BRANCH  24  25
HETATM   25  C19 UNL     1       6.881 -64.047  54.508  1.00  0.00     0.292 C 
BRANCH  25  26
HETATM   26  N4  UNL     1       7.454 -62.694  54.470  1.00  0.00     0.090 N 
HETATM   27  C20 UNL     1       7.168 -62.087  55.764  1.00  0.00     0.272 C 
HETATM   28  C21 UNL     1       7.373 -60.632  55.481  1.00  0.00     0.032 C 
HETATM   29  C22 UNL     1       6.704 -60.463  54.121  1.00  0.00     0.032 C 
HETATM   30  C23 UNL     1       6.702 -61.859  53.550  1.00  0.00     0.272 C 
ENDBRANCH  25  26
ENDBRANCH  24  25
ENDBRANCH  22  24
ENDBRANCH   6  22
TORSDOF 11
ENDMDL
MODEL 5
REMARK VINA RESULT: -9.786958450      1.569      7.056
REMARK  11 active torsions:
REMARK  status: ('A' for Active; 'I' for Inactive)
REMARK    1  A    between atoms: C2_2  and  C3_3 
REMARK    2  A    between atoms: C2_2  and  N1_11 
REMARK    3  A    between atoms: C3_3  and  C4_4 
REMARK    4  A    between atoms: C4_4  and  C5_5 
REMARK    5  A    between atoms: N1_11  and  C11_13 
REMARK    6  A    between atoms: C11_13  and  C12_14 
REMARK    7  A    between atoms: C12_14  and  C13_15 
REMARK    8  A    between atoms: C17_20  and  N3_21 
REMARK    9  A    between atoms: N3_21  and  C18_23 
REMARK   10  A    between atoms: C18_23  and  C19_24 
REMARK   11  A    between atoms: C19_24  and  N4_25 
ROOT
HETATM    1  C13 UNL     1       7.442 -65.574  61.336  1.00  0.00    -0.054 A 
HETATM    2  C14 UNL     1       7.365 -65.877  62.677  1.00  0.00     0.009 A 
HETATM    3  C15 UNL     1       7.214 -67.202  63.104  1.00  0.00     0.029 A 
HETATM    4  C16 UNL     1       7.139 -68.242  62.208  1.00  0.00     0.072 A 
HETATM    5  N2  UNL     1       6.986 -69.565  62.705  1.00  0.00    -0.100 NA
HETATM    6  C17 UNL     1       7.215 -67.954  60.864  1.00  0.00     0.053 A 
HETATM    7  C24 UNL     1       7.364 -66.638  60.447  1.00  0.00     0.038 A 
ENDROOT
BRANCH   1   8
HETATM    8  C12 UNL     1       7.598 -64.185  60.835  1.00  0.00     0.058 C 
BRANCH   8   9
HETATM    9  C11 UNL     1       8.781 -64.216  59.837  1.00  0.00     0.124 C 
BRANCH   9  10
HETATM   10  N1  UNL     1       8.355 -63.521  58.689  1.00  0.00    -0.396 N 
ATOM     11  H1  UNL     1       7.576 -62.864  58.754  1.00  0.00     0.159 HD
BRANCH  10  12
HETATM   12  C2  UNL     1       8.997 -63.725  57.452  1.00  0.00    -0.022 C 
HETATM   13  C1  UNL     1      10.427 -63.206  57.414  1.00  0.00     0.062 C 
BRANCH  12  14
HETATM   14  C3  UNL     1       8.255 -63.525  56.188  1.00  0.00     0.052 C 
BRANCH  14  15
HETATM   15  C4  UNL     1       6.855 -64.013  56.124  1.00  0.00     0.010 C 
BRANCH  15  16
HETATM   16  C5  UNL     1       6.754 -65.514  55.967  1.00  0.00    -0.014 C 
HETATM   17  C6  UNL     1       6.087 -66.207  57.106  1.00  0.00     0.004 C 
HETATM   18  C7  UNL     1       5.854 -67.673  56.826  1.00  0.00     0.000 C 
HETATM   19  C8  UNL     1       6.745 -68.143  55.688  1.00  0.00     0.000 C 
HETATM   20  C9  UNL     1       6.407 -67.385  54.430  1.00  0.00     0.000 C 
HETATM   21  C10 UNL     1       6.094 -65.927  54.687  1.00  0.00     0.004 C 
ENDBRANCH  15  16
ENDBRANCH  14  15
ENDBRANCH  12  14
ENDBRANCH  10  12
ENDBRANCH   9  10
ENDBRANCH   8   9
ENDBRANCH   1   8
BRANCH   6  22
HETATM   22  N3  UNL     1       7.140 -69.025  59.938  1.00  0.00    -0.387 N 
ATOM     23  H3  UNL     1       6.268 -69.548  59.856  1.00  0.00     0.159 HD
BRANCH  22  24
HETATM   24  C18 UNL     1       8.275 -69.398  59.100  1.00  0.00     0.150 C 
BRANCH  24  25
HETATM   25  C19 UNL     1       8.109 -70.827  58.674  1.00  0.00     0.292 C 
BRANCH  25  26
HETATM   26  N4  UNL     1       7.712 -71.659  59.818  1.00  0.00     0.090 N 
HETATM   27  C20 UNL     1       8.946 -72.108  60.450  1.00  0.00     0.272 C 
HETATM   28  C21 UNL     1       8.474 -73.259  61.281  1.00  0.00     0.032 C 
HETATM   29  C22 UNL     1       7.510 -73.972  60.338  1.00  0.00     0.032 C 
HETATM   30  C23 UNL     1       7.121 -72.901  59.351  1.00  0.00     0.272 C 
ENDBRANCH  25  26
ENDBRANCH  24  25
ENDBRANCH  22  24
ENDBRANCH   6  22
TORSDOF 11
ENDMDL
