MODEL 1
REMARK VINA RESULT: -4.398836911      0.000      0.000
REMARK  2 active torsions:
REMARK  status: ('A' for Active; 'I' for Inactive)
REMARK    1  A    between atoms: C4_5  and  O2_6 
REMARK    2  A    between atoms: C6_9  and  O3_10 
ROOT
HETATM    1  C1  UNL     1       4.095   2.186 -51.811  1.00  0.00     0.078 C 
HETATM    2  C2  UNL     1       2.689   2.553 -51.428  1.00  0.00     0.163 C 
HETATM    3  C3  UNL     1       2.626   2.777 -49.916  1.00  0.00     0.078 C 
HETATM    4  O1  UNL     1       1.762   1.584 -51.727  1.00  0.00    -0.326 OA
HETATM    5  C4  UNL     1       1.656   1.271 -53.057  1.00  0.00     0.265 C 
HETATM    6  C5  UNL     1       1.998   2.362 -54.002  1.00  0.00     0.121 C 
HETATM    7  C6  UNL     1       2.281   3.682 -53.402  1.00  0.00     0.265 C 
HETATM    8  O4  UNL     1       2.288   3.736 -52.036  1.00  0.00    -0.326 OA
ENDROOT
BRANCH   5   9
HETATM    9  O2  UNL     1       0.350   0.781 -53.264  1.00  0.00    -0.371 OA
ATOM     10  H2  UNL     1       0.152   0.895 -54.186  1.00  0.00     0.212 HD
ENDBRANCH   5   9
BRANCH   7  11
HETATM   11  O3  UNL     1       1.317   4.612 -53.851  1.00  0.00    -0.371 OA
ATOM     12  H3  UNL     1       0.691   4.167 -54.410  1.00  0.00     0.212 HD
ENDBRANCH   7  11
TORSDOF 2
ENDMDL
MODEL 2
REMARK VINA RESULT: -4.234504992      1.676      3.482
REMARK  2 active torsions:
REMARK  status: ('A' for Active; 'I' for Inactive)
REMARK    1  A    between atoms: C4_5  and  O2_6 
REMARK    2  A    between atoms: C6_9  and  O3_10 
ROOT
HETATM    1  C1  UNL     1       1.941   3.175 -53.432  1.00  0.00     0.078 C 
HETATM    2  C2  UNL     1       1.895   1.870 -52.688  1.00  0.00     0.163 C 
HETATM    3  C3  UNL     1       0.709   1.048 -53.198  1.00  0.00     0.078 C 
HETATM    4  O1  UNL     1       1.731   2.011 -51.332  1.00  0.00    -0.326 OA
HETATM    5  C4  UNL     1       2.726   2.703 -50.693  1.00  0.00     0.265 C 
HETATM    6  C5  UNL     1       4.065   2.633 -51.328  1.00  0.00     0.121 C 
HETATM    7  C6  UNL     1       4.192   1.725 -52.488  1.00  0.00     0.265 C 
HETATM    8  O4  UNL     1       3.042   1.118 -52.908  1.00  0.00    -0.326 OA
ENDROOT
BRANCH   5   9
HETATM    9  O2  UNL     1       2.750   2.255 -49.357  1.00  0.00    -0.371 OA
ATOM     10  H2  UNL     1       2.626   3.018 -48.805  1.00  0.00     0.212 HD
ENDBRANCH   5   9
BRANCH   7  11
HETATM   11  O3  UNL     1       5.115   0.701 -52.177  1.00  0.00    -0.371 OA
ATOM     12  H3  UNL     1       5.463   0.340 -52.983  1.00  0.00     0.212 HD
ENDBRANCH   7  11
TORSDOF 2
ENDMDL
MODEL 3
REMARK VINA RESULT: -4.174835595      2.191      2.838
REMARK  2 active torsions:
REMARK  status: ('A' for Active; 'I' for Inactive)
REMARK    1  A    between atoms: C4_5  and  O2_6 
REMARK    2  A    between atoms: C6_9  and  O3_10 
ROOT
HETATM    1  C1  UNL     1       4.477   3.119 -53.461  1.00  0.00     0.078 C 
HETATM    2  C2  UNL     1       4.653   1.978 -52.498  1.00  0.00     0.163 C 
HETATM    3  C3  UNL     1       6.142   1.644 -52.389  1.00  0.00     0.078 C 
HETATM    4  O1  UNL     1       4.011   0.826 -52.880  1.00  0.00    -0.326 OA
HETATM    5  C4  UNL     1       2.650   0.930 -53.000  1.00  0.00     0.265 C 
HETATM    6  C5  UNL     1       2.006   1.949 -52.135  1.00  0.00     0.121 C 
HETATM    7  C6  UNL     1       2.885   2.630 -51.161  1.00  0.00     0.265 C 
HETATM    8  O4  UNL     1       4.213   2.315 -51.224  1.00  0.00    -0.326 OA
ENDROOT
BRANCH   5   9
HETATM    9  O2  UNL     1       2.116  -0.358 -52.789  1.00  0.00    -0.371 OA
ATOM     10  H2  UNL     1       1.175  -0.291 -52.903  1.00  0.00     0.212 HD
ENDBRANCH   5   9
BRANCH   7  11
HETATM   11  O3  UNL     1       2.446   2.330 -49.852  1.00  0.00    -0.371 OA
ATOM     12  H3  UNL     1       2.759   1.468 -49.608  1.00  0.00     0.212 HD
ENDBRANCH   7  11
TORSDOF 2
ENDMDL
MODEL 4
REMARK VINA RESULT: -4.157954590      1.694      2.606
REMARK  2 active torsions:
REMARK  status: ('A' for Active; 'I' for Inactive)
REMARK    1  A    between atoms: C4_5  and  O2_6 
REMARK    2  A    between atoms: C6_9  and  O3_10 
ROOT
HETATM    1  C1  UNL     1       3.098   2.956 -54.317  1.00  0.00     0.078 C 
HETATM    2  C2  UNL     1       2.930   2.366 -52.944  1.00  0.00     0.163 C 
HETATM    3  C3  UNL     1       3.561   3.309 -51.917  1.00  0.00     0.078 C 
HETATM    4  O1  UNL     1       3.533   1.142 -52.789  1.00  0.00    -0.326 OA
HETATM    5  C4  UNL     1       3.066   0.154 -53.615  1.00  0.00     0.265 C 
HETATM    6  C5  UNL     1       1.655   0.294 -54.050  1.00  0.00     0.121 C 
HETATM    7  C6  UNL     1       0.890   1.401 -53.439  1.00  0.00     0.265 C 
HETATM    8  O4  UNL     1       1.588   2.232 -52.609  1.00  0.00    -0.326 OA
ENDROOT
BRANCH   5   9
HETATM    9  O2  UNL     1       3.300  -1.075 -52.964  1.00  0.00    -0.371 OA
ATOM     10  H2  UNL     1       4.158  -1.017 -52.559  1.00  0.00     0.212 HD
ENDBRANCH   5   9
BRANCH   7  11
HETATM   11  O3  UNL     1      -0.181   0.865 -52.689  1.00  0.00    -0.371 OA
ATOM     12  H3  UNL     1      -0.883   1.504 -52.648  1.00  0.00     0.212 HD
ENDBRANCH   7  11
TORSDOF 2
ENDMDL
MODEL 5
REMARK VINA RESULT: -4.103550313      1.039      2.744
REMARK  2 active torsions:
REMARK  status: ('A' for Active; 'I' for Inactive)
REMARK    1  A    between atoms: C4_5  and  O2_6 
REMARK    2  A    between atoms: C6_9  and  O3_10 
ROOT
HETATM    1  C1  UNL     1       2.642   2.682 -50.639  1.00  0.00     0.078 C 
HETATM    2  C2  UNL     1       3.386   2.515 -51.935  1.00  0.00     0.163 C 
HETATM    3  C3  UNL     1       4.886   2.457 -51.643  1.00  0.00     0.078 C 
HETATM    4  O1  UNL     1       3.189   3.545 -52.823  1.00  0.00    -0.326 OA
HETATM    5  C4  UNL     1       1.893   3.728 -53.225  1.00  0.00     0.265 C 
HETATM    6  C5  UNL     1       1.041   2.514 -53.216  1.00  0.00     0.121 C 
HETATM    7  C6  UNL     1       1.722   1.239 -52.905  1.00  0.00     0.265 C 
HETATM    8  O4  UNL     1       3.043   1.327 -52.569  1.00  0.00    -0.326 OA
ENDROOT
BRANCH   5   9
HETATM    9  O2  UNL     1       1.936   4.335 -54.497  1.00  0.00    -0.371 OA
ATOM     10  H2  UNL     1       2.777   4.118 -54.881  1.00  0.00     0.212 HD
ENDBRANCH   5   9
BRANCH   7  11
HETATM   11  O3  UNL     1       1.632   0.380 -54.024  1.00  0.00    -0.371 OA
ATOM     12  H3  UNL     1       1.634  -0.521 -53.725  1.00  0.00     0.212 HD
ENDBRANCH   7  11
TORSDOF 2
ENDMDL
