MODEL 1
REMARK VINA RESULT: -4.298256260      0.000      0.000
REMARK  3 active torsions:
REMARK  status: ('A' for Active; 'I' for Inactive)
REMARK    1  A    between atoms: C2_2  and  O1_3 
REMARK    2  A    between atoms: C4_7  and  O2_8 
REMARK    3  A    between atoms: C5_10  and  O3_11 
ROOT
HETATM    1  C1  UNL     1       1.411   4.028 -53.780  1.00  0.00     0.061 C 
HETATM    2  C2  UNL     1       2.333   3.298 -52.851  1.00  0.00     0.130 C 
HETATM    3  S1  UNL     1       3.502   2.289 -53.849  1.00  0.00    -0.127 SA
HETATM    4  C3  UNL     1       2.397   0.852 -53.952  1.00  0.00     0.111 C 
HETATM    5  C4  UNL     1       1.578   0.967 -52.736  1.00  0.00     0.160 C 
HETATM    6  C5  UNL     1       1.647   2.248 -52.071  1.00  0.00     0.192 C 
ENDROOT
BRANCH   2   7
HETATM    7  O1  UNL     1       3.054   4.162 -52.039  1.00  0.00    -0.377 OA
ATOM      8  H1  UNL     1       3.941   3.858 -51.889  1.00  0.00     0.211 HD
ENDBRANCH   2   7
BRANCH   6   9
HETATM    9  O3  UNL     1       2.283   2.182 -50.806  1.00  0.00    -0.389 OA
ATOM     10  H3  UNL     1       1.702   1.707 -50.224  1.00  0.00     0.210 HD
ENDBRANCH   6   9
BRANCH   5  11
HETATM   11  O2  UNL     1       0.252   0.599 -53.069  1.00  0.00    -0.392 OA
ATOM     12  H2  UNL     1      -0.290   0.741 -52.301  1.00  0.00     0.210 HD
ENDBRANCH   5  11
TORSDOF 3
ENDMDL
MODEL 2
REMARK VINA RESULT: -4.189962864      1.809      2.232
REMARK  3 active torsions:
REMARK  status: ('A' for Active; 'I' for Inactive)
REMARK    1  A    between atoms: C2_2  and  O1_3 
REMARK    2  A    between atoms: C4_7  and  O2_8 
REMARK    3  A    between atoms: C5_10  and  O3_11 
ROOT
HETATM    1  C1  UNL     1       2.441   2.679 -50.692  1.00  0.00     0.061 C 
HETATM    2  C2  UNL     1       3.022   2.902 -52.056  1.00  0.00     0.130 C 
HETATM    3  S1  UNL     1       1.660   3.317 -53.218  1.00  0.00    -0.127 SA
HETATM    4  C3  UNL     1       1.279   1.586 -53.616  1.00  0.00     0.111 C 
HETATM    5  C4  UNL     1       2.561   0.900 -53.395  1.00  0.00     0.160 C 
HETATM    6  C5  UNL     1       3.546   1.663 -52.664  1.00  0.00     0.192 C 
ENDROOT
BRANCH   2   7
HETATM    7  O1  UNL     1       3.959   3.925 -52.067  1.00  0.00    -0.377 OA
ATOM      8  H1  UNL     1       3.927   4.451 -51.277  1.00  0.00     0.211 HD
ENDBRANCH   2   7
BRANCH   6   9
HETATM    9  O3  UNL     1       4.665   2.025 -53.456  1.00  0.00    -0.389 OA
ATOM     10  H3  UNL     1       4.544   1.629 -54.310  1.00  0.00     0.210 HD
ENDBRANCH   6   9
BRANCH   5  11
HETATM   11  O2  UNL     1       2.285  -0.350 -52.790  1.00  0.00    -0.392 OA
ATOM     12  H2  UNL     1       1.359  -0.530 -52.903  1.00  0.00     0.210 HD
ENDBRANCH   5  11
TORSDOF 3
ENDMDL
MODEL 3
REMARK VINA RESULT: -4.180281498      1.809      2.431
REMARK  3 active torsions:
REMARK  status: ('A' for Active; 'I' for Inactive)
REMARK    1  A    between atoms: C2_2  and  O1_3 
REMARK    2  A    between atoms: C4_7  and  O2_8 
REMARK    3  A    between atoms: C5_10  and  O3_11 
ROOT
HETATM    1  C1  UNL     1       4.139   2.113 -52.724  1.00  0.00     0.061 C 
HETATM    2  C2  UNL     1       3.007   3.072 -52.506  1.00  0.00     0.130 C 
HETATM    3  S1  UNL     1       1.814   2.321 -51.326  1.00  0.00    -0.127 SA
HETATM    4  C3  UNL     1       0.879   1.440 -52.610  1.00  0.00     0.111 C 
HETATM    5  C4  UNL     1       1.091   2.266 -53.808  1.00  0.00     0.160 C 
HETATM    6  C5  UNL     1       2.158   3.235 -53.703  1.00  0.00     0.192 C 
ENDROOT
BRANCH   2   7
HETATM    7  O1  UNL     1       3.440   4.290 -52.005  1.00  0.00    -0.377 OA
ATOM      8  H1  UNL     1       3.933   4.193 -51.199  1.00  0.00     0.211 HD
ENDBRANCH   2   7
BRANCH   6   9
HETATM    9  O3  UNL     1       1.691   4.573 -53.707  1.00  0.00    -0.389 OA
ATOM     10  H3  UNL     1       2.131   5.026 -52.997  1.00  0.00     0.210 HD
ENDBRANCH   6   9
BRANCH   5  11
HETATM   11  O2  UNL     1       1.258   1.394 -54.912  1.00  0.00    -0.392 OA
ATOM     12  H2  UNL     1       0.535   0.777 -54.908  1.00  0.00     0.210 HD
ENDBRANCH   5  11
TORSDOF 3
ENDMDL
MODEL 4
REMARK VINA RESULT: -4.176185253      2.310      2.925
REMARK  3 active torsions:
REMARK  status: ('A' for Active; 'I' for Inactive)
REMARK    1  A    between atoms: C2_2  and  O1_3 
REMARK    2  A    between atoms: C4_7  and  O2_8 
REMARK    3  A    between atoms: C5_10  and  O3_11 
ROOT
HETATM    1  C1  UNL     1       2.721   2.575 -50.570  1.00  0.00     0.061 C 
HETATM    2  C2  UNL     1       3.125   3.023 -51.942  1.00  0.00     0.130 C 
HETATM    3  S1  UNL     1       2.109   2.124 -53.182  1.00  0.00    -0.127 SA
HETATM    4  C3  UNL     1       3.227   0.695 -53.273  1.00  0.00     0.111 C 
HETATM    5  C4  UNL     1       4.534   1.266 -52.914  1.00  0.00     0.160 C 
HETATM    6  C5  UNL     1       4.484   2.579 -52.313  1.00  0.00     0.192 C 
ENDROOT
BRANCH   2   7
HETATM    7  O1  UNL     1       2.958   4.389 -52.119  1.00  0.00    -0.377 OA
ATOM      8  H1  UNL     1       2.982   4.639 -53.035  1.00  0.00     0.211 HD
ENDBRANCH   2   7
BRANCH   6   9
HETATM    9  O3  UNL     1       5.044   3.587 -53.137  1.00  0.00    -0.389 OA
ATOM     10  H3  UNL     1       4.454   4.330 -53.113  1.00  0.00     0.210 HD
ENDBRANCH   6   9
BRANCH   5  11
HETATM   11  O2  UNL     1       5.210   0.324 -52.101  1.00  0.00    -0.392 OA
ATOM     12  H2  UNL     1       5.122   0.603 -51.197  1.00  0.00     0.210 HD
ENDBRANCH   5  11
TORSDOF 3
ENDMDL
MODEL 5
REMARK VINA RESULT: -4.131839336      1.934      2.431
REMARK  3 active torsions:
REMARK  status: ('A' for Active; 'I' for Inactive)
REMARK    1  A    between atoms: C2_2  and  O1_3 
REMARK    2  A    between atoms: C4_7  and  O2_8 
REMARK    3  A    between atoms: C5_10  and  O3_11 
ROOT
HETATM    1  C1  UNL     1       1.141   2.002 -53.167  1.00  0.00     0.061 C 
HETATM    2  C2  UNL     1       2.173   3.082 -53.292  1.00  0.00     0.130 C 
HETATM    3  S1  UNL     1       3.110   2.829 -54.853  1.00  0.00    -0.127 SA
HETATM    4  C3  UNL     1       4.321   1.698 -54.109  1.00  0.00     0.111 C 
HETATM    5  C4  UNL     1       4.344   2.109 -52.698  1.00  0.00     0.160 C 
HETATM    6  C5  UNL     1       3.251   2.963 -52.291  1.00  0.00     0.192 C 
ENDROOT
BRANCH   2   7
HETATM    7  O1  UNL     1       1.608   4.350 -53.299  1.00  0.00    -0.377 OA
ATOM      8  H1  UNL     1       0.778   4.371 -53.761  1.00  0.00     0.211 HD
ENDBRANCH   2   7
BRANCH   6   9
HETATM    9  O3  UNL     1       3.668   4.277 -51.964  1.00  0.00    -0.389 OA
ATOM     10  H3  UNL     1       3.242   4.513 -51.149  1.00  0.00     0.210 HD
ENDBRANCH   6   9
BRANCH   5  11
HETATM   11  O2  UNL     1       4.441   0.938 -51.907  1.00  0.00    -0.392 OA
ATOM     12  H2  UNL     1       3.678   0.906 -51.341  1.00  0.00     0.210 HD
ENDBRANCH   5  11
TORSDOF 3
ENDMDL
