MODEL 1
REMARK VINA RESULT: -5.728948780      0.000      0.000
REMARK  4 active torsions:
REMARK  status: ('A' for Active; 'I' for Inactive)
REMARK    1  A    between atoms: C2_2  and  N1_3 
REMARK    2  A    between atoms: C2_2  and  N2_7 
REMARK    3  A    between atoms: N2_7  and  C3_9 
REMARK    4  A    between atoms: C6_12  and  C7_13 
ROOT
HETATM    1  C3  UNL     1       6.143 -73.188 -15.045  1.00  0.00     0.078 C 
HETATM    2  C4  UNL     1       7.217 -72.332 -14.437  1.00  0.00     0.025 C 
HETATM    3  C5  UNL     1       7.162 -70.992 -15.186  1.00  0.00     0.009 C 
HETATM    4  C6  UNL     1       5.823 -70.384 -14.903  1.00  0.00     0.016 C 
HETATM    5  C11 UNL     1       4.740 -71.193 -15.581  1.00  0.00     0.009 C 
HETATM    6  C12 UNL     1       4.780 -72.579 -14.957  1.00  0.00     0.025 C 
ENDROOT
BRANCH   1   7
HETATM    7  N2  UNL     1       6.116 -74.542 -14.666  1.00  0.00    -0.392 N 
ATOM      8  H2  UNL     1       6.271 -75.272 -15.362  1.00  0.00     0.155 HD
BRANCH   7   9
HETATM    9  C2  UNL     1       5.875 -74.887 -13.318  1.00  0.00     0.273 C 
HETATM   10  C1  UNL     1       7.050 -75.786 -12.883  1.00  0.00     0.062 C 
BRANCH   9  11
HETATM   11  N1  UNL     1       4.709 -75.732 -13.090  1.00  0.00    -0.059 N 
ATOM     12  H13 UNL     1       4.632 -76.527 -13.723  1.00  0.00     0.276 HD
ATOM     13  H12 UNL     1       4.746 -76.284 -12.233  1.00  0.00     0.276 HD
ATOM     14  H11 UNL     1       3.932 -75.072 -13.137  1.00  0.00     0.276 HD
ENDBRANCH   9  11
ENDBRANCH   7   9
ENDBRANCH   1   7
BRANCH   4  15
HETATM   15  C7  UNL     1       5.720 -68.922 -15.204  1.00  0.00     0.190 C 
HETATM   16  C8  UNL     1       5.940 -68.037 -13.996  1.00  0.00     0.035 C 
HETATM   17  C9  UNL     1       5.506 -66.684 -14.557  1.00  0.00     0.029 C 
HETATM   18  C10 UNL     1       4.556 -67.038 -15.656  1.00  0.00     0.233 C 
HETATM   19  N3  UNL     1       4.432 -68.489 -15.664  1.00  0.00    -0.070 N 
ATOM     20  H32 UNL     1       4.141 -68.888 -16.557  1.00  0.00     0.277 HD
ATOM     21  H31 UNL     1       3.643 -68.853 -15.129  1.00  0.00     0.277 HD
ENDBRANCH   4  15
TORSDOF 4
ENDMDL
MODEL 2
REMARK VINA RESULT: -5.678335409      1.288      1.905
REMARK  4 active torsions:
REMARK  status: ('A' for Active; 'I' for Inactive)
REMARK    1  A    between atoms: C2_2  and  N1_3 
REMARK    2  A    between atoms: C2_2  and  N2_7 
REMARK    3  A    between atoms: N2_7  and  C3_9 
REMARK    4  A    between atoms: C6_12  and  C7_13 
ROOT
HETATM    1  C3  UNL     1       5.976 -73.497 -14.266  1.00  0.00     0.078 C 
HETATM    2  C4  UNL     1       4.633 -72.980 -13.836  1.00  0.00     0.025 C 
HETATM    3  C5  UNL     1       4.839 -71.494 -13.510  1.00  0.00     0.009 C 
HETATM    4  C6  UNL     1       5.250 -70.816 -14.780  1.00  0.00     0.016 C 
HETATM    5  C11 UNL     1       6.637 -71.268 -15.177  1.00  0.00     0.009 C 
HETATM    6  C12 UNL     1       6.547 -72.763 -15.437  1.00  0.00     0.025 C 
ENDROOT
BRANCH   1   7
HETATM    7  N2  UNL     1       6.101 -74.888 -14.432  1.00  0.00    -0.392 N 
ATOM      8  H2  UNL     1       5.712 -75.342 -15.259  1.00  0.00     0.155 HD
BRANCH   7   9
HETATM    9  C2  UNL     1       6.766 -75.654 -13.449  1.00  0.00     0.273 C 
HETATM   10  C1  UNL     1       5.669 -76.227 -12.529  1.00  0.00     0.062 C 
BRANCH   9  11
HETATM   11  N1  UNL     1       7.606 -74.895 -12.531  1.00  0.00    -0.059 N 
ATOM     12  H13 UNL     1       7.634 -73.892 -12.713  1.00  0.00     0.276 HD
ATOM     13  H12 UNL     1       7.237 -74.819 -11.584  1.00  0.00     0.276 HD
ATOM     14  H11 UNL     1       8.508 -75.366 -12.599  1.00  0.00     0.276 HD
ENDBRANCH   9  11
ENDBRANCH   7   9
ENDBRANCH   1   7
BRANCH   4  15
HETATM   15  C7  UNL     1       5.113 -69.326 -14.770  1.00  0.00     0.190 C 
HETATM   16  C8  UNL     1       4.320 -68.782 -15.939  1.00  0.00     0.035 C 
HETATM   17  C9  UNL     1       4.596 -67.286 -15.794  1.00  0.00     0.029 C 
HETATM   18  C10 UNL     1       5.905 -67.231 -15.073  1.00  0.00     0.233 C 
HETATM   19  N3  UNL     1       6.349 -68.605 -14.883  1.00  0.00    -0.070 N 
ATOM     20  H32 UNL     1       6.995 -68.742 -14.106  1.00  0.00     0.277 HD
ATOM     21  H31 UNL     1       6.982 -68.953 -15.603  1.00  0.00     0.277 HD
ENDBRANCH   4  15
TORSDOF 4
ENDMDL
MODEL 3
REMARK VINA RESULT: -5.630975338      0.999      1.589
REMARK  4 active torsions:
REMARK  status: ('A' for Active; 'I' for Inactive)
REMARK    1  A    between atoms: C2_2  and  N1_3 
REMARK    2  A    between atoms: C2_2  and  N2_7 
REMARK    3  A    between atoms: N2_7  and  C3_9 
REMARK    4  A    between atoms: C6_12  and  C7_13 
ROOT
HETATM    1  C3  UNL     1       6.151 -73.161 -14.266  1.00  0.00     0.078 C 
HETATM    2  C4  UNL     1       4.828 -72.488 -14.032  1.00  0.00     0.025 C 
HETATM    3  C5  UNL     1       5.147 -71.009 -13.772  1.00  0.00     0.009 C 
HETATM    4  C6  UNL     1       5.767 -70.465 -15.021  1.00  0.00     0.016 C 
HETATM    5  C11 UNL     1       7.137 -71.075 -15.221  1.00  0.00     0.009 C 
HETATM    6  C12 UNL     1       6.923 -72.569 -15.401  1.00  0.00     0.025 C 
ENDROOT
BRANCH   1   7
HETATM    7  N2  UNL     1       6.149 -74.566 -14.333  1.00  0.00    -0.392 N 
ATOM      8  H2  UNL     1       5.696 -75.040 -15.114  1.00  0.00     0.155 HD
BRANCH   7   9
HETATM    9  C2  UNL     1       6.778 -75.316 -13.315  1.00  0.00     0.273 C 
HETATM   10  C1  UNL     1       5.664 -75.735 -12.334  1.00  0.00     0.062 C 
BRANCH   9  11
HETATM   11  N1  UNL     1       7.700 -74.569 -12.470  1.00  0.00    -0.059 N 
ATOM     12  H13 UNL     1       8.201 -73.820 -12.947  1.00  0.00     0.276 HD
ATOM     13  H12 UNL     1       7.251 -73.969 -11.778  1.00  0.00     0.276 HD
ATOM     14  H11 UNL     1       8.297 -75.297 -12.077  1.00  0.00     0.276 HD
ENDBRANCH   9  11
ENDBRANCH   7   9
ENDBRANCH   1   7
BRANCH   4  15
HETATM   15  C7  UNL     1       5.785 -68.973 -15.116  1.00  0.00     0.190 C 
HETATM   16  C8  UNL     1       6.068 -68.284 -13.799  1.00  0.00     0.035 C 
HETATM   17  C9  UNL     1       5.749 -66.835 -14.165  1.00  0.00     0.029 C 
HETATM   18  C10 UNL     1       4.782 -66.956 -15.298  1.00  0.00     0.233 C 
HETATM   19  N3  UNL     1       4.540 -68.377 -15.507  1.00  0.00    -0.070 N 
ATOM     20  H32 UNL     1       4.224 -68.623 -16.445  1.00  0.00     0.277 HD
ATOM     21  H31 UNL     1       3.720 -68.746 -15.024  1.00  0.00     0.277 HD
ENDBRANCH   4  15
TORSDOF 4
ENDMDL
MODEL 4
REMARK VINA RESULT: -5.531225217      1.304      6.304
REMARK  4 active torsions:
REMARK  status: ('A' for Active; 'I' for Inactive)
REMARK    1  A    between atoms: C2_2  and  N1_3 
REMARK    2  A    between atoms: C2_2  and  N2_7 
REMARK    3  A    between atoms: N2_7  and  C3_9 
REMARK    4  A    between atoms: C6_12  and  C7_13 
ROOT
HETATM    1  C3  UNL     1       6.245 -69.872 -14.749  1.00  0.00     0.078 C 
HETATM    2  C4  UNL     1       7.395 -70.696 -15.254  1.00  0.00     0.025 C 
HETATM    3  C5  UNL     1       7.353 -72.008 -14.458  1.00  0.00     0.009 C 
HETATM    4  C6  UNL     1       6.066 -72.691 -14.799  1.00  0.00     0.016 C 
HETATM    5  C11 UNL     1       4.904 -71.912 -14.223  1.00  0.00     0.009 C 
HETATM    6  C12 UNL     1       4.920 -70.550 -14.897  1.00  0.00     0.025 C 
ENDROOT
BRANCH   1   7
HETATM    7  N2  UNL     1       6.179 -68.535 -15.183  1.00  0.00    -0.392 N 
ATOM      8  H2  UNL     1       6.602 -68.263 -16.070  1.00  0.00     0.155 HD
BRANCH   7   9
HETATM    9  C2  UNL     1       5.525 -67.572 -14.383  1.00  0.00     0.273 C 
HETATM   10  C1  UNL     1       4.932 -66.531 -15.356  1.00  0.00     0.062 C 
BRANCH   9  11
HETATM   11  N1  UNL     1       6.397 -66.771 -13.533  1.00  0.00    -0.059 N 
ATOM     12  H13 UNL     1       5.908 -66.144 -12.895  1.00  0.00     0.276 HD
ATOM     13  H12 UNL     1       6.884 -67.298 -12.809  1.00  0.00     0.276 HD
ATOM     14  H11 UNL     1       7.008 -66.304 -14.203  1.00  0.00     0.276 HD
ENDBRANCH   9  11
ENDBRANCH   7   9
ENDBRANCH   1   7
BRANCH   4  15
HETATM   15  C7  UNL     1       6.011 -74.144 -14.447  1.00  0.00     0.190 C 
HETATM   16  C8  UNL     1       4.753 -74.542 -13.706  1.00  0.00     0.035 C 
HETATM   17  C9  UNL     1       5.122 -75.958 -13.266  1.00  0.00     0.029 C 
HETATM   18  C10 UNL     1       6.617 -75.941 -13.217  1.00  0.00     0.233 C 
HETATM   19  N3  UNL     1       7.041 -74.589 -13.553  1.00  0.00    -0.070 N 
ATOM     20  H32 UNL     1       7.988 -74.518 -13.924  1.00  0.00     0.277 HD
ATOM     21  H31 UNL     1       7.201 -73.979 -12.750  1.00  0.00     0.277 HD
ENDBRANCH   4  15
TORSDOF 4
ENDMDL
MODEL 5
REMARK VINA RESULT: -5.529192121      1.439      6.451
REMARK  4 active torsions:
REMARK  status: ('A' for Active; 'I' for Inactive)
REMARK    1  A    between atoms: C2_2  and  N1_3 
REMARK    2  A    between atoms: C2_2  and  N2_7 
REMARK    3  A    between atoms: N2_7  and  C3_9 
REMARK    4  A    between atoms: C6_12  and  C7_13 
ROOT
HETATM    1  C3  UNL     1       6.272 -69.864 -14.980  1.00  0.00     0.078 C 
HETATM    2  C4  UNL     1       5.486 -70.376 -13.807  1.00  0.00     0.025 C 
HETATM    3  C5  UNL     1       5.257 -71.871 -14.074  1.00  0.00     0.009 C 
HETATM    4  C6  UNL     1       6.602 -72.527 -14.094  1.00  0.00     0.016 C 
HETATM    5  C11 UNL     1       7.371 -72.081 -15.318  1.00  0.00     0.009 C 
HETATM    6  C12 UNL     1       7.570 -70.580 -15.181  1.00  0.00     0.025 C 
ENDROOT
BRANCH   1   7
HETATM    7  N2  UNL     1       6.444 -68.471 -15.074  1.00  0.00    -0.392 N 
ATOM      8  H2  UNL     1       7.124 -68.082 -15.727  1.00  0.00     0.155 HD
BRANCH   7   9
HETATM    9  C2  UNL     1       5.671 -67.614 -14.259  1.00  0.00     0.273 C 
HETATM   10  C1  UNL     1       5.060 -66.556 -15.201  1.00  0.00     0.062 C 
BRANCH   9  11
HETATM   11  N1  UNL     1       6.425 -66.813 -13.305  1.00  0.00    -0.059 N 
ATOM     12  H13 UNL     1       6.490 -67.216 -12.370  1.00  0.00     0.276 HD
ATOM     13  H12 UNL     1       7.430 -66.783 -13.476  1.00  0.00     0.276 HD
ATOM     14  H11 UNL     1       5.960 -65.905 -13.346  1.00  0.00     0.276 HD
ENDBRANCH   9  11
ENDBRANCH   7   9
ENDBRANCH   1   7
BRANCH   4  15
HETATM   15  C7  UNL     1       6.579 -74.015 -13.943  1.00  0.00     0.190 C 
HETATM   16  C8  UNL     1       5.240 -74.558 -13.495  1.00  0.00     0.035 C 
HETATM   17  C9  UNL     1       5.616 -76.005 -13.177  1.00  0.00     0.029 C 
HETATM   18  C10 UNL     1       7.075 -75.935 -12.860  1.00  0.00     0.233 C 
HETATM   19  N3  UNL     1       7.466 -74.535 -12.942  1.00  0.00    -0.070 N 
ATOM     20  H32 UNL     1       8.457 -74.378 -13.127  1.00  0.00     0.277 HD
ATOM     21  H31 UNL     1       7.447 -74.033 -12.054  1.00  0.00     0.277 HD
ENDBRANCH   4  15
TORSDOF 4
ENDMDL
