MODEL 1
REMARK VINA RESULT: -4.816432324      0.000      0.000
REMARK  16 active torsions:
REMARK  status: ('A' for Active; 'I' for Inactive)
REMARK    1  A    between atoms: C2_2  and  C3_3 
REMARK    2  A    between atoms: C3_3  and  C4_4 
REMARK    3  A    between atoms: C4_4  and  C5_5 
REMARK    4  A    between atoms: C5_5  and  C6_6 
REMARK    5  A    between atoms: C6_6  and  O1_7 
REMARK    6  A    between atoms: C6_6  and  C8_11 
REMARK    7  A    between atoms: O1_7  and  C7_8 
REMARK    8  A    between atoms: C11_14  and  C12_15 
REMARK    9  A    between atoms: C12_15  and  C13_16 
REMARK   10  A    between atoms: C13_16  and  C14_17 
REMARK   11  A    between atoms: C14_17  and  C15_18 
REMARK   12  A    between atoms: C16_19  and  C17_20 
REMARK   13  A    between atoms: C17_20  and  C18_21 
REMARK   14  A    between atoms: C18_21  and  C19_22 
REMARK   15  A    between atoms: C19_22  and  C20_23 
REMARK       I    between atoms: C20_23  and  N2_25 
REMARK   16  A    between atoms: C25_30  and  O4_31 
ROOT
HETATM    1  C8  UNL     1      -3.509  -8.111  30.017  1.00  0.00     0.044 C 
HETATM    2  C9  UNL     1      -3.405  -9.107  28.908  1.00  0.00     0.010 C 
HETATM    3  C10 UNL     1      -1.917  -9.209  28.540  1.00  0.00     0.007 C 
HETATM    4  C11 UNL     1      -1.396  -7.887  29.075  1.00  0.00     0.015 C 
HETATM    5  C25 UNL     1      -2.070  -7.904  30.460  1.00  0.00     0.128 C 
ENDROOT
BRANCH   4   6
HETATM    6  C12 UNL     1       0.093  -7.865  29.191  1.00  0.00     0.007 C 
BRANCH   6   7
HETATM    7  C13 UNL     1       0.523  -6.487  29.596  1.00  0.00     0.004 C 
BRANCH   7   8
HETATM    8  C14 UNL     1       1.861  -6.508  30.332  1.00  0.00     0.027 C 
BRANCH   8   9
HETATM    9  C15 UNL     1       1.622  -7.199  31.632  1.00  0.00    -0.031 C 
HETATM   10  C16 UNL     1       2.591  -7.410  32.510  1.00  0.00    -0.031 C 
BRANCH  10  11
HETATM   11  C17 UNL     1       2.273  -8.105  33.780  1.00  0.00     0.027 C 
BRANCH  11  12
HETATM   12  C18 UNL     1       0.787  -8.309  33.869  1.00  0.00     0.013 C 
BRANCH  12  13
HETATM   13  C19 UNL     1       0.202  -7.560  35.017  1.00  0.00     0.103 C 
BRANCH  13  14
HETATM   14  C20 UNL     1      -0.836  -6.626  34.512  1.00  0.00     0.219 C 
HETATM   15  O3  UNL     1      -1.416  -6.885  33.432  1.00  0.00    -0.273 OA
HETATM   16  N2  UNL     1      -1.160  -5.463  35.250  1.00  0.00    -0.352 N 
HETATM   17  C21 UNL     1      -0.564  -5.054  36.504  1.00  0.00     0.126 C 
HETATM   18  C24 UNL     1      -2.165  -4.469  34.857  1.00  0.00     0.126 C 
HETATM   19  C22 UNL     1      -1.660  -4.256  37.201  1.00  0.00     0.021 C 
HETATM   20  C23 UNL     1      -2.386  -3.610  36.058  1.00  0.00     0.021 C 
ENDBRANCH  13  14
ENDBRANCH  12  13
ENDBRANCH  11  12
ENDBRANCH  10  11
ENDBRANCH   8   9
ENDBRANCH   7   8
ENDBRANCH   6   7
ENDBRANCH   4   6
BRANCH   5  21
HETATM   21  O4  UNL     1      -1.532  -8.984  31.126  1.00  0.00    -0.395 OA
ATOM     22  H4  UNL     1      -1.309  -9.713  30.558  1.00  0.00     0.210 HD
ENDBRANCH   5  21
BRANCH   1  23
HETATM   23  C6  UNL     1      -4.425  -8.470  31.134  1.00  0.00     0.140 C 
BRANCH  23  24
HETATM   24  C5  UNL     1      -5.423  -7.400  31.430  1.00  0.00     0.033 C 
BRANCH  24  25
HETATM   25  C4  UNL     1      -5.899  -7.548  32.855  1.00  0.00     0.006 C 
BRANCH  25  26
HETATM   26  C3  UNL     1      -4.893  -6.863  33.775  1.00  0.00     0.026 C 
BRANCH  26  27
HETATM   27  C2  UNL     1      -5.124  -7.279  35.182  1.00  0.00    -0.037 C 
HETATM   28  C1  UNL     1      -4.197  -7.209  36.126  1.00  0.00     0.007 C 
ENDBRANCH  26  27
ENDBRANCH  25  26
ENDBRANCH  24  25
ENDBRANCH  23  24
BRANCH  23  29
HETATM   29  O1  UNL     1      -5.011  -9.752  31.007  1.00  0.00    -0.300 OA
BRANCH  29  30
HETATM   30  C7  UNL     1      -4.588 -10.871  31.719  1.00  0.00     0.373 C 
HETATM   31  N1  UNL     1      -3.354 -11.528  31.463  1.00  0.00    -0.032 NA
HETATM   32  O2  UNL     1      -5.376 -11.266  32.610  1.00  0.00    -0.242 OA
ENDBRANCH  29  30
ENDBRANCH  23  29
ENDBRANCH   1  23
TORSDOF 16
ENDMDL
MODEL 2
REMARK VINA RESULT: -4.742210734      7.548     11.005
REMARK  16 active torsions:
REMARK  status: ('A' for Active; 'I' for Inactive)
REMARK    1  A    between atoms: C2_2  and  C3_3 
REMARK    2  A    between atoms: C3_3  and  C4_4 
REMARK    3  A    between atoms: C4_4  and  C5_5 
REMARK    4  A    between atoms: C5_5  and  C6_6 
REMARK    5  A    between atoms: C6_6  and  O1_7 
REMARK    6  A    between atoms: C6_6  and  C8_11 
REMARK    7  A    between atoms: O1_7  and  C7_8 
REMARK    8  A    between atoms: C11_14  and  C12_15 
REMARK    9  A    between atoms: C12_15  and  C13_16 
REMARK   10  A    between atoms: C13_16  and  C14_17 
REMARK   11  A    between atoms: C14_17  and  C15_18 
REMARK   12  A    between atoms: C16_19  and  C17_20 
REMARK   13  A    between atoms: C17_20  and  C18_21 
REMARK   14  A    between atoms: C18_21  and  C19_22 
REMARK   15  A    between atoms: C19_22  and  C20_23 
REMARK       I    between atoms: C20_23  and  N2_25 
REMARK   16  A    between atoms: C25_30  and  O4_31 
ROOT
HETATM    1  C8  UNL     1       2.566  -6.276  36.630  1.00  0.00     0.044 C 
HETATM    2  C9  UNL     1       2.298  -4.815  36.788  1.00  0.00     0.010 C 
HETATM    3  C10 UNL     1       1.159  -4.680  37.810  1.00  0.00     0.007 C 
HETATM    4  C11 UNL     1       0.525  -6.056  37.719  1.00  0.00     0.015 C 
HETATM    5  C25 UNL     1       1.802  -6.915  37.777  1.00  0.00     0.128 C 
ENDROOT
BRANCH   4   6
HETATM    6  C12 UNL     1      -0.382  -6.345  38.870  1.00  0.00     0.007 C 
BRANCH   6   7
HETATM    7  C13 UNL     1      -0.970  -7.711  38.687  1.00  0.00     0.004 C 
BRANCH   7   8
HETATM    8  C14 UNL     1      -0.722  -8.598  39.906  1.00  0.00     0.027 C 
BRANCH   8   9
HETATM    9  C15 UNL     1      -0.383  -7.685  41.036  1.00  0.00    -0.031 C 
HETATM   10  C16 UNL     1      -0.375  -8.092  42.297  1.00  0.00    -0.031 C 
BRANCH  10  11
HETATM   11  C17 UNL     1      -0.028  -7.124  43.364  1.00  0.00     0.027 C 
BRANCH  11  12
HETATM   12  C18 UNL     1       0.705  -7.843  44.461  1.00  0.00     0.013 C 
BRANCH  12  13
HETATM   13  C19 UNL     1       1.845  -7.032  44.976  1.00  0.00     0.103 C 
BRANCH  13  14
HETATM   14  C20 UNL     1       2.009  -7.290  46.430  1.00  0.00     0.219 C 
HETATM   15  O3  UNL     1       0.991  -7.350  47.156  1.00  0.00    -0.273 OA
HETATM   16  N2  UNL     1       3.303  -7.463  46.975  1.00  0.00    -0.352 N 
HETATM   17  C21 UNL     1       4.551  -7.416  46.243  1.00  0.00     0.126 C 
HETATM   18  C24 UNL     1       3.593  -7.724  48.389  1.00  0.00     0.126 C 
HETATM   19  C22 UNL     1       5.486  -8.327  47.030  1.00  0.00     0.021 C 
HETATM   20  C23 UNL     1       5.025  -8.143  48.446  1.00  0.00     0.021 C 
ENDBRANCH  13  14
ENDBRANCH  12  13
ENDBRANCH  11  12
ENDBRANCH  10  11
ENDBRANCH   8   9
ENDBRANCH   7   8
ENDBRANCH   6   7
ENDBRANCH   4   6
BRANCH   5  21
HETATM   21  O4  UNL     1       2.357  -6.678  39.016  1.00  0.00    -0.395 OA
ATOM     22  H4  UNL     1       1.781  -6.888  39.742  1.00  0.00     0.210 HD
ENDBRANCH   5  21
BRANCH   1  23
HETATM   23  C6  UNL     1       4.000  -6.675  36.580  1.00  0.00     0.140 C 
BRANCH  23  24
HETATM   24  C5  UNL     1       4.506  -6.837  35.185  1.00  0.00     0.033 C 
BRANCH  24  25
HETATM   25  C4  UNL     1       3.776  -7.980  34.524  1.00  0.00     0.006 C 
BRANCH  25  26
HETATM   26  C3  UNL     1       3.327  -7.531  33.136  1.00  0.00     0.026 C 
BRANCH  26  27
HETATM   27  C2  UNL     1       1.845  -7.492  33.067  1.00  0.00    -0.037 C 
HETATM   28  C1  UNL     1       1.059  -8.283  33.782  1.00  0.00     0.007 C 
ENDBRANCH  26  27
ENDBRANCH  25  26
ENDBRANCH  24  25
ENDBRANCH  23  24
BRANCH  23  29
HETATM   29  O1  UNL     1       4.847  -5.877  37.385  1.00  0.00    -0.300 OA
BRANCH  29  30
HETATM   30  C7  UNL     1       5.745  -6.395  38.314  1.00  0.00     0.373 C 
HETATM   31  N1  UNL     1       5.354  -7.280  39.356  1.00  0.00    -0.032 NA
HETATM   32  O2  UNL     1       6.934  -6.026  38.171  1.00  0.00    -0.242 OA
ENDBRANCH  29  30
ENDBRANCH  23  29
ENDBRANCH   1  23
TORSDOF 16
ENDMDL
MODEL 3
REMARK VINA RESULT: -4.705817856      1.441      2.078
REMARK  16 active torsions:
REMARK  status: ('A' for Active; 'I' for Inactive)
REMARK    1  A    between atoms: C2_2  and  C3_3 
REMARK    2  A    between atoms: C3_3  and  C4_4 
REMARK    3  A    between atoms: C4_4  and  C5_5 
REMARK    4  A    between atoms: C5_5  and  C6_6 
REMARK    5  A    between atoms: C6_6  and  O1_7 
REMARK    6  A    between atoms: C6_6  and  C8_11 
REMARK    7  A    between atoms: O1_7  and  C7_8 
REMARK    8  A    between atoms: C11_14  and  C12_15 
REMARK    9  A    between atoms: C12_15  and  C13_16 
REMARK   10  A    between atoms: C13_16  and  C14_17 
REMARK   11  A    between atoms: C14_17  and  C15_18 
REMARK   12  A    between atoms: C16_19  and  C17_20 
REMARK   13  A    between atoms: C17_20  and  C18_21 
REMARK   14  A    between atoms: C18_21  and  C19_22 
REMARK   15  A    between atoms: C19_22  and  C20_23 
REMARK       I    between atoms: C20_23  and  N2_25 
REMARK   16  A    between atoms: C25_30  and  O4_31 
ROOT
HETATM    1  C8  UNL     1      -3.297  -8.214  30.145  1.00  0.00     0.044 C 
HETATM    2  C9  UNL     1      -3.852  -8.120  28.761  1.00  0.00     0.010 C 
HETATM    3  C10 UNL     1      -2.774  -8.664  27.812  1.00  0.00     0.007 C 
HETATM    4  C11 UNL     1      -1.529  -8.499  28.664  1.00  0.00     0.015 C 
HETATM    5  C25 UNL     1      -2.062  -9.084  29.986  1.00  0.00     0.128 C 
ENDROOT
BRANCH   4   6
HETATM    6  C12 UNL     1      -0.372  -9.288  28.144  1.00  0.00     0.007 C 
BRANCH   6   7
HETATM    7  C13 UNL     1       0.835  -8.400  28.105  1.00  0.00     0.004 C 
BRANCH   7   8
HETATM    8  C14 UNL     1       0.568  -7.056  28.782  1.00  0.00     0.027 C 
BRANCH   8   9
HETATM    9  C15 UNL     1       1.598  -6.906  29.851  1.00  0.00    -0.031 C 
HETATM   10  C16 UNL     1       1.391  -7.314  31.095  1.00  0.00    -0.031 C 
BRANCH  10  11
HETATM   11  C17 UNL     1       2.463  -7.129  32.101  1.00  0.00     0.027 C 
BRANCH  11  12
HETATM   12  C18 UNL     1       2.099  -7.879  33.351  1.00  0.00     0.013 C 
BRANCH  12  13
HETATM   13  C19 UNL     1       0.643  -8.194  33.392  1.00  0.00     0.103 C 
BRANCH  13  14
HETATM   14  C20 UNL     1      -0.007  -7.362  34.437  1.00  0.00     0.219 C 
HETATM   15  O3  UNL     1       0.362  -7.482  35.628  1.00  0.00    -0.273 OA
HETATM   16  N2  UNL     1      -1.027  -6.449  34.080  1.00  0.00    -0.352 N 
HETATM   17  C21 UNL     1      -1.539  -6.219  32.745  1.00  0.00     0.126 C 
HETATM   18  C24 UNL     1      -1.739  -5.574  35.017  1.00  0.00     0.126 C 
HETATM   19  C22 UNL     1      -2.009  -4.769  32.765  1.00  0.00     0.021 C 
HETATM   20  C23 UNL     1      -2.479  -4.585  34.177  1.00  0.00     0.021 C 
ENDBRANCH  13  14
ENDBRANCH  12  13
ENDBRANCH  11  12
ENDBRANCH  10  11
ENDBRANCH   8   9
ENDBRANCH   7   8
ENDBRANCH   6   7
ENDBRANCH   4   6
BRANCH   5  21
HETATM   21  O4  UNL     1      -2.342 -10.407  29.725  1.00  0.00    -0.395 OA
ATOM     22  H4  UNL     1      -1.995 -11.009  30.372  1.00  0.00     0.210 HD
ENDBRANCH   5  21
BRANCH   1  23
HETATM   23  C6  UNL     1      -4.234  -8.705  31.193  1.00  0.00     0.140 C 
BRANCH  23  24
HETATM   24  C5  UNL     1      -5.312  -7.721  31.511  1.00  0.00     0.033 C 
BRANCH  24  25
HETATM   25  C4  UNL     1      -5.027  -7.094  32.854  1.00  0.00     0.006 C 
BRANCH  25  26
HETATM   26  C3  UNL     1      -5.883  -7.791  33.907  1.00  0.00     0.026 C 
BRANCH  26  27
HETATM   27  C2  UNL     1      -7.280  -7.290  33.841  1.00  0.00    -0.037 C 
HETATM   28  C1  UNL     1      -8.266  -7.779  34.578  1.00  0.00     0.007 C 
ENDBRANCH  26  27
ENDBRANCH  25  26
ENDBRANCH  24  25
ENDBRANCH  23  24
BRANCH  23  29
HETATM   29  O1  UNL     1      -4.731 -10.009  30.955  1.00  0.00    -0.300 OA
BRANCH  29  30
HETATM   30  C7  UNL     1      -4.697 -11.033  31.895  1.00  0.00     0.373 C 
HETATM   31  N1  UNL     1      -5.635 -11.135  32.960  1.00  0.00    -0.032 NA
HETATM   32  O2  UNL     1      -3.777 -11.871  31.742  1.00  0.00    -0.242 OA
ENDBRANCH  29  30
ENDBRANCH  23  29
ENDBRANCH   1  23
TORSDOF 16
ENDMDL
MODEL 4
REMARK VINA RESULT: -4.565089933      1.928      5.481
REMARK  16 active torsions:
REMARK  status: ('A' for Active; 'I' for Inactive)
REMARK    1  A    between atoms: C2_2  and  C3_3 
REMARK    2  A    between atoms: C3_3  and  C4_4 
REMARK    3  A    between atoms: C4_4  and  C5_5 
REMARK    4  A    between atoms: C5_5  and  C6_6 
REMARK    5  A    between atoms: C6_6  and  O1_7 
REMARK    6  A    between atoms: C6_6  and  C8_11 
REMARK    7  A    between atoms: O1_7  and  C7_8 
REMARK    8  A    between atoms: C11_14  and  C12_15 
REMARK    9  A    between atoms: C12_15  and  C13_16 
REMARK   10  A    between atoms: C13_16  and  C14_17 
REMARK   11  A    between atoms: C14_17  and  C15_18 
REMARK   12  A    between atoms: C16_19  and  C17_20 
REMARK   13  A    between atoms: C17_20  and  C18_21 
REMARK   14  A    between atoms: C18_21  and  C19_22 
REMARK   15  A    between atoms: C19_22  and  C20_23 
REMARK       I    between atoms: C20_23  and  N2_25 
REMARK   16  A    between atoms: C25_30  and  O4_31 
ROOT
HETATM    1  C8  UNL     1      -3.574  -6.724  30.571  1.00  0.00     0.044 C 
HETATM    2  C9  UNL     1      -2.974  -5.413  30.963  1.00  0.00     0.010 C 
HETATM    3  C10 UNL     1      -3.852  -4.840  32.086  1.00  0.00     0.007 C 
HETATM    4  C11 UNL     1      -5.151  -5.589  31.847  1.00  0.00     0.015 C 
HETATM    5  C25 UNL     1      -4.581  -7.010  31.672  1.00  0.00     0.128 C 
ENDROOT
BRANCH   4   6
HETATM    6  C12 UNL     1      -6.078  -5.512  33.015  1.00  0.00     0.007 C 
BRANCH   6   7
HETATM    7  C13 UNL     1      -7.322  -6.284  32.693  1.00  0.00     0.004 C 
BRANCH   7   8
HETATM    8  C14 UNL     1      -7.860  -7.020  33.919  1.00  0.00     0.027 C 
BRANCH   8   9
HETATM    9  C15 UNL     1      -6.760  -7.032  34.926  1.00  0.00    -0.031 C 
HETATM   10  C16 UNL     1      -6.951  -6.670  36.187  1.00  0.00    -0.031 C 
BRANCH  10  11
HETATM   11  C17 UNL     1      -5.806  -6.708  37.127  1.00  0.00     0.027 C 
BRANCH  11  12
HETATM   12  C18 UNL     1      -4.566  -7.101  36.376  1.00  0.00     0.013 C 
BRANCH  12  13
HETATM   13  C19 UNL     1      -3.605  -5.965  36.281  1.00  0.00     0.103 C 
BRANCH  13  14
HETATM   14  C20 UNL     1      -2.257  -6.493  35.947  1.00  0.00     0.219 C 
HETATM   15  O3  UNL     1      -1.988  -6.763  34.754  1.00  0.00    -0.273 OA
HETATM   16  N2  UNL     1      -1.299  -6.683  36.970  1.00  0.00    -0.352 N 
HETATM   17  C21 UNL     1      -1.489  -6.410  38.379  1.00  0.00     0.126 C 
HETATM   18  C24 UNL     1       0.061  -7.194  36.766  1.00  0.00     0.126 C 
HETATM   19  C22 UNL     1      -0.093  -6.073  38.890  1.00  0.00     0.021 C 
HETATM   20  C23 UNL     1       0.795  -6.931  38.039  1.00  0.00     0.021 C 
ENDBRANCH  13  14
ENDBRANCH  12  13
ENDBRANCH  11  12
ENDBRANCH  10  11
ENDBRANCH   8   9
ENDBRANCH   7   8
ENDBRANCH   6   7
ENDBRANCH   4   6
BRANCH   5  21
HETATM   21  O4  UNL     1      -4.007  -7.335  32.882  1.00  0.00    -0.395 OA
ATOM     22  H4  UNL     1      -4.517  -7.948  33.398  1.00  0.00     0.210 HD
ENDBRANCH   5  21
BRANCH   1  23
HETATM   23  C6  UNL     1      -2.615  -7.840  30.344  1.00  0.00     0.140 C 
BRANCH  23  24
HETATM   24  C5  UNL     1      -1.191  -7.422  30.516  1.00  0.00     0.033 C 
BRANCH  24  25
HETATM   25  C4  UNL     1      -0.601  -8.154  31.697  1.00  0.00     0.006 C 
BRANCH  25  26
HETATM   26  C3  UNL     1       0.628  -7.388  32.177  1.00  0.00     0.026 C 
BRANCH  26  27
HETATM   27  C2  UNL     1       1.234  -8.076  33.345  1.00  0.00    -0.037 C 
HETATM   28  C1  UNL     1       2.511  -7.962  33.678  1.00  0.00     0.007 C 
ENDBRANCH  26  27
ENDBRANCH  25  26
ENDBRANCH  24  25
ENDBRANCH  23  24
BRANCH  23  29
HETATM   29  O1  UNL     1      -2.932  -9.024  31.053  1.00  0.00    -0.300 OA
BRANCH  29  30
HETATM   30  C7  UNL     1      -3.431 -10.175  30.451  1.00  0.00     0.373 C 
HETATM   31  N1  UNL     1      -4.067 -10.169  29.180  1.00  0.00    -0.032 NA
HETATM   32  O2  UNL     1      -3.281 -11.231  31.111  1.00  0.00    -0.242 OA
ENDBRANCH  29  30
ENDBRANCH  23  29
ENDBRANCH   1  23
TORSDOF 16
ENDMDL
MODEL 5
REMARK VINA RESULT: -4.490192471      7.371     10.877
REMARK  16 active torsions:
REMARK  status: ('A' for Active; 'I' for Inactive)
REMARK    1  A    between atoms: C2_2  and  C3_3 
REMARK    2  A    between atoms: C3_3  and  C4_4 
REMARK    3  A    between atoms: C4_4  and  C5_5 
REMARK    4  A    between atoms: C5_5  and  C6_6 
REMARK    5  A    between atoms: C6_6  and  O1_7 
REMARK    6  A    between atoms: C6_6  and  C8_11 
REMARK    7  A    between atoms: O1_7  and  C7_8 
REMARK    8  A    between atoms: C11_14  and  C12_15 
REMARK    9  A    between atoms: C12_15  and  C13_16 
REMARK   10  A    between atoms: C13_16  and  C14_17 
REMARK   11  A    between atoms: C14_17  and  C15_18 
REMARK   12  A    between atoms: C16_19  and  C17_20 
REMARK   13  A    between atoms: C17_20  and  C18_21 
REMARK   14  A    between atoms: C18_21  and  C19_22 
REMARK   15  A    between atoms: C19_22  and  C20_23 
REMARK       I    between atoms: C20_23  and  N2_25 
REMARK   16  A    between atoms: C25_30  and  O4_31 
ROOT
HETATM    1  C8  UNL     1       0.043  -6.815  37.589  1.00  0.00     0.044 C 
HETATM    2  C9  UNL     1      -0.151  -5.575  38.400  1.00  0.00     0.010 C 
HETATM    3  C10 UNL     1      -0.625  -6.023  39.791  1.00  0.00     0.007 C 
HETATM    4  C11 UNL     1      -1.180  -7.401  39.477  1.00  0.00     0.015 C 
HETATM    5  C25 UNL     1      -0.023  -7.936  38.612  1.00  0.00     0.128 C 
ENDROOT
BRANCH   4   6
HETATM    6  C12 UNL     1      -1.377  -8.231  40.703  1.00  0.00     0.007 C 
BRANCH   6   7
HETATM    7  C13 UNL     1      -2.705  -7.888  41.307  1.00  0.00     0.004 C 
BRANCH   7   8
HETATM    8  C14 UNL     1      -2.564  -7.458  42.767  1.00  0.00     0.027 C 
BRANCH   8   9
HETATM    9  C15 UNL     1      -1.115  -7.568  43.106  1.00  0.00    -0.031 C 
HETATM   10  C16 UNL     1      -0.668  -7.453  44.348  1.00  0.00    -0.031 C 
BRANCH  10  11
HETATM   11  C17 UNL     1       0.786  -7.575  44.603  1.00  0.00     0.027 C 
BRANCH  11  12
HETATM   12  C18 UNL     1       1.452  -6.266  44.286  1.00  0.00     0.013 C 
BRANCH  12  13
HETATM   13  C19 UNL     1       2.340  -5.823  45.399  1.00  0.00     0.103 C 
BRANCH  13  14
HETATM   14  C20 UNL     1       3.715  -6.327  45.155  1.00  0.00     0.219 C 
HETATM   15  O3  UNL     1       4.335  -5.940  44.138  1.00  0.00    -0.273 OA
HETATM   16  N2  UNL     1       4.308  -7.231  46.068  1.00  0.00    -0.352 N 
HETATM   17  C21 UNL     1       3.698  -7.751  47.273  1.00  0.00     0.126 C 
HETATM   18  C24 UNL     1       5.656  -7.796  45.938  1.00  0.00     0.126 C 
HETATM   19  C22 UNL     1       4.874  -8.029  48.202  1.00  0.00     0.021 C 
HETATM   20  C23 UNL     1       5.967  -8.427  47.255  1.00  0.00     0.021 C 
ENDBRANCH  13  14
ENDBRANCH  12  13
ENDBRANCH  11  12
ENDBRANCH  10  11
ENDBRANCH   8   9
ENDBRANCH   7   8
ENDBRANCH   6   7
ENDBRANCH   4   6
BRANCH   5  21
HETATM   21  O4  UNL     1       1.073  -7.993  39.447  1.00  0.00    -0.395 OA
ATOM     22  H4  UNL     1       1.047  -8.713  40.066  1.00  0.00     0.210 HD
ENDBRANCH   5  21
BRANCH   1  23
HETATM   23  C6  UNL     1       1.268  -6.857  36.744  1.00  0.00     0.140 C 
BRANCH  23  24
HETATM   24  C5  UNL     1       0.995  -6.527  35.314  1.00  0.00     0.033 C 
BRANCH  24  25
HETATM   25  C4  UNL     1       0.536  -7.773  34.597  1.00  0.00     0.006 C 
BRANCH  25  26
HETATM   26  C3  UNL     1       1.416  -7.978  33.368  1.00  0.00     0.026 C 
BRANCH  26  27
HETATM   27  C2  UNL     1       2.842  -8.071  33.772  1.00  0.00    -0.037 C 
HETATM   28  C1  UNL     1       3.835  -7.542  33.073  1.00  0.00     0.007 C 
ENDBRANCH  26  27
ENDBRANCH  25  26
ENDBRANCH  24  25
ENDBRANCH  23  24
BRANCH  23  29
HETATM   29  O1  UNL     1       2.360  -6.133  37.279  1.00  0.00    -0.300 OA
BRANCH  29  30
HETATM   30  C7  UNL     1       3.599  -6.700  37.563  1.00  0.00     0.373 C 
HETATM   31  N1  UNL     1       4.670  -6.725  36.629  1.00  0.00    -0.032 NA
HETATM   32  O2  UNL     1       3.710  -7.194  38.711  1.00  0.00    -0.242 OA
ENDBRANCH  29  30
ENDBRANCH  23  29
ENDBRANCH   1  23
TORSDOF 16
ENDMDL
