MODEL 1
REMARK VINA RESULT: -8.031600704      0.000      0.000
REMARK  9 active torsions:
REMARK  status: ('A' for Active; 'I' for Inactive)
REMARK    1  A    between atoms: C2_2  and  N1_3 
REMARK    2  A    between atoms: N1_3  and  C3_5 
REMARK    3  A    between atoms: C5_7  and  C6_8 
REMARK    4  A    between atoms: C7_9  and  C8_10 
REMARK    5  A    between atoms: C10_12  and  O1_13 
REMARK    6  A    between atoms: C12_15  and  O2_16 
REMARK    7  A    between atoms: C14_18  and  O3_19 
REMARK    8  A    between atoms: C19_26  and  O4_27 
REMARK    9  A    between atoms: C21_29  and  O5_30 
ROOT
HETATM    1  C3  UNL     1     -30.907  46.314  63.325  1.00  0.00     0.042 A 
HETATM    2  C4  UNL     1     -31.760  45.350  63.834  1.00  0.00     0.059 A 
HETATM    3  C5  UNL     1     -31.407  44.023  63.897  1.00  0.00     0.034 A 
HETATM    4  N2  UNL     1     -30.173  43.716  63.430  1.00  0.00    -0.355 N 
ATOM      5  H2  UNL     1     -29.881  42.739  63.464  1.00  0.00     0.166 HD
HETATM    6  C17 UNL     1     -29.309  44.609  62.928  1.00  0.00     0.048 A 
HETATM    7  C18 UNL     1     -28.061  44.268  62.461  1.00  0.00     0.070 A 
HETATM    8  C19 UNL     1     -27.179  45.192  61.945  1.00  0.00     0.103 A 
HETATM    9  C21 UNL     1     -27.565  46.518  61.896  1.00  0.00     0.102 A 
HETATM   10  C23 UNL     1     -28.809  46.896  62.356  1.00  0.00     0.055 A 
HETATM   11  C24 UNL     1     -29.670  45.940  62.868  1.00  0.00     0.020 A 
ENDROOT
BRANCH   3  12
HETATM   12  C6  UNL     1     -32.270  42.970  64.422  1.00  0.00     0.030 C 
HETATM   13  C7  UNL     1     -32.112  42.443  65.621  1.00  0.00     0.014 C 
BRANCH  13  14
HETATM   14  C8  UNL     1     -32.958  41.404  66.147  1.00  0.00    -0.031 A 
HETATM   15  C9  UNL     1     -34.154  41.750  66.744  1.00  0.00     0.051 A 
HETATM   16  C10 UNL     1     -34.990  40.778  67.261  1.00  0.00     0.105 A 
HETATM   17  C12 UNL     1     -34.639  39.449  67.188  1.00  0.00     0.135 A 
HETATM   18  C14 UNL     1     -33.445  39.073  66.596  1.00  0.00     0.105 A 
HETATM   19  C16 UNL     1     -32.626  40.088  66.082  1.00  0.00     0.051 A 
BRANCH  16  20
HETATM   20  O1  UNL     1     -36.204  41.077  67.871  1.00  0.00    -0.353 OA
HETATM   21  C11 UNL     1     -36.426  42.420  68.251  1.00  0.00     0.210 C 
ENDBRANCH  16  20
BRANCH  17  22
HETATM   22  O2  UNL     1     -35.467  38.443  67.705  1.00  0.00    -0.351 OA
HETATM   23  C13 UNL     1     -36.230  37.697  66.786  1.00  0.00     0.210 C 
ENDBRANCH  17  22
BRANCH  18  24
HETATM   24  O3  UNL     1     -33.049  37.773  66.496  1.00  0.00    -0.353 OA
HETATM   25  C15 UNL     1     -31.755  37.268  66.515  1.00  0.00     0.210 C 
ENDBRANCH  18  24
ENDBRANCH  13  14
ENDBRANCH   3  12
BRANCH   1  26
HETATM   26  N1  UNL     1     -31.249  47.559  63.271  1.00  0.00    -0.389 N 
ATOM     27  H1  UNL     1     -31.212  48.078  62.394  1.00  0.00     0.159 HD
BRANCH  26  28
HETATM   28  C2  UNL     1     -31.686  48.191  64.493  1.00  0.00     0.115 C 
HETATM   29  C1  UNL     1     -30.541  48.934  65.164  1.00  0.00     0.026 C 
ENDBRANCH  26  28
ENDBRANCH   1  26
BRANCH   8  30
HETATM   30  O4  UNL     1     -25.925  44.849  61.475  1.00  0.00    -0.353 OA
HETATM   31  C20 UNL     1     -25.228  43.689  61.856  1.00  0.00     0.210 C 
ENDBRANCH   8  30
BRANCH   9  32
HETATM   32  O5  UNL     1     -26.719  47.489  61.389  1.00  0.00    -0.353 OA
HETATM   33  C22 UNL     1     -26.737  47.916  60.062  1.00  0.00     0.210 C 
ENDBRANCH   9  32
TORSDOF 9
ENDMDL
MODEL 2
REMARK VINA RESULT: -8.001489258      0.148      2.333
REMARK  9 active torsions:
REMARK  status: ('A' for Active; 'I' for Inactive)
REMARK    1  A    between atoms: C2_2  and  N1_3 
REMARK    2  A    between atoms: N1_3  and  C3_5 
REMARK    3  A    between atoms: C5_7  and  C6_8 
REMARK    4  A    between atoms: C7_9  and  C8_10 
REMARK    5  A    between atoms: C10_12  and  O1_13 
REMARK    6  A    between atoms: C12_15  and  O2_16 
REMARK    7  A    between atoms: C14_18  and  O3_19 
REMARK    8  A    between atoms: C19_26  and  O4_27 
REMARK    9  A    between atoms: C21_29  and  O5_30 
ROOT
HETATM    1  C3  UNL     1     -30.891  46.332  63.319  1.00  0.00     0.042 A 
HETATM    2  C4  UNL     1     -31.756  45.374  63.819  1.00  0.00     0.059 A 
HETATM    3  C5  UNL     1     -31.417  44.043  63.875  1.00  0.00     0.034 A 
HETATM    4  N2  UNL     1     -30.184  43.726  63.412  1.00  0.00    -0.355 N 
ATOM      5  H2  UNL     1     -29.902  42.746  63.441  1.00  0.00     0.166 HD
HETATM    6  C17 UNL     1     -29.308  44.613  62.919  1.00  0.00     0.048 A 
HETATM    7  C18 UNL     1     -28.062  44.262  62.456  1.00  0.00     0.070 A 
HETATM    8  C19 UNL     1     -27.168  45.179  61.949  1.00  0.00     0.103 A 
HETATM    9  C21 UNL     1     -27.540  46.510  61.907  1.00  0.00     0.102 A 
HETATM   10  C23 UNL     1     -28.782  46.898  62.363  1.00  0.00     0.055 A 
HETATM   11  C24 UNL     1     -29.656  45.949  62.865  1.00  0.00     0.020 A 
ENDROOT
BRANCH   3  12
HETATM   12  C6  UNL     1     -32.293  42.996  64.390  1.00  0.00     0.030 C 
HETATM   13  C7  UNL     1     -32.226  42.548  65.629  1.00  0.00     0.014 C 
BRANCH  13  14
HETATM   14  C8  UNL     1     -33.086  41.515  66.145  1.00  0.00    -0.031 A 
HETATM   15  C9  UNL     1     -32.759  40.193  65.917  1.00  0.00     0.051 A 
HETATM   16  C10 UNL     1     -33.562  39.176  66.396  1.00  0.00     0.105 A 
HETATM   17  C12 UNL     1     -34.703  39.469  67.109  1.00  0.00     0.135 A 
HETATM   18  C14 UNL     1     -35.056  40.785  67.352  1.00  0.00     0.105 A 
HETATM   19  C16 UNL     1     -34.215  41.788  66.851  1.00  0.00     0.051 A 
BRANCH  16  20
HETATM   20  O1  UNL     1     -33.273  37.830  66.192  1.00  0.00    -0.353 OA
HETATM   21  C11 UNL     1     -32.039  37.350  66.682  1.00  0.00     0.210 C 
ENDBRANCH  16  20
BRANCH  17  22
HETATM   22  O2  UNL     1     -35.535  38.457  67.606  1.00  0.00    -0.351 OA
HETATM   23  C13 UNL     1     -36.344  37.771  66.680  1.00  0.00     0.210 C 
ENDBRANCH  17  22
BRANCH  18  24
HETATM   24  O3  UNL     1     -36.173  41.131  68.052  1.00  0.00    -0.353 OA
HETATM   25  C15 UNL     1     -36.562  42.397  68.473  1.00  0.00     0.210 C 
ENDBRANCH  18  24
ENDBRANCH  13  14
ENDBRANCH   3  12
BRANCH   1  26
HETATM   26  N1  UNL     1     -31.220  47.581  63.271  1.00  0.00    -0.389 N 
ATOM     27  H1  UNL     1     -31.214  48.093  62.390  1.00  0.00     0.159 HD
BRANCH  26  28
HETATM   28  C2  UNL     1     -31.596  48.226  64.506  1.00  0.00     0.115 C 
HETATM   29  C1  UNL     1     -30.386  48.843  65.192  1.00  0.00     0.026 C 
ENDBRANCH  26  28
ENDBRANCH   1  26
BRANCH   8  30
HETATM   30  O4  UNL     1     -25.916  44.827  61.483  1.00  0.00    -0.353 OA
HETATM   31  C20 UNL     1     -25.219  43.674  61.885  1.00  0.00     0.210 C 
ENDBRANCH   8  30
BRANCH   9  32
HETATM   32  O5  UNL     1     -26.682  47.475  61.409  1.00  0.00    -0.353 OA
HETATM   33  C22 UNL     1     -26.689  47.910  60.084  1.00  0.00     0.210 C 
ENDBRANCH   9  32
TORSDOF 9
ENDMDL
MODEL 3
REMARK VINA RESULT: -7.957698870      1.287      1.799
REMARK  9 active torsions:
REMARK  status: ('A' for Active; 'I' for Inactive)
REMARK    1  A    between atoms: C2_2  and  N1_3 
REMARK    2  A    between atoms: N1_3  and  C3_5 
REMARK    3  A    between atoms: C5_7  and  C6_8 
REMARK    4  A    between atoms: C7_9  and  C8_10 
REMARK    5  A    between atoms: C10_12  and  O1_13 
REMARK    6  A    between atoms: C12_15  and  O2_16 
REMARK    7  A    between atoms: C14_18  and  O3_19 
REMARK    8  A    between atoms: C19_26  and  O4_27 
REMARK    9  A    between atoms: C21_29  and  O5_30 
ROOT
HETATM    1  C3  UNL     1     -30.890  46.319  63.345  1.00  0.00     0.042 A 
HETATM    2  C4  UNL     1     -31.745  45.357  63.853  1.00  0.00     0.059 A 
HETATM    3  C5  UNL     1     -31.398  44.028  63.910  1.00  0.00     0.034 A 
HETATM    4  N2  UNL     1     -30.166  43.718  63.439  1.00  0.00    -0.355 N 
ATOM      5  H2  UNL     1     -29.878  42.740  63.468  1.00  0.00     0.166 HD
HETATM    6  C17 UNL     1     -29.299  44.609  62.937  1.00  0.00     0.048 A 
HETATM    7  C18 UNL     1     -28.055  44.265  62.465  1.00  0.00     0.070 A 
HETATM    8  C19 UNL     1     -27.171  45.187  61.949  1.00  0.00     0.103 A 
HETATM    9  C21 UNL     1     -27.551  46.514  61.907  1.00  0.00     0.102 A 
HETATM   10  C23 UNL     1     -28.792  46.896  62.372  1.00  0.00     0.055 A 
HETATM   11  C24 UNL     1     -29.656  45.942  62.883  1.00  0.00     0.020 A 
ENDROOT
BRANCH   3  12
HETATM   12  C6  UNL     1     -32.263  42.977  64.434  1.00  0.00     0.030 C 
HETATM   13  C7  UNL     1     -32.089  42.428  65.621  1.00  0.00     0.014 C 
BRANCH  13  14
HETATM   14  C8  UNL     1     -32.937  41.390  66.146  1.00  0.00    -0.031 A 
HETATM   15  C9  UNL     1     -33.817  40.748  65.296  1.00  0.00     0.051 A 
HETATM   16  C10 UNL     1     -34.647  39.749  65.766  1.00  0.00     0.105 A 
HETATM   17  C12 UNL     1     -34.608  39.379  67.092  1.00  0.00     0.135 A 
HETATM   18  C14 UNL     1     -33.737  40.006  67.967  1.00  0.00     0.105 A 
HETATM   19  C16 UNL     1     -32.910  41.014  67.451  1.00  0.00     0.051 A 
BRANCH  16  20
HETATM   20  O1  UNL     1     -35.548  39.073  64.949  1.00  0.00    -0.353 OA
HETATM   21  C11 UNL     1     -35.448  39.288  63.557  1.00  0.00     0.210 C 
ENDBRANCH  16  20
BRANCH  17  22
HETATM   22  O2  UNL     1     -35.439  38.369  67.595  1.00  0.00    -0.351 OA
HETATM   23  C13 UNL     1     -34.939  37.053  67.584  1.00  0.00     0.210 C 
ENDBRANCH  17  22
BRANCH  18  24
HETATM   24  O3  UNL     1     -33.657  39.680  69.288  1.00  0.00    -0.353 OA
HETATM   25  C15 UNL     1     -33.328  40.506  70.355  1.00  0.00     0.210 C 
ENDBRANCH  18  24
ENDBRANCH  13  14
ENDBRANCH   3  12
BRANCH   1  26
HETATM   26  N1  UNL     1     -31.227  47.566  63.296  1.00  0.00    -0.389 N 
ATOM     27  H1  UNL     1     -31.226  48.077  62.414  1.00  0.00     0.159 HD
BRANCH  26  28
HETATM   28  C2  UNL     1     -31.605  48.210  64.531  1.00  0.00     0.115 C 
HETATM   29  C1  UNL     1     -30.410  48.893  65.180  1.00  0.00     0.026 C 
ENDBRANCH  26  28
ENDBRANCH   1  26
BRANCH   8  30
HETATM   30  O4  UNL     1     -25.920  44.841  61.475  1.00  0.00    -0.353 OA
HETATM   31  C20 UNL     1     -25.202  43.706  61.893  1.00  0.00     0.210 C 
ENDBRANCH   8  30
BRANCH   9  32
HETATM   32  O5  UNL     1     -26.703  47.484  61.400  1.00  0.00    -0.353 OA
HETATM   33  C22 UNL     1     -26.740  47.934  60.081  1.00  0.00     0.210 C 
ENDBRANCH   9  32
TORSDOF 9
ENDMDL
MODEL 4
REMARK VINA RESULT: -7.830928469      2.253      9.553
REMARK  9 active torsions:
REMARK  status: ('A' for Active; 'I' for Inactive)
REMARK    1  A    between atoms: C2_2  and  N1_3 
REMARK    2  A    between atoms: N1_3  and  C3_5 
REMARK    3  A    between atoms: C5_7  and  C6_8 
REMARK    4  A    between atoms: C7_9  and  C8_10 
REMARK    5  A    between atoms: C10_12  and  O1_13 
REMARK    6  A    between atoms: C12_15  and  O2_16 
REMARK    7  A    between atoms: C14_18  and  O3_19 
REMARK    8  A    between atoms: C19_26  and  O4_27 
REMARK    9  A    between atoms: C21_29  and  O5_30 
ROOT
HETATM    1  C3  UNL     1     -34.669  41.563  67.024  1.00  0.00     0.042 A 
HETATM    2  C4  UNL     1     -34.018  42.630  66.429  1.00  0.00     0.059 A 
HETATM    3  C5  UNL     1     -32.783  42.496  65.842  1.00  0.00     0.034 A 
HETATM    4  N2  UNL     1     -32.240  41.254  65.882  1.00  0.00    -0.355 N 
ATOM      5  H2  UNL     1     -31.324  41.122  65.454  1.00  0.00     0.166 HD
HETATM    6  C17 UNL     1     -32.827  40.189  66.444  1.00  0.00     0.048 A 
HETATM    7  C18 UNL     1     -32.252  38.940  66.470  1.00  0.00     0.070 A 
HETATM    8  C19 UNL     1     -32.861  37.849  67.051  1.00  0.00     0.103 A 
HETATM    9  C21 UNL     1     -34.103  38.018  67.632  1.00  0.00     0.102 A 
HETATM   10  C23 UNL     1     -34.710  39.257  67.625  1.00  0.00     0.055 A 
HETATM   11  C24 UNL     1     -34.068  40.331  67.032  1.00  0.00     0.020 A 
ENDROOT
BRANCH   3  12
HETATM   12  C6  UNL     1     -32.056  43.588  65.204  1.00  0.00     0.030 C 
HETATM   13  C7  UNL     1     -30.754  43.558  64.992  1.00  0.00     0.014 C 
BRANCH  13  14
HETATM   14  C8  UNL     1     -30.029  44.631  64.364  1.00  0.00    -0.031 A 
HETATM   15  C9  UNL     1     -30.705  45.502  63.533  1.00  0.00     0.051 A 
HETATM   16  C10 UNL     1     -30.040  46.542  62.912  1.00  0.00     0.105 A 
HETATM   17  C12 UNL     1     -28.691  46.723  63.114  1.00  0.00     0.135 A 
HETATM   18  C14 UNL     1     -27.987  45.865  63.941  1.00  0.00     0.105 A 
HETATM   19  C16 UNL     1     -28.697  44.823  64.554  1.00  0.00     0.051 A 
BRANCH  16  20
HETATM   20  O1  UNL     1     -30.678  47.446  62.067  1.00  0.00    -0.353 OA
HETATM   21  C11 UNL     1     -31.223  46.938  60.867  1.00  0.00     0.210 C 
ENDBRANCH  16  20
BRANCH  17  22
HETATM   22  O2  UNL     1     -27.992  47.770  62.497  1.00  0.00    -0.351 OA
HETATM   23  C13 UNL     1     -27.496  47.541  61.199  1.00  0.00     0.210 C 
ENDBRANCH  17  22
BRANCH  18  24
HETATM   24  O3  UNL     1     -26.651  45.998  64.177  1.00  0.00    -0.353 OA
HETATM   25  C15 UNL     1     -25.600  45.363  63.529  1.00  0.00     0.210 C 
ENDBRANCH  18  24
ENDBRANCH  13  14
ENDBRANCH   3  12
BRANCH   1  26
HETATM   26  N1  UNL     1     -35.831  41.701  67.572  1.00  0.00    -0.389 N 
ATOM     27  H1  UNL     1     -36.615  41.108  67.301  1.00  0.00     0.159 HD
BRANCH  26  28
HETATM   28  C2  UNL     1     -35.984  42.722  68.581  1.00  0.00     0.115 C 
HETATM   29  C1  UNL     1     -35.524  42.220  69.942  1.00  0.00     0.026 C 
ENDBRANCH  26  28
ENDBRANCH   1  26
BRANCH   8  30
HETATM   30  O4  UNL     1     -32.283  36.594  67.077  1.00  0.00    -0.353 OA
HETATM   31  C20 UNL     1     -32.464  35.620  66.080  1.00  0.00     0.210 C 
ENDBRANCH   8  30
BRANCH   9  32
HETATM   32  O5  UNL     1     -34.761  36.958  68.230  1.00  0.00    -0.353 OA
HETATM   33  C22 UNL     1     -35.699  36.159  67.575  1.00  0.00     0.210 C 
ENDBRANCH   9  32
TORSDOF 9
ENDMDL
MODEL 5
REMARK VINA RESULT: -7.673085960      1.963      9.793
REMARK  9 active torsions:
REMARK  status: ('A' for Active; 'I' for Inactive)
REMARK    1  A    between atoms: C2_2  and  N1_3 
REMARK    2  A    between atoms: N1_3  and  C3_5 
REMARK    3  A    between atoms: C5_7  and  C6_8 
REMARK    4  A    between atoms: C7_9  and  C8_10 
REMARK    5  A    between atoms: C10_12  and  O1_13 
REMARK    6  A    between atoms: C12_15  and  O2_16 
REMARK    7  A    between atoms: C14_18  and  O3_19 
REMARK    8  A    between atoms: C19_26  and  O4_27 
REMARK    9  A    between atoms: C21_29  and  O5_30 
ROOT
HETATM    1  C3  UNL     1     -34.382  41.646  66.964  1.00  0.00     0.042 A 
HETATM    2  C4  UNL     1     -33.551  42.646  66.489  1.00  0.00     0.059 A 
HETATM    3  C5  UNL     1     -32.270  42.389  66.062  1.00  0.00     0.034 A 
HETATM    4  N2  UNL     1     -31.871  41.096  66.135  1.00  0.00    -0.355 N 
ATOM      5  H2  UNL     1     -30.925  40.872  65.825  1.00  0.00     0.166 HD
HETATM    6  C17 UNL     1     -32.634  40.091  66.586  1.00  0.00     0.048 A 
HETATM    7  C18 UNL     1     -32.201  38.787  66.649  1.00  0.00     0.070 A 
HETATM    8  C19 UNL     1     -32.992  37.760  67.115  1.00  0.00     0.103 A 
HETATM    9  C21 UNL     1     -34.275  38.053  67.536  1.00  0.00     0.102 A 
HETATM   10  C23 UNL     1     -34.743  39.349  67.487  1.00  0.00     0.055 A 
HETATM   11  C24 UNL     1     -33.920  40.357  67.014  1.00  0.00     0.020 A 
ENDROOT
BRANCH   3  12
HETATM   12  C6  UNL     1     -31.356  43.406  65.556  1.00  0.00     0.030 C 
HETATM   13  C7  UNL     1     -31.177  43.635  64.269  1.00  0.00     0.014 C 
BRANCH  13  14
HETATM   14  C8  UNL     1     -30.276  44.636  63.760  1.00  0.00    -0.031 A 
HETATM   15  C9  UNL     1     -29.093  44.237  63.170  1.00  0.00     0.051 A 
HETATM   16  C10 UNL     1     -28.205  45.171  62.673  1.00  0.00     0.105 A 
HETATM   17  C12 UNL     1     -28.488  46.515  62.759  1.00  0.00     0.135 A 
HETATM   18  C14 UNL     1     -29.667  46.944  63.346  1.00  0.00     0.105 A 
HETATM   19  C16 UNL     1     -30.542  45.966  63.837  1.00  0.00     0.051 A 
BRANCH  16  20
HETATM   20  O1  UNL     1     -27.001  44.818  62.070  1.00  0.00    -0.353 OA
HETATM   21  C11 UNL     1     -26.044  44.157  62.872  1.00  0.00     0.210 C 
ENDBRANCH  16  20
BRANCH  17  22
HETATM   22  O2  UNL     1     -27.605  47.483  62.263  1.00  0.00    -0.351 OA
HETATM   23  C13 UNL     1     -27.574  47.678  60.869  1.00  0.00     0.210 C 
ENDBRANCH  17  22
BRANCH  18  24
HETATM   24  O3  UNL     1     -29.998  48.262  63.457  1.00  0.00    -0.353 OA
HETATM   25  C15 UNL     1     -30.116  49.019  64.615  1.00  0.00     0.210 C 
ENDBRANCH  18  24
ENDBRANCH  13  14
ENDBRANCH   3  12
BRANCH   1  26
HETATM   26  N1  UNL     1     -35.585  41.900  67.362  1.00  0.00    -0.389 N 
ATOM     27  H1  UNL     1     -36.386  41.414  66.960  1.00  0.00     0.159 HD
BRANCH  26  28
HETATM   28  C2  UNL     1     -35.759  42.893  68.395  1.00  0.00     0.115 C 
HETATM   29  C1  UNL     1     -35.526  42.295  69.775  1.00  0.00     0.026 C 
ENDBRANCH  26  28
ENDBRANCH   1  26
BRANCH   8  30
HETATM   30  O4  UNL     1     -32.557  36.449  67.179  1.00  0.00    -0.353 OA
HETATM   31  C20 UNL     1     -32.628  35.541  66.109  1.00  0.00     0.210 C 
ENDBRANCH   8  30
BRANCH   9  32
HETATM   32  O5  UNL     1     -35.113  37.060  68.013  1.00  0.00    -0.353 OA
HETATM   33  C22 UNL     1     -36.083  36.425  67.238  1.00  0.00     0.210 C 
ENDBRANCH   9  32
TORSDOF 9
ENDMDL
