MODEL 1
REMARK VINA RESULT: -7.273848193      0.000      0.000
REMARK  11 active torsions:
REMARK  status: ('A' for Active; 'I' for Inactive)
REMARK    1  A    between atoms: O1_2  and  C2_3 
REMARK    2  A    between atoms: C5_6  and  C6_7 
REMARK    3  A    between atoms: C6_7  and  N1_8 
REMARK    4  A    between atoms: N1_8  and  C7_10 
REMARK    5  A    between atoms: C8_13  and  O2_14 
REMARK    6  A    between atoms: O2_14  and  C9_15 
REMARK    7  A    between atoms: C9_15  and  C10_16 
REMARK    8  A    between atoms: N4_18  and  C11_20 
REMARK    9  A    between atoms: C17_30  and  N6_31 
REMARK   10  A    between atoms: N6_31  and  C18_33 
REMARK   11  A    between atoms: C23_40  and  O3_41 
ROOT
HETATM    1  C7  UNL     1      17.943  -5.530  -3.613  1.00  0.00     0.696 A 
HETATM    2  N2  UNL     1      18.826  -4.529  -3.826  1.00  0.00    -0.154 N 
ATOM      3  H2  UNL     1      18.479  -3.627  -4.152  1.00  0.00     0.188 HD
HETATM    4  C8  UNL     1      20.146  -4.684  -3.621  1.00  0.00     0.252 A 
HETATM    5  N5  UNL     1      20.579  -5.878  -3.192  1.00  0.00    -0.154 N 
ATOM      6  H5  UNL     1      21.576  -6.018  -3.030  1.00  0.00     0.188 HD
HETATM    7  C17 UNL     1      19.715  -6.911  -2.968  1.00  0.00     0.696 A 
HETATM    8  N7  UNL     1      18.414  -6.737  -3.177  1.00  0.00    -0.022 N 
ATOM      9  H7  UNL     1      17.764  -7.506  -3.010  1.00  0.00     0.203 HD
ENDROOT
BRANCH   4  10
HETATM   10  O2  UNL     1      20.973  -3.626  -3.859  1.00  0.00    -0.314 OA
BRANCH  10  11
HETATM   11  C9  UNL     1      21.726  -3.442  -5.040  1.00  0.00     0.251 C 
BRANCH  11  12
HETATM   12  C10 UNL     1      20.766  -3.091  -6.100  1.00  0.00     0.114 C 
HETATM   13  N3  UNL     1      20.173  -4.112  -6.851  1.00  0.00    -0.086 NA
HETATM   14  N4  UNL     1      20.489  -1.875  -6.315  1.00  0.00    -0.371 N 
ATOM     15  H4  UNL     1      20.971  -1.205  -5.716  1.00  0.00     0.161 HD
BRANCH  14  16
HETATM   16  C11 UNL     1      19.602  -1.308  -7.273  1.00  0.00     0.033 C 
HETATM   17  C12 UNL     1      20.018  -1.742  -8.678  1.00  0.00     0.038 C 
HETATM   18  C13 UNL     1      18.175  -1.641  -7.017  1.00  0.00     0.036 C 
HETATM   19  C14 UNL     1      17.409  -0.444  -7.499  1.00  0.00     0.081 C 
HETATM   20  C15 UNL     1      18.342   0.735  -7.426  1.00  0.00     0.246 C 
HETATM   21  F1  UNL     1      18.307   1.516  -8.554  1.00  0.00    -0.206 F 
HETATM   22  F2  UNL     1      17.993   1.469  -6.309  1.00  0.00    -0.206 F 
HETATM   23  C16 UNL     1      19.719   0.195  -7.227  1.00  0.00     0.109 C 
ENDBRANCH  14  16
ENDBRANCH  11  12
ENDBRANCH  10  11
ENDBRANCH   4  10
BRANCH   1  24
HETATM   24  N1  UNL     1      16.698  -5.300  -3.833  1.00  0.00    -0.221 N 
ATOM     25  H1  UNL     1      16.146  -5.933  -4.412  1.00  0.00     0.178 HD
BRANCH  24  26
HETATM   26  C6  UNL     1      16.095  -4.126  -3.242  1.00  0.00     0.176 C 
BRANCH  26  27
HETATM   27  C5  UNL     1      15.494  -3.239  -4.277  1.00  0.00    -0.037 A 
HETATM   28  C4  UNL     1      15.245  -1.896  -4.066  1.00  0.00     0.012 A 
HETATM   29  C3  UNL     1      14.686  -1.102  -5.055  1.00  0.00     0.040 A 
HETATM   30  C2  UNL     1      14.361  -1.639  -6.285  1.00  0.00     0.101 A 
HETATM   31  C23 UNL     1      14.599  -2.974  -6.520  1.00  0.00     0.102 A 
HETATM   32  C22 UNL     1      15.155  -3.736  -5.518  1.00  0.00     0.048 A 
BRANCH  30  33
HETATM   33  O1  UNL     1      13.799  -0.808  -7.255  1.00  0.00    -0.353 OA
HETATM   34  C1  UNL     1      13.484   0.542  -6.974  1.00  0.00     0.210 C 
ENDBRANCH  30  33
BRANCH  31  35
HETATM   35  O3  UNL     1      14.276  -3.510  -7.746  1.00  0.00    -0.353 OA
HETATM   36  C24 UNL     1      15.048  -4.430  -8.457  1.00  0.00     0.210 C 
ENDBRANCH  31  35
ENDBRANCH  26  27
ENDBRANCH  24  26
ENDBRANCH   1  24
BRANCH   7  37
HETATM   37  N6  UNL     1      20.198  -8.002  -2.567  1.00  0.00    -0.217 N 
ATOM     38  H6  UNL     1      20.127  -8.149  -1.560  1.00  0.00     0.178 HD
BRANCH  37  39
HETATM   39  C18 UNL     1      20.825  -9.065  -3.274  1.00  0.00     0.036 C 
HETATM   40  C19 UNL     1      20.528  -9.063  -4.747  1.00  0.00     0.038 C 
HETATM   41  C20 UNL     1      20.408 -10.426  -2.722  1.00  0.00     0.038 C 
HETATM   42  C21 UNL     1      22.319  -8.944  -3.082  1.00  0.00     0.038 C 
ENDBRANCH  37  39
ENDBRANCH   7  37
TORSDOF 11
ENDMDL
MODEL 2
REMARK VINA RESULT: -7.110692695      4.436      7.974
REMARK  11 active torsions:
REMARK  status: ('A' for Active; 'I' for Inactive)
REMARK    1  A    between atoms: O1_2  and  C2_3 
REMARK    2  A    between atoms: C5_6  and  C6_7 
REMARK    3  A    between atoms: C6_7  and  N1_8 
REMARK    4  A    between atoms: N1_8  and  C7_10 
REMARK    5  A    between atoms: C8_13  and  O2_14 
REMARK    6  A    between atoms: O2_14  and  C9_15 
REMARK    7  A    between atoms: C9_15  and  C10_16 
REMARK    8  A    between atoms: N4_18  and  C11_20 
REMARK    9  A    between atoms: C17_30  and  N6_31 
REMARK   10  A    between atoms: N6_31  and  C18_33 
REMARK   11  A    between atoms: C23_40  and  O3_41 
ROOT
HETATM    1  C7  UNL     1      17.917  -5.475  -3.670  1.00  0.00     0.696 A 
HETATM    2  N2  UNL     1      18.388  -6.639  -3.170  1.00  0.00    -0.154 N 
ATOM      3  H2  UNL     1      17.723  -7.344  -2.854  1.00  0.00     0.188 HD
HETATM    4  C8  UNL     1      19.705  -6.897  -3.076  1.00  0.00     0.252 A 
HETATM    5  N5  UNL     1      20.560  -5.956  -3.498  1.00  0.00    -0.154 N 
ATOM      6  H5  UNL     1      21.563  -6.131  -3.437  1.00  0.00     0.188 HD
HETATM    7  C17 UNL     1      20.119  -4.768  -4.009  1.00  0.00     0.696 A 
HETATM    8  N7  UNL     1      18.814  -4.533  -4.092  1.00  0.00    -0.022 N 
ATOM      9  H7  UNL     1      18.480  -3.648  -4.472  1.00  0.00     0.203 HD
ENDROOT
BRANCH   4  10
HETATM   10  O2  UNL     1      20.101  -8.096  -2.560  1.00  0.00    -0.314 OA
BRANCH  10  11
HETATM   11  C9  UNL     1      19.710  -8.598  -1.298  1.00  0.00     0.251 C 
BRANCH  11  12
HETATM   12  C10 UNL     1      19.445 -10.034  -1.481  1.00  0.00     0.114 C 
HETATM   13  N3  UNL     1      20.126 -10.734  -2.484  1.00  0.00    -0.086 NA
HETATM   14  N4  UNL     1      18.609 -10.616  -0.729  1.00  0.00    -0.371 N 
ATOM     15  H4  UNL     1      18.166 -10.024  -0.028  1.00  0.00     0.161 HD
BRANCH  14  16
HETATM   16  C11 UNL     1      18.200 -11.980  -0.723  1.00  0.00     0.033 C 
HETATM   17  C12 UNL     1      17.742 -12.372   0.682  1.00  0.00     0.038 C 
HETATM   18  C13 UNL     1      17.143 -12.277  -1.726  1.00  0.00     0.036 C 
HETATM   19  C14 UNL     1      17.404 -13.693  -2.150  1.00  0.00     0.081 C 
HETATM   20  C15 UNL     1      18.866 -13.963  -1.910  1.00  0.00     0.246 C 
HETATM   21  F1  UNL     1      19.094 -15.168  -1.296  1.00  0.00    -0.206 F 
HETATM   22  F2  UNL     1      19.502 -13.907  -3.135  1.00  0.00    -0.206 F 
HETATM   23  C16 UNL     1      19.383 -12.853  -1.057  1.00  0.00     0.109 C 
ENDBRANCH  14  16
ENDBRANCH  11  12
ENDBRANCH  10  11
ENDBRANCH   4  10
BRANCH   1  24
HETATM   24  N1  UNL     1      16.644  -5.307  -3.725  1.00  0.00    -0.221 N 
ATOM     25  H1  UNL     1      16.045  -6.010  -4.155  1.00  0.00     0.178 HD
BRANCH  24  26
HETATM   26  C6  UNL     1      16.079  -4.100  -3.164  1.00  0.00     0.176 C 
BRANCH  26  27
HETATM   27  C5  UNL     1      15.532  -3.206  -4.223  1.00  0.00    -0.037 A 
HETATM   28  C4  UNL     1      15.380  -1.843  -4.054  1.00  0.00     0.012 A 
HETATM   29  C3  UNL     1      14.869  -1.045  -5.065  1.00  0.00     0.040 A 
HETATM   30  C2  UNL     1      14.496  -1.596  -6.274  1.00  0.00     0.101 A 
HETATM   31  C23 UNL     1      14.638  -2.952  -6.467  1.00  0.00     0.102 A 
HETATM   32  C22 UNL     1      15.148  -3.718  -5.445  1.00  0.00     0.048 A 
BRANCH  30  33
HETATM   33  O1  UNL     1      13.985  -0.760  -7.267  1.00  0.00    -0.353 OA
HETATM   34  C1  UNL     1      13.499   0.533  -6.962  1.00  0.00     0.210 C 
ENDBRANCH  30  33
BRANCH  31  35
HETATM   35  O3  UNL     1      14.267  -3.503  -7.672  1.00  0.00    -0.353 OA
HETATM   36  C24 UNL     1      15.010  -4.431  -8.403  1.00  0.00     0.210 C 
ENDBRANCH  31  35
ENDBRANCH  26  27
ENDBRANCH  24  26
ENDBRANCH   1  24
BRANCH   7  37
HETATM   37  N6  UNL     1      20.984  -3.935  -4.382  1.00  0.00    -0.217 N 
ATOM     38  H6  UNL     1      21.453  -3.444  -3.620  1.00  0.00     0.178 HD
BRANCH  37  39
HETATM   39  C18 UNL     1      21.423  -3.558  -5.682  1.00  0.00     0.036 C 
HETATM   40  C19 UNL     1      22.916  -3.422  -5.795  1.00  0.00     0.038 C 
HETATM   41  C20 UNL     1      20.807  -2.230  -6.117  1.00  0.00     0.038 C 
HETATM   42  C21 UNL     1      20.957  -4.608  -6.662  1.00  0.00     0.038 C 
ENDBRANCH  37  39
ENDBRANCH   7  37
TORSDOF 11
ENDMDL
MODEL 3
REMARK VINA RESULT: -7.046725752      5.060      8.431
REMARK  11 active torsions:
REMARK  status: ('A' for Active; 'I' for Inactive)
REMARK    1  A    between atoms: O1_2  and  C2_3 
REMARK    2  A    between atoms: C5_6  and  C6_7 
REMARK    3  A    between atoms: C6_7  and  N1_8 
REMARK    4  A    between atoms: N1_8  and  C7_10 
REMARK    5  A    between atoms: C8_13  and  O2_14 
REMARK    6  A    between atoms: O2_14  and  C9_15 
REMARK    7  A    between atoms: C9_15  and  C10_16 
REMARK    8  A    between atoms: N4_18  and  C11_20 
REMARK    9  A    between atoms: C17_30  and  N6_31 
REMARK   10  A    between atoms: N6_31  and  C18_33 
REMARK   11  A    between atoms: C23_40  and  O3_41 
ROOT
HETATM    1  C7  UNL     1      19.582  -9.597  -1.431  1.00  0.00     0.696 A 
HETATM    2  N2  UNL     1      19.335  -8.276  -1.583  1.00  0.00    -0.154 N 
ATOM      3  H2  UNL     1      18.508  -7.876  -1.141  1.00  0.00     0.188 HD
HETATM    4  C8  UNL     1      20.145  -7.474  -2.296  1.00  0.00     0.252 A 
HETATM    5  N5  UNL     1      21.227  -8.022  -2.867  1.00  0.00    -0.154 N 
ATOM      6  H5  UNL     1      21.856  -7.433  -3.412  1.00  0.00     0.188 HD
HETATM    7  C17 UNL     1      21.507  -9.353  -2.734  1.00  0.00     0.696 A 
HETATM    8  N7  UNL     1      20.693 -10.128  -2.025  1.00  0.00    -0.022 N 
ATOM      9  H7  UNL     1      20.897 -11.122  -1.923  1.00  0.00     0.203 HD
ENDROOT
BRANCH   4  10
HETATM   10  O2  UNL     1      19.829  -6.152  -2.403  1.00  0.00    -0.314 OA
BRANCH  10  11
HETATM   11  C9  UNL     1      20.280  -5.297  -3.434  1.00  0.00     0.251 C 
BRANCH  11  12
HETATM   12  C10 UNL     1      19.084  -4.856  -4.168  1.00  0.00     0.114 C 
HETATM   13  N3  UNL     1      19.098  -4.861  -5.568  1.00  0.00    -0.086 NA
HETATM   14  N4  UNL     1      18.059  -4.481  -3.526  1.00  0.00    -0.371 N 
ATOM     15  H4  UNL     1      18.145  -4.513  -2.511  1.00  0.00     0.161 HD
BRANCH  14  16
HETATM   16  C11 UNL     1      16.805  -4.020  -4.018  1.00  0.00     0.033 C 
HETATM   17  C12 UNL     1      15.980  -3.447  -2.866  1.00  0.00     0.038 C 
HETATM   18  C13 UNL     1      16.938  -3.028  -5.118  1.00  0.00     0.036 C 
HETATM   19  C14 UNL     1      15.743  -3.265  -5.995  1.00  0.00     0.081 C 
HETATM   20  C15 UNL     1      15.319  -4.694  -5.785  1.00  0.00     0.246 C 
HETATM   21  F1  UNL     1      13.963  -4.831  -5.619  1.00  0.00    -0.206 F 
HETATM   22  F2  UNL     1      15.756  -5.419  -6.877  1.00  0.00    -0.206 F 
HETATM   23  C16 UNL     1      16.031  -5.190  -4.571  1.00  0.00     0.109 C 
ENDBRANCH  14  16
ENDBRANCH  11  12
ENDBRANCH  10  11
ENDBRANCH   4  10
BRANCH   1  24
HETATM   24  N1  UNL     1      18.758 -10.293  -0.733  1.00  0.00    -0.221 N 
ATOM     25  H1  UNL     1      18.150  -9.846  -0.047  1.00  0.00     0.178 HD
BRANCH  24  26
HETATM   26  C6  UNL     1      18.708 -11.723  -0.941  1.00  0.00     0.176 C 
BRANCH  26  27
HETATM   27  C5  UNL     1      17.734 -12.377  -0.024  1.00  0.00    -0.037 A 
HETATM   28  C4  UNL     1      17.460 -11.905   1.245  1.00  0.00     0.012 A 
HETATM   29  C3  UNL     1      16.544 -12.543   2.069  1.00  0.00     0.040 A 
HETATM   30  C2  UNL     1      15.879 -13.673   1.637  1.00  0.00     0.101 A 
HETATM   31  C23 UNL     1      16.136 -14.162   0.376  1.00  0.00     0.102 A 
HETATM   32  C22 UNL     1      17.049 -13.509  -0.417  1.00  0.00     0.048 A 
BRANCH  30  33
HETATM   33  O1  UNL     1      14.966 -14.286   2.495  1.00  0.00    -0.353 OA
HETATM   34  C1  UNL     1      14.269 -13.546   3.479  1.00  0.00     0.210 C 
ENDBRANCH  30  33
BRANCH  31  35
HETATM   35  O3  UNL     1      15.474 -15.289  -0.056  1.00  0.00    -0.353 OA
HETATM   36  C24 UNL     1      16.078 -16.435  -0.576  1.00  0.00     0.210 C 
ENDBRANCH  31  35
ENDBRANCH  26  27
ENDBRANCH  24  26
ENDBRANCH   1  24
BRANCH   7  37
HETATM   37  N6  UNL     1      22.540  -9.793  -3.300  1.00  0.00    -0.217 N 
ATOM     38  H6  UNL     1      22.382 -10.162  -4.239  1.00  0.00     0.178 HD
BRANCH  37  39
HETATM   39  C18 UNL     1      23.891  -9.867  -2.861  1.00  0.00     0.036 C 
HETATM   40  C19 UNL     1      24.029 -10.151  -1.391  1.00  0.00     0.038 C 
HETATM   41  C20 UNL     1      24.645  -8.572  -3.150  1.00  0.00     0.038 C 
HETATM   42  C21 UNL     1      24.581 -10.967  -3.633  1.00  0.00     0.038 C 
ENDBRANCH  37  39
ENDBRANCH   7  37
TORSDOF 11
ENDMDL
MODEL 4
REMARK VINA RESULT: -7.018558030      5.071      8.791
REMARK  11 active torsions:
REMARK  status: ('A' for Active; 'I' for Inactive)
REMARK    1  A    between atoms: O1_2  and  C2_3 
REMARK    2  A    between atoms: C5_6  and  C6_7 
REMARK    3  A    between atoms: C6_7  and  N1_8 
REMARK    4  A    between atoms: N1_8  and  C7_10 
REMARK    5  A    between atoms: C8_13  and  O2_14 
REMARK    6  A    between atoms: O2_14  and  C9_15 
REMARK    7  A    between atoms: C9_15  and  C10_16 
REMARK    8  A    between atoms: N4_18  and  C11_20 
REMARK    9  A    between atoms: C17_30  and  N6_31 
REMARK   10  A    between atoms: N6_31  and  C18_33 
REMARK   11  A    between atoms: C23_40  and  O3_41 
ROOT
HETATM    1  C7  UNL     1      20.311 -11.084  -1.309  1.00  0.00     0.696 A 
HETATM    2  N2  UNL     1      19.533 -10.080  -1.772  1.00  0.00    -0.154 N 
ATOM      3  H2  UNL     1      18.539 -10.254  -1.917  1.00  0.00     0.188 HD
HETATM    4  C8  UNL     1      20.027  -8.860  -2.046  1.00  0.00     0.252 A 
HETATM    5  N5  UNL     1      21.337  -8.654  -1.847  1.00  0.00    -0.154 N 
ATOM      6  H5  UNL     1      21.733  -7.736  -2.048  1.00  0.00     0.188 HD
HETATM    7  C17 UNL     1      22.152  -9.646  -1.381  1.00  0.00     0.696 A 
HETATM    8  N7  UNL     1      21.643 -10.845  -1.116  1.00  0.00    -0.022 N 
ATOM      9  H7  UNL     1      22.248 -11.589  -0.768  1.00  0.00     0.203 HD
ENDROOT
BRANCH   4  10
HETATM   10  O2  UNL     1      19.178  -7.899  -2.510  1.00  0.00    -0.314 OA
BRANCH  10  11
HETATM   11  C9  UNL     1      19.127  -7.447  -3.848  1.00  0.00     0.251 C 
BRANCH  11  12
HETATM   12  C10 UNL     1      18.591  -6.077  -3.809  1.00  0.00     0.114 C 
HETATM   13  N3  UNL     1      19.275  -5.094  -3.084  1.00  0.00    -0.086 NA
HETATM   14  N4  UNL     1      17.522  -5.806  -4.432  1.00  0.00    -0.371 N 
ATOM     15  H4  UNL     1      17.099  -6.587  -4.932  1.00  0.00     0.161 HD
BRANCH  14  16
HETATM   16  C11 UNL     1      16.828  -4.568  -4.534  1.00  0.00     0.033 C 
HETATM   17  C12 UNL     1      16.406  -4.098  -3.142  1.00  0.00     0.038 C 
HETATM   18  C13 UNL     1      17.612  -3.514  -5.233  1.00  0.00     0.036 C 
HETATM   19  C14 UNL     1      16.586  -2.678  -5.941  1.00  0.00     0.081 C 
HETATM   20  C15 UNL     1      15.385  -3.556  -6.171  1.00  0.00     0.246 C 
HETATM   21  F1  UNL     1      14.202  -2.938  -5.854  1.00  0.00    -0.206 F 
HETATM   22  F2  UNL     1      15.400  -3.936  -7.500  1.00  0.00    -0.206 F 
HETATM   23  C16 UNL     1      15.563  -4.774  -5.328  1.00  0.00     0.109 C 
ENDBRANCH  14  16
ENDBRANCH  11  12
ENDBRANCH  10  11
ENDBRANCH   4  10
BRANCH   1  24
HETATM   24  N1  UNL     1      19.760 -12.221  -1.072  1.00  0.00    -0.221 N 
ATOM     25  H1  UNL     1      20.109 -12.822  -0.326  1.00  0.00     0.178 HD
BRANCH  24  26
HETATM   26  C6  UNL     1      18.635 -12.629  -1.883  1.00  0.00     0.176 C 
BRANCH  26  27
HETATM   27  C5  UNL     1      17.664 -13.446  -1.103  1.00  0.00    -0.037 A 
HETATM   28  C4  UNL     1      17.345 -14.750  -1.427  1.00  0.00     0.012 A 
HETATM   29  C3  UNL     1      16.437 -15.479  -0.673  1.00  0.00     0.040 A 
HETATM   30  C2  UNL     1      15.824 -14.913   0.427  1.00  0.00     0.101 A 
HETATM   31  C23 UNL     1      16.125 -13.615   0.769  1.00  0.00     0.102 A 
HETATM   32  C22 UNL     1      17.030 -12.917   0.003  1.00  0.00     0.048 A 
BRANCH  30  33
HETATM   33  O1  UNL     1      14.916 -15.678   1.158  1.00  0.00    -0.353 OA
HETATM   34  C1  UNL     1      13.899 -16.424   0.519  1.00  0.00     0.210 C 
ENDBRANCH  30  33
BRANCH  31  35
HETATM   35  O3  UNL     1      15.515 -13.049   1.866  1.00  0.00    -0.353 OA
HETATM   36  C24 UNL     1      16.143 -12.248   2.821  1.00  0.00     0.210 C 
ENDBRANCH  31  35
ENDBRANCH  26  27
ENDBRANCH  24  26
ENDBRANCH   1  24
BRANCH   7  37
HETATM   37  N6  UNL     1      23.370  -9.376  -1.221  1.00  0.00    -0.217 N 
ATOM     38  H6  UNL     1      23.646  -9.233  -0.249  1.00  0.00     0.178 HD
BRANCH  37  39
HETATM   39  C18 UNL     1      24.430  -9.235  -2.159  1.00  0.00     0.036 C 
HETATM   40  C19 UNL     1      24.033  -9.575  -3.569  1.00  0.00     0.038 C 
HETATM   41  C20 UNL     1      25.622 -10.115  -1.793  1.00  0.00     0.038 C 
HETATM   42  C21 UNL     1      24.906  -7.802  -2.124  1.00  0.00     0.038 C 
ENDBRANCH  37  39
ENDBRANCH   7  37
TORSDOF 11
ENDMDL
MODEL 5
REMARK VINA RESULT: -6.991351581      4.920      8.232
REMARK  11 active torsions:
REMARK  status: ('A' for Active; 'I' for Inactive)
REMARK    1  A    between atoms: O1_2  and  C2_3 
REMARK    2  A    between atoms: C5_6  and  C6_7 
REMARK    3  A    between atoms: C6_7  and  N1_8 
REMARK    4  A    between atoms: N1_8  and  C7_10 
REMARK    5  A    between atoms: C8_13  and  O2_14 
REMARK    6  A    between atoms: O2_14  and  C9_15 
REMARK    7  A    between atoms: C9_15  and  C10_16 
REMARK    8  A    between atoms: N4_18  and  C11_20 
REMARK    9  A    between atoms: C17_30  and  N6_31 
REMARK   10  A    between atoms: N6_31  and  C18_33 
REMARK   11  A    between atoms: C23_40  and  O3_41 
ROOT
HETATM    1  C7  UNL     1      19.500  -9.522  -1.386  1.00  0.00     0.696 A 
HETATM    2  N2  UNL     1      19.135  -8.255  -1.680  1.00  0.00    -0.154 N 
ATOM      3  H2  UNL     1      18.236  -7.911  -1.343  1.00  0.00     0.188 HD
HETATM    4  C8  UNL     1      19.919  -7.432  -2.400  1.00  0.00     0.252 A 
HETATM    5  N5  UNL     1      21.096  -7.906  -2.831  1.00  0.00    -0.154 N 
ATOM      6  H5  UNL     1      21.707  -7.300  -3.378  1.00  0.00     0.188 HD
HETATM    7  C17 UNL     1      21.497  -9.181  -2.553  1.00  0.00     0.696 A 
HETATM    8  N7  UNL     1      20.707  -9.978  -1.840  1.00  0.00    -0.022 N 
ATOM      9  H7  UNL     1      21.002 -10.931  -1.630  1.00  0.00     0.203 HD
ENDROOT
BRANCH   4  10
HETATM   10  O2  UNL     1      19.480  -6.166  -2.655  1.00  0.00    -0.314 OA
BRANCH  10  11
HETATM   11  C9  UNL     1      19.691  -5.469  -3.866  1.00  0.00     0.251 C 
BRANCH  11  12
HETATM   12  C10 UNL     1      18.391  -4.898  -4.254  1.00  0.00     0.114 C 
HETATM   13  N3  UNL     1      17.471  -4.550  -3.258  1.00  0.00    -0.086 NA
HETATM   14  N4  UNL     1      18.124  -4.727  -5.479  1.00  0.00    -0.371 N 
ATOM     15  H4  UNL     1      18.858  -5.010  -6.129  1.00  0.00     0.161 HD
BRANCH  14  16
HETATM   16  C11 UNL     1      16.948  -4.198  -6.081  1.00  0.00     0.033 C 
HETATM   17  C12 UNL     1      17.146  -4.092  -7.593  1.00  0.00     0.038 C 
HETATM   18  C13 UNL     1      15.724  -4.981  -5.761  1.00  0.00     0.036 C 
HETATM   19  C14 UNL     1      14.617  -3.969  -5.729  1.00  0.00     0.081 C 
HETATM   20  C15 UNL     1      15.245  -2.639  -5.405  1.00  0.00     0.246 C 
HETATM   21  F1  UNL     1      14.791  -1.623  -6.208  1.00  0.00    -0.206 F 
HETATM   22  F2  UNL     1      14.979  -2.371  -4.076  1.00  0.00    -0.206 F 
HETATM   23  C16 UNL     1      16.719  -2.797  -5.571  1.00  0.00     0.109 C 
ENDBRANCH  14  16
ENDBRANCH  11  12
ENDBRANCH  10  11
ENDBRANCH   4  10
BRANCH   1  24
HETATM   24  N1  UNL     1      18.694 -10.243  -0.693  1.00  0.00    -0.221 N 
ATOM     25  H1  UNL     1      18.073  -9.814  -0.006  1.00  0.00     0.178 HD
BRANCH  24  26
HETATM   26  C6  UNL     1      18.682 -11.673  -0.906  1.00  0.00     0.176 C 
BRANCH  26  27
HETATM   27  C5  UNL     1      17.714 -12.355  -0.002  1.00  0.00    -0.037 A 
HETATM   28  C4  UNL     1      17.413 -11.894   1.265  1.00  0.00     0.012 A 
HETATM   29  C3  UNL     1      16.503 -12.557   2.075  1.00  0.00     0.040 A 
HETATM   30  C2  UNL     1      15.873 -13.702   1.633  1.00  0.00     0.101 A 
HETATM   31  C23 UNL     1      16.157 -14.181   0.374  1.00  0.00     0.102 A 
HETATM   32  C22 UNL     1      17.064 -13.502  -0.407  1.00  0.00     0.048 A 
BRANCH  30  33
HETATM   33  O1  UNL     1      14.966 -14.341   2.478  1.00  0.00    -0.353 OA
HETATM   34  C1  UNL     1      14.231 -13.621   3.448  1.00  0.00     0.210 C 
ENDBRANCH  30  33
BRANCH  31  35
HETATM   35  O3  UNL     1      15.530 -15.323  -0.069  1.00  0.00    -0.353 OA
HETATM   36  C24 UNL     1      16.167 -16.440  -0.612  1.00  0.00     0.210 C 
ENDBRANCH  31  35
ENDBRANCH  26  27
ENDBRANCH  24  26
ENDBRANCH   1  24
BRANCH   7  37
HETATM   37  N6  UNL     1      22.615  -9.553  -2.994  1.00  0.00    -0.217 N 
ATOM     38  H6  UNL     1      22.638  -9.716  -4.001  1.00  0.00     0.178 HD
BRANCH  37  39
HETATM   39  C18 UNL     1      23.853  -9.785  -2.333  1.00  0.00     0.036 C 
HETATM   40  C19 UNL     1      23.700 -10.411  -0.975  1.00  0.00     0.038 C 
HETATM   41  C20 UNL     1      24.644  -8.492  -2.155  1.00  0.00     0.038 C 
HETATM   42  C21 UNL     1      24.686 -10.702  -3.197  1.00  0.00     0.038 C 
ENDBRANCH  37  39
ENDBRANCH   7  37
TORSDOF 11
ENDMDL
