MODEL 1
REMARK VINA RESULT: -5.406240627      0.000      0.000
REMARK  10 active torsions:
REMARK  status: ('A' for Active; 'I' for Inactive)
REMARK    1  A    between atoms: C1_4  and  N2_5 
REMARK    2  A    between atoms: N2_5  and  C2_7 
REMARK    3  A    between atoms: C2_7  and  C3_8 
REMARK    4  A    between atoms: C3_8  and  N3_9 
REMARK    5  A    between atoms: N3_9  and  C4_11 
REMARK    6  A    between atoms: C4_11  and  C5_12 
REMARK    7  A    between atoms: C5_12  and  N4_13 
REMARK    8  A    between atoms: N4_13  and  C6_16 
REMARK    9  A    between atoms: C6_16  and  C7_17 
REMARK   10  A    between atoms: C7_17  and  O1_18 
ROOT
HETATM    1  N3  UNL     1      -4.079  22.296   2.999  1.00  0.00    -0.399 N 
ATOM      2  H3  UNL     1      -4.678  22.818   3.638  1.00  0.00     0.158 HD
ENDROOT
BRANCH   1   3
HETATM    3  C3  UNL     1      -3.091  22.952   2.229  1.00  0.00     0.138 C 
BRANCH   3   4
HETATM    4  C2  UNL     1      -2.031  22.088   1.630  1.00  0.00     0.140 C 
BRANCH   4   5
HETATM    5  N2  UNL     1      -0.766  22.788   1.454  1.00  0.00    -0.385 N 
ATOM      6  H2  UNL     1       0.053  22.300   1.092  1.00  0.00     0.160 HD
BRANCH   5   7
HETATM    7  C1  UNL     1      -0.697  24.177   1.801  1.00  0.00     0.168 C 
HETATM    8  N1  UNL     1      -0.122  24.595   2.867  1.00  0.00    -0.396 N 
ATOM      9  H12 UNL     1       0.299  23.898   3.482  1.00  0.00     0.156 HD
ATOM     10  H11 UNL     1      -0.072  25.583   3.114  1.00  0.00     0.156 HD
ENDBRANCH   5   7
ENDBRANCH   4   5
ENDBRANCH   3   4
ENDBRANCH   1   3
BRANCH   1  11
HETATM   11  C4  UNL     1      -4.212  20.902   2.860  1.00  0.00     0.082 C 
BRANCH  11  12
HETATM   12  C5  UNL     1      -4.376  20.092   4.092  1.00  0.00     0.276 C 
BRANCH  12  13
HETATM   13  N4  UNL     1      -4.742  18.715   3.829  1.00  0.00    -0.069 N 
ATOM     14  H42 UNL     1      -3.910  18.147   3.671  1.00  0.00     0.277 HD
ATOM     15  H41 UNL     1      -5.096  18.271   4.677  1.00  0.00     0.277 HD
BRANCH  13  16
HETATM   16  C6  UNL     1      -5.672  18.557   2.753  1.00  0.00     0.258 C 
BRANCH  16  17
HETATM   17  C7  UNL     1      -6.987  18.065   3.366  1.00  0.00     0.191 C 
BRANCH  17  18
HETATM   18  O1  UNL     1      -6.860  16.716   3.682  1.00  0.00    -0.399 OA
ATOM     19  H1  UNL     1      -7.078  16.199   2.916  1.00  0.00     0.209 HD
ENDBRANCH  17  18
ENDBRANCH  16  17
ENDBRANCH  13  16
ENDBRANCH  12  13
ENDBRANCH  11  12
ENDBRANCH   1  11
TORSDOF 10
ENDMDL
MODEL 2
REMARK VINA RESULT: -5.400202840      3.245      6.690
REMARK  10 active torsions:
REMARK  status: ('A' for Active; 'I' for Inactive)
REMARK    1  A    between atoms: C1_4  and  N2_5 
REMARK    2  A    between atoms: N2_5  and  C2_7 
REMARK    3  A    between atoms: C2_7  and  C3_8 
REMARK    4  A    between atoms: C3_8  and  N3_9 
REMARK    5  A    between atoms: N3_9  and  C4_11 
REMARK    6  A    between atoms: C4_11  and  C5_12 
REMARK    7  A    between atoms: C5_12  and  N4_13 
REMARK    8  A    between atoms: N4_13  and  C6_16 
REMARK    9  A    between atoms: C6_16  and  C7_17 
REMARK   10  A    between atoms: C7_17  and  O1_18 
ROOT
HETATM    1  N3  UNL     1      -4.410  22.039   2.792  1.00  0.00    -0.399 N 
ATOM      2  H3  UNL     1      -5.090  22.636   3.264  1.00  0.00     0.158 HD
ENDROOT
BRANCH   1   3
HETATM    3  C3  UNL     1      -4.607  20.642   2.704  1.00  0.00     0.138 C 
BRANCH   3   4
HETATM    4  C2  UNL     1      -4.539  19.878   3.985  1.00  0.00     0.140 C 
BRANCH   4   5
HETATM    5  N2  UNL     1      -4.930  18.484   3.832  1.00  0.00    -0.385 N 
ATOM      6  H2  UNL     1      -4.240  17.737   3.911  1.00  0.00     0.160 HD
BRANCH   5   7
HETATM    7  C1  UNL     1      -6.306  18.183   3.567  1.00  0.00     0.168 C 
HETATM    8  N1  UNL     1      -6.757  16.985   3.527  1.00  0.00    -0.396 N 
ATOM      9  H12 UNL     1      -6.096  16.225   3.693  1.00  0.00     0.156 HD
ATOM     10  H11 UNL     1      -7.736  16.771   3.338  1.00  0.00     0.156 HD
ENDBRANCH   5   7
ENDBRANCH   4   5
ENDBRANCH   3   4
ENDBRANCH   1   3
BRANCH   1  11
HETATM   11  C4  UNL     1      -3.251  22.585   2.211  1.00  0.00     0.082 C 
BRANCH  11  12
HETATM   12  C5  UNL     1      -2.230  21.648   1.682  1.00  0.00     0.276 C 
BRANCH  12  13
HETATM   13  N4  UNL     1      -1.230  22.294   0.857  1.00  0.00    -0.069 N 
ATOM     14  H42 UNL     1      -0.932  21.674   0.104  1.00  0.00     0.277 HD
ATOM     15  H41 UNL     1      -1.649  23.044   0.307  1.00  0.00     0.277 HD
BRANCH  13  16
HETATM   16  C6  UNL     1      -0.099  22.778   1.588  1.00  0.00     0.258 C 
BRANCH  16  17
HETATM   17  C7  UNL     1      -0.360  24.257   1.891  1.00  0.00     0.191 C 
BRANCH  17  18
HETATM   18  O1  UNL     1       0.216  24.574   3.117  1.00  0.00    -0.399 OA
ATOM     19  H1  UNL     1      -0.464  24.601   3.779  1.00  0.00     0.209 HD
ENDBRANCH  17  18
ENDBRANCH  16  17
ENDBRANCH  13  16
ENDBRANCH  12  13
ENDBRANCH  11  12
ENDBRANCH   1  11
TORSDOF 10
ENDMDL
MODEL 3
REMARK VINA RESULT: -5.236572088      3.364      6.845
REMARK  10 active torsions:
REMARK  status: ('A' for Active; 'I' for Inactive)
REMARK    1  A    between atoms: C1_4  and  N2_5 
REMARK    2  A    between atoms: N2_5  and  C2_7 
REMARK    3  A    between atoms: C2_7  and  C3_8 
REMARK    4  A    between atoms: C3_8  and  N3_9 
REMARK    5  A    between atoms: N3_9  and  C4_11 
REMARK    6  A    between atoms: C4_11  and  C5_12 
REMARK    7  A    between atoms: C5_12  and  N4_13 
REMARK    8  A    between atoms: N4_13  and  C6_16 
REMARK    9  A    between atoms: C6_16  and  C7_17 
REMARK   10  A    between atoms: C7_17  and  O1_18 
ROOT
HETATM    1  N3  UNL     1      -3.643  20.697   2.911  1.00  0.00    -0.399 N 
ATOM      2  H3  UNL     1      -2.952  20.102   2.454  1.00  0.00     0.158 HD
ENDROOT
BRANCH   1   3
HETATM    3  C3  UNL     1      -4.386  20.229   4.019  1.00  0.00     0.138 C 
BRANCH   3   4
HETATM    4  C2  UNL     1      -5.121  18.942   3.832  1.00  0.00     0.140 C 
BRANCH   4   5
HETATM    5  N2  UNL     1      -6.494  19.136   3.387  1.00  0.00    -0.385 N 
ATOM      6  H2  UNL     1      -6.868  20.074   3.245  1.00  0.00     0.160 HD
BRANCH   5   7
HETATM    7  C1  UNL     1      -7.308  17.980   3.153  1.00  0.00     0.168 C 
HETATM    8  N1  UNL     1      -6.931  16.795   3.460  1.00  0.00    -0.396 N 
ATOM      9  H12 UNL     1      -6.010  16.687   3.886  1.00  0.00     0.156 HD
ATOM     10  H11 UNL     1      -7.510  15.972   3.293  1.00  0.00     0.156 HD
ENDBRANCH   5   7
ENDBRANCH   4   5
ENDBRANCH   3   4
ENDBRANCH   1   3
BRANCH   1  11
HETATM   11  C4  UNL     1      -3.883  22.007   2.455  1.00  0.00     0.082 C 
BRANCH  11  12
HETATM   12  C5  UNL     1      -2.715  22.834   2.067  1.00  0.00     0.276 C 
BRANCH  12  13
HETATM   13  N4  UNL     1      -1.692  22.088   1.364  1.00  0.00    -0.069 N 
ATOM     14  H42 UNL     1      -1.633  21.135   1.721  1.00  0.00     0.277 HD
ATOM     15  H41 UNL     1      -1.984  21.895   0.405  1.00  0.00     0.277 HD
BRANCH  13  16
HETATM   16  C6  UNL     1      -0.404  22.712   1.380  1.00  0.00     0.258 C 
BRANCH  16  17
HETATM   17  C7  UNL     1      -0.593  24.115   1.966  1.00  0.00     0.191 C 
BRANCH  17  18
HETATM   18  O1  UNL     1       0.439  24.370   2.864  1.00  0.00    -0.399 OA
ATOM     19  H1  UNL     1       0.558  25.310   2.936  1.00  0.00     0.209 HD
ENDBRANCH  17  18
ENDBRANCH  16  17
ENDBRANCH  13  16
ENDBRANCH  12  13
ENDBRANCH  11  12
ENDBRANCH   1  11
TORSDOF 10
ENDMDL
MODEL 4
REMARK VINA RESULT: -5.143535447      1.986      2.057
REMARK  10 active torsions:
REMARK  status: ('A' for Active; 'I' for Inactive)
REMARK    1  A    between atoms: C1_4  and  N2_5 
REMARK    2  A    between atoms: N2_5  and  C2_7 
REMARK    3  A    between atoms: C2_7  and  C3_8 
REMARK    4  A    between atoms: C3_8  and  N3_9 
REMARK    5  A    between atoms: N3_9  and  C4_11 
REMARK    6  A    between atoms: C4_11  and  C5_12 
REMARK    7  A    between atoms: C5_12  and  N4_13 
REMARK    8  A    between atoms: N4_13  and  C6_16 
REMARK    9  A    between atoms: C6_16  and  C7_17 
REMARK   10  A    between atoms: C7_17  and  O1_18 
ROOT
HETATM    1  N3  UNL     1      -4.033  21.658   3.261  1.00  0.00    -0.399 N 
ATOM      2  H3  UNL     1      -4.365  22.594   3.494  1.00  0.00     0.158 HD
ENDROOT
BRANCH   1   3
HETATM    3  C3  UNL     1      -3.504  21.372   1.982  1.00  0.00     0.138 C 
BRANCH   3   4
HETATM    4  C2  UNL     1      -2.159  21.944   1.676  1.00  0.00     0.140 C 
BRANCH   4   5
HETATM    5  N2  UNL     1      -2.066  23.364   1.983  1.00  0.00    -0.385 N 
ATOM      6  H2  UNL     1      -2.894  23.893   2.256  1.00  0.00     0.160 HD
BRANCH   5   7
HETATM    7  C1  UNL     1      -0.787  24.004   1.893  1.00  0.00     0.168 C 
HETATM    8  N1  UNL     1      -0.324  24.758   2.820  1.00  0.00    -0.396 N 
ATOM      9  H12 UNL     1      -0.903  24.899   3.648  1.00  0.00     0.156 HD
ATOM     10  H11 UNL     1       0.587  25.213   2.756  1.00  0.00     0.156 HD
ENDBRANCH   5   7
ENDBRANCH   4   5
ENDBRANCH   3   4
ENDBRANCH   1   3
BRANCH   1  11
HETATM   11  C4  UNL     1      -4.091  20.616   4.205  1.00  0.00     0.082 C 
BRANCH  11  12
HETATM   12  C5  UNL     1      -4.931  19.435   3.888  1.00  0.00     0.276 C 
BRANCH  12  13
HETATM   13  N4  UNL     1      -6.293  19.778   3.533  1.00  0.00    -0.069 N 
ATOM     14  H42 UNL     1      -6.948  19.399   4.217  1.00  0.00     0.277 HD
ATOM     15  H41 UNL     1      -6.459  20.775   3.670  1.00  0.00     0.277 HD
BRANCH  13  16
HETATM   16  C6  UNL     1      -6.664  19.384   2.209  1.00  0.00     0.258 C 
BRANCH  16  17
HETATM   17  C7  UNL     1      -7.544  20.501   1.638  1.00  0.00     0.191 C 
BRANCH  17  18
HETATM   18  O1  UNL     1      -7.076  21.725   2.105  1.00  0.00    -0.399 OA
ATOM     19  H1  UNL     1      -7.022  21.693   3.052  1.00  0.00     0.209 HD
ENDBRANCH  17  18
ENDBRANCH  16  17
ENDBRANCH  13  16
ENDBRANCH  12  13
ENDBRANCH  11  12
ENDBRANCH   1  11
TORSDOF 10
ENDMDL
MODEL 5
REMARK VINA RESULT: -5.137937767      1.116      1.383
REMARK  10 active torsions:
REMARK  status: ('A' for Active; 'I' for Inactive)
REMARK    1  A    between atoms: C1_4  and  N2_5 
REMARK    2  A    between atoms: N2_5  and  C2_7 
REMARK    3  A    between atoms: C2_7  and  C3_8 
REMARK    4  A    between atoms: C3_8  and  N3_9 
REMARK    5  A    between atoms: N3_9  and  C4_11 
REMARK    6  A    between atoms: C4_11  and  C5_12 
REMARK    7  A    between atoms: C5_12  and  N4_13 
REMARK    8  A    between atoms: N4_13  and  C6_16 
REMARK    9  A    between atoms: C6_16  and  C7_17 
REMARK   10  A    between atoms: C7_17  and  O1_18 
ROOT
HETATM    1  N3  UNL     1      -4.134  21.551   3.786  1.00  0.00    -0.399 N 
ATOM      2  H3  UNL     1      -4.209  22.247   4.527  1.00  0.00     0.158 HD
ENDROOT
BRANCH   1   3
HETATM    3  C3  UNL     1      -3.772  21.925   2.471  1.00  0.00     0.138 C 
BRANCH   3   4
HETATM    4  C2  UNL     1      -2.985  23.186   2.332  1.00  0.00     0.140 C 
BRANCH   4   5
HETATM    5  N2  UNL     1      -1.687  22.974   1.705  1.00  0.00    -0.385 N 
ATOM      6  H2  UNL     1      -1.475  22.097   1.231  1.00  0.00     0.160 HD
BRANCH   5   7
HETATM    7  C1  UNL     1      -0.715  24.026   1.769  1.00  0.00     0.168 C 
HETATM    8  N1  UNL     1      -0.428  24.637   2.857  1.00  0.00    -0.396 N 
ATOM      9  H12 UNL     1      -0.921  24.351   3.704  1.00  0.00     0.156 HD
ATOM     10  H11 UNL     1       0.263  25.385   2.903  1.00  0.00     0.156 HD
ENDBRANCH   5   7
ENDBRANCH   4   5
ENDBRANCH   3   4
ENDBRANCH   1   3
BRANCH   1  11
HETATM   11  C4  UNL     1      -4.388  20.191   4.043  1.00  0.00     0.082 C 
BRANCH  11  12
HETATM   12  C5  UNL     1      -5.161  19.424   3.037  1.00  0.00     0.276 C 
BRANCH  12  13
HETATM   13  N4  UNL     1      -5.629  18.144   3.525  1.00  0.00    -0.069 N 
ATOM     14  H42 UNL     1      -5.000  17.396   3.233  1.00  0.00     0.277 HD
ATOM     15  H41 UNL     1      -5.512  18.082   4.537  1.00  0.00     0.277 HD
BRANCH  13  16
HETATM   16  C6  UNL     1      -6.978  17.839   3.156  1.00  0.00     0.258 C 
BRANCH  16  17
HETATM   17  C7  UNL     1      -6.976  17.551   1.651  1.00  0.00     0.191 C 
BRANCH  17  18
HETATM   18  O1  UNL     1      -6.247  16.390   1.416  1.00  0.00    -0.399 OA
ATOM     19  H1  UNL     1      -5.574  16.574   0.771  1.00  0.00     0.209 HD
ENDBRANCH  17  18
ENDBRANCH  16  17
ENDBRANCH  13  16
ENDBRANCH  12  13
ENDBRANCH  11  12
ENDBRANCH   1  11
TORSDOF 10
ENDMDL
