MODEL 1
REMARK VINA RESULT: -6.681153979      0.000      0.000
REMARK  3 active torsions:
REMARK  status: ('A' for Active; 'I' for Inactive)
REMARK    1  A    between atoms: O1_2  and  C2_3 
REMARK    2  A    between atoms: C9_10  and  C10_11 
REMARK    3  A    between atoms: C13_14  and  C14_15 
ROOT
HETATM    1  C14 UNL     1      -3.711  22.019  23.373  1.00  0.00     0.026 C 
HETATM    2  C15 UNL     1      -3.547  22.598  24.495  1.00  0.00     0.122 C 
HETATM    3  C16 UNL     1      -3.266  23.947  24.840  1.00  0.00     0.110 C 
HETATM    4  N1  UNL     1      -3.033  25.053  25.169  1.00  0.00    -0.191 NA
HETATM    5  C17 UNL     1      -3.675  21.695  25.684  1.00  0.00     0.110 C 
HETATM    6  N2  UNL     1      -3.794  21.003  26.601  1.00  0.00    -0.191 NA
ENDROOT
BRANCH   1   7
HETATM    7  C13 UNL     1      -3.666  22.552  21.953  1.00  0.00     0.028 C 
HETATM    8  C4  UNL     1      -4.174  21.406  21.128  1.00  0.00    -0.042 C 
HETATM    9  C3  UNL     1      -3.267  20.568  20.314  1.00  0.00     0.045 C 
HETATM   10  C5  UNL     1      -5.449  21.190  21.131  1.00  0.00    -0.014 C 
HETATM   11  C2  UNL     1      -2.011  20.908  20.186  1.00  0.00     0.068 C 
HETATM   12  C19 UNL     1      -1.492  22.073  20.864  1.00  0.00     0.034 C 
HETATM   13  C18 UNL     1      -2.280  22.819  21.666  1.00  0.00    -0.005 C 
HETATM   14  C6  UNL     1      -6.449  21.935  21.877  1.00  0.00     0.005 C 
HETATM   15  C7  UNL     1      -7.639  22.125  20.916  1.00  0.00     0.014 C 
HETATM   16  C8  UNL     1      -5.995  23.260  22.406  1.00  0.00     0.014 C 
HETATM   17  C9  UNL     1      -4.642  23.700  21.876  1.00  0.00     0.010 C 
BRANCH  11  18
HETATM   18  O1  UNL     1      -1.182  20.125  19.406  1.00  0.00    -0.356 OA
HETATM   19  C1  UNL     1      -1.433  18.718  19.429  1.00  0.00     0.210 C 
ENDBRANCH  11  18
BRANCH  17  20
HETATM   20  C10 UNL     1      -4.743  24.274  20.510  1.00  0.00    -0.017 C 
HETATM   21  C11 UNL     1      -5.976  25.167  20.350  1.00  0.00     0.010 C 
HETATM   22  C12 UNL     1      -3.604  25.138  20.046  1.00  0.00     0.010 C 
ENDBRANCH  17  20
ENDBRANCH   1   7
TORSDOF 3
ENDMDL
MODEL 2
REMARK VINA RESULT: -6.327637118      1.104      1.468
REMARK  3 active torsions:
REMARK  status: ('A' for Active; 'I' for Inactive)
REMARK    1  A    between atoms: O1_2  and  C2_3 
REMARK    2  A    between atoms: C9_10  and  C10_11 
REMARK    3  A    between atoms: C13_14  and  C14_15 
ROOT
HETATM    1  C14 UNL     1      -3.802  22.427  23.418  1.00  0.00     0.026 C 
HETATM    2  C15 UNL     1      -3.048  21.634  24.070  1.00  0.00     0.122 C 
HETATM    3  C16 UNL     1      -1.926  20.851  23.686  1.00  0.00     0.110 C 
HETATM    4  N1  UNL     1      -0.994  20.188  23.410  1.00  0.00    -0.191 NA
HETATM    5  C17 UNL     1      -3.402  21.494  25.520  1.00  0.00     0.110 C 
HETATM    6  N2  UNL     1      -3.662  21.401  26.641  1.00  0.00    -0.191 NA
ENDROOT
BRANCH   1   7
HETATM    7  C13 UNL     1      -3.794  22.846  21.960  1.00  0.00     0.028 C 
HETATM    8  C4  UNL     1      -4.368  21.657  21.247  1.00  0.00    -0.042 C 
HETATM    9  C3  UNL     1      -3.520  20.728  20.470  1.00  0.00     0.045 C 
HETATM   10  C5  UNL     1      -5.649  21.487  21.310  1.00  0.00    -0.014 C 
HETATM   11  C2  UNL     1      -2.258  21.013  20.271  1.00  0.00     0.068 C 
HETATM   12  C19 UNL     1      -1.678  22.209  20.837  1.00  0.00     0.034 C 
HETATM   13  C18 UNL     1      -2.411  23.042  21.605  1.00  0.00    -0.005 C 
HETATM   14  C6  UNL     1      -6.596  22.322  22.030  1.00  0.00     0.005 C 
HETATM   15  C7  UNL     1      -7.814  22.477  21.099  1.00  0.00     0.014 C 
HETATM   16  C8  UNL     1      -6.080  23.668  22.436  1.00  0.00     0.014 C 
HETATM   17  C9  UNL     1      -4.734  24.018  21.826  1.00  0.00     0.010 C 
BRANCH  11  18
HETATM   18  O1  UNL     1      -1.485  20.144  19.528  1.00  0.00    -0.356 OA
HETATM   19  C1  UNL     1      -1.534  18.767  19.909  1.00  0.00     0.210 C 
ENDBRANCH  11  18
BRANCH  17  20
HETATM   20  C10 UNL     1      -4.869  24.487  20.424  1.00  0.00    -0.017 C 
HETATM   21  C11 UNL     1      -6.086  25.395  20.234  1.00  0.00     0.010 C 
HETATM   22  C12 UNL     1      -3.727  25.285  19.858  1.00  0.00     0.010 C 
ENDBRANCH  17  20
ENDBRANCH   1   7
TORSDOF 3
ENDMDL
MODEL 3
REMARK VINA RESULT: -6.306895203      1.672      2.217
REMARK  3 active torsions:
REMARK  status: ('A' for Active; 'I' for Inactive)
REMARK    1  A    between atoms: O1_2  and  C2_3 
REMARK    2  A    between atoms: C9_10  and  C10_11 
REMARK    3  A    between atoms: C13_14  and  C14_15 
ROOT
HETATM    1  C14 UNL     1      -5.864  23.494  23.601  1.00  0.00     0.026 C 
HETATM    2  C15 UNL     1      -5.330  23.880  24.691  1.00  0.00     0.122 C 
HETATM    3  C16 UNL     1      -4.089  24.511  24.974  1.00  0.00     0.110 C 
HETATM    4  N1  UNL     1      -3.071  25.035  25.252  1.00  0.00    -0.191 NA
HETATM    5  C17 UNL     1      -6.159  23.625  25.913  1.00  0.00     0.110 C 
HETATM    6  N2  UNL     1      -6.806  23.446  26.852  1.00  0.00    -0.191 NA
ENDROOT
BRANCH   1   7
HETATM    7  C13 UNL     1      -5.375  23.560  22.167  1.00  0.00     0.028 C 
HETATM    8  C4  UNL     1      -6.129  22.457  21.485  1.00  0.00    -0.042 C 
HETATM    9  C3  UNL     1      -5.482  21.177  21.123  1.00  0.00     0.045 C 
HETATM   10  C5  UNL     1      -7.370  22.675  21.194  1.00  0.00    -0.014 C 
HETATM   11  C2  UNL     1      -4.188  21.042  21.265  1.00  0.00     0.068 C 
HETATM   12  C19 UNL     1      -3.393  22.118  21.808  1.00  0.00     0.034 C 
HETATM   13  C18 UNL     1      -3.964  23.273  22.208  1.00  0.00    -0.005 C 
HETATM   14  C6  UNL     1      -8.126  23.881  21.485  1.00  0.00     0.005 C 
HETATM   15  C7  UNL     1      -8.969  24.166  20.226  1.00  0.00     0.014 C 
HETATM   16  C8  UNL     1      -7.302  25.081  21.838  1.00  0.00     0.014 C 
HETATM   17  C9  UNL     1      -5.813  24.891  21.606  1.00  0.00     0.010 C 
BRANCH  11  18
HETATM   18  O1  UNL     1      -3.597  19.847  20.905  1.00  0.00    -0.356 OA
HETATM   19  C1  UNL     1      -2.370  19.939  20.179  1.00  0.00     0.210 C 
ENDBRANCH  11  18
BRANCH  17  20
HETATM   20  C10 UNL     1      -5.451  25.056  20.176  1.00  0.00    -0.017 C 
HETATM   21  C11 UNL     1      -6.270  26.157  19.497  1.00  0.00     0.010 C 
HETATM   22  C12 UNL     1      -4.025  25.422  19.870  1.00  0.00     0.010 C 
ENDBRANCH  17  20
ENDBRANCH   1   7
TORSDOF 3
ENDMDL
MODEL 4
REMARK VINA RESULT: -6.179856868      3.264      6.459
REMARK  3 active torsions:
REMARK  status: ('A' for Active; 'I' for Inactive)
REMARK    1  A    between atoms: O1_2  and  C2_3 
REMARK    2  A    between atoms: C9_10  and  C10_11 
REMARK    3  A    between atoms: C13_14  and  C14_15 
ROOT
HETATM    1  C14 UNL     1      -1.008  20.597  20.662  1.00  0.00     0.026 C 
HETATM    2  C15 UNL     1      -1.634  21.700  20.770  1.00  0.00     0.122 C 
HETATM    3  C16 UNL     1      -2.238  22.350  21.880  1.00  0.00     0.110 C 
HETATM    4  N1  UNL     1      -2.750  22.921  22.773  1.00  0.00    -0.191 NA
HETATM    5  C17 UNL     1      -1.764  22.468  19.490  1.00  0.00     0.110 C 
HETATM    6  N2  UNL     1      -1.847  23.069  18.508  1.00  0.00    -0.191 NA
ENDROOT
BRANCH   1   7
HETATM    7  C13 UNL     1      -0.660  19.536  21.689  1.00  0.00     0.028 C 
HETATM    8  C4  UNL     1      -1.897  18.689  21.755  1.00  0.00    -0.042 C 
HETATM    9  C3  UNL     1      -2.840  18.772  22.891  1.00  0.00     0.045 C 
HETATM   10  C5  UNL     1      -2.098  17.853  20.789  1.00  0.00    -0.014 C 
HETATM   11  C2  UNL     1      -2.531  19.492  23.939  1.00  0.00     0.068 C 
HETATM   12  C19 UNL     1      -1.295  20.237  23.979  1.00  0.00     0.034 C 
HETATM   13  C18 UNL     1      -0.445  20.233  22.931  1.00  0.00    -0.005 C 
HETATM   14  C6  UNL     1      -1.255  17.664  19.621  1.00  0.00     0.005 C 
HETATM   15  C7  UNL     1      -1.177  16.141  19.397  1.00  0.00     0.014 C 
HETATM   16  C8  UNL     1       0.123  18.242  19.728  1.00  0.00     0.014 C 
HETATM   17  C9  UNL     1       0.479  18.722  21.124  1.00  0.00     0.010 C 
BRANCH  11  18
HETATM   18  O1  UNL     1      -3.415  19.544  24.998  1.00  0.00    -0.356 OA
HETATM   19  C1  UNL     1      -3.264  20.645  25.898  1.00  0.00     0.210 C 
ENDBRANCH  11  18
BRANCH  17  20
HETATM   20  C10 UNL     1       0.875  17.599  22.011  1.00  0.00    -0.017 C 
HETATM   21  C11 UNL     1       1.912  16.685  21.355  1.00  0.00     0.010 C 
HETATM   22  C12 UNL     1       1.491  17.959  23.335  1.00  0.00     0.010 C 
ENDBRANCH  17  20
ENDBRANCH   1   7
TORSDOF 3
ENDMDL
MODEL 5
REMARK VINA RESULT: -6.084860586      1.102      1.334
REMARK  3 active torsions:
REMARK  status: ('A' for Active; 'I' for Inactive)
REMARK    1  A    between atoms: O1_2  and  C2_3 
REMARK    2  A    between atoms: C9_10  and  C10_11 
REMARK    3  A    between atoms: C13_14  and  C14_15 
ROOT
HETATM    1  C14 UNL     1      -3.002  21.573  23.440  1.00  0.00     0.026 C 
HETATM    2  C15 UNL     1      -3.114  22.343  24.448  1.00  0.00     0.122 C 
HETATM    3  C16 UNL     1      -3.021  23.754  24.586  1.00  0.00     0.110 C 
HETATM    4  N1  UNL     1      -2.952  24.918  24.744  1.00  0.00    -0.191 NA
HETATM    5  C17 UNL     1      -3.400  21.637  25.739  1.00  0.00     0.110 C 
HETATM    6  N2  UNL     1      -3.640  21.096  26.730  1.00  0.00    -0.191 NA
ENDROOT
BRANCH   1   7
HETATM    7  C13 UNL     1      -2.721  21.868  21.979  1.00  0.00     0.028 C 
HETATM    8  C4  UNL     1      -3.165  20.621  21.273  1.00  0.00    -0.042 C 
HETATM    9  C3  UNL     1      -2.197  19.635  20.747  1.00  0.00     0.045 C 
HETATM   10  C5  UNL     1      -4.437  20.449  21.113  1.00  0.00    -0.014 C 
HETATM   11  C2  UNL     1      -0.918  19.910  20.762  1.00  0.00     0.068 C 
HETATM   12  C19 UNL     1      -0.441  21.152  21.323  1.00  0.00     0.034 C 
HETATM   13  C18 UNL     1      -1.295  22.042  21.870  1.00  0.00    -0.005 C 
HETATM   14  C6  UNL     1      -5.492  21.335  21.573  1.00  0.00     0.005 C 
HETATM   15  C7  UNL     1      -6.517  21.405  20.423  1.00  0.00     0.014 C 
HETATM   16  C8  UNL     1      -5.048  22.714  21.954  1.00  0.00     0.014 C 
HETATM   17  C9  UNL     1      -3.609  23.020  21.576  1.00  0.00     0.010 C 
BRANCH  11  18
HETATM   18  O1  UNL     1      -0.030  18.986  20.249  1.00  0.00    -0.356 OA
HETATM   19  C1  UNL     1      -0.380  18.396  18.995  1.00  0.00     0.210 C 
ENDBRANCH  11  18
BRANCH  17  20
HETATM   20  C10 UNL     1      -3.478  23.368  20.139  1.00  0.00    -0.017 C 
HETATM   21  C11 UNL     1      -3.872  24.821  19.860  1.00  0.00     0.010 C 
HETATM   22  C12 UNL     1      -2.111  23.238  19.527  1.00  0.00     0.010 C 
ENDBRANCH  17  20
ENDBRANCH   1   7
TORSDOF 3
ENDMDL
