MODEL 1
REMARK VINA RESULT: -7.368882720      0.000      0.000
REMARK  17 active torsions:
REMARK  status: ('A' for Active; 'I' for Inactive)
REMARK    1  A    between atoms: C2_2  and  C3_3 
REMARK    2  A    between atoms: C3_3  and  C4_4 
REMARK    3  A    between atoms: C4_4  and  C5_5 
REMARK    4  A    between atoms: C6_6  and  C7_7 
REMARK    5  A    between atoms: C7_7  and  C8_8 
REMARK    6  A    between atoms: C9_9  and  C10_10 
REMARK    7  A    between atoms: C10_10  and  C11_11 
REMARK    8  A    between atoms: C11_11  and  C12_12 
REMARK    9  A    between atoms: C13_13  and  C14_14 
REMARK   10  A    between atoms: C15_15  and  C16_16 
REMARK   11  A    between atoms: C16_16  and  C18_18 
REMARK   12  A    between atoms: C20_20  and  O1_21 
REMARK   13  A    between atoms: C21_23  and  O2_24 
REMARK   14  A    between atoms: C23_29  and  C24_30 
REMARK   15  A    between atoms: C24_30  and  O4_31 
REMARK   16  A    between atoms: C25_33  and  O5_34 
REMARK   17  A    between atoms: C26_36  and  O6_37 
ROOT
HETATM    1  C18 UNL     1      47.159  19.754  40.334  1.00  0.00     0.027 C 
HETATM    2  C19 UNL     1      46.546  19.205  41.597  1.00  0.00     0.042 C 
HETATM    3  C20 UNL     1      47.334  18.077  42.216  1.00  0.00     0.150 C 
HETATM    4  C21 UNL     1      47.437  16.820  41.496  1.00  0.00     0.180 C 
HETATM    5  C22 UNL     1      46.830  16.686  40.162  1.00  0.00     0.217 C 
HETATM    6  O3  UNL     1      45.456  16.768  40.134  1.00  0.00    -0.275 OA
HETATM    7  N1  UNL     1      45.047  17.408  39.040  1.00  0.00    -0.090 NA
HETATM    8  C23 UNL     1      46.185  17.602  38.161  1.00  0.00     0.169 C 
HETATM    9  C25 UNL     1      47.325  17.579  39.073  1.00  0.00     0.136 C 
HETATM   10  C26 UNL     1      47.952  18.855  39.521  1.00  0.00     0.161 C 
ENDROOT
BRANCH   1  11
HETATM   11  C16 UNL     1      47.941  21.001  40.703  1.00  0.00     0.011 C 
HETATM   12  C17 UNL     1      47.362  21.585  42.008  1.00  0.00     0.015 C 
BRANCH  11  13
HETATM   13  C15 UNL     1      48.012  22.058  39.728  1.00  0.00    -0.022 C 
HETATM   14  C14 UNL     1      46.981  22.792  39.369  1.00  0.00    -0.003 C 
BRANCH  14  15
HETATM   15  C13 UNL     1      45.646  22.656  39.890  1.00  0.00     0.008 C 
HETATM   16  C12 UNL     1      44.569  22.340  39.215  1.00  0.00     0.055 C 
BRANCH  16  17
HETATM   17  C11 UNL     1      44.471  22.060  37.865  1.00  0.00    -0.128 C 
BRANCH  17  18
HETATM   18  C10 UNL     1      44.382  21.804  36.635  1.00  0.00     0.055 C 
BRANCH  18  19
HETATM   19  C9  UNL     1      43.816  22.746  35.634  1.00  0.00     0.004 C 
HETATM   20  C8  UNL     1      44.542  23.513  34.881  1.00  0.00    -0.022 C 
BRANCH  20  21
HETATM   21  C7  UNL     1      46.012  23.622  34.836  1.00  0.00     0.054 C 
BRANCH  21  22
HETATM   22  C6  UNL     1      46.457  23.930  33.459  1.00  0.00    -0.027 C 
HETATM   23  C5  UNL     1      46.534  25.091  32.911  1.00  0.00    -0.030 C 
BRANCH  23  24
HETATM   24  C4  UNL     1      46.201  26.369  33.530  1.00  0.00     0.027 C 
BRANCH  24  25
HETATM   25  C3  UNL     1      45.025  27.070  32.843  1.00  0.00     0.003 C 
BRANCH  25  26
HETATM   26  C2  UNL     1      44.842  26.449  31.450  1.00  0.00    -0.004 C 
HETATM   27  C1  UNL     1      43.674  27.174  30.798  1.00  0.00     0.005 C 
ENDBRANCH  25  26
ENDBRANCH  24  25
ENDBRANCH  23  24
ENDBRANCH  21  22
ENDBRANCH  20  21
ENDBRANCH  18  19
ENDBRANCH  17  18
ENDBRANCH  16  17
ENDBRANCH  14  15
ENDBRANCH  11  13
ENDBRANCH   1  11
BRANCH  10  28
HETATM   28  O6  UNL     1      49.164  18.495  40.143  1.00  0.00    -0.392 OA
ATOM     29  H6  UNL     1      49.922  18.837  39.685  1.00  0.00     0.210 HD
ENDBRANCH  10  28
BRANCH   3  30
HETATM   30  O1  UNL     1      46.740  17.871  43.480  1.00  0.00    -0.393 OA
ATOM     31  H1  UNL     1      46.264  18.674  43.660  1.00  0.00     0.210 HD
ENDBRANCH   3  30
BRANCH   9  32
HETATM   32  O5  UNL     1      48.384  16.893  38.406  1.00  0.00    -0.382 OA
ATOM     33  H5  UNL     1      48.943  17.551  38.010  1.00  0.00     0.210 HD
ENDBRANCH   9  32
BRANCH   4  34
HETATM   34  O2  UNL     1      46.934  15.754  42.295  1.00  0.00    -0.390 OA
ATOM     35  H2  UNL     1      47.639  15.167  42.540  1.00  0.00     0.210 HD
ENDBRANCH   4  34
BRANCH   8  36
HETATM   36  C24 UNL     1      45.968  18.667  37.198  1.00  0.00     0.191 C 
BRANCH  36  37
HETATM   37  O4  UNL     1      46.170  18.120  35.899  1.00  0.00    -0.399 OA
ATOM     38  H4  UNL     1      46.404  18.835  35.320  1.00  0.00     0.209 HD
ENDBRANCH  36  37
ENDBRANCH   8  36
TORSDOF 17
ENDMDL
MODEL 2
REMARK VINA RESULT: -7.286246488      4.417      7.747
REMARK  17 active torsions:
REMARK  status: ('A' for Active; 'I' for Inactive)
REMARK    1  A    between atoms: C2_2  and  C3_3 
REMARK    2  A    between atoms: C3_3  and  C4_4 
REMARK    3  A    between atoms: C4_4  and  C5_5 
REMARK    4  A    between atoms: C6_6  and  C7_7 
REMARK    5  A    between atoms: C7_7  and  C8_8 
REMARK    6  A    between atoms: C9_9  and  C10_10 
REMARK    7  A    between atoms: C10_10  and  C11_11 
REMARK    8  A    between atoms: C11_11  and  C12_12 
REMARK    9  A    between atoms: C13_13  and  C14_14 
REMARK   10  A    between atoms: C15_15  and  C16_16 
REMARK   11  A    between atoms: C16_16  and  C18_18 
REMARK   12  A    between atoms: C20_20  and  O1_21 
REMARK   13  A    between atoms: C21_23  and  O2_24 
REMARK   14  A    between atoms: C23_29  and  C24_30 
REMARK   15  A    between atoms: C24_30  and  O4_31 
REMARK   16  A    between atoms: C25_33  and  O5_34 
REMARK   17  A    between atoms: C26_36  and  O6_37 
ROOT
HETATM    1  C18 UNL     1      47.980  20.198  39.960  1.00  0.00     0.027 C 
HETATM    2  C19 UNL     1      47.306  21.484  39.557  1.00  0.00     0.042 C 
HETATM    3  C20 UNL     1      46.117  21.843  40.413  1.00  0.00     0.150 C 
HETATM    4  C21 UNL     1      44.941  20.993  40.366  1.00  0.00     0.180 C 
HETATM    5  C22 UNL     1      44.948  19.774  39.540  1.00  0.00     0.217 C 
HETATM    6  O3  UNL     1      45.037  19.988  38.183  1.00  0.00    -0.275 OA
HETATM    7  N1  UNL     1      45.789  19.050  37.610  1.00  0.00    -0.090 NA
HETATM    8  C23 UNL     1      46.068  18.015  38.587  1.00  0.00     0.169 C 
HETATM    9  C25 UNL     1      45.947  18.713  39.864  1.00  0.00     0.136 C 
HETATM   10  C26 UNL     1      47.167  19.175  40.585  1.00  0.00     0.161 C 
ENDROOT
BRANCH   1  11
HETATM   11  C16 UNL     1      49.178  20.553  40.819  1.00  0.00     0.011 C 
HETATM   12  C17 UNL     1      49.755  21.901  40.339  1.00  0.00     0.015 C 
BRANCH  11  13
HETATM   13  C15 UNL     1      50.256  19.601  40.889  1.00  0.00    -0.022 C 
HETATM   14  C14 UNL     1      50.657  19.030  42.005  1.00  0.00    -0.003 C 
BRANCH  14  15
HETATM   15  C13 UNL     1      50.087  19.265  43.306  1.00  0.00     0.008 C 
HETATM   16  C12 UNL     1      50.343  20.271  44.104  1.00  0.00     0.055 C 
BRANCH  16  17
HETATM   17  C11 UNL     1      51.203  21.330  43.879  1.00  0.00    -0.128 C 
BRANCH  17  18
HETATM   18  C10 UNL     1      51.988  22.293  43.674  1.00  0.00     0.055 C 
BRANCH  18  19
HETATM   19  C9  UNL     1      52.962  22.341  42.552  1.00  0.00     0.004 C 
HETATM   20  C8  UNL     1      52.985  23.284  41.662  1.00  0.00    -0.022 C 
BRANCH  20  21
HETATM   21  C7  UNL     1      52.107  24.464  41.560  1.00  0.00     0.054 C 
BRANCH  21  22
HETATM   22  C6  UNL     1      52.888  25.642  41.122  1.00  0.00    -0.027 C 
HETATM   23  C5  UNL     1      53.033  26.754  41.752  1.00  0.00    -0.030 C 
BRANCH  23  24
HETATM   24  C4  UNL     1      52.458  27.101  43.047  1.00  0.00     0.027 C 
BRANCH  24  25
HETATM   25  C3  UNL     1      53.452  26.929  44.200  1.00  0.00     0.003 C 
BRANCH  25  26
HETATM   26  C2  UNL     1      53.088  25.646  44.962  1.00  0.00    -0.004 C 
HETATM   27  C1  UNL     1      51.571  25.618  45.072  1.00  0.00     0.005 C 
ENDBRANCH  25  26
ENDBRANCH  24  25
ENDBRANCH  23  24
ENDBRANCH  21  22
ENDBRANCH  20  21
ENDBRANCH  18  19
ENDBRANCH  17  18
ENDBRANCH  16  17
ENDBRANCH  14  15
ENDBRANCH  11  13
ENDBRANCH   1  11
BRANCH  10  28
HETATM   28  O6  UNL     1      46.739  19.543  41.876  1.00  0.00    -0.392 OA
ATOM     29  H6  UNL     1      46.161  20.297  41.865  1.00  0.00     0.210 HD
ENDBRANCH  10  28
BRANCH   3  30
HETATM   30  O1  UNL     1      45.784  23.162  40.036  1.00  0.00    -0.393 OA
ATOM     31  H1  UNL     1      45.865  23.672  40.833  1.00  0.00     0.210 HD
ENDBRANCH   3  30
BRANCH   9  32
HETATM   32  O5  UNL     1      45.329  17.811  40.781  1.00  0.00    -0.382 OA
ATOM     33  H5  UNL     1      45.957  17.123  40.969  1.00  0.00     0.210 HD
ENDBRANCH   9  32
BRANCH   4  34
HETATM   34  O2  UNL     1      43.800  21.753  39.982  1.00  0.00    -0.390 OA
ATOM     35  H2  UNL     1      43.808  22.598  40.415  1.00  0.00     0.210 HD
ENDBRANCH   4  34
BRANCH   8  36
HETATM   36  C24 UNL     1      47.228  17.216  38.235  1.00  0.00     0.191 C 
BRANCH  36  37
HETATM   37  O4  UNL     1      47.820  17.805  37.080  1.00  0.00    -0.399 OA
ATOM     38  H4  UNL     1      48.376  18.517  37.374  1.00  0.00     0.209 HD
ENDBRANCH  36  37
ENDBRANCH   8  36
TORSDOF 17
ENDMDL
MODEL 3
REMARK VINA RESULT: -7.155419963      3.416      5.309
REMARK  17 active torsions:
REMARK  status: ('A' for Active; 'I' for Inactive)
REMARK    1  A    between atoms: C2_2  and  C3_3 
REMARK    2  A    between atoms: C3_3  and  C4_4 
REMARK    3  A    between atoms: C4_4  and  C5_5 
REMARK    4  A    between atoms: C6_6  and  C7_7 
REMARK    5  A    between atoms: C7_7  and  C8_8 
REMARK    6  A    between atoms: C9_9  and  C10_10 
REMARK    7  A    between atoms: C10_10  and  C11_11 
REMARK    8  A    between atoms: C11_11  and  C12_12 
REMARK    9  A    between atoms: C13_13  and  C14_14 
REMARK   10  A    between atoms: C15_15  and  C16_16 
REMARK   11  A    between atoms: C16_16  and  C18_18 
REMARK   12  A    between atoms: C20_20  and  O1_21 
REMARK   13  A    between atoms: C21_23  and  O2_24 
REMARK   14  A    between atoms: C23_29  and  C24_30 
REMARK   15  A    between atoms: C24_30  and  O4_31 
REMARK   16  A    between atoms: C25_33  and  O5_34 
REMARK   17  A    between atoms: C26_36  and  O6_37 
ROOT
HETATM    1  C18 UNL     1      49.465  21.899  41.604  1.00  0.00     0.027 C 
HETATM    2  C19 UNL     1      50.514  21.433  40.627  1.00  0.00     0.042 C 
HETATM    3  C20 UNL     1      50.915  19.990  40.806  1.00  0.00     0.150 C 
HETATM    4  C21 UNL     1      51.608  19.603  42.022  1.00  0.00     0.180 C 
HETATM    5  C22 UNL     1      51.852  20.601  43.077  1.00  0.00     0.217 C 
HETATM    6  O3  UNL     1      52.708  21.622  42.729  1.00  0.00    -0.275 OA
HETATM    7  N1  UNL     1      52.311  22.771  43.272  1.00  0.00    -0.090 NA
HETATM    8  C23 UNL     1      51.239  22.498  44.211  1.00  0.00     0.169 C 
HETATM    9  C25 UNL     1      50.669  21.247  43.719  1.00  0.00     0.136 C 
HETATM   10  C26 UNL     1      49.421  21.261  42.903  1.00  0.00     0.161 C 
ENDROOT
BRANCH   1  11
HETATM   11  C16 UNL     1      48.120  21.827  40.907  1.00  0.00     0.011 C 
HETATM   12  C17 UNL     1      48.079  22.890  39.789  1.00  0.00     0.015 C 
BRANCH  11  13
HETATM   13  C15 UNL     1      46.939  21.979  41.717  1.00  0.00    -0.022 C 
HETATM   14  C14 UNL     1      45.898  21.177  41.651  1.00  0.00    -0.003 C 
BRANCH  14  15
HETATM   15  C13 UNL     1      45.783  20.041  40.774  1.00  0.00     0.008 C 
HETATM   16  C12 UNL     1      45.380  20.050  39.528  1.00  0.00     0.055 C 
BRANCH  16  17
HETATM   17  C11 UNL     1      44.985  21.142  38.776  1.00  0.00    -0.128 C 
BRANCH  17  18
HETATM   18  C10 UNL     1      44.625  22.136  38.093  1.00  0.00     0.055 C 
BRANCH  18  19
HETATM   19  C9  UNL     1      43.842  22.033  36.833  1.00  0.00     0.004 C 
HETATM   20  C8  UNL     1      44.089  22.741  35.776  1.00  0.00    -0.022 C 
BRANCH  20  21
HETATM   21  C7  UNL     1      45.145  23.753  35.581  1.00  0.00     0.054 C 
BRANCH  21  22
HETATM   22  C6  UNL     1      46.142  23.265  34.603  1.00  0.00    -0.027 C 
HETATM   23  C5  UNL     1      46.423  23.781  33.458  1.00  0.00    -0.030 C 
BRANCH  23  24
HETATM   24  C4  UNL     1      45.819  24.971  32.870  1.00  0.00     0.027 C 
BRANCH  24  25
HETATM   25  C3  UNL     1      46.354  26.269  33.482  1.00  0.00     0.003 C 
BRANCH  25  26
HETATM   26  C2  UNL     1      45.339  27.388  33.202  1.00  0.00    -0.004 C 
HETATM   27  C1  UNL     1      44.595  26.995  31.934  1.00  0.00     0.005 C 
ENDBRANCH  25  26
ENDBRANCH  24  25
ENDBRANCH  23  24
ENDBRANCH  21  22
ENDBRANCH  20  21
ENDBRANCH  18  19
ENDBRANCH  17  18
ENDBRANCH  16  17
ENDBRANCH  14  15
ENDBRANCH  11  13
ENDBRANCH   1  11
BRANCH  10  28
HETATM   28  O6  UNL     1      48.989  19.922  42.831  1.00  0.00    -0.392 OA
ATOM     29  H6  UNL     1      48.942  19.604  41.937  1.00  0.00     0.210 HD
ENDBRANCH  10  28
BRANCH   3  30
HETATM   30  O1  UNL     1      51.706  19.690  39.675  1.00  0.00    -0.393 OA
ATOM     31  H1  UNL     1      52.101  20.517  39.427  1.00  0.00     0.210 HD
ENDBRANCH   3  30
BRANCH   9  32
HETATM   32  O5  UNL     1      50.322  20.464  44.861  1.00  0.00    -0.382 OA
ATOM     33  H5  UNL     1      50.410  21.022  45.624  1.00  0.00     0.210 HD
ENDBRANCH   9  32
BRANCH   4  34
HETATM   34  O2  UNL     1      52.863  19.012  41.706  1.00  0.00    -0.390 OA
ATOM     35  H2  UNL     1      52.737  18.248  41.156  1.00  0.00     0.210 HD
ENDBRANCH   4  34
BRANCH   8  36
HETATM   36  C24 UNL     1      50.434  23.673  44.492  1.00  0.00     0.191 C 
BRANCH  36  37
HETATM   37  O4  UNL     1      51.213  24.540  45.312  1.00  0.00    -0.399 OA
ATOM     38  H4  UNL     1      50.700  24.739  46.087  1.00  0.00     0.209 HD
ENDBRANCH  36  37
ENDBRANCH   8  36
TORSDOF 17
ENDMDL
MODEL 4
REMARK VINA RESULT: -7.137529803      4.578     10.481
REMARK  17 active torsions:
REMARK  status: ('A' for Active; 'I' for Inactive)
REMARK    1  A    between atoms: C2_2  and  C3_3 
REMARK    2  A    between atoms: C3_3  and  C4_4 
REMARK    3  A    between atoms: C4_4  and  C5_5 
REMARK    4  A    between atoms: C6_6  and  C7_7 
REMARK    5  A    between atoms: C7_7  and  C8_8 
REMARK    6  A    between atoms: C9_9  and  C10_10 
REMARK    7  A    between atoms: C10_10  and  C11_11 
REMARK    8  A    between atoms: C11_11  and  C12_12 
REMARK    9  A    between atoms: C13_13  and  C14_14 
REMARK   10  A    between atoms: C15_15  and  C16_16 
REMARK   11  A    between atoms: C16_16  and  C18_18 
REMARK   12  A    between atoms: C20_20  and  O1_21 
REMARK   13  A    between atoms: C21_23  and  O2_24 
REMARK   14  A    between atoms: C23_29  and  C24_30 
REMARK   15  A    between atoms: C24_30  and  O4_31 
REMARK   16  A    between atoms: C25_33  and  O5_34 
REMARK   17  A    between atoms: C26_36  and  O6_37 
ROOT
HETATM    1  C18 UNL     1      47.130  19.255  40.202  1.00  0.00     0.027 C 
HETATM    2  C19 UNL     1      48.492  19.760  39.800  1.00  0.00     0.042 C 
HETATM    3  C20 UNL     1      49.159  20.614  40.850  1.00  0.00     0.150 C 
HETATM    4  C21 UNL     1      48.571  21.900  41.181  1.00  0.00     0.180 C 
HETATM    5  C22 UNL     1      47.316  22.321  40.538  1.00  0.00     0.217 C 
HETATM    6  O3  UNL     1      47.396  22.533  39.180  1.00  0.00    -0.275 OA
HETATM    7  N1  UNL     1      46.279  22.132  38.577  1.00  0.00    -0.090 NA
HETATM    8  C23 UNL     1      45.291  21.814  39.590  1.00  0.00     0.169 C 
HETATM    9  C25 UNL     1      46.099  21.485  40.760  1.00  0.00     0.136 C 
HETATM   10  C26 UNL     1      46.353  20.061  41.121  1.00  0.00     0.161 C 
ENDROOT
BRANCH   1  11
HETATM   11  C16 UNL     1      47.295  17.837  40.715  1.00  0.00     0.011 C 
HETATM   12  C17 UNL     1      48.238  17.069  39.765  1.00  0.00     0.015 C 
BRANCH  11  13
HETATM   13  C15 UNL     1      46.103  17.050  40.900  1.00  0.00    -0.022 C 
HETATM   14  C14 UNL     1      45.773  16.480  42.039  1.00  0.00    -0.003 C 
BRANCH  14  15
HETATM   15  C13 UNL     1      46.540  16.556  43.256  1.00  0.00     0.008 C 
HETATM   16  C12 UNL     1      46.198  16.084  44.429  1.00  0.00     0.055 C 
BRANCH  16  17
HETATM   17  C11 UNL     1      45.039  15.407  44.761  1.00  0.00    -0.128 C 
BRANCH  17  18
HETATM   18  C10 UNL     1      43.983  14.792  45.063  1.00  0.00     0.055 C 
BRANCH  18  19
HETATM   19  C9  UNL     1      43.957  13.394  45.569  1.00  0.00     0.004 C 
HETATM   20  C8  UNL     1      44.119  13.080  46.816  1.00  0.00    -0.022 C 
BRANCH  20  21
HETATM   21  C7  UNL     1      44.348  13.980  47.962  1.00  0.00     0.054 C 
BRANCH  21  22
HETATM   22  C6  UNL     1      43.084  14.194  48.701  1.00  0.00    -0.027 C 
HETATM   23  C5  UNL     1      42.349  15.250  48.690  1.00  0.00    -0.030 C 
BRANCH  23  24
HETATM   24  C4  UNL     1      42.599  16.475  47.940  1.00  0.00     0.027 C 
BRANCH  24  25
HETATM   25  C3  UNL     1      43.645  17.374  48.608  1.00  0.00     0.003 C 
BRANCH  25  26
HETATM   26  C2  UNL     1      44.666  17.798  47.541  1.00  0.00    -0.004 C 
HETATM   27  C1  UNL     1      46.016  17.259  47.989  1.00  0.00     0.005 C 
ENDBRANCH  25  26
ENDBRANCH  24  25
ENDBRANCH  23  24
ENDBRANCH  21  22
ENDBRANCH  20  21
ENDBRANCH  18  19
ENDBRANCH  17  18
ENDBRANCH  16  17
ENDBRANCH  14  15
ENDBRANCH  11  13
ENDBRANCH   1  11
BRANCH  10  28
HETATM   28  O6  UNL     1      46.905  20.081  42.417  1.00  0.00    -0.392 OA
ATOM     29  H6  UNL     1      47.752  20.510  42.444  1.00  0.00     0.210 HD
ENDBRANCH  10  28
BRANCH   3  30
HETATM   30  O1  UNL     1      50.484  20.782  40.393  1.00  0.00    -0.393 OA
ATOM     31  H1  UNL     1      50.985  20.998  41.170  1.00  0.00     0.210 HD
ENDBRANCH   3  30
BRANCH   9  32
HETATM   32  O5  UNL     1      45.422  22.011  41.901  1.00  0.00    -0.382 OA
ATOM     33  H5  UNL     1      44.868  21.321  42.245  1.00  0.00     0.210 HD
ENDBRANCH   9  32
BRANCH   4  34
HETATM   34  O2  UNL     1      49.520  22.941  40.971  1.00  0.00    -0.390 OA
ATOM     35  H2  UNL     1      49.438  23.286  40.090  1.00  0.00     0.210 HD
ENDBRANCH   4  34
BRANCH   8  36
HETATM   36  C24 UNL     1      44.242  20.943  39.088  1.00  0.00     0.191 C 
BRANCH  36  37
HETATM   37  O4  UNL     1      43.498  21.680  38.122  1.00  0.00    -0.399 OA
ATOM     38  H4  UNL     1      42.866  22.212  38.592  1.00  0.00     0.209 HD
ENDBRANCH  36  37
ENDBRANCH   8  36
TORSDOF 17
ENDMDL
MODEL 5
REMARK VINA RESULT: -7.119161163      4.400      7.468
REMARK  17 active torsions:
REMARK  status: ('A' for Active; 'I' for Inactive)
REMARK    1  A    between atoms: C2_2  and  C3_3 
REMARK    2  A    between atoms: C3_3  and  C4_4 
REMARK    3  A    between atoms: C4_4  and  C5_5 
REMARK    4  A    between atoms: C6_6  and  C7_7 
REMARK    5  A    between atoms: C7_7  and  C8_8 
REMARK    6  A    between atoms: C9_9  and  C10_10 
REMARK    7  A    between atoms: C10_10  and  C11_11 
REMARK    8  A    between atoms: C11_11  and  C12_12 
REMARK    9  A    between atoms: C13_13  and  C14_14 
REMARK   10  A    between atoms: C15_15  and  C16_16 
REMARK   11  A    between atoms: C16_16  and  C18_18 
REMARK   12  A    between atoms: C20_20  and  O1_21 
REMARK   13  A    between atoms: C21_23  and  O2_24 
REMARK   14  A    between atoms: C23_29  and  C24_30 
REMARK   15  A    between atoms: C24_30  and  O4_31 
REMARK   16  A    between atoms: C25_33  and  O5_34 
REMARK   17  A    between atoms: C26_36  and  O6_37 
ROOT
HETATM    1  C18 UNL     1      47.892  20.404  40.018  1.00  0.00     0.027 C 
HETATM    2  C19 UNL     1      47.104  21.628  39.627  1.00  0.00     0.042 C 
HETATM    3  C20 UNL     1      45.881  21.862  40.478  1.00  0.00     0.150 C 
HETATM    4  C21 UNL     1      44.789  20.907  40.409  1.00  0.00     0.180 C 
HETATM    5  C22 UNL     1      44.916  19.706  39.566  1.00  0.00     0.217 C 
HETATM    6  O3  UNL     1      44.995  19.948  38.212  1.00  0.00    -0.275 OA
HETATM    7  N1  UNL     1      45.834  19.093  37.633  1.00  0.00    -0.090 NA
HETATM    8  C23 UNL     1      46.202  18.074  38.597  1.00  0.00     0.169 C 
HETATM    9  C25 UNL     1      46.007  18.738  39.883  1.00  0.00     0.136 C 
HETATM   10  C26 UNL     1      47.173  19.301  40.621  1.00  0.00     0.161 C 
ENDROOT
BRANCH   1  11
HETATM   11  C16 UNL     1      49.046  20.856  40.893  1.00  0.00     0.011 C 
HETATM   12  C17 UNL     1      49.288  22.362  40.661  1.00  0.00     0.015 C 
BRANCH  11  13
HETATM   13  C15 UNL     1      50.304  20.169  40.747  1.00  0.00    -0.022 C 
HETATM   14  C14 UNL     1      50.883  19.491  41.714  1.00  0.00    -0.003 C 
BRANCH  14  15
HETATM   15  C13 UNL     1      50.356  19.331  43.044  1.00  0.00     0.008 C 
HETATM   16  C12 UNL     1      50.360  20.224  44.002  1.00  0.00     0.055 C 
BRANCH  16  17
HETATM   17  C11 UNL     1      50.861  21.512  43.953  1.00  0.00    -0.128 C 
BRANCH  17  18
HETATM   18  C10 UNL     1      51.318  22.684  43.908  1.00  0.00     0.055 C 
BRANCH  18  19
HETATM   19  C9  UNL     1      50.738  23.827  44.661  1.00  0.00     0.004 C 
HETATM   20  C8  UNL     1      51.362  24.946  44.859  1.00  0.00    -0.022 C 
BRANCH  20  21
HETATM   21  C7  UNL     1      52.713  25.330  44.408  1.00  0.00     0.054 C 
BRANCH  21  22
HETATM   22  C6  UNL     1      52.637  26.525  43.538  1.00  0.00    -0.027 C 
HETATM   23  C5  UNL     1      52.371  26.551  42.279  1.00  0.00    -0.030 C 
BRANCH  23  24
HETATM   24  C4  UNL     1      52.081  25.403  41.428  1.00  0.00     0.027 C 
BRANCH  24  25
HETATM   25  C3  UNL     1      53.334  24.836  40.754  1.00  0.00     0.003 C 
BRANCH  25  26
HETATM   26  C2  UNL     1      53.427  23.340  41.093  1.00  0.00    -0.004 C 
HETATM   27  C1  UNL     1      52.922  22.582  39.874  1.00  0.00     0.005 C 
ENDBRANCH  25  26
ENDBRANCH  24  25
ENDBRANCH  23  24
ENDBRANCH  21  22
ENDBRANCH  20  21
ENDBRANCH  18  19
ENDBRANCH  17  18
ENDBRANCH  16  17
ENDBRANCH  14  15
ENDBRANCH  11  13
ENDBRANCH   1  11
BRANCH  10  28
HETATM   28  O6  UNL     1      46.704  19.608  41.913  1.00  0.00    -0.392 OA
ATOM     29  H6  UNL     1      46.118  18.942  42.254  1.00  0.00     0.210 HD
ENDBRANCH  10  28
BRANCH   3  30
HETATM   30  O1  UNL     1      45.429  23.150  40.117  1.00  0.00    -0.393 OA
ATOM     31  H1  UNL     1      45.035  23.500  40.907  1.00  0.00     0.210 HD
ENDBRANCH   3  30
BRANCH   9  32
HETATM   32  O5  UNL     1      45.469  17.768  40.781  1.00  0.00    -0.382 OA
ATOM     33  H5  UNL     1      44.678  17.423  40.385  1.00  0.00     0.210 HD
ENDBRANCH   9  32
BRANCH   4  34
HETATM   34  O2  UNL     1      43.586  21.563  40.026  1.00  0.00    -0.390 OA
ATOM     35  H2  UNL     1      43.681  21.946  39.162  1.00  0.00     0.210 HD
ENDBRANCH   4  34
BRANCH   8  36
HETATM   36  C24 UNL     1      47.434  17.392  38.243  1.00  0.00     0.191 C 
BRANCH  36  37
HETATM   37  O4  UNL     1      47.777  17.785  36.918  1.00  0.00    -0.399 OA
ATOM     38  H4  UNL     1      48.700  17.599  36.793  1.00  0.00     0.209 HD
ENDBRANCH  36  37
ENDBRANCH   8  36
TORSDOF 17
ENDMDL
