NC12CCC3CC(C1)C32
                    3D

 22 24  0  0  0  0  0  0  0  0999 V2000
   -1.0860    1.9949    0.8044 N   0  0  0  0  0  0  0  0  0  0  0  0
   -0.5774    0.8268    0.1018 C   0  0  0  0  0  0  0  0  0  0  0  0
   -1.6034   -0.1915   -0.3359 C   0  0  0  0  0  0  0  0  0  0  0  0
   -0.8174   -1.4946   -0.5017 C   0  0  0  0  0  0  0  0  0  0  0  0
    0.3902   -1.3807    0.4330 C   0  0  0  0  0  0  0  0  0  0  0  0
    1.7470   -1.0425   -0.2393 C   0  0  0  0  0  0  0  0  0  0  0  0
    1.5639    0.4374    0.1227 C   0  0  0  0  0  0  0  0  0  0  0  0
    0.6164    1.2330   -0.7963 C   0  0  0  0  0  0  0  0  0  0  0  0
    0.3790    0.0538    1.0039 C   0  0  0  0  0  0  0  0  0  0  0  0
   -1.6803    2.5906    0.2292 H   0  0  0  0  0  0  0  0  0  0  0  0
   -1.6330    1.7735    1.6357 H   0  0  0  0  0  0  0  0  0  0  0  0
   -2.3693   -0.3318    0.4376 H   0  0  0  0  0  0  0  0  0  0  0  0
   -2.1136    0.0913   -1.2621 H   0  0  0  0  0  0  0  0  0  0  0  0
   -0.4982   -1.6177   -1.5429 H   0  0  0  0  0  0  0  0  0  0  0  0
   -1.4434   -2.3565   -0.2486 H   0  0  0  0  0  0  0  0  0  0  0  0
    0.4473   -2.1746    1.1843 H   0  0  0  0  0  0  0  0  0  0  0  0
    2.6024   -1.5018    0.2705 H   0  0  0  0  0  0  0  0  0  0  0  0
    1.8321   -1.2647   -1.3072 H   0  0  0  0  0  0  0  0  0  0  0  0
    2.3931    0.9690    0.5901 H   0  0  0  0  0  0  0  0  0  0  0  0
    0.5647    0.8735   -1.8301 H   0  0  0  0  0  0  0  0  0  0  0  0
    0.8461    2.3047   -0.8298 H   0  0  0  0  0  0  0  0  0  0  0  0
    0.4396    0.2078    2.0806 H   0  0  0  0  0  0  0  0  0  0  0  0
  2  1  1  0  0  0  0
  3  2  1  0  0  0  0
  4  3  1  0  0  0  0
  5  4  1  0  0  0  0
  6  5  1  0  0  0  0
  7  6  1  0  0  0  0
  8  7  1  0  0  0  0
  8  2  1  0  0  0  0
  9  7  1  0  0  0  0
  9  5  1  0  0  0  0
  9  2  1  0  0  0  0
  1 10  1  0  0  0  0
  1 11  1  0  0  0  0
  3 12  1  0  0  0  0
  3 13  1  0  0  0  0
  4 14  1  0  0  0  0
  4 15  1  0  0  0  0
  5 16  1  0  0  0  0
  6 17  1  0  0  0  0
  6 18  1  0  0  0  0
  7 19  1  0  0  0  0
  8 20  1  0  0  0  0
  8 21  1  0  0  0  0
  9 22  1  0  0  0  0
M  END
>  <energy>
36.892072765934273

$$$$
