C1CC2CC3CC1C23
                    3D

 20 22  0  0  0  0  0  0  0  0999 V2000
    1.7976    0.1131   -0.0081 C   0  0  0  0  0  0  0  0  0  0  0  0
    1.0547    1.4651    0.1422 C   0  0  0  0  0  0  0  0  0  0  0  0
   -0.3512    1.0956    0.6074 C   0  0  0  0  0  0  0  0  0  0  0  0
   -1.4928    0.6711   -0.3908 C   0  0  0  0  0  0  0  0  0  0  0  0
   -1.4070   -0.7799    0.1536 C   0  0  0  0  0  0  0  0  0  0  0  0
   -0.5209   -1.8371   -0.5362 C   0  0  0  0  0  0  0  0  0  0  0  0
    0.7126   -0.8486   -0.4946 C   0  0  0  0  0  0  0  0  0  0  0  0
   -0.1123   -0.3815    0.8018 C   0  0  0  0  0  0  0  0  0  0  0  0
    2.2594   -0.2126    0.9344 H   0  0  0  0  0  0  0  0  0  0  0  0
    2.6096    0.2105   -0.7380 H   0  0  0  0  0  0  0  0  0  0  0  0
    1.0130    1.9992   -0.8136 H   0  0  0  0  0  0  0  0  0  0  0  0
    1.5733    2.1006    0.8671 H   0  0  0  0  0  0  0  0  0  0  0  0
   -0.7087    1.6210    1.4985 H   0  0  0  0  0  0  0  0  0  0  0  0
   -1.2725    0.8007   -1.4556 H   0  0  0  0  0  0  0  0  0  0  0  0
   -2.4523    1.1595   -0.1880 H   0  0  0  0  0  0  0  0  0  0  0  0
   -2.2013   -1.1157    0.8219 H   0  0  0  0  0  0  0  0  0  0  0  0
   -0.3749   -2.7564    0.0461 H   0  0  0  0  0  0  0  0  0  0  0  0
   -0.8489   -2.1272   -1.5400 H   0  0  0  0  0  0  0  0  0  0  0  0
    0.5920   -0.3856   -1.4944 H   0  0  0  0  0  0  0  0  0  0  0  0
    0.1306   -0.7917    1.7864 H   0  0  0  0  0  0  0  0  0  0  0  0
  2  1  1  0  0  0  0
  3  2  1  0  0  0  0
  4  3  1  0  0  0  0
  5  4  1  0  0  0  0
  6  5  1  0  0  0  0
  7  6  1  0  0  0  0
  7  1  1  0  0  0  0
  8  7  1  0  0  0  0
  8  3  1  0  0  0  0
  8  5  1  0  0  0  0
  1  9  1  0  0  0  0
  1 10  1  0  0  0  0
  2 11  1  0  0  0  0
  2 12  1  0  0  0  0
  3 13  1  0  0  0  0
  4 14  1  0  0  0  0
  4 15  1  0  0  0  0
  5 16  1  0  0  0  0
  6 17  1  0  0  0  0
  6 18  1  0  0  0  0
  7 19  1  0  0  0  0
  8 20  1  0  0  0  0
M  END
>  <energy>
79.412310992074836

$$$$
