COC(=O)C1=Cn2c(=N)c(C(N)=O)c(n2O)SC1=N
                    3D

 28 29  0  0  0  0  0  0  0  0999 V2000
    4.1630   -0.0009   -1.4013 C   0  0  0  0  0  0  0  0  0  0  0  0
    2.8577    0.2754   -0.8956 O   0  0  0  0  0  0  0  0  0  0  0  0
    2.5811   -0.3737    0.2623 C   0  0  0  0  0  0  0  0  0  0  0  0
    3.3094   -1.1597    0.8508 O   0  0  0  0  0  0  0  0  0  0  0  0
    1.1793   -0.0892    0.6513 C   0  0  0  0  0  0  0  0  0  0  0  0
    0.4634   -1.2395    0.7094 C   0  0  0  0  0  0  0  0  0  0  0  0
   -0.8908   -1.4350    1.0479 N   0  0  0  0  0  0  0  0  0  0  0  0
   -1.7805   -1.3673   -0.0537 C   0  0  0  0  0  0  0  0  0  0  0  0
   -2.1057   -2.3436   -0.8338 N   0  0  0  0  0  0  0  0  0  0  0  0
   -2.2972    0.0361   -0.1953 C   0  0  0  0  0  0  0  0  0  0  0  0
   -2.5112    0.7236   -1.4728 C   0  0  0  0  0  0  0  0  0  0  0  0
   -3.5397    1.6175   -1.4692 N   0  0  0  0  0  0  0  0  0  0  0  0
   -1.8174    0.5382   -2.4608 O   0  0  0  0  0  0  0  0  0  0  0  0
   -1.7942    0.5685    0.9492 C   0  0  0  0  0  0  0  0  0  0  0  0
   -1.3858   -0.4259    1.8540 N   0  0  0  0  0  0  0  0  0  0  0  0
   -2.3568   -0.8532    2.7625 O   0  0  0  0  0  0  0  0  0  0  0  0
   -0.8429    2.0239    0.8718 S   0  0  0  0  0  0  0  0  0  0  0  0
    0.8064    1.3569    0.8992 C   0  0  0  0  0  0  0  0  0  0  0  0
    1.7205    2.2436    1.1323 N   0  0  0  0  0  0  0  0  0  0  0  0
    4.9243    0.3663   -0.7058 H   0  0  0  0  0  0  0  0  0  0  0  0
    4.2732    0.5194   -2.3570 H   0  0  0  0  0  0  0  0  0  0  0  0
    4.2804   -1.0765   -1.5677 H   0  0  0  0  0  0  0  0  0  0  0  0
    0.9074   -2.1942    0.4281 H   0  0  0  0  0  0  0  0  0  0  0  0
   -1.6303   -3.1953   -0.5170 H   0  0  0  0  0  0  0  0  0  0  0  0
   -4.1572    1.7471   -0.6814 H   0  0  0  0  0  0  0  0  0  0  0  0
   -3.7503    2.0888   -2.3393 H   0  0  0  0  0  0  0  0  0  0  0  0
   -1.8625   -1.5055    3.2944 H   0  0  0  0  0  0  0  0  0  0  0  0
    1.2565    3.1543    1.2373 H   0  0  0  0  0  0  0  0  0  0  0  0
  2  1  1  0  0  0  0
  3  2  1  0  0  0  0
  4  3  2  0  0  0  0
  5  3  1  0  0  0  0
  6  5  2  0  0  0  0
  7  6  1  0  0  0  0
  8  7  1  0  0  0  0
  9  8  2  0  0  0  0
 10  8  1  0  0  0  0
 11 10  1  0  0  0  0
 12 11  1  0  0  0  0
 13 11  2  0  0  0  0
 14 10  2  0  0  0  0
 15 14  1  0  0  0  0
 15  7  1  0  0  0  0
 16 15  1  0  0  0  0
 17 14  1  0  0  0  0
 18 17  1  0  0  0  0
 18  5  1  0  0  0  0
 19 18  2  0  0  0  0
  1 20  1  0  0  0  0
  1 21  1  0  0  0  0
  1 22  1  0  0  0  0
  6 23  1  0  0  0  0
  9 24  1  0  0  0  0
 12 25  1  0  0  0  0
 12 26  1  0  0  0  0
 16 27  1  0  0  0  0
 19 28  1  0  0  0  0
M  END
>  <energy>
47.133675546602063

$$$$
