NCCNC(=O)NC1CC2CC3C2C2CC4C(C13)C1C2C41
                    3D

 46 51  0  0  0  0  0  0  0  0999 V2000
   -4.4558    4.3603   -1.2698 N   0  0  0  0  0  0  0  0  0  0  0  0
   -3.8393    3.1170   -0.8086 C   0  0  0  0  0  0  0  0  0  0  0  0
   -3.9549    1.9589   -1.8228 C   0  0  0  0  0  0  0  0  0  0  0  0
   -3.4214    0.7124   -1.2924 N   0  0  0  0  0  0  0  0  0  0  0  0
   -2.0869    0.6438   -0.9846 C   0  0  0  0  0  0  0  0  0  0  0  0
   -1.2721    1.5141   -1.2655 O   0  0  0  0  0  0  0  0  0  0  0  0
   -1.7917   -0.4803   -0.2618 N   0  0  0  0  0  0  0  0  0  0  0  0
   -0.4671   -0.6087    0.3478 C   0  0  0  0  0  0  0  0  0  0  0  0
   -0.5470   -1.4888    1.6144 C   0  0  0  0  0  0  0  0  0  0  0  0
    0.6086   -2.4872    1.7105 C   0  0  0  0  0  0  0  0  0  0  0  0
    0.5166   -3.3813    0.4441 C   0  0  0  0  0  0  0  0  0  0  0  0
    1.3891   -2.2705   -0.2150 C   0  0  0  0  0  0  0  0  0  0  0  0
    2.0748   -2.1466    1.1957 C   0  0  0  0  0  0  0  0  0  0  0  0
    2.9790   -0.9495    1.5452 C   0  0  0  0  0  0  0  0  0  0  0  0
    2.2104    0.3775    1.7704 C   0  0  0  0  0  0  0  0  0  0  0  0
    2.1551    1.0135    0.3646 C   0  0  0  0  0  0  0  0  0  0  0  0
    1.6783    0.0768   -0.8631 C   0  0  0  0  0  0  0  0  0  0  0  0
    0.6105   -1.0300   -0.6764 C   0  0  0  0  0  0  0  0  0  0  0  0
    3.1107   -0.3757   -0.9449 C   0  0  0  0  0  0  0  0  0  0  0  0
    3.8816   -0.6215    0.3429 C   0  0  0  0  0  0  0  0  0  0  0  0
    3.5314    0.7589   -0.1225 C   0  0  0  0  0  0  0  0  0  0  0  0
   -3.9755    4.6880   -2.1095 H   0  0  0  0  0  0  0  0  0  0  0  0
   -4.2860    5.0794   -0.5644 H   0  0  0  0  0  0  0  0  0  0  0  0
   -2.7895    3.3287   -0.5791 H   0  0  0  0  0  0  0  0  0  0  0  0
   -4.3135    2.8190    0.1347 H   0  0  0  0  0  0  0  0  0  0  0  0
   -3.4105    2.1962   -2.7440 H   0  0  0  0  0  0  0  0  0  0  0  0
   -5.0039    1.7755   -2.0819 H   0  0  0  0  0  0  0  0  0  0  0  0
   -4.0083    0.2160   -0.6350 H   0  0  0  0  0  0  0  0  0  0  0  0
   -2.2364   -1.3186   -0.6100 H   0  0  0  0  0  0  0  0  0  0  0  0
   -0.2580    0.4079    0.6919 H   0  0  0  0  0  0  0  0  0  0  0  0
   -0.5689   -0.8528    2.5051 H   0  0  0  0  0  0  0  0  0  0  0  0
   -1.5004   -2.0371    1.6440 H   0  0  0  0  0  0  0  0  0  0  0  0
    0.5808   -3.0400    2.6561 H   0  0  0  0  0  0  0  0  0  0  0  0
    1.0174   -4.3537    0.5421 H   0  0  0  0  0  0  0  0  0  0  0  0
   -0.4738   -3.5546    0.0142 H   0  0  0  0  0  0  0  0  0  0  0  0
    2.0248   -2.6896   -1.0036 H   0  0  0  0  0  0  0  0  0  0  0  0
    2.7374   -3.0204    1.3643 H   0  0  0  0  0  0  0  0  0  0  0  0
    3.5722   -1.1788    2.4385 H   0  0  0  0  0  0  0  0  0  0  0  0
    2.8146    1.0359    2.4147 H   0  0  0  0  0  0  0  0  0  0  0  0
    1.2460    0.2802    2.2583 H   0  0  0  0  0  0  0  0  0  0  0  0
    1.7771    2.0370    0.3326 H   0  0  0  0  0  0  0  0  0  0  0  0
    1.4099    0.6924   -1.7406 H   0  0  0  0  0  0  0  0  0  0  0  0
    0.1627   -1.2504   -1.6511 H   0  0  0  0  0  0  0  0  0  0  0  0
    3.5169   -0.5143   -1.9306 H   0  0  0  0  0  0  0  0  0  0  0  0
    4.8944   -0.9714    0.3469 H   0  0  0  0  0  0  0  0  0  0  0  0
    4.1607    1.5322   -0.5020 H   0  0  0  0  0  0  0  0  0  0  0  0
  2  1  1  0  0  0  0
  3  2  1  0  0  0  0
  4  3  1  0  0  0  0
  5  4  1  0  0  0  0
  6  5  2  0  0  0  0
  7  5  1  0  0  0  0
  8  7  1  0  0  0  0
  9  8  1  0  0  0  0
 10  9  1  0  0  0  0
 11 10  1  0  0  0  0
 12 11  1  0  0  0  0
 13 12  1  0  0  0  0
 13 10  1  0  0  0  0
 14 13  1  0  0  0  0
 15 14  1  0  0  0  0
 16 15  1  0  0  0  0
 17 16  1  0  0  0  0
 18 17  1  0  0  0  0
 18  8  1  0  0  0  0
 18 12  1  0  0  0  0
 19 17  1  0  0  0  0
 20 19  1  0  0  0  0
 20 14  1  0  0  0  0
 21 20  1  0  0  0  0
 21 16  1  0  0  0  0
 21 19  1  0  0  0  0
  1 22  1  0  0  0  0
  1 23  1  0  0  0  0
  2 24  1  0  0  0  0
  2 25  1  0  0  0  0
  3 26  1  0  0  0  0
  3 27  1  0  0  0  0
  4 28  1  0  0  0  0
  7 29  1  0  0  0  0
  8 30  1  0  0  0  0
  9 31  1  0  0  0  0
  9 32  1  0  0  0  0
 10 33  1  0  0  0  0
 11 34  1  0  0  0  0
 11 35  1  0  0  0  0
 12 36  1  0  0  0  0
 13 37  1  0  0  0  0
 14 38  1  0  0  0  0
 15 39  1  0  0  0  0
 15 40  1  0  0  0  0
 16 41  1  0  0  0  0
 17 42  1  0  0  0  0
 18 43  1  0  0  0  0
 19 44  1  0  0  0  0
 20 45  1  0  0  0  0
 21 46  1  0  0  0  0
M  END
>  <energy>
17.810761650038344

$$$$
