C[N+]12CCC1C(CO)C2
                    3D

 23 24  0  0  0  0  0  0  0  0999 V2000
   -0.5217   -2.0160    0.6846 C   0  0  0  0  0  0  0  0  0  0  0  0
   -0.7400   -0.5793    0.4563 N   0  3  0  0  0  0  0  0  0  0  0  0
   -2.0515   -0.2236   -0.0942 C   0  0  0  0  0  0  0  0  0  0  0  0
   -1.3763    0.2986   -1.3648 C   0  0  0  0  0  0  0  0  0  0  0  0
   -0.0357   -0.0848   -0.7396 C   0  0  0  0  0  0  0  0  0  0  0  0
    0.6058    1.0217    0.1082 C   0  0  0  0  0  0  0  0  0  0  0  0
    2.1177    1.0668    0.0343 C   0  0  0  0  0  0  0  0  0  0  0  0
    2.4714    1.2625   -1.3255 O   0  0  0  0  0  0  0  0  0  0  0  0
    0.0084    0.3207    1.3382 C   0  0  0  0  0  0  0  0  0  0  0  0
    0.5454   -2.2070    0.8417 H   0  0  0  0  0  0  0  0  0  0  0  0
   -1.0866   -2.3103    1.5739 H   0  0  0  0  0  0  0  0  0  0  0  0
   -0.8660   -2.5853   -0.1851 H   0  0  0  0  0  0  0  0  0  0  0  0
   -2.5770    0.5384    0.4915 H   0  0  0  0  0  0  0  0  0  0  0  0
   -2.7264   -1.0714   -0.2532 H   0  0  0  0  0  0  0  0  0  0  0  0
   -1.5270    1.3634   -1.5695 H   0  0  0  0  0  0  0  0  0  0  0  0
   -1.6249   -0.2699   -2.2660 H   0  0  0  0  0  0  0  0  0  0  0  0
    0.5973   -0.8049   -1.2627 H   0  0  0  0  0  0  0  0  0  0  0  0
    0.1758    2.0172   -0.0667 H   0  0  0  0  0  0  0  0  0  0  0  0
    2.5103    1.8961    0.6318 H   0  0  0  0  0  0  0  0  0  0  0  0
    2.5747    0.1329    0.3794 H   0  0  0  0  0  0  0  0  0  0  0  0
    3.4248    1.4668   -1.3605 H   0  0  0  0  0  0  0  0  0  0  0  0
   -0.6324    0.9528    1.9633 H   0  0  0  0  0  0  0  0  0  0  0  0
    0.7338   -0.1855    1.9847 H   0  0  0  0  0  0  0  0  0  0  0  0
  2  1  1  0  0  0  0
  3  2  1  0  0  0  0
  4  3  1  0  0  0  0
  5  4  1  0  0  0  0
  5  2  1  0  0  0  0
  6  5  1  0  0  0  0
  7  6  1  0  0  0  0
  8  7  1  0  0  0  0
  9  6  1  0  0  0  0
  9  2  1  0  0  0  0
  1 10  1  0  0  0  0
  1 11  1  0  0  0  0
  1 12  1  0  0  0  0
  3 13  1  0  0  0  0
  3 14  1  0  0  0  0
  4 15  1  0  0  0  0
  4 16  1  0  0  0  0
  5 17  1  0  0  0  0
  6 18  1  0  0  0  0
  7 19  1  0  0  0  0
  7 20  1  0  0  0  0
  8 21  1  0  0  0  0
  9 22  1  0  0  0  0
  9 23  1  0  0  0  0
M  CHG  1   2   1
M  END
>  <energy>
25.205001120274588

$$$$
