CC(C)SCC(CCCCCN=C(N)N)(NC(=O)NC1C2CCCC1C1OCC1(C)C2)C(=O)NCC(O)CN1CCOCC1
                    3D

101104  0  0  0  0  0  0  0  0999 V2000
    1.1072   -0.7772   -3.9728 C   0  0  0  0  0  0  0  0  0  0  0  0
    0.4504   -1.5746   -2.8499 C   0  0  0  0  0  0  0  0  0  0  0  0
   -1.0596   -1.6175   -3.0545 C   0  0  0  0  0  0  0  0  0  0  0  0
    0.9601   -0.7959   -1.2646 S   0  0  0  0  0  0  0  0  0  0  0  0
   -0.0205   -1.7717   -0.0391 C   0  0  0  0  0  0  0  0  0  0  0  0
    0.4734   -1.7538    1.4568 C   0  0  0  0  0  0  0  0  0  0  0  0
    1.8873   -2.4533    1.5216 C   0  0  0  0  0  0  0  0  0  0  0  0
    1.9869   -3.9302    1.9102 C   0  0  0  0  0  0  0  0  0  0  0  0
    3.2383   -4.6793    1.3962 C   0  0  0  0  0  0  0  0  0  0  0  0
    4.5214   -3.8612    1.1384 C   0  0  0  0  0  0  0  0  0  0  0  0
    4.7443   -3.5651   -0.3508 C   0  0  0  0  0  0  0  0  0  0  0  0
    5.8519   -2.6216   -0.5053 N   0  0  0  0  0  0  0  0  0  0  0  0
    5.6317   -1.4574   -0.9859 C   0  0  0  0  0  0  0  0  0  0  0  0
    4.4818   -0.8979   -1.4130 N   0  0  0  0  0  0  0  0  0  0  0  0
    6.6474   -0.5689   -1.0941 N   0  0  0  0  0  0  0  0  0  0  0  0
   -0.5279   -2.4485    2.3399 N   0  0  0  0  0  0  0  0  0  0  0  0
   -1.8866   -2.2681    2.2575 C   0  0  0  0  0  0  0  0  0  0  0  0
   -2.6444   -3.2151    2.3951 O   0  0  0  0  0  0  0  0  0  0  0  0
   -2.2735   -1.0179    1.9157 N   0  0  0  0  0  0  0  0  0  0  0  0
   -3.4582   -0.6892    1.1567 C   0  0  0  0  0  0  0  0  0  0  0  0
   -4.7778   -0.7246    1.9314 C   0  0  0  0  0  0  0  0  0  0  0  0
   -4.8320    0.3935    2.9891 C   0  0  0  0  0  0  0  0  0  0  0  0
   -4.6238    1.7807    2.4035 C   0  0  0  0  0  0  0  0  0  0  0  0
   -3.3751    1.8367    1.5295 C   0  0  0  0  0  0  0  0  0  0  0  0
   -3.3017    0.6940    0.5019 C   0  0  0  0  0  0  0  0  0  0  0  0
   -4.3992    0.8664   -0.5488 C   0  0  0  0  0  0  0  0  0  0  0  0
   -4.1007    0.0674   -1.7249 O   0  0  0  0  0  0  0  0  0  0  0  0
   -5.2718   -0.7498   -1.5276 C   0  0  0  0  0  0  0  0  0  0  0  0
   -5.7535    0.1284   -0.3434 C   0  0  0  0  0  0  0  0  0  0  0  0
   -6.9728    0.9661   -0.7395 C   0  0  0  0  0  0  0  0  0  0  0  0
   -5.9911   -0.6547    0.9649 C   0  0  0  0  0  0  0  0  0  0  0  0
    0.6544   -0.2794    2.0118 C   0  0  0  0  0  0  0  0  0  0  0  0
   -0.1798    0.2846    2.7194 O   0  0  0  0  0  0  0  0  0  0  0  0
    1.8114    0.3790    1.6569 N   0  0  0  0  0  0  0  0  0  0  0  0
    2.1511    1.6677    2.2294 C   0  0  0  0  0  0  0  0  0  0  0  0
    1.5693    2.8637    1.4723 C   0  0  0  0  0  0  0  0  0  0  0  0
    1.8797    4.0476    2.2187 O   0  0  0  0  0  0  0  0  0  0  0  0
    2.1698    2.9492    0.0532 C   0  0  0  0  0  0  0  0  0  0  0  0
    1.5687    4.0569   -0.7148 N   0  0  0  0  0  0  0  0  0  0  0  0
    2.5247    5.1683   -0.8970 C   0  0  0  0  0  0  0  0  0  0  0  0
    3.6069    4.9028   -1.9633 C   0  0  0  0  0  0  0  0  0  0  0  0
    3.0318    4.5159   -3.2172 O   0  0  0  0  0  0  0  0  0  0  0  0
    2.1988    3.3659   -3.0562 C   0  0  0  0  0  0  0  0  0  0  0  0
    1.0740    3.6362   -2.0435 C   0  0  0  0  0  0  0  0  0  0  0  0
    0.7211    0.2462   -4.0236 H   0  0  0  0  0  0  0  0  0  0  0  0
    0.9043   -1.2504   -4.9368 H   0  0  0  0  0  0  0  0  0  0  0  0
    2.1939   -0.7324   -3.8637 H   0  0  0  0  0  0  0  0  0  0  0  0
    0.8510   -2.5941   -2.8633 H   0  0  0  0  0  0  0  0  0  0  0  0
   -1.5326   -0.6478   -2.8615 H   0  0  0  0  0  0  0  0  0  0  0  0
   -1.2941   -1.8971   -4.0895 H   0  0  0  0  0  0  0  0  0  0  0  0
   -1.5358   -2.3674   -2.4143 H   0  0  0  0  0  0  0  0  0  0  0  0
   -0.0375   -2.8155   -0.3773 H   0  0  0  0  0  0  0  0  0  0  0  0
   -1.0370   -1.3905   -0.1406 H   0  0  0  0  0  0  0  0  0  0  0  0
    2.5362   -1.9165    2.2249 H   0  0  0  0  0  0  0  0  0  0  0  0
    2.3596   -2.3349    0.5435 H   0  0  0  0  0  0  0  0  0  0  0  0
    1.1103   -4.4909    1.5678 H   0  0  0  0  0  0  0  0  0  0  0  0
    1.9863   -3.9875    3.0077 H   0  0  0  0  0  0  0  0  0  0  0  0
    2.9663   -5.2157    0.4792 H   0  0  0  0  0  0  0  0  0  0  0  0
    3.4685   -5.4677    2.1295 H   0  0  0  0  0  0  0  0  0  0  0  0
    4.5277   -2.9433    1.7325 H   0  0  0  0  0  0  0  0  0  0  0  0
    5.3834   -4.4412    1.4926 H   0  0  0  0  0  0  0  0  0  0  0  0
    3.8121   -3.2329   -0.8135 H   0  0  0  0  0  0  0  0  0  0  0  0
    5.0133   -4.4968   -0.8632 H   0  0  0  0  0  0  0  0  0  0  0  0
    3.7620   -1.5017   -1.7960 H   0  0  0  0  0  0  0  0  0  0  0  0
    4.5339    0.0176   -1.8348 H   0  0  0  0  0  0  0  0  0  0  0  0
    7.5118   -1.0167   -0.8090 H   0  0  0  0  0  0  0  0  0  0  0  0
    6.7641   -0.1914   -2.0287 H   0  0  0  0  0  0  0  0  0  0  0  0
   -0.3484   -3.4186    2.5769 H   0  0  0  0  0  0  0  0  0  0  0  0
   -1.7384   -0.2800    2.3696 H   0  0  0  0  0  0  0  0  0  0  0  0
   -3.5050   -1.4627    0.3813 H   0  0  0  0  0  0  0  0  0  0  0  0
   -4.8596   -1.6694    2.4797 H   0  0  0  0  0  0  0  0  0  0  0  0
   -5.7913    0.3655    3.5194 H   0  0  0  0  0  0  0  0  0  0  0  0
   -4.0637    0.2041    3.7465 H   0  0  0  0  0  0  0  0  0  0  0  0
   -4.5365    2.5110    3.2166 H   0  0  0  0  0  0  0  0  0  0  0  0
   -5.4976    2.0800    1.8181 H   0  0  0  0  0  0  0  0  0  0  0  0
   -2.4937    1.8006    2.1801 H   0  0  0  0  0  0  0  0  0  0  0  0
   -3.3362    2.8111    1.0203 H   0  0  0  0  0  0  0  0  0  0  0  0
   -2.3271    0.7747    0.0017 H   0  0  0  0  0  0  0  0  0  0  0  0
   -4.5030    1.9161   -0.8602 H   0  0  0  0  0  0  0  0  0  0  0  0
   -5.9121   -0.7565   -2.4166 H   0  0  0  0  0  0  0  0  0  0  0  0
   -4.9970   -1.7851   -1.2980 H   0  0  0  0  0  0  0  0  0  0  0  0
   -7.1729    1.7417    0.0071 H   0  0  0  0  0  0  0  0  0  0  0  0
   -7.8664    0.3388   -0.8262 H   0  0  0  0  0  0  0  0  0  0  0  0
   -6.8270    1.4644   -1.7034 H   0  0  0  0  0  0  0  0  0  0  0  0
   -6.2937   -1.6802    0.7091 H   0  0  0  0  0  0  0  0  0  0  0  0
   -6.8510   -0.2324    1.5070 H   0  0  0  0  0  0  0  0  0  0  0  0
    2.3705    0.0253    0.8837 H   0  0  0  0  0  0  0  0  0  0  0  0
    1.8052    1.6908    3.2681 H   0  0  0  0  0  0  0  0  0  0  0  0
    3.2440    1.7393    2.2785 H   0  0  0  0  0  0  0  0  0  0  0  0
    0.4758    2.7799    1.4008 H   0  0  0  0  0  0  0  0  0  0  0  0
    1.1436    4.1774    2.8457 H   0  0  0  0  0  0  0  0  0  0  0  0
    3.2596    3.0536    0.1227 H   0  0  0  0  0  0  0  0  0  0  0  0
    1.9956    1.9966   -0.4555 H   0  0  0  0  0  0  0  0  0  0  0  0
    3.0032    5.4256    0.0570 H   0  0  0  0  0  0  0  0  0  0  0  0
    1.9442    6.0465   -1.2043 H   0  0  0  0  0  0  0  0  0  0  0  0
    4.1815    5.8189   -2.1306 H   0  0  0  0  0  0  0  0  0  0  0  0
    4.3176    4.1318   -1.6470 H   0  0  0  0  0  0  0  0  0  0  0  0
    1.7623    3.1326   -4.0299 H   0  0  0  0  0  0  0  0  0  0  0  0
    2.8118    2.5101   -2.7587 H   0  0  0  0  0  0  0  0  0  0  0  0
    0.4180    2.7635   -1.9576 H   0  0  0  0  0  0  0  0  0  0  0  0
    0.4463    4.4555   -2.4282 H   0  0  0  0  0  0  0  0  0  0  0  0
  2  1  1  0  0  0  0
  3  2  1  0  0  0  0
  4  2  1  0  0  0  0
  5  4  1  0  0  0  0
  6  5  1  0  0  0  0
  7  6  1  0  0  0  0
  8  7  1  0  0  0  0
  9  8  1  0  0  0  0
 10  9  1  0  0  0  0
 11 10  1  0  0  0  0
 12 11  1  0  0  0  0
 13 12  2  0  0  0  0
 14 13  1  0  0  0  0
 15 13  1  0  0  0  0
 16  6  1  0  0  0  0
 17 16  1  0  0  0  0
 18 17  2  0  0  0  0
 19 17  1  0  0  0  0
 20 19  1  0  0  0  0
 21 20  1  0  0  0  0
 22 21  1  0  0  0  0
 23 22  1  0  0  0  0
 24 23  1  0  0  0  0
 25 24  1  0  0  0  0
 25 20  1  0  0  0  0
 26 25  1  0  0  0  0
 27 26  1  0  0  0  0
 28 27  1  0  0  0  0
 29 28  1  0  0  0  0
 29 26  1  0  0  0  0
 30 29  1  0  0  0  0
 31 29  1  0  0  0  0
 31 21  1  0  0  0  0
 32  6  1  0  0  0  0
 33 32  2  0  0  0  0
 34 32  1  0  0  0  0
 35 34  1  0  0  0  0
 36 35  1  0  0  0  0
 37 36  1  0  0  0  0
 38 36  1  0  0  0  0
 39 38  1  0  0  0  0
 40 39  1  0  0  0  0
 41 40  1  0  0  0  0
 42 41  1  0  0  0  0
 43 42  1  0  0  0  0
 44 43  1  0  0  0  0
 44 39  1  0  0  0  0
  1 45  1  0  0  0  0
  1 46  1  0  0  0  0
  1 47  1  0  0  0  0
  2 48  1  0  0  0  0
  3 49  1  0  0  0  0
  3 50  1  0  0  0  0
  3 51  1  0  0  0  0
  5 52  1  0  0  0  0
  5 53  1  0  0  0  0
  7 54  1  0  0  0  0
  7 55  1  0  0  0  0
  8 56  1  0  0  0  0
  8 57  1  0  0  0  0
  9 58  1  0  0  0  0
  9 59  1  0  0  0  0
 10 60  1  0  0  0  0
 10 61  1  0  0  0  0
 11 62  1  0  0  0  0
 11 63  1  0  0  0  0
 14 64  1  0  0  0  0
 14 65  1  0  0  0  0
 15 66  1  0  0  0  0
 15 67  1  0  0  0  0
 16 68  1  0  0  0  0
 19 69  1  0  0  0  0
 20 70  1  0  0  0  0
 21 71  1  0  0  0  0
 22 72  1  0  0  0  0
 22 73  1  0  0  0  0
 23 74  1  0  0  0  0
 23 75  1  0  0  0  0
 24 76  1  0  0  0  0
 24 77  1  0  0  0  0
 25 78  1  0  0  0  0
 26 79  1  0  0  0  0
 28 80  1  0  0  0  0
 28 81  1  0  0  0  0
 30 82  1  0  0  0  0
 30 83  1  0  0  0  0
 30 84  1  0  0  0  0
 31 85  1  0  0  0  0
 31 86  1  0  0  0  0
 34 87  1  0  0  0  0
 35 88  1  0  0  0  0
 35 89  1  0  0  0  0
 36 90  1  0  0  0  0
 37 91  1  0  0  0  0
 38 92  1  0  0  0  0
 38 93  1  0  0  0  0
 40 94  1  0  0  0  0
 40 95  1  0  0  0  0
 41 96  1  0  0  0  0
 41 97  1  0  0  0  0
 43 98  1  0  0  0  0
 43 99  1  0  0  0  0
 44100  1  0  0  0  0
 44101  1  0  0  0  0
M  END
>  <energy>
-28.823710634779047

$$$$
