CONC(=O)NC12C(Br)C1C1(O)C3CC4C3C3C4C1C32
                    3D

 37 42  0  0  0  0  0  0  0  0999 V2000
   -4.2740   -0.9010   -0.3964 C   0  0  0  0  0  0  0  0  0  0  0  0
   -3.3974    0.1290    0.0492 O   0  0  0  0  0  0  0  0  0  0  0  0
   -3.4038    1.1877   -0.8738 N   0  0  0  0  0  0  0  0  0  0  0  0
   -2.3788    2.0589   -0.9817 C   0  0  0  0  0  0  0  0  0  0  0  0
   -2.5499    3.1248   -1.5806 O   0  0  0  0  0  0  0  0  0  0  0  0
   -1.1499    1.7867   -0.4725 N   0  0  0  0  0  0  0  0  0  0  0  0
   -0.7036    0.6527    0.2864 C   0  0  0  0  0  0  0  0  0  0  0  0
   -0.9641    0.6192    1.7905 C   0  0  0  0  0  0  0  0  0  0  0  0
   -1.7239    2.1352    2.6911 Br  0  0  0  0  0  0  0  0  0  0  0  0
    0.4834    0.7563    1.3820 C   0  0  0  0  0  0  0  0  0  0  0  0
    1.3545   -0.4945    1.4393 C   0  0  0  0  0  0  0  0  0  0  0  0
    1.0931   -1.2624    2.5976 O   0  0  0  0  0  0  0  0  0  0  0  0
    2.7183   -0.9123    0.7831 C   0  0  0  0  0  0  0  0  0  0  0  0
    3.6619    0.1510    0.1796 C   0  0  0  0  0  0  0  0  0  0  0  0
    2.9481   -0.0430   -1.1605 C   0  0  0  0  0  0  0  0  0  0  0  0
    2.6116   -1.4915   -0.9073 C   0  0  0  0  0  0  0  0  0  0  0  0
    1.0281   -1.0167   -1.7084 C   0  0  0  0  0  0  0  0  0  0  0  0
    1.4623    0.1595   -0.9518 C   0  0  0  0  0  0  0  0  0  0  0  0
    0.7547   -1.1192    0.2626 C   0  0  0  0  0  0  0  0  0  0  0  0
   -0.3856   -0.6964   -0.5859 C   0  0  0  0  0  0  0  0  0  0  0  0
   -5.0892   -1.0025    0.3263 H   0  0  0  0  0  0  0  0  0  0  0  0
   -4.6987   -0.7106   -1.3885 H   0  0  0  0  0  0  0  0  0  0  0  0
   -3.7159   -1.8408   -0.4266 H   0  0  0  0  0  0  0  0  0  0  0  0
   -4.3093    1.5638   -1.1250 H   0  0  0  0  0  0  0  0  0  0  0  0
   -0.5095    2.5616   -0.5859 H   0  0  0  0  0  0  0  0  0  0  0  0
   -1.3075   -0.3276    2.1936 H   0  0  0  0  0  0  0  0  0  0  0  0
    1.0103    1.6894    1.5007 H   0  0  0  0  0  0  0  0  0  0  0  0
    1.4827   -0.7813    3.3481 H   0  0  0  0  0  0  0  0  0  0  0  0
    3.2558   -1.6329    1.4162 H   0  0  0  0  0  0  0  0  0  0  0  0
    4.7156   -0.1500    0.1623 H   0  0  0  0  0  0  0  0  0  0  0  0
    3.5939    1.1485    0.6216 H   0  0  0  0  0  0  0  0  0  0  0  0
    3.4122    0.2563   -2.0981 H   0  0  0  0  0  0  0  0  0  0  0  0
    3.2967   -2.2282   -1.3219 H   0  0  0  0  0  0  0  0  0  0  0  0
    0.9565   -0.8637   -2.7843 H   0  0  0  0  0  0  0  0  0  0  0  0
    1.0664    1.1373   -1.2172 H   0  0  0  0  0  0  0  0  0  0  0  0
    0.8524   -2.2234    0.2072 H   0  0  0  0  0  0  0  0  0  0  0  0
   -1.1975   -1.4199   -0.6709 H   0  0  0  0  0  0  0  0  0  0  0  0
  2  1  1  0  0  0  0
  3  2  1  0  0  0  0
  4  3  1  0  0  0  0
  5  4  2  0  0  0  0
  6  4  1  0  0  0  0
  7  6  1  0  0  0  0
  8  7  1  0  0  0  0
  9  8  1  0  0  0  0
 10  8  1  0  0  0  0
 10  7  1  0  0  0  0
 11 10  1  0  0  0  0
 12 11  1  0  0  0  0
 13 11  1  0  0  0  0
 14 13  1  0  0  0  0
 15 14  1  0  0  0  0
 16 15  1  0  0  0  0
 16 13  1  0  0  0  0
 17 16  1  0  0  0  0
 18 17  1  0  0  0  0
 18 15  1  0  0  0  0
 19 18  1  0  0  0  0
 19 11  1  0  0  0  0
 20 19  1  0  0  0  0
 20 17  1  0  0  0  0
 20  7  1  0  0  0  0
  1 21  1  0  0  0  0
  1 22  1  0  0  0  0
  1 23  1  0  0  0  0
  3 24  1  0  0  0  0
  6 25  1  0  0  0  0
  8 26  1  0  0  0  0
 10 27  1  0  0  0  0
 12 28  1  0  0  0  0
 13 29  1  0  0  0  0
 14 30  1  0  0  0  0
 14 31  1  0  0  0  0
 15 32  1  0  0  0  0
 16 33  1  0  0  0  0
 17 34  1  0  0  0  0
 18 35  1  0  0  0  0
 19 36  1  0  0  0  0
 20 37  1  0  0  0  0
M  END
>  <energy>
219.7956773482899

$$$$
