CCC(C)NCC(O)C(CC1CCCCC1)NC1CC2CC(C(=O)NCCF)C1=C(Cl)C2(C)C
                    3D

 81 83  0  0  0  0  0  0  0  0999 V2000
   -1.3140    2.5095    3.4345 C   0  0  0  0  0  0  0  0  0  0  0  0
   -0.3808    3.0106    2.3393 C   0  0  0  0  0  0  0  0  0  0  0  0
   -1.0593    3.4083    1.0123 C   0  0  0  0  0  0  0  0  0  0  0  0
   -1.9871    4.6147    1.1964 C   0  0  0  0  0  0  0  0  0  0  0  0
   -1.8169    2.2670    0.4843 N   0  0  0  0  0  0  0  0  0  0  0  0
   -2.0166    2.3234   -0.9699 C   0  0  0  0  0  0  0  0  0  0  0  0
   -1.0303    1.4404   -1.7561 C   0  0  0  0  0  0  0  0  0  0  0  0
    0.2785    2.0502   -1.7878 O   0  0  0  0  0  0  0  0  0  0  0  0
   -0.8570   -0.0272   -1.2508 C   0  0  0  0  0  0  0  0  0  0  0  0
   -2.1431   -0.8669   -1.4352 C   0  0  0  0  0  0  0  0  0  0  0  0
   -3.0172   -0.9759   -0.1605 C   0  0  0  0  0  0  0  0  0  0  0  0
   -2.9859   -2.4152    0.3846 C   0  0  0  0  0  0  0  0  0  0  0  0
   -3.8575   -2.5743    1.6283 C   0  0  0  0  0  0  0  0  0  0  0  0
   -5.2928   -2.1328    1.3647 C   0  0  0  0  0  0  0  0  0  0  0  0
   -5.3510   -0.7161    0.8023 C   0  0  0  0  0  0  0  0  0  0  0  0
   -4.4752   -0.5732   -0.4433 C   0  0  0  0  0  0  0  0  0  0  0  0
    0.2380   -0.5692   -2.0932 N   0  0  0  0  0  0  0  0  0  0  0  0
    1.1057   -1.6126   -1.5560 C   0  0  0  0  0  0  0  0  0  0  0  0
    0.8058   -2.3925   -0.2398 C   0  0  0  0  0  0  0  0  0  0  0  0
    2.1532   -2.6555    0.5389 C   0  0  0  0  0  0  0  0  0  0  0  0
    2.5798   -1.2676    1.0985 C   0  0  0  0  0  0  0  0  0  0  0  0
    2.5902   -0.2634   -0.0706 C   0  0  0  0  0  0  0  0  0  0  0  0
    3.8136    0.6546   -0.1377 C   0  0  0  0  0  0  0  0  0  0  0  0
    4.9456    0.2993    0.1550 O   0  0  0  0  0  0  0  0  0  0  0  0
    3.5010    1.9104   -0.6265 N   0  0  0  0  0  0  0  0  0  0  0  0
    4.5265    2.8147   -1.1130 C   0  0  0  0  0  0  0  0  0  0  0  0
    4.0128    4.2412   -1.2301 C   0  0  0  0  0  0  0  0  0  0  0  0
    4.9547    5.0174   -1.8289 F   0  0  0  0  0  0  0  0  0  0  0  0
    2.5314   -1.0623   -1.3979 C   0  0  0  0  0  0  0  0  0  0  0  0
    3.4321   -2.0724   -1.5072 C   0  0  0  0  0  0  0  0  0  0  0  0
    4.0061   -2.5268   -3.0733 Cl  0  0  0  0  0  0  0  0  0  0  0  0
    3.2865   -3.1775   -0.4411 C   0  0  0  0  0  0  0  0  0  0  0  0
    4.6261   -3.3757    0.2923 C   0  0  0  0  0  0  0  0  0  0  0  0
    2.8632   -4.5527   -1.0101 C   0  0  0  0  0  0  0  0  0  0  0  0
   -2.0225    3.2852    3.7407 H   0  0  0  0  0  0  0  0  0  0  0  0
   -0.7308    2.2267    4.3168 H   0  0  0  0  0  0  0  0  0  0  0  0
   -1.8744    1.6272    3.1138 H   0  0  0  0  0  0  0  0  0  0  0  0
    0.3641    2.2324    2.1357 H   0  0  0  0  0  0  0  0  0  0  0  0
    0.1797    3.8728    2.7254 H   0  0  0  0  0  0  0  0  0  0  0  0
   -0.2592    3.6883    0.3155 H   0  0  0  0  0  0  0  0  0  0  0  0
   -2.3794    4.9635    0.2375 H   0  0  0  0  0  0  0  0  0  0  0  0
   -1.4585    5.4525    1.6597 H   0  0  0  0  0  0  0  0  0  0  0  0
   -2.8484    4.3753    1.8267 H   0  0  0  0  0  0  0  0  0  0  0  0
   -2.7233    2.2354    0.9475 H   0  0  0  0  0  0  0  0  0  0  0  0
   -3.0354    1.9800   -1.1821 H   0  0  0  0  0  0  0  0  0  0  0  0
   -1.9664    3.3514   -1.3518 H   0  0  0  0  0  0  0  0  0  0  0  0
   -1.3718    1.4113   -2.7988 H   0  0  0  0  0  0  0  0  0  0  0  0
    0.8240    1.3116   -2.1295 H   0  0  0  0  0  0  0  0  0  0  0  0
   -0.5343    0.0165   -0.2063 H   0  0  0  0  0  0  0  0  0  0  0  0
   -1.8762   -1.8813   -1.7599 H   0  0  0  0  0  0  0  0  0  0  0  0
   -2.7286   -0.4450   -2.2610 H   0  0  0  0  0  0  0  0  0  0  0  0
   -2.6289   -0.3131    0.6230 H   0  0  0  0  0  0  0  0  0  0  0  0
   -3.3377   -3.1117   -0.3897 H   0  0  0  0  0  0  0  0  0  0  0  0
   -1.9601   -2.7092    0.6305 H   0  0  0  0  0  0  0  0  0  0  0  0
   -3.8480   -3.6224    1.9454 H   0  0  0  0  0  0  0  0  0  0  0  0
   -3.4324   -1.9837    2.4511 H   0  0  0  0  0  0  0  0  0  0  0  0
   -5.7578   -2.8245    0.6508 H   0  0  0  0  0  0  0  0  0  0  0  0
   -5.8708   -2.1899    2.2908 H   0  0  0  0  0  0  0  0  0  0  0  0
   -6.3879   -0.4660    0.5529 H   0  0  0  0  0  0  0  0  0  0  0  0
   -5.0228    0.0019    1.5663 H   0  0  0  0  0  0  0  0  0  0  0  0
   -4.8836   -1.1986   -1.2479 H   0  0  0  0  0  0  0  0  0  0  0  0
   -4.5306    0.4621   -0.7932 H   0  0  0  0  0  0  0  0  0  0  0  0
   -0.1317   -0.8656   -2.9981 H   0  0  0  0  0  0  0  0  0  0  0  0
    1.1186   -2.3724   -2.3521 H   0  0  0  0  0  0  0  0  0  0  0  0
    0.1342   -1.8467    0.4261 H   0  0  0  0  0  0  0  0  0  0  0  0
    0.3072   -3.3411   -0.4736 H   0  0  0  0  0  0  0  0  0  0  0  0
    1.9792   -3.3565    1.3629 H   0  0  0  0  0  0  0  0  0  0  0  0
    3.5392   -1.3074    1.6225 H   0  0  0  0  0  0  0  0  0  0  0  0
    1.8595   -0.9281    1.8542 H   0  0  0  0  0  0  0  0  0  0  0  0
    1.7031    0.3725    0.0256 H   0  0  0  0  0  0  0  0  0  0  0  0
    2.5641    2.0325   -1.0008 H   0  0  0  0  0  0  0  0  0  0  0  0
    5.4132    2.7648   -0.4713 H   0  0  0  0  0  0  0  0  0  0  0  0
    4.8385    2.4581   -2.1003 H   0  0  0  0  0  0  0  0  0  0  0  0
    3.7903    4.6609   -0.2433 H   0  0  0  0  0  0  0  0  0  0  0  0
    3.1019    4.2854   -1.8398 H   0  0  0  0  0  0  0  0  0  0  0  0
    4.5092   -4.0722    1.1308 H   0  0  0  0  0  0  0  0  0  0  0  0
    5.0412   -2.4440    0.6853 H   0  0  0  0  0  0  0  0  0  0  0  0
    5.3878   -3.7904   -0.3800 H   0  0  0  0  0  0  0  0  0  0  0  0
    3.6695   -5.0159   -1.5913 H   0  0  0  0  0  0  0  0  0  0  0  0
    2.6172   -5.2459   -0.1976 H   0  0  0  0  0  0  0  0  0  0  0  0
    1.9937   -4.4888   -1.6711 H   0  0  0  0  0  0  0  0  0  0  0  0
  2  1  1  0  0  0  0
  3  2  1  0  0  0  0
  4  3  1  0  0  0  0
  5  3  1  0  0  0  0
  6  5  1  0  0  0  0
  7  6  1  0  0  0  0
  8  7  1  0  0  0  0
  9  7  1  0  0  0  0
 10  9  1  0  0  0  0
 11 10  1  0  0  0  0
 12 11  1  0  0  0  0
 13 12  1  0  0  0  0
 14 13  1  0  0  0  0
 15 14  1  0  0  0  0
 16 15  1  0  0  0  0
 16 11  1  0  0  0  0
 17  9  1  0  0  0  0
 18 17  1  0  0  0  0
 19 18  1  0  0  0  0
 20 19  1  0  0  0  0
 21 20  1  0  0  0  0
 22 21  1  0  0  0  0
 23 22  1  0  0  0  0
 24 23  2  0  0  0  0
 25 23  1  0  0  0  0
 26 25  1  0  0  0  0
 27 26  1  0  0  0  0
 28 27  1  0  0  0  0
 29 22  1  0  0  0  0
 29 18  1  0  0  0  0
 30 29  2  0  0  0  0
 31 30  1  0  0  0  0
 32 30  1  0  0  0  0
 32 20  1  0  0  0  0
 33 32  1  0  0  0  0
 34 32  1  0  0  0  0
  1 35  1  0  0  0  0
  1 36  1  0  0  0  0
  1 37  1  0  0  0  0
  2 38  1  0  0  0  0
  2 39  1  0  0  0  0
  3 40  1  0  0  0  0
  4 41  1  0  0  0  0
  4 42  1  0  0  0  0
  4 43  1  0  0  0  0
  5 44  1  0  0  0  0
  6 45  1  0  0  0  0
  6 46  1  0  0  0  0
  7 47  1  0  0  0  0
  8 48  1  0  0  0  0
  9 49  1  0  0  0  0
 10 50  1  0  0  0  0
 10 51  1  0  0  0  0
 11 52  1  0  0  0  0
 12 53  1  0  0  0  0
 12 54  1  0  0  0  0
 13 55  1  0  0  0  0
 13 56  1  0  0  0  0
 14 57  1  0  0  0  0
 14 58  1  0  0  0  0
 15 59  1  0  0  0  0
 15 60  1  0  0  0  0
 16 61  1  0  0  0  0
 16 62  1  0  0  0  0
 17 63  1  0  0  0  0
 18 64  1  0  0  0  0
 19 65  1  0  0  0  0
 19 66  1  0  0  0  0
 20 67  1  0  0  0  0
 21 68  1  0  0  0  0
 21 69  1  0  0  0  0
 22 70  1  0  0  0  0
 25 71  1  0  0  0  0
 26 72  1  0  0  0  0
 26 73  1  0  0  0  0
 27 74  1  0  0  0  0
 27 75  1  0  0  0  0
 33 76  1  0  0  0  0
 33 77  1  0  0  0  0
 33 78  1  0  0  0  0
 34 79  1  0  0  0  0
 34 80  1  0  0  0  0
 34 81  1  0  0  0  0
M  END
>  <energy>
139.11921392612476

$$$$
