CNCC(O)=CC(C)C(=O)C(C)C1=CC2C3OC13CC1CC34CC=C1CC(O)C23CC4
                    3D

 66 71  0  0  0  0  0  0  0  0999 V2000
   -4.8642    4.1098    1.0627 C   0  0  0  0  0  0  0  0  0  0  0  0
   -5.5737    2.8922    0.7020 N   0  0  0  0  0  0  0  0  0  0  0  0
   -5.1188    2.2736   -0.5464 C   0  0  0  0  0  0  0  0  0  0  0  0
   -3.9013    1.4045   -0.3192 C   0  0  0  0  0  0  0  0  0  0  0  0
   -2.6743    2.0332   -0.2434 O   0  0  0  0  0  0  0  0  0  0  0  0
   -3.9796    0.0758   -0.1770 C   0  0  0  0  0  0  0  0  0  0  0  0
   -2.8474   -0.8073    0.2673 C   0  0  0  0  0  0  0  0  0  0  0  0
   -3.3601   -1.7207    1.3872 C   0  0  0  0  0  0  0  0  0  0  0  0
   -2.3127   -1.6029   -0.9216 C   0  0  0  0  0  0  0  0  0  0  0  0
   -2.6930   -2.7649   -1.1267 O   0  0  0  0  0  0  0  0  0  0  0  0
   -1.2957   -0.8964   -1.8470 C   0  0  0  0  0  0  0  0  0  0  0  0
   -1.4169   -1.5128   -3.2528 C   0  0  0  0  0  0  0  0  0  0  0  0
    0.1357   -0.9874   -1.3714 C   0  0  0  0  0  0  0  0  0  0  0  0
    1.1759   -0.3877   -1.9805 C   0  0  0  0  0  0  0  0  0  0  0  0
    2.4554   -1.0666   -1.5322 C   0  0  0  0  0  0  0  0  0  0  0  0
    2.0391   -2.3701   -0.8894 C   0  0  0  0  0  0  0  0  0  0  0  0
    0.9343   -3.2517   -1.1451 O   0  0  0  0  0  0  0  0  0  0  0  0
    0.6272   -2.0554   -0.4672 C   0  0  0  0  0  0  0  0  0  0  0  0
    0.5489   -1.9679    1.0399 C   0  0  0  0  0  0  0  0  0  0  0  0
    1.2754   -0.7605    1.7493 C   0  0  0  0  0  0  0  0  0  0  0  0
    1.1436    0.6037    1.0297 C   0  0  0  0  0  0  0  0  0  0  0  0
    2.5417    0.9529    0.5041 C   0  0  0  0  0  0  0  0  0  0  0  0
    3.3220    1.4152    1.7779 C   0  0  0  0  0  0  0  0  0  0  0  0
    3.3824    0.2263    2.7238 C   0  0  0  0  0  0  0  0  0  0  0  0
    2.7420   -0.8900    2.2923 C   0  0  0  0  0  0  0  0  0  0  0  0
    3.7285   -1.7929    1.5773 C   0  0  0  0  0  0  0  0  0  0  0  0
    4.3212   -1.0415    0.3057 C   0  0  0  0  0  0  0  0  0  0  0  0
    5.0402   -1.8936   -0.5925 O   0  0  0  0  0  0  0  0  0  0  0  0
    3.2524   -0.1793   -0.4886 C   0  0  0  0  0  0  0  0  0  0  0  0
    3.8731    1.0710   -1.2111 C   0  0  0  0  0  0  0  0  0  0  0  0
    2.7413    1.9668   -0.6480 C   0  0  0  0  0  0  0  0  0  0  0  0
   -5.3316    4.5614    1.9434 H   0  0  0  0  0  0  0  0  0  0  0  0
   -3.8248    3.9116    1.3346 H   0  0  0  0  0  0  0  0  0  0  0  0
   -4.8835    4.8510    0.2567 H   0  0  0  0  0  0  0  0  0  0  0  0
   -6.5743    3.0761    0.6574 H   0  0  0  0  0  0  0  0  0  0  0  0
   -4.9213    3.0148   -1.3295 H   0  0  0  0  0  0  0  0  0  0  0  0
   -5.9392    1.6515   -0.9289 H   0  0  0  0  0  0  0  0  0  0  0  0
   -2.8420    2.9892   -0.2914 H   0  0  0  0  0  0  0  0  0  0  0  0
   -4.9515   -0.4018   -0.2781 H   0  0  0  0  0  0  0  0  0  0  0  0
   -2.0169   -0.2238    0.6756 H   0  0  0  0  0  0  0  0  0  0  0  0
   -3.4977   -1.1463    2.3090 H   0  0  0  0  0  0  0  0  0  0  0  0
   -2.6652   -2.5365    1.6050 H   0  0  0  0  0  0  0  0  0  0  0  0
   -4.3268   -2.1756    1.1404 H   0  0  0  0  0  0  0  0  0  0  0  0
   -1.5762    0.1626   -1.9216 H   0  0  0  0  0  0  0  0  0  0  0  0
   -2.4530   -1.4774   -3.6155 H   0  0  0  0  0  0  0  0  0  0  0  0
   -0.7923   -0.9889   -3.9834 H   0  0  0  0  0  0  0  0  0  0  0  0
   -1.1001   -2.5644   -3.2607 H   0  0  0  0  0  0  0  0  0  0  0  0
    1.1136    0.3171   -2.8029 H   0  0  0  0  0  0  0  0  0  0  0  0
    3.0749   -1.3001   -2.3986 H   0  0  0  0  0  0  0  0  0  0  0  0
    2.8085   -2.9238   -0.4146 H   0  0  0  0  0  0  0  0  0  0  0  0
   -0.5081   -1.9262    1.3163 H   0  0  0  0  0  0  0  0  0  0  0  0
    0.9254   -2.8983    1.4765 H   0  0  0  0  0  0  0  0  0  0  0  0
    0.6870   -0.6674    2.6743 H   0  0  0  0  0  0  0  0  0  0  0  0
    0.3599    0.6519    0.2828 H   0  0  0  0  0  0  0  0  0  0  0  0
    0.8234    1.3573    1.7628 H   0  0  0  0  0  0  0  0  0  0  0  0
    2.8293    2.2657    2.2604 H   0  0  0  0  0  0  0  0  0  0  0  0
    4.3400    1.7280    1.5202 H   0  0  0  0  0  0  0  0  0  0  0  0
    4.3830    0.1372    3.1564 H   0  0  0  0  0  0  0  0  0  0  0  0
    3.2885   -2.7752    1.4046 H   0  0  0  0  0  0  0  0  0  0  0  0
    4.5736   -2.0328    2.2429 H   0  0  0  0  0  0  0  0  0  0  0  0
    5.0913   -0.3589    0.6818 H   0  0  0  0  0  0  0  0  0  0  0  0
    4.9227   -2.8162   -0.3140 H   0  0  0  0  0  0  0  0  0  0  0  0
    4.8673    1.3579   -0.8467 H   0  0  0  0  0  0  0  0  0  0  0  0
    3.9211    1.0577   -2.3035 H   0  0  0  0  0  0  0  0  0  0  0  0
    3.0725    2.9710   -0.3584 H   0  0  0  0  0  0  0  0  0  0  0  0
    1.8797    2.0764   -1.3127 H   0  0  0  0  0  0  0  0  0  0  0  0
  2  1  1  0  0  0  0
  3  2  1  0  0  0  0
  4  3  1  0  0  0  0
  5  4  1  0  0  0  0
  6  4  2  0  0  0  0
  7  6  1  0  0  0  0
  8  7  1  0  0  0  0
  9  7  1  0  0  0  0
 10  9  2  0  0  0  0
 11  9  1  0  0  0  0
 12 11  1  0  0  0  0
 13 11  1  0  0  0  0
 14 13  2  0  0  0  0
 15 14  1  0  0  0  0
 16 15  1  0  0  0  0
 17 16  1  0  0  0  0
 18 17  1  0  0  0  0
 18 13  1  0  0  0  0
 18 16  1  0  0  0  0
 19 18  1  0  0  0  0
 20 19  1  0  0  0  0
 21 20  1  0  0  0  0
 22 21  1  0  0  0  0
 23 22  1  0  0  0  0
 24 23  1  0  0  0  0
 25 24  2  0  0  0  0
 25 20  1  0  0  0  0
 26 25  1  0  0  0  0
 27 26  1  0  0  0  0
 28 27  1  0  0  0  0
 29 27  1  0  0  0  0
 29 15  1  0  0  0  0
 29 22  1  0  0  0  0
 30 29  1  0  0  0  0
 31 30  1  0  0  0  0
 31 22  1  0  0  0  0
  1 32  1  0  0  0  0
  1 33  1  0  0  0  0
  1 34  1  0  0  0  0
  2 35  1  0  0  0  0
  3 36  1  0  0  0  0
  3 37  1  0  0  0  0
  5 38  1  0  0  0  0
  6 39  1  0  0  0  0
  7 40  1  0  0  0  0
  8 41  1  0  0  0  0
  8 42  1  0  0  0  0
  8 43  1  0  0  0  0
 11 44  1  0  0  0  0
 12 45  1  0  0  0  0
 12 46  1  0  0  0  0
 12 47  1  0  0  0  0
 14 48  1  0  0  0  0
 15 49  1  0  0  0  0
 16 50  1  0  0  0  0
 19 51  1  0  0  0  0
 19 52  1  0  0  0  0
 20 53  1  0  0  0  0
 21 54  1  0  0  0  0
 21 55  1  0  0  0  0
 23 56  1  0  0  0  0
 23 57  1  0  0  0  0
 24 58  1  0  0  0  0
 26 59  1  0  0  0  0
 26 60  1  0  0  0  0
 27 61  1  0  0  0  0
 28 62  1  0  0  0  0
 30 63  1  0  0  0  0
 30 64  1  0  0  0  0
 31 65  1  0  0  0  0
 31 66  1  0  0  0  0
M  END
>  <energy>
219.520986494141

$$$$
