CC(C)NC(=O)NC12CC3(CC(C)(N)C(C(=O)O)(C3)C1)C21CCC1
                    3D

 53 56  0  0  0  0  0  0  0  0999 V2000
   -4.8644   -1.9937   -0.3251 C   0  0  0  0  0  0  0  0  0  0  0  0
   -3.8917   -0.8357   -0.1119 C   0  0  0  0  0  0  0  0  0  0  0  0
   -4.2251   -0.0913    1.1794 C   0  0  0  0  0  0  0  0  0  0  0  0
   -2.5036   -1.2736   -0.0744 N   0  0  0  0  0  0  0  0  0  0  0  0
   -1.8458   -1.7344   -1.1702 C   0  0  0  0  0  0  0  0  0  0  0  0
   -2.3653   -1.9474   -2.2588 O   0  0  0  0  0  0  0  0  0  0  0  0
   -0.5186   -2.0103   -0.9832 N   0  0  0  0  0  0  0  0  0  0  0  0
    0.5180   -1.1309   -0.3550 C   0  0  0  0  0  0  0  0  0  0  0  0
    1.8400   -1.8982   -0.0375 C   0  0  0  0  0  0  0  0  0  0  0  0
    2.5674   -0.3974   -0.0895 C   0  0  0  0  0  0  0  0  0  0  0  0
    2.8564    1.1201   -0.2404 C   0  0  0  0  0  0  0  0  0  0  0  0
    1.8153    1.8433    0.7026 C   0  0  0  0  0  0  0  0  0  0  0  0
    2.5849    2.8435    1.6017 C   0  0  0  0  0  0  0  0  0  0  0  0
    0.8266    2.6425   -0.0169 N   0  0  0  0  0  0  0  0  0  0  0  0
    1.1792    0.6490    1.4926 C   0  0  0  0  0  0  0  0  0  0  0  0
    0.7515    1.0103    2.9000 C   0  0  0  0  0  0  0  0  0  0  0  0
    1.2818    0.6515    3.9386 O   0  0  0  0  0  0  0  0  0  0  0  0
   -0.3243    1.8192    2.9365 O   0  0  0  0  0  0  0  0  0  0  0  0
    2.3765   -0.2830    1.4892 C   0  0  0  0  0  0  0  0  0  0  0  0
    0.0271   -0.1893    0.7977 C   0  0  0  0  0  0  0  0  0  0  0  0
    1.4371   -0.4116   -1.3166 C   0  0  0  0  0  0  0  0  0  0  0  0
    1.9268   -1.0788   -2.6213 C   0  0  0  0  0  0  0  0  0  0  0  0
    0.9097   -0.2249   -3.3918 C   0  0  0  0  0  0  0  0  0  0  0  0
    0.7756    0.6832   -2.1541 C   0  0  0  0  0  0  0  0  0  0  0  0
   -4.6964   -2.4880   -1.2869 H   0  0  0  0  0  0  0  0  0  0  0  0
   -4.7522   -2.7498    0.4581 H   0  0  0  0  0  0  0  0  0  0  0  0
   -5.9002   -1.6378   -0.3144 H   0  0  0  0  0  0  0  0  0  0  0  0
   -3.9841   -0.1410   -0.9550 H   0  0  0  0  0  0  0  0  0  0  0  0
   -4.2113   -0.7711    2.0386 H   0  0  0  0  0  0  0  0  0  0  0  0
   -3.4998    0.7059    1.3780 H   0  0  0  0  0  0  0  0  0  0  0  0
   -5.2193    0.3622    1.1213 H   0  0  0  0  0  0  0  0  0  0  0  0
   -2.1678   -1.6825    0.7842 H   0  0  0  0  0  0  0  0  0  0  0  0
   -0.2138   -2.4700   -1.8372 H   0  0  0  0  0  0  0  0  0  0  0  0
    2.2403   -2.6111   -0.7727 H   0  0  0  0  0  0  0  0  0  0  0  0
    1.8021   -2.5179    0.8675 H   0  0  0  0  0  0  0  0  0  0  0  0
    3.8756    1.2952    0.1391 H   0  0  0  0  0  0  0  0  0  0  0  0
    2.9313    1.5166   -1.2548 H   0  0  0  0  0  0  0  0  0  0  0  0
    3.3127    2.3420    2.2486 H   0  0  0  0  0  0  0  0  0  0  0  0
    1.9099    3.4138    2.2506 H   0  0  0  0  0  0  0  0  0  0  0  0
    3.1360    3.5668    0.9897 H   0  0  0  0  0  0  0  0  0  0  0  0
    0.1533    3.0445    0.6368 H   0  0  0  0  0  0  0  0  0  0  0  0
    1.2732    3.4262   -0.4913 H   0  0  0  0  0  0  0  0  0  0  0  0
   -0.5033    1.9321    3.8944 H   0  0  0  0  0  0  0  0  0  0  0  0
    3.2761    0.1435    1.9562 H   0  0  0  0  0  0  0  0  0  0  0  0
    2.1990   -1.1841    2.0847 H   0  0  0  0  0  0  0  0  0  0  0  0
   -0.7389    0.5022    0.4336 H   0  0  0  0  0  0  0  0  0  0  0  0
   -0.4333   -0.8132    1.5746 H   0  0  0  0  0  0  0  0  0  0  0  0
    2.9692   -0.8435   -2.8696 H   0  0  0  0  0  0  0  0  0  0  0  0
    1.7769   -2.1529   -2.7661 H   0  0  0  0  0  0  0  0  0  0  0  0
    1.3043    0.2647   -4.2867 H   0  0  0  0  0  0  0  0  0  0  0  0
   -0.0081   -0.7573   -3.6627 H   0  0  0  0  0  0  0  0  0  0  0  0
   -0.2670    0.9195   -1.9174 H   0  0  0  0  0  0  0  0  0  0  0  0
    1.3006    1.6229   -2.3330 H   0  0  0  0  0  0  0  0  0  0  0  0
  2  1  1  0  0  0  0
  3  2  1  0  0  0  0
  4  2  1  0  0  0  0
  5  4  1  0  0  0  0
  6  5  2  0  0  0  0
  7  5  1  0  0  0  0
  8  7  1  0  0  0  0
  9  8  1  0  0  0  0
 10  9  1  0  0  0  0
 11 10  1  0  0  0  0
 12 11  1  0  0  0  0
 13 12  1  0  0  0  0
 14 12  1  0  0  0  0
 15 12  1  0  0  0  0
 16 15  1  0  0  0  0
 17 16  2  0  0  0  0
 18 16  1  0  0  0  0
 19 15  1  0  0  0  0
 19 10  1  0  0  0  0
 20 15  1  0  0  0  0
 20  8  1  0  0  0  0
 21 10  1  0  0  0  0
 21  8  1  0  0  0  0
 22 21  1  0  0  0  0
 23 22  1  0  0  0  0
 24 23  1  0  0  0  0
 24 21  1  0  0  0  0
  1 25  1  0  0  0  0
  1 26  1  0  0  0  0
  1 27  1  0  0  0  0
  2 28  1  0  0  0  0
  3 29  1  0  0  0  0
  3 30  1  0  0  0  0
  3 31  1  0  0  0  0
  4 32  1  0  0  0  0
  7 33  1  0  0  0  0
  9 34  1  0  0  0  0
  9 35  1  0  0  0  0
 11 36  1  0  0  0  0
 11 37  1  0  0  0  0
 13 38  1  0  0  0  0
 13 39  1  0  0  0  0
 13 40  1  0  0  0  0
 14 41  1  0  0  0  0
 14 42  1  0  0  0  0
 18 43  1  0  0  0  0
 19 44  1  0  0  0  0
 19 45  1  0  0  0  0
 20 46  1  0  0  0  0
 20 47  1  0  0  0  0
 22 48  1  0  0  0  0
 22 49  1  0  0  0  0
 23 50  1  0  0  0  0
 23 51  1  0  0  0  0
 24 52  1  0  0  0  0
 24 53  1  0  0  0  0
M  END
>  <energy>
62.962240724455086

$$$$
