CC1C2C3C4C5CCC6C4C(CN3C(=N)N)C16C52
                    3D

 39 44  0  0  0  0  0  0  0  0999 V2000
    1.7872   -2.4206    1.8254 C   0  0  0  0  0  0  0  0  0  0  0  0
    0.7610   -1.7859    0.8966 C   0  0  0  0  0  0  0  0  0  0  0  0
   -0.2660   -0.5563    1.4413 C   0  0  0  0  0  0  0  0  0  0  0  0
   -1.2128    0.3900    0.5706 C   0  0  0  0  0  0  0  0  0  0  0  0
   -0.2875    1.3760   -0.2894 C   0  0  0  0  0  0  0  0  0  0  0  0
    0.7233    1.7168    0.7835 C   0  0  0  0  0  0  0  0  0  0  0  0
    2.0207    2.3088    0.2376 C   0  0  0  0  0  0  0  0  0  0  0  0
    2.9036    1.2275   -0.4070 C   0  0  0  0  0  0  0  0  0  0  0  0
    2.0392    0.0887   -0.9600 C   0  0  0  0  0  0  0  0  0  0  0  0
    0.5465    0.6448   -1.4147 C   0  0  0  0  0  0  0  0  0  0  0  0
    0.1556   -0.8114   -1.2778 C   0  0  0  0  0  0  0  0  0  0  0  0
   -1.3579   -1.1010   -1.3097 C   0  0  0  0  0  0  0  0  0  0  0  0
   -2.1015   -0.3704   -0.2850 N   0  0  0  0  0  0  0  0  0  0  0  0
   -3.3078    0.1890   -0.6163 C   0  0  0  0  0  0  0  0  0  0  0  0
   -3.5613    1.4535   -0.5756 N   0  0  0  0  0  0  0  0  0  0  0  0
   -4.2457   -0.7248   -0.9661 N   0  0  0  0  0  0  0  0  0  0  0  0
    1.1834   -0.6961   -0.0126 C   0  0  0  0  0  0  0  0  0  0  0  0
    0.9709    0.2894    1.2376 C   0  0  0  0  0  0  0  0  0  0  0  0
    2.4037   -3.1424    1.2809 H   0  0  0  0  0  0  0  0  0  0  0  0
    1.2801   -2.9514    2.6349 H   0  0  0  0  0  0  0  0  0  0  0  0
    2.4729   -1.7014    2.2809 H   0  0  0  0  0  0  0  0  0  0  0  0
    0.2153   -2.6109    0.4154 H   0  0  0  0  0  0  0  0  0  0  0  0
   -0.5919   -0.6598    2.4790 H   0  0  0  0  0  0  0  0  0  0  0  0
   -1.7851    0.9889    1.2919 H   0  0  0  0  0  0  0  0  0  0  0  0
   -0.8331    2.2330   -0.6945 H   0  0  0  0  0  0  0  0  0  0  0  0
    0.2923    2.3432    1.5723 H   0  0  0  0  0  0  0  0  0  0  0  0
    2.5813    2.7938    1.0436 H   0  0  0  0  0  0  0  0  0  0  0  0
    1.7782    3.0952   -0.4922 H   0  0  0  0  0  0  0  0  0  0  0  0
    3.5133    1.6831   -1.1983 H   0  0  0  0  0  0  0  0  0  0  0  0
    3.6052    0.8238    0.3405 H   0  0  0  0  0  0  0  0  0  0  0  0
    2.5808   -0.5103   -1.7042 H   0  0  0  0  0  0  0  0  0  0  0  0
    0.4798    1.0834   -2.4155 H   0  0  0  0  0  0  0  0  0  0  0  0
    0.5791   -1.4740   -2.0542 H   0  0  0  0  0  0  0  0  0  0  0  0
   -1.5383   -2.1731   -1.1725 H   0  0  0  0  0  0  0  0  0  0  0  0
   -1.7344   -0.8430   -2.3122 H   0  0  0  0  0  0  0  0  0  0  0  0
   -4.5173    1.6199   -0.8900 H   0  0  0  0  0  0  0  0  0  0  0  0
   -4.0534   -1.6282   -0.5439 H   0  0  0  0  0  0  0  0  0  0  0  0
   -5.1975   -0.4341   -0.7761 H   0  0  0  0  0  0  0  0  0  0  0  0
    1.7181    0.2465    2.0357 H   0  0  0  0  0  0  0  0  0  0  0  0
  2  1  1  0  0  0  0
  3  2  1  0  0  0  0
  4  3  1  0  0  0  0
  5  4  1  0  0  0  0
  6  5  1  0  0  0  0
  7  6  1  0  0  0  0
  8  7  1  0  0  0  0
  9  8  1  0  0  0  0
 10  9  1  0  0  0  0
 10  5  1  0  0  0  0
 11 10  1  0  0  0  0
 12 11  1  0  0  0  0
 13 12  1  0  0  0  0
 13  4  1  0  0  0  0
 14 13  1  0  0  0  0
 15 14  2  0  0  0  0
 16 14  1  0  0  0  0
 17 11  1  0  0  0  0
 17  2  1  0  0  0  0
 17  9  1  0  0  0  0
 18 17  1  0  0  0  0
 18  6  1  0  0  0  0
 18  3  1  0  0  0  0
  1 19  1  0  0  0  0
  1 20  1  0  0  0  0
  1 21  1  0  0  0  0
  2 22  1  0  0  0  0
  3 23  1  0  0  0  0
  4 24  1  0  0  0  0
  5 25  1  0  0  0  0
  6 26  1  0  0  0  0
  7 27  1  0  0  0  0
  7 28  1  0  0  0  0
  8 29  1  0  0  0  0
  8 30  1  0  0  0  0
  9 31  1  0  0  0  0
 10 32  1  0  0  0  0
 11 33  1  0  0  0  0
 12 34  1  0  0  0  0
 12 35  1  0  0  0  0
 15 36  1  0  0  0  0
 16 37  1  0  0  0  0
 16 38  1  0  0  0  0
 18 39  1  0  0  0  0
M  END
>  <energy>
6.0566497995998532

$$$$
