CC1NC2CC3C4C[S+](C)C#CC5(O)C1C4C2C35
                    3D

 38 42  0  0  0  0  0  0  0  0999 V2000
    1.5157    2.4121    1.6073 C   0  0  0  0  0  0  0  0  0  0  0  0
    1.7097    1.4114    0.4683 C   0  0  0  0  0  0  0  0  0  0  0  0
    2.3371    0.0627    1.1678 N   0  0  0  0  0  0  0  0  0  0  0  0
    2.2234   -1.2214    0.3425 C   0  0  0  0  0  0  0  0  0  0  0  0
    1.2375   -2.4210    0.4717 C   0  0  0  0  0  0  0  0  0  0  0  0
    0.0635   -2.1929   -0.6063 C   0  0  0  0  0  0  0  0  0  0  0  0
   -0.9809   -1.2436   -0.1286 C   0  0  0  0  0  0  0  0  0  0  0  0
   -2.2501   -1.2742    0.6821 C   0  0  0  0  0  0  0  0  0  0  0  0
   -3.6020   -0.1293   -0.2527 S   0  3  0  0  0  0  0  0  0  0  0  0
   -3.4295    1.2581    0.9020 C   0  0  0  0  0  0  0  0  0  0  0  0
   -2.5756    0.5197   -1.4552 C   0  0  0  0  0  0  0  0  0  0  0  0
   -1.5049    0.6666   -1.9953 C   0  0  0  0  0  0  0  0  0  0  0  0
   -0.0130    0.5333   -1.8444 C   0  0  0  0  0  0  0  0  0  0  0  0
    0.6672    1.2587   -2.8481 O   0  0  0  0  0  0  0  0  0  0  0  0
    0.2470    1.1749   -0.3432 C   0  0  0  0  0  0  0  0  0  0  0  0
    0.0343   -0.1455    0.2484 C   0  0  0  0  0  0  0  0  0  0  0  0
    1.4110   -0.5839   -0.6577 C   0  0  0  0  0  0  0  0  0  0  0  0
    0.5878   -1.1318   -1.7125 C   0  0  0  0  0  0  0  0  0  0  0  0
    2.4619    2.6014    2.1259 H   0  0  0  0  0  0  0  0  0  0  0  0
    0.7905    2.0469    2.3420 H   0  0  0  0  0  0  0  0  0  0  0  0
    1.1533    3.3692    1.2174 H   0  0  0  0  0  0  0  0  0  0  0  0
    2.4573    1.8239   -0.2233 H   0  0  0  0  0  0  0  0  0  0  0  0
    3.3249    0.2668    1.3287 H   0  0  0  0  0  0  0  0  0  0  0  0
    3.2046   -1.5369   -0.0260 H   0  0  0  0  0  0  0  0  0  0  0  0
    0.8476   -2.5413    1.4886 H   0  0  0  0  0  0  0  0  0  0  0  0
    1.7715   -3.3434    0.2123 H   0  0  0  0  0  0  0  0  0  0  0  0
   -0.3284   -3.1211   -1.0324 H   0  0  0  0  0  0  0  0  0  0  0  0
   -1.4714   -1.2985   -1.0963 H   0  0  0  0  0  0  0  0  0  0  0  0
   -2.7171   -2.2634    0.6757 H   0  0  0  0  0  0  0  0  0  0  0  0
   -2.1647   -0.9027    1.7054 H   0  0  0  0  0  0  0  0  0  0  0  0
   -3.9438    2.1304    0.4905 H   0  0  0  0  0  0  0  0  0  0  0  0
   -3.9080    0.9805    1.8450 H   0  0  0  0  0  0  0  0  0  0  0  0
   -2.3833    1.5013    1.0924 H   0  0  0  0  0  0  0  0  0  0  0  0
    0.3389    0.9203   -3.6990 H   0  0  0  0  0  0  0  0  0  0  0  0
   -0.4712    1.9548   -0.0772 H   0  0  0  0  0  0  0  0  0  0  0  0
    0.1136   -0.1404    1.3448 H   0  0  0  0  0  0  0  0  0  0  0  0
    2.0862    0.1090   -1.1993 H   0  0  0  0  0  0  0  0  0  0  0  0
    1.1591   -1.5106   -2.5614 H   0  0  0  0  0  0  0  0  0  0  0  0
  2  1  1  0  0  0  0
  3  2  1  0  0  0  0
  4  3  1  0  0  0  0
  5  4  1  0  0  0  0
  6  5  1  0  0  0  0
  7  6  1  0  0  0  0
  8  7  1  0  0  0  0
  9  8  1  0  0  0  0
 10  9  1  0  0  0  0
 11  9  1  0  0  0  0
 12 11  3  0  0  0  0
 13 12  1  0  0  0  0
 14 13  1  0  0  0  0
 15 13  1  0  0  0  0
 15  2  1  0  0  0  0
 16 15  1  0  0  0  0
 16  7  1  0  0  0  0
 17 16  1  0  0  0  0
 17  4  1  0  0  0  0
 18 17  1  0  0  0  0
 18  6  1  0  0  0  0
 18 13  1  0  0  0  0
  1 19  1  0  0  0  0
  1 20  1  0  0  0  0
  1 21  1  0  0  0  0
  2 22  1  0  0  0  0
  3 23  1  0  0  0  0
  4 24  1  0  0  0  0
  5 25  1  0  0  0  0
  5 26  1  0  0  0  0
  6 27  1  0  0  0  0
  7 28  1  0  0  0  0
  8 29  1  0  0  0  0
  8 30  1  0  0  0  0
 10 31  1  0  0  0  0
 10 32  1  0  0  0  0
 10 33  1  0  0  0  0
 14 34  1  0  0  0  0
 15 35  1  0  0  0  0
 16 36  1  0  0  0  0
 17 37  1  0  0  0  0
 18 38  1  0  0  0  0
M  CHG  1   9   1
M  END
>  <energy>
323.85113694710344

$$$$
