CN(C(CSCC(NC#N)C(O)O)CC(O)C1(O)Cn2cnc(c2N)CCO1)C(CO)c1cn[nH]c(=N)n1
                    3D

 72 74  0  0  0  0  0  0  0  0999 V2000
    3.2852    0.4689    2.3456 C   0  0  0  0  0  0  0  0  0  0  0  0
    2.3159    0.5321    1.2505 N   0  0  0  0  0  0  0  0  0  0  0  0
    1.1266   -0.3296    1.5126 C   0  0  0  0  0  0  0  0  0  0  0  0
    1.2640   -1.7963    1.0082 C   0  0  0  0  0  0  0  0  0  0  0  0
   -0.1411   -2.8852    1.4762 S   0  0  0  0  0  0  0  0  0  0  0  0
    0.3208   -4.3817    0.5307 C   0  0  0  0  0  0  0  0  0  0  0  0
   -0.3151   -4.5511   -0.8669 C   0  0  0  0  0  0  0  0  0  0  0  0
    0.1887   -3.4686   -1.7933 N   0  0  0  0  0  0  0  0  0  0  0  0
    0.4121   -3.7213   -3.0889 C   0  0  0  0  0  0  0  0  0  0  0  0
    0.5789   -3.9706   -4.2053 N   0  0  0  0  0  0  0  0  0  0  0  0
   -1.8722   -4.5996   -0.9316 C   0  0  0  0  0  0  0  0  0  0  0  0
   -2.4803   -5.1126    0.2277 O   0  0  0  0  0  0  0  0  0  0  0  0
   -2.4348   -3.3097   -1.1626 O   0  0  0  0  0  0  0  0  0  0  0  0
   -0.1680    0.3663    0.9827 C   0  0  0  0  0  0  0  0  0  0  0  0
   -1.1470    0.6662    2.1324 C   0  0  0  0  0  0  0  0  0  0  0  0
   -0.5164    1.6061    3.0305 O   0  0  0  0  0  0  0  0  0  0  0  0
   -2.5915    1.1753    1.8080 C   0  0  0  0  0  0  0  0  0  0  0  0
   -3.1818    1.2465    3.1440 O   0  0  0  0  0  0  0  0  0  0  0  0
   -3.5172    0.1420    1.0575 C   0  0  0  0  0  0  0  0  0  0  0  0
   -3.9486    0.5393   -0.2788 N   0  0  0  0  0  0  0  0  0  0  0  0
   -4.9119    1.5086   -0.4500 C   0  0  0  0  0  0  0  0  0  0  0  0
   -4.3605    2.5690   -1.0005 N   0  0  0  0  0  0  0  0  0  0  0  0
   -3.0645    2.1691   -1.2494 C   0  0  0  0  0  0  0  0  0  0  0  0
   -3.0153    0.7889   -1.2597 C   0  0  0  0  0  0  0  0  0  0  0  0
   -2.1169   -0.1356   -1.6577 N   0  0  0  0  0  0  0  0  0  0  0  0
   -1.9300    3.0562   -0.9089 C   0  0  0  0  0  0  0  0  0  0  0  0
   -1.8074    3.2407    0.6248 C   0  0  0  0  0  0  0  0  0  0  0  0
   -2.7425    2.5511    1.4576 O   0  0  0  0  0  0  0  0  0  0  0  0
    2.8998    0.4555   -0.1118 C   0  0  0  0  0  0  0  0  0  0  0  0
    4.3176   -0.1389   -0.2994 C   0  0  0  0  0  0  0  0  0  0  0  0
    5.3263    0.6756    0.2915 O   0  0  0  0  0  0  0  0  0  0  0  0
    2.8547    1.8067   -0.8115 C   0  0  0  0  0  0  0  0  0  0  0  0
    2.9379    3.0785    0.0049 C   0  0  0  0  0  0  0  0  0  0  0  0
    2.8881    4.2552   -0.5475 N   0  0  0  0  0  0  0  0  0  0  0  0
    2.7673    4.2105   -1.9034 N   0  0  0  0  0  0  0  0  0  0  0  0
    2.7494    3.0793   -2.6633 C   0  0  0  0  0  0  0  0  0  0  0  0
    2.7376    3.0873   -3.9489 N   0  0  0  0  0  0  0  0  0  0  0  0
    2.7581    1.8358   -2.1135 N   0  0  0  0  0  0  0  0  0  0  0  0
    2.7992    0.7014    3.2996 H   0  0  0  0  0  0  0  0  0  0  0  0
    3.7601   -0.5142    2.4297 H   0  0  0  0  0  0  0  0  0  0  0  0
    4.0614    1.2323    2.2332 H   0  0  0  0  0  0  0  0  0  0  0  0
    1.0231   -0.4046    2.6026 H   0  0  0  0  0  0  0  0  0  0  0  0
    2.1802   -2.2352    1.4143 H   0  0  0  0  0  0  0  0  0  0  0  0
    1.3308   -1.8176   -0.0809 H   0  0  0  0  0  0  0  0  0  0  0  0
    1.4131   -4.4160    0.4438 H   0  0  0  0  0  0  0  0  0  0  0  0
    0.0488   -5.2400    1.1543 H   0  0  0  0  0  0  0  0  0  0  0  0
    0.0543   -5.5217   -1.2262 H   0  0  0  0  0  0  0  0  0  0  0  0
   -0.3447   -2.6089   -1.5844 H   0  0  0  0  0  0  0  0  0  0  0  0
   -2.1556   -5.2268   -1.7855 H   0  0  0  0  0  0  0  0  0  0  0  0
   -2.2501   -4.4889    0.9430 H   0  0  0  0  0  0  0  0  0  0  0  0
   -3.3287   -3.5069   -1.5012 H   0  0  0  0  0  0  0  0  0  0  0  0
   -0.6445   -0.2740    0.2465 H   0  0  0  0  0  0  0  0  0  0  0  0
    0.1106    1.2881    0.4663 H   0  0  0  0  0  0  0  0  0  0  0  0
   -1.2663   -0.2516    2.7210 H   0  0  0  0  0  0  0  0  0  0  0  0
   -1.2349    1.9040    3.6255 H   0  0  0  0  0  0  0  0  0  0  0  0
   -3.7432    2.0435    3.0621 H   0  0  0  0  0  0  0  0  0  0  0  0
   -3.0339   -0.8368    0.9725 H   0  0  0  0  0  0  0  0  0  0  0  0
   -4.4415   -0.0265    1.6222 H   0  0  0  0  0  0  0  0  0  0  0  0
   -5.9053    1.4466   -0.0267 H   0  0  0  0  0  0  0  0  0  0  0  0
   -2.4614   -1.0940   -1.7624 H   0  0  0  0  0  0  0  0  0  0  0  0
   -1.5747    0.1112   -2.4873 H   0  0  0  0  0  0  0  0  0  0  0  0
   -2.0552    4.0309   -1.3888 H   0  0  0  0  0  0  0  0  0  0  0  0
   -0.9898    2.6482   -1.3000 H   0  0  0  0  0  0  0  0  0  0  0  0
   -0.7812    3.1063    0.9746 H   0  0  0  0  0  0  0  0  0  0  0  0
   -2.0070    4.3025    0.8124 H   0  0  0  0  0  0  0  0  0  0  0  0
    2.2466   -0.1614   -0.7377 H   0  0  0  0  0  0  0  0  0  0  0  0
    4.3781   -1.1426    0.1350 H   0  0  0  0  0  0  0  0  0  0  0  0
    4.5575   -0.2267   -1.3643 H   0  0  0  0  0  0  0  0  0  0  0  0
    6.1871    0.3193    0.0063 H   0  0  0  0  0  0  0  0  0  0  0  0
    3.0436    2.9764    1.0908 H   0  0  0  0  0  0  0  0  0  0  0  0
    2.8219    5.0786   -2.4280 H   0  0  0  0  0  0  0  0  0  0  0  0
    2.7359    2.0958   -4.2147 H   0  0  0  0  0  0  0  0  0  0  0  0
  2  1  1  0  0  0  0
  3  2  1  0  0  0  0
  4  3  1  0  0  0  0
  5  4  1  0  0  0  0
  6  5  1  0  0  0  0
  7  6  1  0  0  0  0
  8  7  1  0  0  0  0
  9  8  1  0  0  0  0
 10  9  3  0  0  0  0
 11  7  1  0  0  0  0
 12 11  1  0  0  0  0
 13 11  1  0  0  0  0
 14  3  1  0  0  0  0
 15 14  1  0  0  0  0
 16 15  1  0  0  0  0
 17 15  1  0  0  0  0
 18 17  1  0  0  0  0
 19 17  1  0  0  0  0
 20 19  1  0  0  0  0
 21 20  1  0  0  0  0
 22 21  2  0  0  0  0
 23 22  1  0  0  0  0
 24 23  2  0  0  0  0
 24 20  1  0  0  0  0
 25 24  1  0  0  0  0
 26 23  1  0  0  0  0
 27 26  1  0  0  0  0
 28 27  1  0  0  0  0
 28 17  1  0  0  0  0
 29  2  1  0  0  0  0
 30 29  1  0  0  0  0
 31 30  1  0  0  0  0
 32 29  1  0  0  0  0
 33 32  1  0  0  0  0
 34 33  2  0  0  0  0
 35 34  1  0  0  0  0
 36 35  1  0  0  0  0
 37 36  2  0  0  0  0
 38 36  1  0  0  0  0
 38 32  2  0  0  0  0
  1 39  1  0  0  0  0
  1 40  1  0  0  0  0
  1 41  1  0  0  0  0
  3 42  1  0  0  0  0
  4 43  1  0  0  0  0
  4 44  1  0  0  0  0
  6 45  1  0  0  0  0
  6 46  1  0  0  0  0
  7 47  1  0  0  0  0
  8 48  1  0  0  0  0
 11 49  1  0  0  0  0
 12 50  1  0  0  0  0
 13 51  1  0  0  0  0
 14 52  1  0  0  0  0
 14 53  1  0  0  0  0
 15 54  1  0  0  0  0
 16 55  1  0  0  0  0
 18 56  1  0  0  0  0
 19 57  1  0  0  0  0
 19 58  1  0  0  0  0
 21 59  1  0  0  0  0
 25 60  1  0  0  0  0
 25 61  1  0  0  0  0
 26 62  1  0  0  0  0
 26 63  1  0  0  0  0
 27 64  1  0  0  0  0
 27 65  1  0  0  0  0
 29 66  1  0  0  0  0
 30 67  1  0  0  0  0
 30 68  1  0  0  0  0
 31 69  1  0  0  0  0
 33 70  1  0  0  0  0
 35 71  1  0  0  0  0
 37 72  1  0  0  0  0
M  END
>  <energy>
174.84364232971362

$$$$
