N=C1N=C2N(CCOC(=O)Cn3[nH]nc3C(=O)O)N=Nc3c(c(NN)c(N)c(=N)n32)N1
                    3D

 47 50  0  0  0  0  0  0  0  0999 V2000
    3.7462   -1.7629    1.5243 N   0  0  0  0  0  0  0  0  0  0  0  0
    3.1587   -1.3888    0.4418 C   0  0  0  0  0  0  0  0  0  0  0  0
    2.0774   -2.1711    0.1116 N   0  0  0  0  0  0  0  0  0  0  0  0
    1.1275   -1.5497   -0.5191 C   0  0  0  0  0  0  0  0  0  0  0  0
    0.7379   -2.1564   -1.6991 N   0  0  0  0  0  0  0  0  0  0  0  0
   -0.2102   -3.2462   -1.6929 C   0  0  0  0  0  0  0  0  0  0  0  0
   -1.6457   -2.7642   -1.9165 C   0  0  0  0  0  0  0  0  0  0  0  0
   -1.8938   -1.5911   -1.1208 O   0  0  0  0  0  0  0  0  0  0  0  0
   -3.1472   -1.0666   -1.2350 C   0  0  0  0  0  0  0  0  0  0  0  0
   -4.0887   -1.6409   -1.7692 O   0  0  0  0  0  0  0  0  0  0  0  0
   -3.1712    0.3605   -0.7237 C   0  0  0  0  0  0  0  0  0  0  0  0
   -4.1454    0.5618    0.3412 N   0  0  0  0  0  0  0  0  0  0  0  0
   -4.5771    1.8487    0.6470 N   0  0  0  0  0  0  0  0  0  0  0  0
   -4.0921    1.7279    1.9058 N   0  0  0  0  0  0  0  0  0  0  0  0
   -3.7570    0.5013    1.6534 C   0  0  0  0  0  0  0  0  0  0  0  0
   -3.0848   -0.5153    2.5168 C   0  0  0  0  0  0  0  0  0  0  0  0
   -2.7053   -0.3191    3.6560 O   0  0  0  0  0  0  0  0  0  0  0  0
   -2.9351   -1.6891    1.8923 O   0  0  0  0  0  0  0  0  0  0  0  0
    0.9838   -1.4488   -2.8754 N   0  0  0  0  0  0  0  0  0  0  0  0
    1.6877   -0.3884   -2.7675 N   0  0  0  0  0  0  0  0  0  0  0  0
    1.7095    0.2836   -1.5394 C   0  0  0  0  0  0  0  0  0  0  0  0
    2.8881    0.6841   -0.9593 C   0  0  0  0  0  0  0  0  0  0  0  0
    2.6641    1.8583   -0.0528 C   0  0  0  0  0  0  0  0  0  0  0  0
    3.6114    2.8810   -0.0872 N   0  0  0  0  0  0  0  0  0  0  0  0
    3.1424    4.2175   -0.1621 N   0  0  0  0  0  0  0  0  0  0  0  0
    1.6311    1.8009    0.8292 C   0  0  0  0  0  0  0  0  0  0  0  0
    1.4398    2.6756    1.8916 N   0  0  0  0  0  0  0  0  0  0  0  0
    0.6735    0.6234    0.6051 C   0  0  0  0  0  0  0  0  0  0  0  0
   -0.3336    0.4109    1.4099 N   0  0  0  0  0  0  0  0  0  0  0  0
    0.8640   -0.1871   -0.5177 N   0  0  0  0  0  0  0  0  0  0  0  0
    3.6732   -0.3143   -0.2850 N   0  0  0  0  0  0  0  0  0  0  0  0
    3.2037   -2.5777    1.8441 H   0  0  0  0  0  0  0  0  0  0  0  0
    0.0770   -3.9712   -2.4601 H   0  0  0  0  0  0  0  0  0  0  0  0
   -0.1477   -3.7440   -0.7187 H   0  0  0  0  0  0  0  0  0  0  0  0
   -2.3506   -3.5615   -1.6526 H   0  0  0  0  0  0  0  0  0  0  0  0
   -1.7793   -2.4963   -2.9710 H   0  0  0  0  0  0  0  0  0  0  0  0
   -3.4296    0.9861   -1.5880 H   0  0  0  0  0  0  0  0  0  0  0  0
   -2.1681    0.6689   -0.4162 H   0  0  0  0  0  0  0  0  0  0  0  0
   -4.0991    2.6108    0.1510 H   0  0  0  0  0  0  0  0  0  0  0  0
   -2.4410   -2.2271    2.5441 H   0  0  0  0  0  0  0  0  0  0  0  0
    4.3945    2.6851   -0.7202 H   0  0  0  0  0  0  0  0  0  0  0  0
    2.8519    4.4498   -1.1177 H   0  0  0  0  0  0  0  0  0  0  0  0
    2.2915    4.3504    0.3985 H   0  0  0  0  0  0  0  0  0  0  0  0
    1.1901    2.1790    2.7457 H   0  0  0  0  0  0  0  0  0  0  0  0
    2.3209    3.1738    2.0622 H   0  0  0  0  0  0  0  0  0  0  0  0
   -0.3694    1.1385    2.1341 H   0  0  0  0  0  0  0  0  0  0  0  0
    4.4260    0.0999    0.2617 H   0  0  0  0  0  0  0  0  0  0  0  0
  2  1  2  0  0  0  0
  3  2  1  0  0  0  0
  4  3  2  0  0  0  0
  5  4  1  0  0  0  0
  6  5  1  0  0  0  0
  7  6  1  0  0  0  0
  8  7  1  0  0  0  0
  9  8  1  0  0  0  0
 10  9  2  0  0  0  0
 11  9  1  0  0  0  0
 12 11  1  0  0  0  0
 13 12  1  0  0  0  0
 14 13  1  0  0  0  0
 15 14  2  0  0  0  0
 15 12  1  0  0  0  0
 16 15  1  0  0  0  0
 17 16  2  0  0  0  0
 18 16  1  0  0  0  0
 19  5  1  0  0  0  0
 20 19  2  0  0  0  0
 21 20  1  0  0  0  0
 22 21  2  0  0  0  0
 23 22  1  0  0  0  0
 24 23  1  0  0  0  0
 25 24  1  0  0  0  0
 26 23  2  0  0  0  0
 27 26  1  0  0  0  0
 28 26  1  0  0  0  0
 29 28  2  0  0  0  0
 30 28  1  0  0  0  0
 30 21  1  0  0  0  0
 30  4  1  0  0  0  0
 31 22  1  0  0  0  0
 31  2  1  0  0  0  0
  1 32  1  0  0  0  0
  6 33  1  0  0  0  0
  6 34  1  0  0  0  0
  7 35  1  0  0  0  0
  7 36  1  0  0  0  0
 11 37  1  0  0  0  0
 11 38  1  0  0  0  0
 13 39  1  0  0  0  0
 18 40  1  0  0  0  0
 24 41  1  0  0  0  0
 25 42  1  0  0  0  0
 25 43  1  0  0  0  0
 27 44  1  0  0  0  0
 27 45  1  0  0  0  0
 29 46  1  0  0  0  0
 31 47  1  0  0  0  0
M  END
>  <energy>
215.51024173248734

$$$$
