CCCCC1CC(CC(NC(CC2CCCCC2)C(=O)NCC(C)(C)C)C(CC(O)CC2CCOCO2)C2CCCCC2)C(=O)N1
                    3D

115118  0  0  0  0  0  0  0  0999 V2000
    0.7231    0.4738    7.5986 C   0  0  0  0  0  0  0  0  0  0  0  0
    1.0297   -0.2436    6.2933 C   0  0  0  0  0  0  0  0  0  0  0  0
    2.4918   -0.0584    5.8851 C   0  0  0  0  0  0  0  0  0  0  0  0
    2.7597   -0.5238    4.4490 C   0  0  0  0  0  0  0  0  0  0  0  0
    2.9603    0.6418    3.4734 C   0  0  0  0  0  0  0  0  0  0  0  0
    1.7293    1.5062    3.2055 C   0  0  0  0  0  0  0  0  0  0  0  0
    1.0367    0.8348    2.0014 C   0  0  0  0  0  0  0  0  0  0  0  0
    0.1842    1.8412    1.2189 C   0  0  0  0  0  0  0  0  0  0  0  0
   -0.4605    1.3395   -0.1031 C   0  0  0  0  0  0  0  0  0  0  0  0
   -1.7464    0.6716    0.1609 N   0  0  0  0  0  0  0  0  0  0  0  0
   -1.8439   -0.7657    0.4860 C   0  0  0  0  0  0  0  0  0  0  0  0
   -2.3146   -1.0314    1.9368 C   0  0  0  0  0  0  0  0  0  0  0  0
   -3.8567   -1.1969    2.0642 C   0  0  0  0  0  0  0  0  0  0  0  0
   -4.3824   -2.4646    1.3603 C   0  0  0  0  0  0  0  0  0  0  0  0
   -4.0622   -3.7470    2.1229 C   0  0  0  0  0  0  0  0  0  0  0  0
   -4.4338   -3.6779    3.6025 C   0  0  0  0  0  0  0  0  0  0  0  0
   -5.1162   -2.3710    3.9861 C   0  0  0  0  0  0  0  0  0  0  0  0
   -4.2930   -1.1597    3.5483 C   0  0  0  0  0  0  0  0  0  0  0  0
   -0.6271   -1.6170    0.0722 C   0  0  0  0  0  0  0  0  0  0  0  0
    0.1010   -2.1905    0.8756 O   0  0  0  0  0  0  0  0  0  0  0  0
   -0.4714   -1.6895   -1.3013 N   0  0  0  0  0  0  0  0  0  0  0  0
    0.6503   -2.3558   -1.9261 C   0  0  0  0  0  0  0  0  0  0  0  0
    0.2831   -3.7146   -2.5664 C   0  0  0  0  0  0  0  0  0  0  0  0
   -0.2206   -4.7054   -1.5036 C   0  0  0  0  0  0  0  0  0  0  0  0
   -0.8034   -3.5453   -3.6432 C   0  0  0  0  0  0  0  0  0  0  0  0
    1.5490   -4.2911   -3.2259 C   0  0  0  0  0  0  0  0  0  0  0  0
   -0.7697    2.5399   -1.0922 C   0  0  0  0  0  0  0  0  0  0  0  0
    0.4118    3.5132   -1.3868 C   0  0  0  0  0  0  0  0  0  0  0  0
    1.8732    3.0246   -1.4899 C   0  0  0  0  0  0  0  0  0  0  0  0
    2.6595    4.2010   -1.7400 O   0  0  0  0  0  0  0  0  0  0  0  0
    2.1874    1.9740   -2.5583 C   0  0  0  0  0  0  0  0  0  0  0  0
    3.6364    1.4597   -2.4520 C   0  0  0  0  0  0  0  0  0  0  0  0
    3.8872    0.3152   -3.4321 C   0  0  0  0  0  0  0  0  0  0  0  0
    5.3665    0.2258   -3.7758 C   0  0  0  0  0  0  0  0  0  0  0  0
    6.1366    0.7005   -2.6793 O   0  0  0  0  0  0  0  0  0  0  0  0
    5.9022    2.0905   -2.4631 C   0  0  0  0  0  0  0  0  0  0  0  0
    4.5621    2.5157   -2.7374 O   0  0  0  0  0  0  0  0  0  0  0  0
   -1.6127    2.0886   -2.3677 C   0  0  0  0  0  0  0  0  0  0  0  0
   -2.9881    2.8135   -2.4145 C   0  0  0  0  0  0  0  0  0  0  0  0
   -2.9867    3.9925   -3.3780 C   0  0  0  0  0  0  0  0  0  0  0  0
   -2.7103    3.5470   -4.8138 C   0  0  0  0  0  0  0  0  0  0  0  0
   -1.9013    2.2519   -4.8974 C   0  0  0  0  0  0  0  0  0  0  0  0
   -0.9082    2.1379   -3.7425 C   0  0  0  0  0  0  0  0  0  0  0  0
    2.2455    0.2868    1.2620 C   0  0  0  0  0  0  0  0  0  0  0  0
    2.3256   -0.0034    0.0783 O   0  0  0  0  0  0  0  0  0  0  0  0
    3.2865    0.1652    2.1579 N   0  0  0  0  0  0  0  0  0  0  0  0
    0.8398    1.5560    7.4786 H   0  0  0  0  0  0  0  0  0  0  0  0
   -0.3089    0.2784    7.9043 H   0  0  0  0  0  0  0  0  0  0  0  0
    1.3883    0.1401    8.4007 H   0  0  0  0  0  0  0  0  0  0  0  0
    0.8166   -1.3137    6.4060 H   0  0  0  0  0  0  0  0  0  0  0  0
    0.3564    0.1357    5.5181 H   0  0  0  0  0  0  0  0  0  0  0  0
    3.1109   -0.6519    6.5707 H   0  0  0  0  0  0  0  0  0  0  0  0
    2.7997    0.9861    6.0175 H   0  0  0  0  0  0  0  0  0  0  0  0
    1.9726   -1.2034    4.0993 H   0  0  0  0  0  0  0  0  0  0  0  0
    3.6849   -1.1170    4.4538 H   0  0  0  0  0  0  0  0  0  0  0  0
    3.7974    1.2618    3.8148 H   0  0  0  0  0  0  0  0  0  0  0  0
    2.0747    2.5120    2.9238 H   0  0  0  0  0  0  0  0  0  0  0  0
    1.0674    1.6346    4.0641 H   0  0  0  0  0  0  0  0  0  0  0  0
    0.4377   -0.0092    2.3517 H   0  0  0  0  0  0  0  0  0  0  0  0
   -0.6018    2.2254    1.8860 H   0  0  0  0  0  0  0  0  0  0  0  0
    0.8111    2.7135    1.0222 H   0  0  0  0  0  0  0  0  0  0  0  0
    0.2142    0.6849   -0.6488 H   0  0  0  0  0  0  0  0  0  0  0  0
   -2.3550    1.2331    0.7515 H   0  0  0  0  0  0  0  0  0  0  0  0
   -2.6391   -1.1161   -0.1802 H   0  0  0  0  0  0  0  0  0  0  0  0
   -1.9863   -0.2040    2.5807 H   0  0  0  0  0  0  0  0  0  0  0  0
   -1.8329   -1.9270    2.3456 H   0  0  0  0  0  0  0  0  0  0  0  0
   -4.3110   -0.3305    1.5652 H   0  0  0  0  0  0  0  0  0  0  0  0
   -3.9966   -2.5540    0.3420 H   0  0  0  0  0  0  0  0  0  0  0  0
   -5.4718   -2.3778    1.2472 H   0  0  0  0  0  0  0  0  0  0  0  0
   -2.9958   -3.9841    2.0281 H   0  0  0  0  0  0  0  0  0  0  0  0
   -4.5953   -4.5810    1.6513 H   0  0  0  0  0  0  0  0  0  0  0  0
   -5.0870   -4.5223    3.8551 H   0  0  0  0  0  0  0  0  0  0  0  0
   -3.5267   -3.8038    4.2068 H   0  0  0  0  0  0  0  0  0  0  0  0
   -6.1148   -2.3296    3.5326 H   0  0  0  0  0  0  0  0  0  0  0  0
   -5.2721   -2.3402    5.0702 H   0  0  0  0  0  0  0  0  0  0  0  0
   -3.4228   -1.0627    4.2097 H   0  0  0  0  0  0  0  0  0  0  0  0
   -4.8961   -0.2600    3.7177 H   0  0  0  0  0  0  0  0  0  0  0  0
   -1.0425   -1.0693   -1.8629 H   0  0  0  0  0  0  0  0  0  0  0  0
    1.4532   -2.4858   -1.1912 H   0  0  0  0  0  0  0  0  0  0  0  0
    1.0240   -1.6663   -2.6921 H   0  0  0  0  0  0  0  0  0  0  0  0
   -0.3897   -5.6966   -1.9376 H   0  0  0  0  0  0  0  0  0  0  0  0
   -1.1694   -4.3766   -1.0663 H   0  0  0  0  0  0  0  0  0  0  0  0
    0.5053   -4.8167   -0.6913 H   0  0  0  0  0  0  0  0  0  0  0  0
   -0.4702   -2.8770   -4.4438 H   0  0  0  0  0  0  0  0  0  0  0  0
   -1.0571   -4.5084   -4.0998 H   0  0  0  0  0  0  0  0  0  0  0  0
   -1.7268   -3.1337   -3.2229 H   0  0  0  0  0  0  0  0  0  0  0  0
    1.3502   -5.2560   -3.7034 H   0  0  0  0  0  0  0  0  0  0  0  0
    2.3455   -4.4438   -2.4895 H   0  0  0  0  0  0  0  0  0  0  0  0
    1.9367   -3.6174   -3.9980 H   0  0  0  0  0  0  0  0  0  0  0  0
   -1.4531    3.1790   -0.5127 H   0  0  0  0  0  0  0  0  0  0  0  0
    0.4087    4.2534   -0.5693 H   0  0  0  0  0  0  0  0  0  0  0  0
    0.1755    4.1525   -2.2461 H   0  0  0  0  0  0  0  0  0  0  0  0
    2.2056    2.6493   -0.5209 H   0  0  0  0  0  0  0  0  0  0  0  0
    3.5266    3.8970   -2.0807 H   0  0  0  0  0  0  0  0  0  0  0  0
    1.5062    1.1250   -2.4643 H   0  0  0  0  0  0  0  0  0  0  0  0
    2.0547    2.4266   -3.5480 H   0  0  0  0  0  0  0  0  0  0  0  0
    3.8235    1.1229   -1.4268 H   0  0  0  0  0  0  0  0  0  0  0  0
    3.5419   -0.6208   -2.9774 H   0  0  0  0  0  0  0  0  0  0  0  0
    3.3181    0.4408   -4.3600 H   0  0  0  0  0  0  0  0  0  0  0  0
    5.6073    0.8152   -4.6700 H   0  0  0  0  0  0  0  0  0  0  0  0
    5.6487   -0.8129   -3.9809 H   0  0  0  0  0  0  0  0  0  0  0  0
    6.1389    2.3174   -1.4181 H   0  0  0  0  0  0  0  0  0  0  0  0
    6.5804    2.6689   -3.0976 H   0  0  0  0  0  0  0  0  0  0  0  0
   -1.8741    1.0314   -2.2323 H   0  0  0  0  0  0  0  0  0  0  0  0
   -3.3093    3.1410   -1.4202 H   0  0  0  0  0  0  0  0  0  0  0  0
   -3.7548    2.0970   -2.7426 H   0  0  0  0  0  0  0  0  0  0  0  0
   -3.9502    4.5124   -3.3397 H   0  0  0  0  0  0  0  0  0  0  0  0
   -2.2272    4.7171   -3.0615 H   0  0  0  0  0  0  0  0  0  0  0  0
   -2.1852    4.3538   -5.3412 H   0  0  0  0  0  0  0  0  0  0  0  0
   -3.6587    3.4032   -5.3479 H   0  0  0  0  0  0  0  0  0  0  0  0
   -2.5833    1.3933   -4.8824 H   0  0  0  0  0  0  0  0  0  0  0  0
   -1.3722    2.2130   -5.8560 H   0  0  0  0  0  0  0  0  0  0  0  0
   -0.3123    1.2290   -3.8762 H   0  0  0  0  0  0  0  0  0  0  0  0
   -0.2233    2.9816   -3.8324 H   0  0  0  0  0  0  0  0  0  0  0  0
    4.1812   -0.2121    1.8694 H   0  0  0  0  0  0  0  0  0  0  0  0
  2  1  1  0  0  0  0
  3  2  1  0  0  0  0
  4  3  1  0  0  0  0
  5  4  1  0  0  0  0
  6  5  1  0  0  0  0
  7  6  1  0  0  0  0
  8  7  1  0  0  0  0
  9  8  1  0  0  0  0
 10  9  1  0  0  0  0
 11 10  1  0  0  0  0
 12 11  1  0  0  0  0
 13 12  1  0  0  0  0
 14 13  1  0  0  0  0
 15 14  1  0  0  0  0
 16 15  1  0  0  0  0
 17 16  1  0  0  0  0
 18 17  1  0  0  0  0
 18 13  1  0  0  0  0
 19 11  1  0  0  0  0
 20 19  2  0  0  0  0
 21 19  1  0  0  0  0
 22 21  1  0  0  0  0
 23 22  1  0  0  0  0
 24 23  1  0  0  0  0
 25 23  1  0  0  0  0
 26 23  1  0  0  0  0
 27  9  1  0  0  0  0
 28 27  1  0  0  0  0
 29 28  1  0  0  0  0
 30 29  1  0  0  0  0
 31 29  1  0  0  0  0
 32 31  1  0  0  0  0
 33 32  1  0  0  0  0
 34 33  1  0  0  0  0
 35 34  1  0  0  0  0
 36 35  1  0  0  0  0
 37 36  1  0  0  0  0
 37 32  1  0  0  0  0
 38 27  1  0  0  0  0
 39 38  1  0  0  0  0
 40 39  1  0  0  0  0
 41 40  1  0  0  0  0
 42 41  1  0  0  0  0
 43 42  1  0  0  0  0
 43 38  1  0  0  0  0
 44  7  1  0  0  0  0
 45 44  2  0  0  0  0
 46 44  1  0  0  0  0
 46  5  1  0  0  0  0
  1 47  1  0  0  0  0
  1 48  1  0  0  0  0
  1 49  1  0  0  0  0
  2 50  1  0  0  0  0
  2 51  1  0  0  0  0
  3 52  1  0  0  0  0
  3 53  1  0  0  0  0
  4 54  1  0  0  0  0
  4 55  1  0  0  0  0
  5 56  1  0  0  0  0
  6 57  1  0  0  0  0
  6 58  1  0  0  0  0
  7 59  1  0  0  0  0
  8 60  1  0  0  0  0
  8 61  1  0  0  0  0
  9 62  1  0  0  0  0
 10 63  1  0  0  0  0
 11 64  1  0  0  0  0
 12 65  1  0  0  0  0
 12 66  1  0  0  0  0
 13 67  1  0  0  0  0
 14 68  1  0  0  0  0
 14 69  1  0  0  0  0
 15 70  1  0  0  0  0
 15 71  1  0  0  0  0
 16 72  1  0  0  0  0
 16 73  1  0  0  0  0
 17 74  1  0  0  0  0
 17 75  1  0  0  0  0
 18 76  1  0  0  0  0
 18 77  1  0  0  0  0
 21 78  1  0  0  0  0
 22 79  1  0  0  0  0
 22 80  1  0  0  0  0
 24 81  1  0  0  0  0
 24 82  1  0  0  0  0
 24 83  1  0  0  0  0
 25 84  1  0  0  0  0
 25 85  1  0  0  0  0
 25 86  1  0  0  0  0
 26 87  1  0  0  0  0
 26 88  1  0  0  0  0
 26 89  1  0  0  0  0
 27 90  1  0  0  0  0
 28 91  1  0  0  0  0
 28 92  1  0  0  0  0
 29 93  1  0  0  0  0
 30 94  1  0  0  0  0
 31 95  1  0  0  0  0
 31 96  1  0  0  0  0
 32 97  1  0  0  0  0
 33 98  1  0  0  0  0
 33 99  1  0  0  0  0
 34100  1  0  0  0  0
 34101  1  0  0  0  0
 36102  1  0  0  0  0
 36103  1  0  0  0  0
 38104  1  0  0  0  0
 39105  1  0  0  0  0
 39106  1  0  0  0  0
 40107  1  0  0  0  0
 40108  1  0  0  0  0
 41109  1  0  0  0  0
 41110  1  0  0  0  0
 42111  1  0  0  0  0
 42112  1  0  0  0  0
 43113  1  0  0  0  0
 43114  1  0  0  0  0
 46115  1  0  0  0  0
M  END
>  <energy>
68.99136649667183

$$$$
