CC1(C)Cc2cscc2-c2c1ccc1ncnc(N3CCN(CCCCC=NCCCCN(CCCl)CCCl)CC3)c21
                    3D

 88 92  0  0  0  0  0  0  0  0999 V2000
    5.4391   -4.0642    0.0954 C   0  0  0  0  0  0  0  0  0  0  0  0
    4.2232   -3.1138    0.0690 C   0  0  0  0  0  0  0  0  0  0  0  0
    4.6642   -1.8016    0.7618 C   0  0  0  0  0  0  0  0  0  0  0  0
    3.0906   -3.7672    0.9128 C   0  0  0  0  0  0  0  0  0  0  0  0
    1.7561   -3.1249    0.6912 C   0  0  0  0  0  0  0  0  0  0  0  0
    0.6388   -3.2984    1.4830 C   0  0  0  0  0  0  0  0  0  0  0  0
   -0.7628   -2.6487    0.7612 S   0  0  0  0  0  0  0  0  0  0  0  0
    0.1324   -2.0905   -0.5850 C   0  0  0  0  0  0  0  0  0  0  0  0
    1.4904   -2.3109   -0.4643 C   0  0  0  0  0  0  0  0  0  0  0  0
    2.4981   -2.0794   -1.5190 C   0  0  0  0  0  0  0  0  0  0  0  0
    3.7347   -2.7526   -1.3515 C   0  0  0  0  0  0  0  0  0  0  0  0
    4.4884   -2.9936   -2.5001 C   0  0  0  0  0  0  0  0  0  0  0  0
    4.0185   -2.5868   -3.7535 C   0  0  0  0  0  0  0  0  0  0  0  0
    2.8936   -1.7874   -3.9005 C   0  0  0  0  0  0  0  0  0  0  0  0
    2.5498   -1.3825   -5.1277 N   0  0  0  0  0  0  0  0  0  0  0  0
    1.5418   -0.5130   -5.2138 C   0  0  0  0  0  0  0  0  0  0  0  0
    0.9355    0.0848   -4.1857 N   0  0  0  0  0  0  0  0  0  0  0  0
    1.3253   -0.3081   -2.9558 C   0  0  0  0  0  0  0  0  0  0  0  0
    1.0465    0.5635   -1.8676 N   0  0  0  0  0  0  0  0  0  0  0  0
   -0.1341    1.4232   -2.0356 C   0  0  0  0  0  0  0  0  0  0  0  0
   -0.3405    2.3020   -0.7638 C   0  0  0  0  0  0  0  0  0  0  0  0
    0.8666    2.9756   -0.2167 N   0  0  0  0  0  0  0  0  0  0  0  0
    1.2162    2.5214    1.1411 C   0  0  0  0  0  0  0  0  0  0  0  0
    1.0874    3.7096    2.1109 C   0  0  0  0  0  0  0  0  0  0  0  0
    1.2105    3.2877    3.5854 C   0  0  0  0  0  0  0  0  0  0  0  0
   -0.1416    3.1289    4.2956 C   0  0  0  0  0  0  0  0  0  0  0  0
   -0.9927    2.1045    3.5978 C   0  0  0  0  0  0  0  0  0  0  0  0
   -1.2712    0.9693    4.1370 N   0  0  0  0  0  0  0  0  0  0  0  0
   -1.8926    0.0244    3.1957 C   0  0  0  0  0  0  0  0  0  0  0  0
   -3.3609    0.3458    2.9110 C   0  0  0  0  0  0  0  0  0  0  0  0
   -3.8481   -0.4634    1.6989 C   0  0  0  0  0  0  0  0  0  0  0  0
   -5.2728   -0.0975    1.2519 C   0  0  0  0  0  0  0  0  0  0  0  0
   -5.4157    0.5125   -0.0770 N   0  0  0  0  0  0  0  0  0  0  0  0
   -4.5610    1.6835   -0.3119 C   0  0  0  0  0  0  0  0  0  0  0  0
   -5.1368    2.7086   -1.3072 C   0  0  0  0  0  0  0  0  0  0  0  0
   -6.6982    3.3740   -0.7560 Cl  0  0  0  0  0  0  0  0  0  0  0  0
   -5.5163   -0.4349   -1.1985 C   0  0  0  0  0  0  0  0  0  0  0  0
   -4.2775   -1.2843   -1.5112 C   0  0  0  0  0  0  0  0  0  0  0  0
   -4.5523   -2.2847   -2.9634 Cl  0  0  0  0  0  0  0  0  0  0  0  0
    1.9973    2.7915   -1.1434 C   0  0  0  0  0  0  0  0  0  0  0  0
    2.2829    1.3177   -1.5173 C   0  0  0  0  0  0  0  0  0  0  0  0
    2.2032   -1.4063   -2.7489 C   0  0  0  0  0  0  0  0  0  0  0  0
    6.3203   -3.6096   -0.3691 H   0  0  0  0  0  0  0  0  0  0  0  0
    5.7191   -4.3117    1.1257 H   0  0  0  0  0  0  0  0  0  0  0  0
    5.2333   -5.0038   -0.4261 H   0  0  0  0  0  0  0  0  0  0  0  0
    3.8391   -1.0879    0.8685 H   0  0  0  0  0  0  0  0  0  0  0  0
    5.4545   -1.2988    0.1913 H   0  0  0  0  0  0  0  0  0  0  0  0
    5.0509   -2.0005    1.7675 H   0  0  0  0  0  0  0  0  0  0  0  0
    2.9872   -4.8273    0.6340 H   0  0  0  0  0  0  0  0  0  0  0  0
    3.3471   -3.7396    1.9815 H   0  0  0  0  0  0  0  0  0  0  0  0
    0.5612   -3.8377    2.4162 H   0  0  0  0  0  0  0  0  0  0  0  0
   -0.4109   -1.6387   -1.4022 H   0  0  0  0  0  0  0  0  0  0  0  0
    5.4331   -3.5278   -2.4625 H   0  0  0  0  0  0  0  0  0  0  0  0
    4.5940   -2.8480   -4.6429 H   0  0  0  0  0  0  0  0  0  0  0  0
    1.2148   -0.2314   -6.2110 H   0  0  0  0  0  0  0  0  0  0  0  0
   -1.0301    0.8088   -2.1828 H   0  0  0  0  0  0  0  0  0  0  0  0
   -0.0311    2.0762   -2.9124 H   0  0  0  0  0  0  0  0  0  0  0  0
   -1.0602    3.0895   -1.0245 H   0  0  0  0  0  0  0  0  0  0  0  0
   -0.8447    1.6946   -0.0021 H   0  0  0  0  0  0  0  0  0  0  0  0
    0.6064    1.6737    1.4680 H   0  0  0  0  0  0  0  0  0  0  0  0
    2.2529    2.1614    1.1975 H   0  0  0  0  0  0  0  0  0  0  0  0
    1.8926    4.4212    1.8823 H   0  0  0  0  0  0  0  0  0  0  0  0
    0.1433    4.2460    1.9485 H   0  0  0  0  0  0  0  0  0  0  0  0
    1.7758    4.0609    4.1211 H   0  0  0  0  0  0  0  0  0  0  0  0
    1.7927    2.3597    3.6702 H   0  0  0  0  0  0  0  0  0  0  0  0
   -0.6806    4.0805    4.2939 H   0  0  0  0  0  0  0  0  0  0  0  0
    0.0221    2.8250    5.3354 H   0  0  0  0  0  0  0  0  0  0  0  0
   -1.3294    2.3669    2.5782 H   0  0  0  0  0  0  0  0  0  0  0  0
   -1.3106    0.0136    2.2661 H   0  0  0  0  0  0  0  0  0  0  0  0
   -1.8102   -0.9828    3.6207 H   0  0  0  0  0  0  0  0  0  0  0  0
   -3.4912    1.4149    2.7161 H   0  0  0  0  0  0  0  0  0  0  0  0
   -3.9670    0.1103    3.7942 H   0  0  0  0  0  0  0  0  0  0  0  0
   -3.8187   -1.5313    1.9522 H   0  0  0  0  0  0  0  0  0  0  0  0
   -3.1372   -0.3310    0.8754 H   0  0  0  0  0  0  0  0  0  0  0  0
   -5.7211    0.5927    1.9783 H   0  0  0  0  0  0  0  0  0  0  0  0
   -5.8981   -0.9976    1.3014 H   0  0  0  0  0  0  0  0  0  0  0  0
   -3.5696    1.3761   -0.6640 H   0  0  0  0  0  0  0  0  0  0  0  0
   -4.3940    2.2169    0.6341 H   0  0  0  0  0  0  0  0  0  0  0  0
   -5.2827    2.2894   -2.3075 H   0  0  0  0  0  0  0  0  0  0  0  0
   -4.4496    3.5546   -1.3997 H   0  0  0  0  0  0  0  0  0  0  0  0
   -6.3658   -1.1041   -1.0088 H   0  0  0  0  0  0  0  0  0  0  0  0
   -5.8032    0.1165   -2.1018 H   0  0  0  0  0  0  0  0  0  0  0  0
   -3.4027   -0.6593   -1.7162 H   0  0  0  0  0  0  0  0  0  0  0  0
   -4.0462   -1.9692   -0.6914 H   0  0  0  0  0  0  0  0  0  0  0  0
    2.9041    3.2572   -0.7395 H   0  0  0  0  0  0  0  0  0  0  0  0
    1.7792    3.3553   -2.0626 H   0  0  0  0  0  0  0  0  0  0  0  0
    3.0068    1.3305   -2.3424 H   0  0  0  0  0  0  0  0  0  0  0  0
    2.7682    0.8116   -0.6730 H   0  0  0  0  0  0  0  0  0  0  0  0
  2  1  1  0  0  0  0
  3  2  1  0  0  0  0
  4  2  1  0  0  0  0
  5  4  1  0  0  0  0
  6  5  2  0  0  0  0
  7  6  1  0  0  0  0
  8  7  1  0  0  0  0
  9  8  2  0  0  0  0
  9  5  1  0  0  0  0
 10  9  1  0  0  0  0
 11 10  2  0  0  0  0
 11  2  1  0  0  0  0
 12 11  1  0  0  0  0
 13 12  2  0  0  0  0
 14 13  1  0  0  0  0
 15 14  2  0  0  0  0
 16 15  1  0  0  0  0
 17 16  2  0  0  0  0
 18 17  1  0  0  0  0
 19 18  1  0  0  0  0
 20 19  1  0  0  0  0
 21 20  1  0  0  0  0
 22 21  1  0  0  0  0
 23 22  1  0  0  0  0
 24 23  1  0  0  0  0
 25 24  1  0  0  0  0
 26 25  1  0  0  0  0
 27 26  1  0  0  0  0
 28 27  2  0  0  0  0
 29 28  1  0  0  0  0
 30 29  1  0  0  0  0
 31 30  1  0  0  0  0
 32 31  1  0  0  0  0
 33 32  1  0  0  0  0
 34 33  1  0  0  0  0
 35 34  1  0  0  0  0
 36 35  1  0  0  0  0
 37 33  1  0  0  0  0
 38 37  1  0  0  0  0
 39 38  1  0  0  0  0
 40 22  1  0  0  0  0
 41 40  1  0  0  0  0
 41 19  1  0  0  0  0
 42 18  2  0  0  0  0
 42 10  1  0  0  0  0
 42 14  1  0  0  0  0
  1 43  1  0  0  0  0
  1 44  1  0  0  0  0
  1 45  1  0  0  0  0
  3 46  1  0  0  0  0
  3 47  1  0  0  0  0
  3 48  1  0  0  0  0
  4 49  1  0  0  0  0
  4 50  1  0  0  0  0
  6 51  1  0  0  0  0
  8 52  1  0  0  0  0
 12 53  1  0  0  0  0
 13 54  1  0  0  0  0
 16 55  1  0  0  0  0
 20 56  1  0  0  0  0
 20 57  1  0  0  0  0
 21 58  1  0  0  0  0
 21 59  1  0  0  0  0
 23 60  1  0  0  0  0
 23 61  1  0  0  0  0
 24 62  1  0  0  0  0
 24 63  1  0  0  0  0
 25 64  1  0  0  0  0
 25 65  1  0  0  0  0
 26 66  1  0  0  0  0
 26 67  1  0  0  0  0
 27 68  1  0  0  0  0
 29 69  1  0  0  0  0
 29 70  1  0  0  0  0
 30 71  1  0  0  0  0
 30 72  1  0  0  0  0
 31 73  1  0  0  0  0
 31 74  1  0  0  0  0
 32 75  1  0  0  0  0
 32 76  1  0  0  0  0
 34 77  1  0  0  0  0
 34 78  1  0  0  0  0
 35 79  1  0  0  0  0
 35 80  1  0  0  0  0
 37 81  1  0  0  0  0
 37 82  1  0  0  0  0
 38 83  1  0  0  0  0
 38 84  1  0  0  0  0
 40 85  1  0  0  0  0
 40 86  1  0  0  0  0
 41 87  1  0  0  0  0
 41 88  1  0  0  0  0
M  END
>  <energy>
188.2927655780378

$$$$
