O=c1cc2c3ccccc3c3c(c(=O)[nH]1)c1c4cccc1c3c24
                    3D

 32 37  0  0  0  0  0  0  0  0999 V2000
   -3.5133   -0.3774   -0.8272 O   0  0  0  0  0  0  0  0  0  0  0  0
   -2.4142   -0.7108   -0.4052 C   0  0  0  0  0  0  0  0  0  0  0  0
   -1.3053   -1.0980   -1.3278 C   0  0  0  0  0  0  0  0  0  0  0  0
   -0.1272   -0.4313   -1.3251 C   0  0  0  0  0  0  0  0  0  0  0  0
    0.9290   -1.3610   -0.7758 C   0  0  0  0  0  0  0  0  0  0  0  0
    1.4057   -2.5310   -1.3585 C   0  0  0  0  0  0  0  0  0  0  0  0
    2.2653   -3.3449   -0.6178 C   0  0  0  0  0  0  0  0  0  0  0  0
    2.6347   -2.9933    0.6899 C   0  0  0  0  0  0  0  0  0  0  0  0
    2.1646   -1.8146    1.2778 C   0  0  0  0  0  0  0  0  0  0  0  0
    1.3134   -0.9925    0.5492 C   0  0  0  0  0  0  0  0  0  0  0  0
    0.8443    0.3319    0.9808 C   0  0  0  0  0  0  0  0  0  0  0  0
   -0.3757    0.6783    1.5054 C   0  0  0  0  0  0  0  0  0  0  0  0
   -1.4213   -0.2910    1.8836 C   0  0  0  0  0  0  0  0  0  0  0  0
   -1.7124   -0.3670    3.0765 O   0  0  0  0  0  0  0  0  0  0  0  0
   -2.1651   -1.0036    0.9332 N   0  0  0  0  0  0  0  0  0  0  0  0
   -0.7612    1.8611    0.8864 C   0  0  0  0  0  0  0  0  0  0  0  0
   -1.0800    1.7664   -0.4543 C   0  0  0  0  0  0  0  0  0  0  0  0
   -1.3691    2.9548   -1.1320 C   0  0  0  0  0  0  0  0  0  0  0  0
   -0.6013    4.0587   -0.7813 C   0  0  0  0  0  0  0  0  0  0  0  0
    0.3743    3.8281    0.1806 C   0  0  0  0  0  0  0  0  0  0  0  0
    0.3976    2.5493    0.7760 C   0  0  0  0  0  0  0  0  0  0  0  0
    0.9327    1.3391    0.0723 C   0  0  0  0  0  0  0  0  0  0  0  0
   -0.0108    1.0586   -0.9367 C   0  0  0  0  0  0  0  0  0  0  0  0
   -1.3431   -2.1738   -1.4926 H   0  0  0  0  0  0  0  0  0  0  0  0
    1.1052   -2.8219   -2.3608 H   0  0  0  0  0  0  0  0  0  0  0  0
    2.6467   -4.2658   -1.0535 H   0  0  0  0  0  0  0  0  0  0  0  0
    3.3061   -3.6416    1.2498 H   0  0  0  0  0  0  0  0  0  0  0  0
    2.4805   -1.5413    2.2805 H   0  0  0  0  0  0  0  0  0  0  0  0
   -3.0427   -1.2095    1.3979 H   0  0  0  0  0  0  0  0  0  0  0  0
   -1.9941    2.9649   -2.0192 H   0  0  0  0  0  0  0  0  0  0  0  0
   -0.6828    5.0050   -1.3029 H   0  0  0  0  0  0  0  0  0  0  0  0
    1.1195    4.5743    0.4309 H   0  0  0  0  0  0  0  0  0  0  0  0
  2  1  2  0  0  0  0
  3  2  1  0  0  0  0
  4  3  2  0  0  0  0
  5  4  1  0  0  0  0
  6  5  2  0  0  0  0
  7  6  1  0  0  0  0
  8  7  2  0  0  0  0
  9  8  1  0  0  0  0
 10  9  2  0  0  0  0
 10  5  1  0  0  0  0
 11 10  1  0  0  0  0
 12 11  2  0  0  0  0
 13 12  1  0  0  0  0
 14 13  2  0  0  0  0
 15 13  1  0  0  0  0
 15  2  1  0  0  0  0
 16 12  1  0  0  0  0
 17 16  2  0  0  0  0
 18 17  1  0  0  0  0
 19 18  2  0  0  0  0
 20 19  1  0  0  0  0
 21 20  2  0  0  0  0
 21 16  1  0  0  0  0
 22 21  1  0  0  0  0
 22 11  1  0  0  0  0
 23 22  2  0  0  0  0
 23  4  1  0  0  0  0
 23 17  1  0  0  0  0
  3 24  1  0  0  0  0
  6 25  1  0  0  0  0
  7 26  1  0  0  0  0
  8 27  1  0  0  0  0
  9 28  1  0  0  0  0
 15 29  1  0  0  0  0
 18 30  1  0  0  0  0
 19 31  1  0  0  0  0
 20 32  1  0  0  0  0
M  END
>  <energy>
364.43258466284163

$$$$
