NNNC1=NN2C(=O)C(=NCCO)C3=NC2(C1)N=C(N)NC3=O
                    3D

 37 39  0  0  0  0  0  0  0  0999 V2000
   -0.5555   -4.9340   -2.5074 N   0  0  0  0  0  0  0  0  0  0  0  0
   -0.8745   -4.6546   -1.1550 N   0  0  0  0  0  0  0  0  0  0  0  0
    0.2743   -4.2091   -0.5229 N   0  0  0  0  0  0  0  0  0  0  0  0
    0.2556   -2.9107   -0.0549 C   0  0  0  0  0  0  0  0  0  0  0  0
   -0.7820   -2.2104    0.3036 N   0  0  0  0  0  0  0  0  0  0  0  0
   -0.3171   -0.9586    0.6044 N   0  0  0  0  0  0  0  0  0  0  0  0
   -1.0509   -0.0600    1.3418 C   0  0  0  0  0  0  0  0  0  0  0  0
   -2.1514   -0.2140    1.8484 O   0  0  0  0  0  0  0  0  0  0  0  0
   -0.2632    1.2184    1.5438 C   0  0  0  0  0  0  0  0  0  0  0  0
   -0.7348    2.4111    1.7008 N   0  0  0  0  0  0  0  0  0  0  0  0
   -2.1715    2.6690    1.7065 C   0  0  0  0  0  0  0  0  0  0  0  0
   -2.4168    4.0623    1.1064 C   0  0  0  0  0  0  0  0  0  0  0  0
   -3.7946    4.4262    1.1591 O   0  0  0  0  0  0  0  0  0  0  0  0
    1.2350    1.0742    1.4667 C   0  0  0  0  0  0  0  0  0  0  0  0
    1.7904   -0.1014    1.3766 N   0  0  0  0  0  0  0  0  0  0  0  0
    1.0812   -0.7631    0.2896 C   0  0  0  0  0  0  0  0  0  0  0  0
    1.5741   -2.1960    0.1469 C   0  0  0  0  0  0  0  0  0  0  0  0
    1.3059   -0.0921   -0.9897 N   0  0  0  0  0  0  0  0  0  0  0  0
    1.9263    1.0001   -1.2583 C   0  0  0  0  0  0  0  0  0  0  0  0
    2.1197    1.2883   -2.5703 N   0  0  0  0  0  0  0  0  0  0  0  0
    2.4304    1.9520   -0.3946 N   0  0  0  0  0  0  0  0  0  0  0  0
    2.1045    2.1659    0.9348 C   0  0  0  0  0  0  0  0  0  0  0  0
    2.4369    3.1287    1.6005 O   0  0  0  0  0  0  0  0  0  0  0  0
   -0.4126   -4.0430   -2.9939 H   0  0  0  0  0  0  0  0  0  0  0  0
   -1.3730   -5.3271   -2.9814 H   0  0  0  0  0  0  0  0  0  0  0  0
   -1.2794   -5.4533   -0.6448 H   0  0  0  0  0  0  0  0  0  0  0  0
    1.1416   -4.5605   -0.9204 H   0  0  0  0  0  0  0  0  0  0  0  0
   -2.7526    1.9472    1.1256 H   0  0  0  0  0  0  0  0  0  0  0  0
   -2.5559    2.6425    2.7358 H   0  0  0  0  0  0  0  0  0  0  0  0
   -1.8504    4.8224    1.6522 H   0  0  0  0  0  0  0  0  0  0  0  0
   -2.0905    4.0901    0.0595 H   0  0  0  0  0  0  0  0  0  0  0  0
   -4.3049    3.7109    0.7455 H   0  0  0  0  0  0  0  0  0  0  0  0
    2.0276   -2.5854    1.0647 H   0  0  0  0  0  0  0  0  0  0  0  0
    2.2534   -2.3537   -0.6944 H   0  0  0  0  0  0  0  0  0  0  0  0
    1.9119    0.5026   -3.1777 H   0  0  0  0  0  0  0  0  0  0  0  0
    2.9707    1.7681   -2.8358 H   0  0  0  0  0  0  0  0  0  0  0  0
    2.8922    2.7469   -0.8116 H   0  0  0  0  0  0  0  0  0  0  0  0
  2  1  1  0  0  0  0
  3  2  1  0  0  0  0
  4  3  1  0  0  0  0
  5  4  2  0  0  0  0
  6  5  1  0  0  0  0
  7  6  1  0  0  0  0
  8  7  2  0  0  0  0
  9  7  1  0  0  0  0
 10  9  2  0  0  0  0
 11 10  1  0  0  0  0
 12 11  1  0  0  0  0
 13 12  1  0  0  0  0
 14  9  1  0  0  0  0
 15 14  2  0  0  0  0
 16 15  1  0  0  0  0
 16  6  1  0  0  0  0
 17 16  1  0  0  0  0
 17  4  1  0  0  0  0
 18 16  1  0  0  0  0
 19 18  2  0  0  0  0
 20 19  1  0  0  0  0
 21 19  1  0  0  0  0
 22 21  1  0  0  0  0
 22 14  1  0  0  0  0
 23 22  2  0  0  0  0
  1 24  1  0  0  0  0
  1 25  1  0  0  0  0
  2 26  1  0  0  0  0
  3 27  1  0  0  0  0
 11 28  1  0  0  0  0
 11 29  1  0  0  0  0
 12 30  1  0  0  0  0
 12 31  1  0  0  0  0
 13 32  1  0  0  0  0
 17 33  1  0  0  0  0
 17 34  1  0  0  0  0
 20 35  1  0  0  0  0
 20 36  1  0  0  0  0
 21 37  1  0  0  0  0
M  END
>  <energy>
28.028830039715132

$$$$
