CC(C)CCC1OC23CCC(O)CC(O)C45C(OC6C4OC6(C(=O)O)C1CCC(C)C25)C3O
                    3D

 71 76  0  0  0  0  0  0  0  0999 V2000
   -5.2937    1.0315   -1.6087 C   0  0  0  0  0  0  0  0  0  0  0  0
   -3.8119    1.2561   -1.2885 C   0  0  0  0  0  0  0  0  0  0  0  0
   -3.5012    2.7526   -1.2059 C   0  0  0  0  0  0  0  0  0  0  0  0
   -2.9299    0.5362   -2.3397 C   0  0  0  0  0  0  0  0  0  0  0  0
   -2.5415   -0.8815   -1.8611 C   0  0  0  0  0  0  0  0  0  0  0  0
   -1.1460   -0.9924   -1.1575 C   0  0  0  0  0  0  0  0  0  0  0  0
   -0.8441    0.3277   -0.6844 O   0  0  0  0  0  0  0  0  0  0  0  0
    0.5042    0.7322   -0.4551 C   0  0  0  0  0  0  0  0  0  0  0  0
    0.5616    2.2720   -0.2925 C   0  0  0  0  0  0  0  0  0  0  0  0
    1.8612    2.9454    0.2792 C   0  0  0  0  0  0  0  0  0  0  0  0
    3.3029    2.3126    0.2895 C   0  0  0  0  0  0  0  0  0  0  0  0
    4.1711    3.4396    0.5935 O   0  0  0  0  0  0  0  0  0  0  0  0
    3.6858    1.2517    1.3583 C   0  0  0  0  0  0  0  0  0  0  0  0
    3.4668   -0.2872    1.1270 C   0  0  0  0  0  0  0  0  0  0  0  0
    4.6037   -0.8292    0.4521 O   0  0  0  0  0  0  0  0  0  0  0  0
    2.1646   -0.8189    0.4405 C   0  0  0  0  0  0  0  0  0  0  0  0
    2.2750   -0.7804   -1.1269 C   0  0  0  0  0  0  0  0  0  0  0  0
    1.6708   -1.9728   -1.6518 O   0  0  0  0  0  0  0  0  0  0  0  0
    1.4857   -2.9087   -0.5968 C   0  0  0  0  0  0  0  0  0  0  0  0
    1.9677   -2.3254    0.7233 C   0  0  0  0  0  0  0  0  0  0  0  0
    0.7411   -2.7064    1.3769 O   0  0  0  0  0  0  0  0  0  0  0  0
    0.0840   -3.0414    0.1003 C   0  0  0  0  0  0  0  0  0  0  0  0
   -0.3899   -4.5976    0.0165 C   0  0  0  0  0  0  0  0  0  0  0  0
   -0.9264   -5.1748   -0.9210 O   0  0  0  0  0  0  0  0  0  0  0  0
   -0.1276   -5.3257    1.1362 O   0  0  0  0  0  0  0  0  0  0  0  0
   -1.1825   -2.1219   -0.0942 C   0  0  0  0  0  0  0  0  0  0  0  0
   -1.8141   -1.7385    1.2561 C   0  0  0  0  0  0  0  0  0  0  0  0
   -1.4113   -0.4178    1.9011 C   0  0  0  0  0  0  0  0  0  0  0  0
    0.0838   -0.1426    2.1159 C   0  0  0  0  0  0  0  0  0  0  0  0
    0.1368    1.0943    3.0635 C   0  0  0  0  0  0  0  0  0  0  0  0
    0.9906    0.0928    0.8521 C   0  0  0  0  0  0  0  0  0  0  0  0
    1.4244    0.3554   -1.6524 C   0  0  0  0  0  0  0  0  0  0  0  0
    2.2310    1.4000   -2.1852 O   0  0  0  0  0  0  0  0  0  0  0  0
   -5.5722    1.5157   -2.5522 H   0  0  0  0  0  0  0  0  0  0  0  0
   -5.9347    1.4425   -0.8214 H   0  0  0  0  0  0  0  0  0  0  0  0
   -5.5226   -0.0367   -1.7056 H   0  0  0  0  0  0  0  0  0  0  0  0
   -3.6143    0.8347   -0.2950 H   0  0  0  0  0  0  0  0  0  0  0  0
   -3.6743    3.2548   -2.1620 H   0  0  0  0  0  0  0  0  0  0  0  0
   -4.1298    3.2368   -0.4496 H   0  0  0  0  0  0  0  0  0  0  0  0
   -2.4582    2.9204   -0.9166 H   0  0  0  0  0  0  0  0  0  0  0  0
   -3.4886    0.4473   -3.2822 H   0  0  0  0  0  0  0  0  0  0  0  0
   -2.0351    1.1235   -2.5858 H   0  0  0  0  0  0  0  0  0  0  0  0
   -3.3387   -1.2717   -1.2167 H   0  0  0  0  0  0  0  0  0  0  0  0
   -2.5241   -1.5553   -2.7290 H   0  0  0  0  0  0  0  0  0  0  0  0
   -0.4843   -1.2891   -1.9679 H   0  0  0  0  0  0  0  0  0  0  0  0
    0.3371    2.7346   -1.2661 H   0  0  0  0  0  0  0  0  0  0  0  0
   -0.2829    2.5929    0.3325 H   0  0  0  0  0  0  0  0  0  0  0  0
    1.9418    3.9119   -0.2442 H   0  0  0  0  0  0  0  0  0  0  0  0
    1.6319    3.2417    1.3146 H   0  0  0  0  0  0  0  0  0  0  0  0
    3.6518    1.9900   -0.6874 H   0  0  0  0  0  0  0  0  0  0  0  0
    3.8301    3.8773    1.3931 H   0  0  0  0  0  0  0  0  0  0  0  0
    3.2020    1.5442    2.2995 H   0  0  0  0  0  0  0  0  0  0  0  0
    4.7574    1.3839    1.5684 H   0  0  0  0  0  0  0  0  0  0  0  0
    3.4910   -0.7236    2.1336 H   0  0  0  0  0  0  0  0  0  0  0  0
    5.4068   -0.4580    0.8639 H   0  0  0  0  0  0  0  0  0  0  0  0
    3.3002   -0.7558   -1.5008 H   0  0  0  0  0  0  0  0  0  0  0  0
    1.9599   -3.8671   -0.8395 H   0  0  0  0  0  0  0  0  0  0  0  0
    2.8296   -2.8529    1.1422 H   0  0  0  0  0  0  0  0  0  0  0  0
   -0.4591   -6.2215    0.9202 H   0  0  0  0  0  0  0  0  0  0  0  0
   -1.9164   -2.8259   -0.5172 H   0  0  0  0  0  0  0  0  0  0  0  0
   -2.9059   -1.6934    1.1198 H   0  0  0  0  0  0  0  0  0  0  0  0
   -1.6619   -2.5456    1.9856 H   0  0  0  0  0  0  0  0  0  0  0  0
   -1.8810    0.4215    1.3748 H   0  0  0  0  0  0  0  0  0  0  0  0
   -1.9045   -0.4128    2.8854 H   0  0  0  0  0  0  0  0  0  0  0  0
    0.5169   -0.9377    2.7291 H   0  0  0  0  0  0  0  0  0  0  0  0
   -0.2764    1.9867    2.5834 H   0  0  0  0  0  0  0  0  0  0  0  0
   -0.4413    0.9137    3.9771 H   0  0  0  0  0  0  0  0  0  0  0  0
    1.1614    1.3160    3.3806 H   0  0  0  0  0  0  0  0  0  0  0  0
    1.5222    0.9095    1.2935 H   0  0  0  0  0  0  0  0  0  0  0  0
    0.8278    0.0545   -2.5186 H   0  0  0  0  0  0  0  0  0  0  0  0
    2.6461    1.0562   -2.9993 H   0  0  0  0  0  0  0  0  0  0  0  0
  2  1  1  0  0  0  0
  3  2  1  0  0  0  0
  4  2  1  0  0  0  0
  5  4  1  0  0  0  0
  6  5  1  0  0  0  0
  7  6  1  0  0  0  0
  8  7  1  0  0  0  0
  9  8  1  0  0  0  0
 10  9  1  0  0  0  0
 11 10  1  0  0  0  0
 12 11  1  0  0  0  0
 13 11  1  0  0  0  0
 14 13  1  0  0  0  0
 15 14  1  0  0  0  0
 16 14  1  0  0  0  0
 17 16  1  0  0  0  0
 18 17  1  0  0  0  0
 19 18  1  0  0  0  0
 20 19  1  0  0  0  0
 20 16  1  0  0  0  0
 21 20  1  0  0  0  0
 22 21  1  0  0  0  0
 22 19  1  0  0  0  0
 23 22  1  0  0  0  0
 24 23  2  0  0  0  0
 25 23  1  0  0  0  0
 26 22  1  0  0  0  0
 26  6  1  0  0  0  0
 27 26  1  0  0  0  0
 28 27  1  0  0  0  0
 29 28  1  0  0  0  0
 30 29  1  0  0  0  0
 31 29  1  0  0  0  0
 31  8  1  0  0  0  0
 31 16  1  0  0  0  0
 32 17  1  0  0  0  0
 32  8  1  0  0  0  0
 33 32  1  0  0  0  0
  1 34  1  0  0  0  0
  1 35  1  0  0  0  0
  1 36  1  0  0  0  0
  2 37  1  0  0  0  0
  3 38  1  0  0  0  0
  3 39  1  0  0  0  0
  3 40  1  0  0  0  0
  4 41  1  0  0  0  0
  4 42  1  0  0  0  0
  5 43  1  0  0  0  0
  5 44  1  0  0  0  0
  6 45  1  0  0  0  0
  9 46  1  0  0  0  0
  9 47  1  0  0  0  0
 10 48  1  0  0  0  0
 10 49  1  0  0  0  0
 11 50  1  0  0  0  0
 12 51  1  0  0  0  0
 13 52  1  0  0  0  0
 13 53  1  0  0  0  0
 14 54  1  0  0  0  0
 15 55  1  0  0  0  0
 17 56  1  0  0  0  0
 19 57  1  0  0  0  0
 20 58  1  0  0  0  0
 25 59  1  0  0  0  0
 26 60  1  0  0  0  0
 27 61  1  0  0  0  0
 27 62  1  0  0  0  0
 28 63  1  0  0  0  0
 28 64  1  0  0  0  0
 29 65  1  0  0  0  0
 30 66  1  0  0  0  0
 30 67  1  0  0  0  0
 30 68  1  0  0  0  0
 31 69  1  0  0  0  0
 32 70  1  0  0  0  0
 33 71  1  0  0  0  0
M  END
>  <energy>
238.89235158186125

$$$$
