COC1C(OCO)C2(O)CCC3C4CC5CC(O)CC6(OC)CC1C51C6C3(OC(C)(C)O4)C21
                    3D

 71 77  0  0  0  0  0  0  0  0999 V2000
    3.3334    2.7943   -1.9757 C   0  0  0  0  0  0  0  0  0  0  0  0
    2.2718    1.9134   -1.6325 O   0  0  0  0  0  0  0  0  0  0  0  0
    2.0103    1.8543   -0.2252 C   0  0  0  0  0  0  0  0  0  0  0  0
    2.7554    0.6484    0.4766 C   0  0  0  0  0  0  0  0  0  0  0  0
    4.1633    0.9199    0.3643 O   0  0  0  0  0  0  0  0  0  0  0  0
    4.9407    0.5541    1.4792 C   0  0  0  0  0  0  0  0  0  0  0  0
    4.6315    1.3908    2.5767 O   0  0  0  0  0  0  0  0  0  0  0  0
    2.3493   -0.7393   -0.1511 C   0  0  0  0  0  0  0  0  0  0  0  0
    3.2232   -1.0125   -1.2663 O   0  0  0  0  0  0  0  0  0  0  0  0
    2.4690   -1.9702    0.7582 C   0  0  0  0  0  0  0  0  0  0  0  0
    1.2289   -2.2789    1.5823 C   0  0  0  0  0  0  0  0  0  0  0  0
   -0.0006   -2.4769    0.6952 C   0  0  0  0  0  0  0  0  0  0  0  0
   -1.3567   -2.4123    1.3246 C   0  0  0  0  0  0  0  0  0  0  0  0
   -1.5810   -1.0332    1.9920 C   0  0  0  0  0  0  0  0  0  0  0  0
   -0.5872    0.1798    1.7431 C   0  0  0  0  0  0  0  0  0  0  0  0
   -1.2793    1.4296    2.3470 C   0  0  0  0  0  0  0  0  0  0  0  0
   -2.2065    2.2943    1.4860 C   0  0  0  0  0  0  0  0  0  0  0  0
   -3.3147    2.6536    2.3253 O   0  0  0  0  0  0  0  0  0  0  0  0
   -2.7482    1.7116    0.1867 C   0  0  0  0  0  0  0  0  0  0  0  0
   -1.7452    1.3459   -0.9357 C   0  0  0  0  0  0  0  0  0  0  0  0
   -2.5112    1.2720   -2.1649 O   0  0  0  0  0  0  0  0  0  0  0  0
   -2.8300    2.5009   -2.8037 C   0  0  0  0  0  0  0  0  0  0  0  0
   -0.4803    2.2407   -1.0934 C   0  0  0  0  0  0  0  0  0  0  0  0
    0.4765    1.7990    0.0134 C   0  0  0  0  0  0  0  0  0  0  0  0
   -0.0159    0.3728    0.2805 C   0  0  0  0  0  0  0  0  0  0  0  0
   -1.1744   -0.0954   -0.6305 C   0  0  0  0  0  0  0  0  0  0  0  0
   -0.2313   -1.5651   -0.5097 C   0  0  0  0  0  0  0  0  0  0  0  0
   -0.7664   -2.4748   -1.4943 O   0  0  0  0  0  0  0  0  0  0  0  0
   -2.0092   -3.0574   -1.0048 C   0  0  0  0  0  0  0  0  0  0  0  0
   -1.9269   -4.5862   -1.0221 C   0  0  0  0  0  0  0  0  0  0  0  0
   -3.1247   -2.6270   -1.9597 C   0  0  0  0  0  0  0  0  0  0  0  0
   -2.3967   -2.5986    0.3222 O   0  0  0  0  0  0  0  0  0  0  0  0
    0.9209   -0.5939   -0.6618 C   0  0  0  0  0  0  0  0  0  0  0  0
    3.5065    2.7159   -3.0519 H   0  0  0  0  0  0  0  0  0  0  0  0
    4.2609    2.5444   -1.4552 H   0  0  0  0  0  0  0  0  0  0  0  0
    3.0492    3.8279   -1.7513 H   0  0  0  0  0  0  0  0  0  0  0  0
    2.3716    2.7867    0.2298 H   0  0  0  0  0  0  0  0  0  0  0  0
    2.4599    0.6715    1.5335 H   0  0  0  0  0  0  0  0  0  0  0  0
    4.7936   -0.4877    1.7624 H   0  0  0  0  0  0  0  0  0  0  0  0
    5.9988    0.6828    1.2261 H   0  0  0  0  0  0  0  0  0  0  0  0
    5.0670    2.2340    2.3667 H   0  0  0  0  0  0  0  0  0  0  0  0
    2.7429   -1.5636   -1.9067 H   0  0  0  0  0  0  0  0  0  0  0  0
    2.6796   -2.8557    0.1415 H   0  0  0  0  0  0  0  0  0  0  0  0
    3.3315   -1.8880    1.4217 H   0  0  0  0  0  0  0  0  0  0  0  0
    1.3996   -3.2190    2.1276 H   0  0  0  0  0  0  0  0  0  0  0  0
    1.1290   -1.5533    2.3822 H   0  0  0  0  0  0  0  0  0  0  0  0
    0.1702   -3.4936    0.3133 H   0  0  0  0  0  0  0  0  0  0  0  0
   -1.4914   -3.2078    2.0654 H   0  0  0  0  0  0  0  0  0  0  0  0
   -2.6039   -0.7119    1.7679 H   0  0  0  0  0  0  0  0  0  0  0  0
   -1.5733   -1.2062    3.0783 H   0  0  0  0  0  0  0  0  0  0  0  0
    0.2727    0.0623    2.4050 H   0  0  0  0  0  0  0  0  0  0  0  0
   -1.8113    1.1255    3.2596 H   0  0  0  0  0  0  0  0  0  0  0  0
   -0.4987    2.0914    2.7496 H   0  0  0  0  0  0  0  0  0  0  0  0
   -1.7008    3.2416    1.2635 H   0  0  0  0  0  0  0  0  0  0  0  0
   -3.9273    3.1976    1.8014 H   0  0  0  0  0  0  0  0  0  0  0  0
   -3.3874    0.8456    0.4056 H   0  0  0  0  0  0  0  0  0  0  0  0
   -3.4684    2.4433   -0.2000 H   0  0  0  0  0  0  0  0  0  0  0  0
   -3.4404    3.1413   -2.1635 H   0  0  0  0  0  0  0  0  0  0  0  0
   -1.9296    3.0342   -3.1199 H   0  0  0  0  0  0  0  0  0  0  0  0
   -3.4087    2.2696   -3.7045 H   0  0  0  0  0  0  0  0  0  0  0  0
   -0.7151    3.3080   -1.0303 H   0  0  0  0  0  0  0  0  0  0  0  0
   -0.0499    2.0681   -2.0867 H   0  0  0  0  0  0  0  0  0  0  0  0
    0.3288    2.4455    0.8752 H   0  0  0  0  0  0  0  0  0  0  0  0
   -1.0799   -0.1729   -1.7394 H   0  0  0  0  0  0  0  0  0  0  0  0
   -2.8853   -5.0363   -0.7375 H   0  0  0  0  0  0  0  0  0  0  0  0
   -1.1853   -4.9713   -0.3167 H   0  0  0  0  0  0  0  0  0  0  0  0
   -1.6469   -4.9526   -2.0154 H   0  0  0  0  0  0  0  0  0  0  0  0
   -4.0925   -3.0437   -1.6589 H   0  0  0  0  0  0  0  0  0  0  0  0
   -2.9045   -2.9326   -2.9882 H   0  0  0  0  0  0  0  0  0  0  0  0
   -3.2389   -1.5395   -1.9621 H   0  0  0  0  0  0  0  0  0  0  0  0
    0.9896   -0.2549   -1.7098 H   0  0  0  0  0  0  0  0  0  0  0  0
  2  1  1  0  0  0  0
  3  2  1  0  0  0  0
  4  3  1  0  0  0  0
  5  4  1  0  0  0  0
  6  5  1  0  0  0  0
  7  6  1  0  0  0  0
  8  4  1  0  0  0  0
  9  8  1  0  0  0  0
 10  8  1  0  0  0  0
 11 10  1  0  0  0  0
 12 11  1  0  0  0  0
 13 12  1  0  0  0  0
 14 13  1  0  0  0  0
 15 14  1  0  0  0  0
 16 15  1  0  0  0  0
 17 16  1  0  0  0  0
 18 17  1  0  0  0  0
 19 17  1  0  0  0  0
 20 19  1  0  0  0  0
 21 20  1  0  0  0  0
 22 21  1  0  0  0  0
 23 20  1  0  0  0  0
 24 23  1  0  0  0  0
 24  3  1  0  0  0  0
 25 24  1  0  0  0  0
 25 15  1  0  0  0  0
 26 25  1  0  0  0  0
 26 20  1  0  0  0  0
 27 26  1  0  0  0  0
 27 12  1  0  0  0  0
 28 27  1  0  0  0  0
 29 28  1  0  0  0  0
 30 29  1  0  0  0  0
 31 29  1  0  0  0  0
 32 29  1  0  0  0  0
 32 13  1  0  0  0  0
 33 27  1  0  0  0  0
 33  8  1  0  0  0  0
 33 25  1  0  0  0  0
  1 34  1  0  0  0  0
  1 35  1  0  0  0  0
  1 36  1  0  0  0  0
  3 37  1  0  0  0  0
  4 38  1  0  0  0  0
  6 39  1  0  0  0  0
  6 40  1  0  0  0  0
  7 41  1  0  0  0  0
  9 42  1  0  0  0  0
 10 43  1  0  0  0  0
 10 44  1  0  0  0  0
 11 45  1  0  0  0  0
 11 46  1  0  0  0  0
 12 47  1  0  0  0  0
 13 48  1  0  0  0  0
 14 49  1  0  0  0  0
 14 50  1  0  0  0  0
 15 51  1  0  0  0  0
 16 52  1  0  0  0  0
 16 53  1  0  0  0  0
 17 54  1  0  0  0  0
 18 55  1  0  0  0  0
 19 56  1  0  0  0  0
 19 57  1  0  0  0  0
 22 58  1  0  0  0  0
 22 59  1  0  0  0  0
 22 60  1  0  0  0  0
 23 61  1  0  0  0  0
 23 62  1  0  0  0  0
 24 63  1  0  0  0  0
 26 64  1  0  0  0  0
 30 65  1  0  0  0  0
 30 66  1  0  0  0  0
 30 67  1  0  0  0  0
 31 68  1  0  0  0  0
 31 69  1  0  0  0  0
 31 70  1  0  0  0  0
 33 71  1  0  0  0  0
M  END
>  <energy>
234.38139742355006

$$$$
