CCN1CCc2cc3c(c4c(C)c1[nH]c24)CNC(=O)C(CCCCCC[N+](C)(C)CC)C3(O)C#CC[N+](C)(C)C
                    3D

 93 96  0  0  0  0  0  0  0  0999 V2000
    5.8341   -0.2978    2.9687 C   0  0  0  0  0  0  0  0  0  0  0  0
    5.6340   -1.7848    2.7207 C   0  0  0  0  0  0  0  0  0  0  0  0
    5.0224   -2.0059    1.4020 N   0  0  0  0  0  0  0  0  0  0  0  0
    5.9905   -1.9880    0.2358 C   0  0  0  0  0  0  0  0  0  0  0  0
    5.3475   -1.6534   -1.1687 C   0  0  0  0  0  0  0  0  0  0  0  0
    3.9405   -2.1769   -1.4059 C   0  0  0  0  0  0  0  0  0  0  0  0
    2.9411   -1.4324   -2.0604 C   0  0  0  0  0  0  0  0  0  0  0  0
    1.5326   -1.5638   -1.7754 C   0  0  0  0  0  0  0  0  0  0  0  0
    1.1578   -2.4719   -0.7358 C   0  0  0  0  0  0  0  0  0  0  0  0
    2.2249   -3.0551    0.0011 C   0  0  0  0  0  0  0  0  0  0  0  0
    2.6563   -2.8477    1.4188 C   0  0  0  0  0  0  0  0  0  0  0  0
    1.9079   -2.0966    2.4626 C   0  0  0  0  0  0  0  0  0  0  0  0
    4.0559   -2.9938    1.3451 C   0  0  0  0  0  0  0  0  0  0  0  0
    4.1346   -3.9584    0.3413 N   0  0  0  0  0  0  0  0  0  0  0  0
    3.4588   -3.2275   -0.6385 C   0  0  0  0  0  0  0  0  0  0  0  0
   -0.2305   -2.8889   -0.3558 C   0  0  0  0  0  0  0  0  0  0  0  0
   -1.1214   -1.7758   -0.4046 N   0  0  0  0  0  0  0  0  0  0  0  0
   -1.5683   -1.5747   -1.6947 C   0  0  0  0  0  0  0  0  0  0  0  0
   -2.3937   -2.3172   -2.2116 O   0  0  0  0  0  0  0  0  0  0  0  0
   -0.9469   -0.3644   -2.3197 C   0  0  0  0  0  0  0  0  0  0  0  0
   -1.7257    0.0451   -3.5941 C   0  0  0  0  0  0  0  0  0  0  0  0
   -3.2152    0.3961   -3.3898 C   0  0  0  0  0  0  0  0  0  0  0  0
   -3.4858    1.6656   -2.5748 C   0  0  0  0  0  0  0  0  0  0  0  0
   -3.7428    1.4597   -1.0707 C   0  0  0  0  0  0  0  0  0  0  0  0
   -5.0369    0.6945   -0.7235 C   0  0  0  0  0  0  0  0  0  0  0  0
   -4.8269   -0.6082    0.0669 C   0  0  0  0  0  0  0  0  0  0  0  0
   -4.7716   -0.4936    1.6164 N   0  3  0  0  0  0  0  0  0  0  0  0
   -4.5042   -1.9399    2.1240 C   0  0  0  0  0  0  0  0  0  0  0  0
   -6.1338   -0.0984    2.1868 C   0  0  0  0  0  0  0  0  0  0  0  0
   -3.6347    0.3743    2.1559 C   0  0  0  0  0  0  0  0  0  0  0  0
   -3.9819    1.8432    2.3515 C   0  0  0  0  0  0  0  0  0  0  0  0
    0.6130   -0.5409   -2.5342 C   0  0  0  0  0  0  0  0  0  0  0  0
    0.8483   -0.7496   -3.9267 O   0  0  0  0  0  0  0  0  0  0  0  0
    1.1549    0.8274   -2.1820 C   0  0  0  0  0  0  0  0  0  0  0  0
    1.6157    1.8718   -1.7878 C   0  0  0  0  0  0  0  0  0  0  0  0
    2.2425    3.0887   -1.2578 C   0  0  0  0  0  0  0  0  0  0  0  0
    1.4128    3.7216   -0.1195 N   0  3  0  0  0  0  0  0  0  0  0  0
    1.2223    2.7401    1.0235 C   0  0  0  0  0  0  0  0  0  0  0  0
    2.1869    4.9316    0.4154 C   0  0  0  0  0  0  0  0  0  0  0  0
    0.0715    4.2036   -0.6477 C   0  0  0  0  0  0  0  0  0  0  0  0
    6.5240    0.1376    2.2392 H   0  0  0  0  0  0  0  0  0  0  0  0
    6.2516   -0.1280    3.9671 H   0  0  0  0  0  0  0  0  0  0  0  0
    4.8847    0.2427    2.8929 H   0  0  0  0  0  0  0  0  0  0  0  0
    6.5917   -2.3130    2.7859 H   0  0  0  0  0  0  0  0  0  0  0  0
    4.9987   -2.1858    3.5160 H   0  0  0  0  0  0  0  0  0  0  0  0
    6.7884   -1.2570    0.4204 H   0  0  0  0  0  0  0  0  0  0  0  0
    6.5010   -2.9587    0.1793 H   0  0  0  0  0  0  0  0  0  0  0  0
    5.3158   -0.5579   -1.2500 H   0  0  0  0  0  0  0  0  0  0  0  0
    6.0177   -2.0161   -1.9582 H   0  0  0  0  0  0  0  0  0  0  0  0
    3.2786   -0.6541   -2.7501 H   0  0  0  0  0  0  0  0  0  0  0  0
    2.4505   -2.0765    3.4140 H   0  0  0  0  0  0  0  0  0  0  0  0
    0.9288   -2.5521    2.6408 H   0  0  0  0  0  0  0  0  0  0  0  0
    1.7539   -1.0603    2.1394 H   0  0  0  0  0  0  0  0  0  0  0  0
    3.8405   -4.8999    0.5480 H   0  0  0  0  0  0  0  0  0  0  0  0
   -0.2707   -3.2858    0.6643 H   0  0  0  0  0  0  0  0  0  0  0  0
   -0.5538   -3.6824   -1.0432 H   0  0  0  0  0  0  0  0  0  0  0  0
   -0.7124   -0.9732    0.0516 H   0  0  0  0  0  0  0  0  0  0  0  0
   -1.1039    0.4435   -1.5891 H   0  0  0  0  0  0  0  0  0  0  0  0
   -1.6858   -0.7734   -4.3256 H   0  0  0  0  0  0  0  0  0  0  0  0
   -1.2363    0.9089   -4.0628 H   0  0  0  0  0  0  0  0  0  0  0  0
   -3.7646   -0.4502   -2.9681 H   0  0  0  0  0  0  0  0  0  0  0  0
   -3.6371    0.5553   -4.3941 H   0  0  0  0  0  0  0  0  0  0  0  0
   -2.6527    2.3675   -2.7001 H   0  0  0  0  0  0  0  0  0  0  0  0
   -4.3696    2.1538   -3.0022 H   0  0  0  0  0  0  0  0  0  0  0  0
   -3.8189    2.4607   -0.6292 H   0  0  0  0  0  0  0  0  0  0  0  0
   -2.8754    0.9897   -0.6052 H   0  0  0  0  0  0  0  0  0  0  0  0
   -5.5426    0.4241   -1.6575 H   0  0  0  0  0  0  0  0  0  0  0  0
   -5.7314    1.3629   -0.2073 H   0  0  0  0  0  0  0  0  0  0  0  0
   -3.9082   -1.1092   -0.2449 H   0  0  0  0  0  0  0  0  0  0  0  0
   -5.6616   -1.2854   -0.1475 H   0  0  0  0  0  0  0  0  0  0  0  0
   -3.5075   -2.2392    1.7805 H   0  0  0  0  0  0  0  0  0  0  0  0
   -5.2782   -2.5990    1.7141 H   0  0  0  0  0  0  0  0  0  0  0  0
   -4.5504   -1.9316    3.2198 H   0  0  0  0  0  0  0  0  0  0  0  0
   -6.0574   -0.0918    3.2782 H   0  0  0  0  0  0  0  0  0  0  0  0
   -6.4100    0.8928    1.8202 H   0  0  0  0  0  0  0  0  0  0  0  0
   -6.8738   -0.8349    1.8627 H   0  0  0  0  0  0  0  0  0  0  0  0
   -2.7802    0.2479    1.4839 H   0  0  0  0  0  0  0  0  0  0  0  0
   -3.3413   -0.0312    3.1330 H   0  0  0  0  0  0  0  0  0  0  0  0
   -4.5879    1.9835    3.2508 H   0  0  0  0  0  0  0  0  0  0  0  0
   -3.0635    2.4214    2.4938 H   0  0  0  0  0  0  0  0  0  0  0  0
   -4.5208    2.2775    1.5133 H   0  0  0  0  0  0  0  0  0  0  0  0
    1.0203   -1.7020   -4.0593 H   0  0  0  0  0  0  0  0  0  0  0  0
    2.3542    3.8546   -2.0339 H   0  0  0  0  0  0  0  0  0  0  0  0
    3.2267    2.8567   -0.8336 H   0  0  0  0  0  0  0  0  0  0  0  0
    0.7469    3.2652    1.8578 H   0  0  0  0  0  0  0  0  0  0  0  0
    0.5735    1.9246    0.6921 H   0  0  0  0  0  0  0  0  0  0  0  0
    2.2011    2.3598    1.3255 H   0  0  0  0  0  0  0  0  0  0  0  0
    1.5854    5.4089    1.1973 H   0  0  0  0  0  0  0  0  0  0  0  0
    3.1362    4.5780    0.8298 H   0  0  0  0  0  0  0  0  0  0  0  0
    2.3571    5.6262   -0.4120 H   0  0  0  0  0  0  0  0  0  0  0  0
    0.2524    4.9290   -1.4448 H   0  0  0  0  0  0  0  0  0  0  0  0
   -0.4931    3.3465   -1.0251 H   0  0  0  0  0  0  0  0  0  0  0  0
   -0.4772    4.6719    0.1754 H   0  0  0  0  0  0  0  0  0  0  0  0
  2  1  1  0  0  0  0
  3  2  1  0  0  0  0
  4  3  1  0  0  0  0
  5  4  1  0  0  0  0
  6  5  1  0  0  0  0
  7  6  2  0  0  0  0
  8  7  1  0  0  0  0
  9  8  2  0  0  0  0
 10  9  1  0  0  0  0
 11 10  1  0  0  0  0
 12 11  1  0  0  0  0
 13 11  2  0  0  0  0
 13  3  1  0  0  0  0
 14 13  1  0  0  0  0
 15 14  1  0  0  0  0
 15  6  1  0  0  0  0
 15 10  2  0  0  0  0
 16  9  1  0  0  0  0
 17 16  1  0  0  0  0
 18 17  1  0  0  0  0
 19 18  2  0  0  0  0
 20 18  1  0  0  0  0
 21 20  1  0  0  0  0
 22 21  1  0  0  0  0
 23 22  1  0  0  0  0
 24 23  1  0  0  0  0
 25 24  1  0  0  0  0
 26 25  1  0  0  0  0
 27 26  1  0  0  0  0
 28 27  1  0  0  0  0
 29 27  1  0  0  0  0
 30 27  1  0  0  0  0
 31 30  1  0  0  0  0
 32 20  1  0  0  0  0
 32  8  1  0  0  0  0
 33 32  1  0  0  0  0
 34 32  1  0  0  0  0
 35 34  3  0  0  0  0
 36 35  1  0  0  0  0
 37 36  1  0  0  0  0
 38 37  1  0  0  0  0
 39 37  1  0  0  0  0
 40 37  1  0  0  0  0
  1 41  1  0  0  0  0
  1 42  1  0  0  0  0
  1 43  1  0  0  0  0
  2 44  1  0  0  0  0
  2 45  1  0  0  0  0
  4 46  1  0  0  0  0
  4 47  1  0  0  0  0
  5 48  1  0  0  0  0
  5 49  1  0  0  0  0
  7 50  1  0  0  0  0
 12 51  1  0  0  0  0
 12 52  1  0  0  0  0
 12 53  1  0  0  0  0
 14 54  1  0  0  0  0
 16 55  1  0  0  0  0
 16 56  1  0  0  0  0
 17 57  1  0  0  0  0
 20 58  1  0  0  0  0
 21 59  1  0  0  0  0
 21 60  1  0  0  0  0
 22 61  1  0  0  0  0
 22 62  1  0  0  0  0
 23 63  1  0  0  0  0
 23 64  1  0  0  0  0
 24 65  1  0  0  0  0
 24 66  1  0  0  0  0
 25 67  1  0  0  0  0
 25 68  1  0  0  0  0
 26 69  1  0  0  0  0
 26 70  1  0  0  0  0
 28 71  1  0  0  0  0
 28 72  1  0  0  0  0
 28 73  1  0  0  0  0
 29 74  1  0  0  0  0
 29 75  1  0  0  0  0
 29 76  1  0  0  0  0
 30 77  1  0  0  0  0
 30 78  1  0  0  0  0
 31 79  1  0  0  0  0
 31 80  1  0  0  0  0
 31 81  1  0  0  0  0
 33 82  1  0  0  0  0
 36 83  1  0  0  0  0
 36 84  1  0  0  0  0
 38 85  1  0  0  0  0
 38 86  1  0  0  0  0
 38 87  1  0  0  0  0
 39 88  1  0  0  0  0
 39 89  1  0  0  0  0
 39 90  1  0  0  0  0
 40 91  1  0  0  0  0
 40 92  1  0  0  0  0
 40 93  1  0  0  0  0
M  CHG  2  27   1  37   1
M  END
>  <energy>
225.1139759459916

$$$$
