CC1=NNc2c3sc(C#N)c2CC1N=C3NC(C)C
                    3D

 34 36  0  0  0  0  0  0  0  0999 V2000
   -2.7365    2.8205    0.9202 C   0  0  0  0  0  0  0  0  0  0  0  0
   -2.3734    1.3661    0.7166 C   0  0  0  0  0  0  0  0  0  0  0  0
   -2.8376    0.5185    1.5817 N   0  0  0  0  0  0  0  0  0  0  0  0
   -2.5790   -0.8197    1.5086 N   0  0  0  0  0  0  0  0  0  0  0  0
   -1.7707   -1.4885    0.6432 C   0  0  0  0  0  0  0  0  0  0  0  0
   -0.3910   -1.4192    0.7056 C   0  0  0  0  0  0  0  0  0  0  0  0
    0.1002   -2.8459   -0.1858 S   0  0  0  0  0  0  0  0  0  0  0  0
   -1.1689   -2.4440   -1.3260 C   0  0  0  0  0  0  0  0  0  0  0  0
   -1.2335   -2.9246   -2.6648 C   0  0  0  0  0  0  0  0  0  0  0  0
   -1.2957   -3.2972   -3.7629 N   0  0  0  0  0  0  0  0  0  0  0  0
   -1.8611   -1.3740   -0.7681 C   0  0  0  0  0  0  0  0  0  0  0  0
   -2.0791   -0.0345   -1.3833 C   0  0  0  0  0  0  0  0  0  0  0  0
   -1.4678    1.0589   -0.4663 C   0  0  0  0  0  0  0  0  0  0  0  0
   -0.0834    0.8878    0.0534 N   0  0  0  0  0  0  0  0  0  0  0  0
    0.3926   -0.1904    0.6066 C   0  0  0  0  0  0  0  0  0  0  0  0
    1.6912   -0.1034    1.0638 N   0  0  0  0  0  0  0  0  0  0  0  0
    2.7637   -0.2294    0.0649 C   0  0  0  0  0  0  0  0  0  0  0  0
    3.7998   -1.2250    0.5719 C   0  0  0  0  0  0  0  0  0  0  0  0
    3.4099    1.1326   -0.1828 C   0  0  0  0  0  0  0  0  0  0  0  0
   -1.8329    3.3993    1.1364 H   0  0  0  0  0  0  0  0  0  0  0  0
   -3.1998    3.2013    0.0045 H   0  0  0  0  0  0  0  0  0  0  0  0
   -3.4449    2.9313    1.7482 H   0  0  0  0  0  0  0  0  0  0  0  0
   -2.6905   -1.2611    2.4253 H   0  0  0  0  0  0  0  0  0  0  0  0
   -1.5851    0.0104   -2.3609 H   0  0  0  0  0  0  0  0  0  0  0  0
   -3.1496    0.1359   -1.5328 H   0  0  0  0  0  0  0  0  0  0  0  0
   -1.4289    1.9695   -1.0774 H   0  0  0  0  0  0  0  0  0  0  0  0
    1.7781    0.8203    1.4845 H   0  0  0  0  0  0  0  0  0  0  0  0
    2.3621   -0.6006   -0.8868 H   0  0  0  0  0  0  0  0  0  0  0  0
    3.3499   -2.2090    0.7368 H   0  0  0  0  0  0  0  0  0  0  0  0
    4.2324   -0.8926    1.5206 H   0  0  0  0  0  0  0  0  0  0  0  0
    4.6083   -1.3422   -0.1561 H   0  0  0  0  0  0  0  0  0  0  0  0
    3.7986    1.5586    0.7496 H   0  0  0  0  0  0  0  0  0  0  0  0
    2.6837    1.8407   -0.5956 H   0  0  0  0  0  0  0  0  0  0  0  0
    4.2387    1.0495   -0.8927 H   0  0  0  0  0  0  0  0  0  0  0  0
  2  1  1  0  0  0  0
  3  2  2  0  0  0  0
  4  3  1  0  0  0  0
  5  4  1  0  0  0  0
  6  5  2  0  0  0  0
  7  6  1  0  0  0  0
  8  7  1  0  0  0  0
  9  8  1  0  0  0  0
 10  9  3  0  0  0  0
 11  8  2  0  0  0  0
 11  5  1  0  0  0  0
 12 11  1  0  0  0  0
 13 12  1  0  0  0  0
 13  2  1  0  0  0  0
 14 13  1  0  0  0  0
 15 14  2  0  0  0  0
 15  6  1  0  0  0  0
 16 15  1  0  0  0  0
 17 16  1  0  0  0  0
 18 17  1  0  0  0  0
 19 17  1  0  0  0  0
  1 20  1  0  0  0  0
  1 21  1  0  0  0  0
  1 22  1  0  0  0  0
  4 23  1  0  0  0  0
 12 24  1  0  0  0  0
 12 25  1  0  0  0  0
 13 26  1  0  0  0  0
 16 27  1  0  0  0  0
 17 28  1  0  0  0  0
 18 29  1  0  0  0  0
 18 30  1  0  0  0  0
 18 31  1  0  0  0  0
 19 32  1  0  0  0  0
 19 33  1  0  0  0  0
 19 34  1  0  0  0  0
M  END
>  <energy>
137.73599462065221

$$$$
