CC1CC(O)C2C3CC(=O)CC4(C(=O)NCCCNCCCCN(C)C)CCC5C(CCC2C14C)C(O)CCC53C
                    3D

100104  0  0  0  0  0  0  0  0999 V2000
    1.7570   -2.2350    3.4199 C   0  0  0  0  0  0  0  0  0  0  0  0
    1.8830   -0.8359    2.8098 C   0  0  0  0  0  0  0  0  0  0  0  0
    3.3665   -0.4183    2.7957 C   0  0  0  0  0  0  0  0  0  0  0  0
    3.5887    1.0318    2.3695 C   0  0  0  0  0  0  0  0  0  0  0  0
    4.9776    1.3218    2.2730 O   0  0  0  0  0  0  0  0  0  0  0  0
    2.8308    1.4538    1.0740 C   0  0  0  0  0  0  0  0  0  0  0  0
    3.6035    1.2255   -0.2583 C   0  0  0  0  0  0  0  0  0  0  0  0
    4.4221   -0.0723   -0.3568 C   0  0  0  0  0  0  0  0  0  0  0  0
    3.7825   -1.3305   -0.8400 C   0  0  0  0  0  0  0  0  0  0  0  0
    4.2149   -1.8767   -1.8599 O   0  0  0  0  0  0  0  0  0  0  0  0
    2.7441   -2.0337   -0.0146 C   0  0  0  0  0  0  0  0  0  0  0  0
    1.3000   -1.5083    0.2105 C   0  0  0  0  0  0  0  0  0  0  0  0
    0.5750   -2.9117    0.5175 C   0  0  0  0  0  0  0  0  0  0  0  0
    1.1581   -3.8323    1.0999 O   0  0  0  0  0  0  0  0  0  0  0  0
   -0.7188   -3.1061    0.0873 N   0  0  0  0  0  0  0  0  0  0  0  0
   -1.3239   -4.4303    0.0560 C   0  0  0  0  0  0  0  0  0  0  0  0
   -2.1005   -4.6675   -1.2457 C   0  0  0  0  0  0  0  0  0  0  0  0
   -3.6036   -4.4442   -1.0762 C   0  0  0  0  0  0  0  0  0  0  0  0
   -3.8831   -3.0546   -0.7245 N   0  0  0  0  0  0  0  0  0  0  0  0
   -4.8752   -2.9585    0.3430 C   0  0  0  0  0  0  0  0  0  0  0  0
   -5.3758   -1.5249    0.5330 C   0  0  0  0  0  0  0  0  0  0  0  0
   -4.2608   -0.5160    0.8154 C   0  0  0  0  0  0  0  0  0  0  0  0
   -4.8323    0.8835    1.0917 C   0  0  0  0  0  0  0  0  0  0  0  0
   -4.0553    1.9346    0.4146 N   0  0  0  0  0  0  0  0  0  0  0  0
   -4.4153    2.0143   -1.0067 C   0  0  0  0  0  0  0  0  0  0  0  0
   -4.3031    3.2312    1.0502 C   0  0  0  0  0  0  0  0  0  0  0  0
    0.6829   -1.0495   -1.1539 C   0  0  0  0  0  0  0  0  0  0  0  0
    1.3754   -0.2071   -2.2215 C   0  0  0  0  0  0  0  0  0  0  0  0
    1.6280    1.3061   -2.1470 C   0  0  0  0  0  0  0  0  0  0  0  0
    0.3778    2.1913   -1.8983 C   0  0  0  0  0  0  0  0  0  0  0  0
   -0.4096    1.9420   -0.6180 C   0  0  0  0  0  0  0  0  0  0  0  0
    0.3221    2.0780    0.6938 C   0  0  0  0  0  0  0  0  0  0  0  0
    1.3513    1.0521    1.2328 C   0  0  0  0  0  0  0  0  0  0  0  0
    1.0520   -0.4965    1.4636 C   0  0  0  0  0  0  0  0  0  0  0  0
   -0.4569   -0.5707    1.8945 C   0  0  0  0  0  0  0  0  0  0  0  0
    0.6242    3.7006   -2.2366 C   0  0  0  0  0  0  0  0  0  0  0  0
    0.1733    4.5831   -1.2079 O   0  0  0  0  0  0  0  0  0  0  0  0
    2.0816    4.0488   -2.5209 C   0  0  0  0  0  0  0  0  0  0  0  0
    2.9843    3.3835   -1.4919 C   0  0  0  0  0  0  0  0  0  0  0  0
    3.0153    1.8172   -1.6107 C   0  0  0  0  0  0  0  0  0  0  0  0
    4.0670    1.5350   -2.7484 C   0  0  0  0  0  0  0  0  0  0  0  0
    2.4185   -2.9564    2.9398 H   0  0  0  0  0  0  0  0  0  0  0  0
    0.7328   -2.6118    3.4103 H   0  0  0  0  0  0  0  0  0  0  0  0
    2.0569   -2.1998    4.4743 H   0  0  0  0  0  0  0  0  0  0  0  0
    1.4333   -0.1978    3.5879 H   0  0  0  0  0  0  0  0  0  0  0  0
    3.7795   -0.5342    3.8076 H   0  0  0  0  0  0  0  0  0  0  0  0
    3.9855   -1.0994    2.2143 H   0  0  0  0  0  0  0  0  0  0  0  0
    3.2203    1.6684    3.1851 H   0  0  0  0  0  0  0  0  0  0  0  0
    5.3889    1.1253    3.1329 H   0  0  0  0  0  0  0  0  0  0  0  0
    2.8406    2.5490    1.1717 H   0  0  0  0  0  0  0  0  0  0  0  0
    4.4447    1.9271   -0.1034 H   0  0  0  0  0  0  0  0  0  0  0  0
    5.2732    0.1106   -1.0283 H   0  0  0  0  0  0  0  0  0  0  0  0
    4.9397   -0.3179    0.5676 H   0  0  0  0  0  0  0  0  0  0  0  0
    2.6377   -2.9731   -0.5817 H   0  0  0  0  0  0  0  0  0  0  0  0
    3.2108   -2.3751    0.9058 H   0  0  0  0  0  0  0  0  0  0  0  0
   -1.3272   -2.3248   -0.1378 H   0  0  0  0  0  0  0  0  0  0  0  0
   -0.5373   -5.1889    0.1365 H   0  0  0  0  0  0  0  0  0  0  0  0
   -1.9613   -4.5262    0.9402 H   0  0  0  0  0  0  0  0  0  0  0  0
   -1.7046   -4.0489   -2.0634 H   0  0  0  0  0  0  0  0  0  0  0  0
   -1.9576   -5.7101   -1.5527 H   0  0  0  0  0  0  0  0  0  0  0  0
   -3.9813   -5.1488   -0.3231 H   0  0  0  0  0  0  0  0  0  0  0  0
   -4.1238   -4.6885   -2.0101 H   0  0  0  0  0  0  0  0  0  0  0  0
   -4.2194   -2.5590   -1.5543 H   0  0  0  0  0  0  0  0  0  0  0  0
   -5.7432   -3.5934    0.1185 H   0  0  0  0  0  0  0  0  0  0  0  0
   -4.4353   -3.3155    1.2838 H   0  0  0  0  0  0  0  0  0  0  0  0
   -5.9270   -1.2121   -0.3618 H   0  0  0  0  0  0  0  0  0  0  0  0
   -6.0932   -1.5155    1.3624 H   0  0  0  0  0  0  0  0  0  0  0  0
   -3.6788   -0.8430    1.6871 H   0  0  0  0  0  0  0  0  0  0  0  0
   -3.5579   -0.4998   -0.0260 H   0  0  0  0  0  0  0  0  0  0  0  0
   -5.8947    0.9518    0.8224 H   0  0  0  0  0  0  0  0  0  0  0  0
   -4.7873    1.0299    2.1795 H   0  0  0  0  0  0  0  0  0  0  0  0
   -3.8028    2.7710   -1.5107 H   0  0  0  0  0  0  0  0  0  0  0  0
   -4.2281    1.0673   -1.5257 H   0  0  0  0  0  0  0  0  0  0  0  0
   -5.4710    2.2784   -1.1487 H   0  0  0  0  0  0  0  0  0  0  0  0
   -3.7166    4.0163    0.5590 H   0  0  0  0  0  0  0  0  0  0  0  0
   -3.9856    3.2145    2.0992 H   0  0  0  0  0  0  0  0  0  0  0  0
   -5.3619    3.5116    1.0113 H   0  0  0  0  0  0  0  0  0  0  0  0
   -0.3374   -0.7028   -1.0072 H   0  0  0  0  0  0  0  0  0  0  0  0
    0.5150   -1.9818   -1.7132 H   0  0  0  0  0  0  0  0  0  0  0  0
    2.2676   -0.7149   -2.5856 H   0  0  0  0  0  0  0  0  0  0  0  0
    0.6969   -0.3128   -3.0858 H   0  0  0  0  0  0  0  0  0  0  0  0
    1.7415    1.4994   -3.2315 H   0  0  0  0  0  0  0  0  0  0  0  0
   -0.3297    1.8732   -2.6815 H   0  0  0  0  0  0  0  0  0  0  0  0
   -0.9587    1.0059   -0.6611 H   0  0  0  0  0  0  0  0  0  0  0  0
   -1.2344    2.6679   -0.5964 H   0  0  0  0  0  0  0  0  0  0  0  0
    0.7696    3.0761    0.7467 H   0  0  0  0  0  0  0  0  0  0  0  0
   -0.4792    2.1339    1.4460 H   0  0  0  0  0  0  0  0  0  0  0  0
    1.2177    1.4030    2.2760 H   0  0  0  0  0  0  0  0  0  0  0  0
   -1.1331   -0.3191    1.0778 H   0  0  0  0  0  0  0  0  0  0  0  0
   -0.7407   -1.5574    2.2624 H   0  0  0  0  0  0  0  0  0  0  0  0
   -0.6703    0.1243    2.7152 H   0  0  0  0  0  0  0  0  0  0  0  0
    0.0407    3.9600   -3.1319 H   0  0  0  0  0  0  0  0  0  0  0  0
   -0.7958    4.6394   -1.2678 H   0  0  0  0  0  0  0  0  0  0  0  0
    2.3517    3.7402   -3.5352 H   0  0  0  0  0  0  0  0  0  0  0  0
    2.2224    5.1349   -2.4713 H   0  0  0  0  0  0  0  0  0  0  0  0
    3.9994    3.7852   -1.5974 H   0  0  0  0  0  0  0  0  0  0  0  0
    2.6478    3.7044   -0.5041 H   0  0  0  0  0  0  0  0  0  0  0  0
    4.1409    0.4716   -2.9882 H   0  0  0  0  0  0  0  0  0  0  0  0
    5.0650    1.8879   -2.4599 H   0  0  0  0  0  0  0  0  0  0  0  0
    3.8117    2.0467   -3.6837 H   0  0  0  0  0  0  0  0  0  0  0  0
  2  1  1  0  0  0  0
  3  2  1  0  0  0  0
  4  3  1  0  0  0  0
  5  4  1  0  0  0  0
  6  4  1  0  0  0  0
  7  6  1  0  0  0  0
  8  7  1  0  0  0  0
  9  8  1  0  0  0  0
 10  9  2  0  0  0  0
 11  9  1  0  0  0  0
 12 11  1  0  0  0  0
 13 12  1  0  0  0  0
 14 13  2  0  0  0  0
 15 13  1  0  0  0  0
 16 15  1  0  0  0  0
 17 16  1  0  0  0  0
 18 17  1  0  0  0  0
 19 18  1  0  0  0  0
 20 19  1  0  0  0  0
 21 20  1  0  0  0  0
 22 21  1  0  0  0  0
 23 22  1  0  0  0  0
 24 23  1  0  0  0  0
 25 24  1  0  0  0  0
 26 24  1  0  0  0  0
 27 12  1  0  0  0  0
 28 27  1  0  0  0  0
 29 28  1  0  0  0  0
 30 29  1  0  0  0  0
 31 30  1  0  0  0  0
 32 31  1  0  0  0  0
 33 32  1  0  0  0  0
 33  6  1  0  0  0  0
 34 33  1  0  0  0  0
 34  2  1  0  0  0  0
 34 12  1  0  0  0  0
 35 34  1  0  0  0  0
 36 30  1  0  0  0  0
 37 36  1  0  0  0  0
 38 36  1  0  0  0  0
 39 38  1  0  0  0  0
 40 39  1  0  0  0  0
 40 29  1  0  0  0  0
 40  7  1  0  0  0  0
 41 40  1  0  0  0  0
  1 42  1  0  0  0  0
  1 43  1  0  0  0  0
  1 44  1  0  0  0  0
  2 45  1  0  0  0  0
  3 46  1  0  0  0  0
  3 47  1  0  0  0  0
  4 48  1  0  0  0  0
  5 49  1  0  0  0  0
  6 50  1  0  0  0  0
  7 51  1  0  0  0  0
  8 52  1  0  0  0  0
  8 53  1  0  0  0  0
 11 54  1  0  0  0  0
 11 55  1  0  0  0  0
 15 56  1  0  0  0  0
 16 57  1  0  0  0  0
 16 58  1  0  0  0  0
 17 59  1  0  0  0  0
 17 60  1  0  0  0  0
 18 61  1  0  0  0  0
 18 62  1  0  0  0  0
 19 63  1  0  0  0  0
 20 64  1  0  0  0  0
 20 65  1  0  0  0  0
 21 66  1  0  0  0  0
 21 67  1  0  0  0  0
 22 68  1  0  0  0  0
 22 69  1  0  0  0  0
 23 70  1  0  0  0  0
 23 71  1  0  0  0  0
 25 72  1  0  0  0  0
 25 73  1  0  0  0  0
 25 74  1  0  0  0  0
 26 75  1  0  0  0  0
 26 76  1  0  0  0  0
 26 77  1  0  0  0  0
 27 78  1  0  0  0  0
 27 79  1  0  0  0  0
 28 80  1  0  0  0  0
 28 81  1  0  0  0  0
 29 82  1  0  0  0  0
 30 83  1  0  0  0  0
 31 84  1  0  0  0  0
 31 85  1  0  0  0  0
 32 86  1  0  0  0  0
 32 87  1  0  0  0  0
 33 88  1  0  0  0  0
 35 89  1  0  0  0  0
 35 90  1  0  0  0  0
 35 91  1  0  0  0  0
 36 92  1  0  0  0  0
 37 93  1  0  0  0  0
 38 94  1  0  0  0  0
 38 95  1  0  0  0  0
 39 96  1  0  0  0  0
 39 97  1  0  0  0  0
 41 98  1  0  0  0  0
 41 99  1  0  0  0  0
 41100  1  0  0  0  0
M  END
>  <energy>
211.51459183169908

$$$$
