CCCCCNC(=N)N1C(=N)N2C3CC4C5C3CCC(NC(C)=O)C1C4C52
                    3D

 59 63  0  0  0  0  0  0  0  0999 V2000
   -6.0158   -0.9390    1.8791 C   0  0  0  0  0  0  0  0  0  0  0  0
   -6.1037    0.0230    0.7043 C   0  0  0  0  0  0  0  0  0  0  0  0
   -5.2986   -0.4666   -0.5046 C   0  0  0  0  0  0  0  0  0  0  0  0
   -3.9471    0.2459   -0.6309 C   0  0  0  0  0  0  0  0  0  0  0  0
   -3.0925    0.0395    0.6190 C   0  0  0  0  0  0  0  0  0  0  0  0
   -1.7667    0.5853    0.4757 N   0  0  0  0  0  0  0  0  0  0  0  0
   -0.6093   -0.0236    0.8368 C   0  0  0  0  0  0  0  0  0  0  0  0
   -0.5354   -1.1120    1.5426 N   0  0  0  0  0  0  0  0  0  0  0  0
    0.5187    0.5645    0.3226 N   0  0  0  0  0  0  0  0  0  0  0  0
    0.8383    1.9583    0.2482 C   0  0  0  0  0  0  0  0  0  0  0  0
    0.0439    2.8858   -0.1769 N   0  0  0  0  0  0  0  0  0  0  0  0
    2.0824    2.2834    0.8074 N   0  0  0  0  0  0  0  0  0  0  0  0
    3.4482    2.7899   -0.0542 C   0  0  0  0  0  0  0  0  0  0  0  0
    5.1185    2.0736    0.6520 C   0  0  0  0  0  0  0  0  0  0  0  0
    4.6049    0.3142    1.1146 C   0  0  0  0  0  0  0  0  0  0  0  0
    3.7827    1.3899    0.9241 C   0  0  0  0  0  0  0  0  0  0  0  0
    3.7825    1.6211   -0.8062 C   0  0  0  0  0  0  0  0  0  0  0  0
    3.4192    0.6542   -1.9827 C   0  0  0  0  0  0  0  0  0  0  0  0
    2.1659   -0.2438   -2.2720 C   0  0  0  0  0  0  0  0  0  0  0  0
    1.8294   -1.2217   -1.0967 C   0  0  0  0  0  0  0  0  0  0  0  0
    0.5993   -1.9699   -1.3386 N   0  0  0  0  0  0  0  0  0  0  0  0
    0.4703   -3.3071   -0.9902 C   0  0  0  0  0  0  0  0  0  0  0  0
   -0.9762   -3.7735   -1.0054 C   0  0  0  0  0  0  0  0  0  0  0  0
    1.4150   -4.0447   -0.7514 O   0  0  0  0  0  0  0  0  0  0  0  0
    1.7166   -0.3228    0.1305 C   0  0  0  0  0  0  0  0  0  0  0  0
    2.8491   -0.2944    1.1787 C   0  0  0  0  0  0  0  0  0  0  0  0
    2.5268    1.1289    1.6163 C   0  0  0  0  0  0  0  0  0  0  0  0
   -4.9935   -1.0271    2.2574 H   0  0  0  0  0  0  0  0  0  0  0  0
   -6.3522   -1.9417    1.5950 H   0  0  0  0  0  0  0  0  0  0  0  0
   -6.6420   -0.5943    2.7043 H   0  0  0  0  0  0  0  0  0  0  0  0
   -5.7659    1.0198    1.0098 H   0  0  0  0  0  0  0  0  0  0  0  0
   -7.1548    0.1312    0.4219 H   0  0  0  0  0  0  0  0  0  0  0  0
   -5.8788   -0.2791   -1.4174 H   0  0  0  0  0  0  0  0  0  0  0  0
   -5.1559   -1.5573   -0.4526 H   0  0  0  0  0  0  0  0  0  0  0  0
   -3.4190   -0.1572   -1.4991 H   0  0  0  0  0  0  0  0  0  0  0  0
   -4.1004    1.3108   -0.8265 H   0  0  0  0  0  0  0  0  0  0  0  0
   -3.0303   -1.0417    0.7792 H   0  0  0  0  0  0  0  0  0  0  0  0
   -3.5461    0.4718    1.5140 H   0  0  0  0  0  0  0  0  0  0  0  0
   -1.6706    1.5921    0.3230 H   0  0  0  0  0  0  0  0  0  0  0  0
   -1.4522   -1.3628    1.9030 H   0  0  0  0  0  0  0  0  0  0  0  0
    0.5430    3.7654    0.0024 H   0  0  0  0  0  0  0  0  0  0  0  0
    3.4865    3.8111   -0.4332 H   0  0  0  0  0  0  0  0  0  0  0  0
    5.9679    1.9801   -0.0632 H   0  0  0  0  0  0  0  0  0  0  0  0
    5.5154    2.6309    1.5389 H   0  0  0  0  0  0  0  0  0  0  0  0
    5.1058   -0.2160    0.2928 H   0  0  0  0  0  0  0  0  0  0  0  0
    3.8852    2.1466    1.8788 H   0  0  0  0  0  0  0  0  0  0  0  0
    4.7031    1.9929   -1.3020 H   0  0  0  0  0  0  0  0  0  0  0  0
    3.5108    1.2749   -2.8900 H   0  0  0  0  0  0  0  0  0  0  0  0
    4.2743   -0.0355   -2.0339 H   0  0  0  0  0  0  0  0  0  0  0  0
    1.3031    0.4103   -2.4760 H   0  0  0  0  0  0  0  0  0  0  0  0
    2.3472   -0.8101   -3.1954 H   0  0  0  0  0  0  0  0  0  0  0  0
    2.6688   -1.9180   -0.9761 H   0  0  0  0  0  0  0  0  0  0  0  0
   -0.2539   -1.4286   -1.2931 H   0  0  0  0  0  0  0  0  0  0  0  0
   -1.6264   -3.0307   -0.5324 H   0  0  0  0  0  0  0  0  0  0  0  0
   -1.0819   -4.7055   -0.4451 H   0  0  0  0  0  0  0  0  0  0  0  0
   -1.3089   -3.9354   -2.0350 H   0  0  0  0  0  0  0  0  0  0  0  0
    2.1288    0.4447   -0.4325 H   0  0  0  0  0  0  0  0  0  0  0  0
    2.7021   -1.0624    1.9462 H   0  0  0  0  0  0  0  0  0  0  0  0
    2.4240    1.2827    2.6946 H   0  0  0  0  0  0  0  0  0  0  0  0
  2  1  1  0  0  0  0
  3  2  1  0  0  0  0
  4  3  1  0  0  0  0
  5  4  1  0  0  0  0
  6  5  1  0  0  0  0
  7  6  1  0  0  0  0
  8  7  2  0  0  0  0
  9  7  1  0  0  0  0
 10  9  1  0  0  0  0
 11 10  2  0  0  0  0
 12 10  1  0  0  0  0
 13 12  1  0  0  0  0
 14 13  1  0  0  0  0
 15 14  1  0  0  0  0
 16 15  1  0  0  0  0
 17 16  1  0  0  0  0
 17 13  1  0  0  0  0
 18 17  1  0  0  0  0
 19 18  1  0  0  0  0
 20 19  1  0  0  0  0
 21 20  1  0  0  0  0
 22 21  1  0  0  0  0
 23 22  1  0  0  0  0
 24 22  2  0  0  0  0
 25 20  1  0  0  0  0
 25  9  1  0  0  0  0
 26 25  1  0  0  0  0
 26 15  1  0  0  0  0
 27 26  1  0  0  0  0
 27 16  1  0  0  0  0
 27 12  1  0  0  0  0
  1 28  1  0  0  0  0
  1 29  1  0  0  0  0
  1 30  1  0  0  0  0
  2 31  1  0  0  0  0
  2 32  1  0  0  0  0
  3 33  1  0  0  0  0
  3 34  1  0  0  0  0
  4 35  1  0  0  0  0
  4 36  1  0  0  0  0
  5 37  1  0  0  0  0
  5 38  1  0  0  0  0
  6 39  1  0  0  0  0
  8 40  1  0  0  0  0
 11 41  1  0  0  0  0
 13 42  1  0  0  0  0
 14 43  1  0  0  0  0
 14 44  1  0  0  0  0
 15 45  1  0  0  0  0
 16 46  1  0  0  0  0
 17 47  1  0  0  0  0
 18 48  1  0  0  0  0
 18 49  1  0  0  0  0
 19 50  1  0  0  0  0
 19 51  1  0  0  0  0
 20 52  1  0  0  0  0
 21 53  1  0  0  0  0
 23 54  1  0  0  0  0
 23 55  1  0  0  0  0
 23 56  1  0  0  0  0
 25 57  1  0  0  0  0
 26 58  1  0  0  0  0
 27 59  1  0  0  0  0
M  END
>  <energy>
362.92760297854846

$$$$
