CC(=O)NCCC(=O)OCn1c(-n2c(=O)c3ccn2c(=O)c3C(=O)OCc2nnn(-c3cc[nH]c3)n2)c(C(=O)N=C(
                    3D

 72 76  0  0  0  0  0  0  0  0999 V2000
    3.3858   -3.7164   -2.1220 C   0  0  0  0  0  0  0  0  0  0  0  0
    3.0416   -2.9139   -0.8969 C   0  0  0  0  0  0  0  0  0  0  0  0
    2.0227   -3.1209   -0.2405 O   0  0  0  0  0  0  0  0  0  0  0  0
    3.9087   -1.9336   -0.5091 N   0  0  0  0  0  0  0  0  0  0  0  0
    5.1258   -1.4737   -1.1624 C   0  0  0  0  0  0  0  0  0  0  0  0
    4.8707   -0.5653   -2.3570 C   0  0  0  0  0  0  0  0  0  0  0  0
    4.0461    0.6128   -1.9225 C   0  0  0  0  0  0  0  0  0  0  0  0
    4.2816    1.2949   -0.9366 O   0  0  0  0  0  0  0  0  0  0  0  0
    2.9837    0.7726   -2.7492 O   0  0  0  0  0  0  0  0  0  0  0  0
    2.0021    1.6855   -2.2440 C   0  0  0  0  0  0  0  0  0  0  0  0
    0.6966    1.4365   -2.8267 N   0  0  0  0  0  0  0  0  0  0  0  0
   -0.5487    1.7578   -2.2060 C   0  0  0  0  0  0  0  0  0  0  0  0
   -0.7868    2.3395   -0.9732 N   0  0  0  0  0  0  0  0  0  0  0  0
    0.0722    3.2326   -0.3003 C   0  0  0  0  0  0  0  0  0  0  0  0
    0.8983    3.9921   -0.7773 O   0  0  0  0  0  0  0  0  0  0  0  0
   -0.1001    3.0611    1.2098 C   0  0  0  0  0  0  0  0  0  0  0  0
    0.1143    1.6154    1.4973 C   0  0  0  0  0  0  0  0  0  0  0  0
   -0.7492    0.8432    0.8053 C   0  0  0  0  0  0  0  0  0  0  0  0
   -1.6561    1.5541   -0.0233 N   0  0  0  0  0  0  0  0  0  0  0  0
   -2.3634    2.5495    0.7496 C   0  0  0  0  0  0  0  0  0  0  0  0
   -3.5785    2.6380    0.8517 O   0  0  0  0  0  0  0  0  0  0  0  0
   -1.3773    3.4526    1.4800 C   0  0  0  0  0  0  0  0  0  0  0  0
   -1.5532    3.7667    2.9096 C   0  0  0  0  0  0  0  0  0  0  0  0
   -0.8977    4.6193    3.4902 O   0  0  0  0  0  0  0  0  0  0  0  0
   -2.3885    2.8879    3.4958 O   0  0  0  0  0  0  0  0  0  0  0  0
   -2.1176    2.5979    4.8811 C   0  0  0  0  0  0  0  0  0  0  0  0
   -1.3537    1.3226    5.0108 C   0  0  0  0  0  0  0  0  0  0  0  0
   -0.3548    1.1480    5.9207 N   0  0  0  0  0  0  0  0  0  0  0  0
    0.1365   -0.0636    5.7040 N   0  0  0  0  0  0  0  0  0  0  0  0
   -0.5742   -0.5822    4.6692 N   0  0  0  0  0  0  0  0  0  0  0  0
   -0.3138   -1.8430    4.0792 C   0  0  0  0  0  0  0  0  0  0  0  0
    0.6813   -2.7708    4.4807 C   0  0  0  0  0  0  0  0  0  0  0  0
    0.6138   -3.8339    3.6049 C   0  0  0  0  0  0  0  0  0  0  0  0
   -0.3860   -3.5833    2.6968 N   0  0  0  0  0  0  0  0  0  0  0  0
   -0.9752   -2.3829    2.9930 C   0  0  0  0  0  0  0  0  0  0  0  0
   -1.5241    0.2743    4.1971 N   0  0  0  0  0  0  0  0  0  0  0  0
   -1.5092    1.2427   -3.0139 C   0  0  0  0  0  0  0  0  0  0  0  0
   -2.9839    1.2936   -2.8764 C   0  0  0  0  0  0  0  0  0  0  0  0
   -3.5704    2.1653   -2.2528 O   0  0  0  0  0  0  0  0  0  0  0  0
   -3.5987    0.2720   -3.5602 N   0  0  0  0  0  0  0  0  0  0  0  0
   -4.1567   -0.6593   -2.8403 C   0  0  0  0  0  0  0  0  0  0  0  0
   -4.7722   -1.7210   -3.4582 N   0  0  0  0  0  0  0  0  0  0  0  0
   -4.1249   -0.6624   -1.2967 C   0  0  0  0  0  0  0  0  0  0  0  0
   -4.9469    0.2451   -0.6973 N   0  0  0  0  0  0  0  0  0  0  0  0
   -3.4070   -1.4551   -0.7097 O   0  0  0  0  0  0  0  0  0  0  0  0
   -0.8873    0.6197   -4.0799 N   0  0  0  0  0  0  0  0  0  0  0  0
    0.4726    0.6797   -3.9794 C   0  0  0  0  0  0  0  0  0  0  0  0
    1.2792    0.0971   -4.7858 N   0  0  0  0  0  0  0  0  0  0  0  0
    2.5925   -4.4442   -2.3094 H   0  0  0  0  0  0  0  0  0  0  0  0
    4.3227   -4.2521   -1.9546 H   0  0  0  0  0  0  0  0  0  0  0  0
    3.4665   -3.0748   -3.0001 H   0  0  0  0  0  0  0  0  0  0  0  0
    3.6166   -1.4559    0.3366 H   0  0  0  0  0  0  0  0  0  0  0  0
    5.6997   -0.9375   -0.3987 H   0  0  0  0  0  0  0  0  0  0  0  0
    5.7106   -2.3452   -1.4676 H   0  0  0  0  0  0  0  0  0  0  0  0
    4.3530   -1.1055   -3.1574 H   0  0  0  0  0  0  0  0  0  0  0  0
    5.8124   -0.1887   -2.7726 H   0  0  0  0  0  0  0  0  0  0  0  0
    2.3223    2.7042   -2.4786 H   0  0  0  0  0  0  0  0  0  0  0  0
    1.9217    1.5528   -1.1593 H   0  0  0  0  0  0  0  0  0  0  0  0
    0.8599    1.2653    2.1938 H   0  0  0  0  0  0  0  0  0  0  0  0
   -0.8346   -0.2336    0.8388 H   0  0  0  0  0  0  0  0  0  0  0  0
   -3.0807    2.5006    5.3896 H   0  0  0  0  0  0  0  0  0  0  0  0
   -1.5692    3.4065    5.3758 H   0  0  0  0  0  0  0  0  0  0  0  0
    1.3797   -2.6764    5.3057 H   0  0  0  0  0  0  0  0  0  0  0  0
    1.1942   -4.7433    3.5393 H   0  0  0  0  0  0  0  0  0  0  0  0
   -0.6346   -4.1815    1.9190 H   0  0  0  0  0  0  0  0  0  0  0  0
   -1.7973   -2.0061    2.3982 H   0  0  0  0  0  0  0  0  0  0  0  0
   -4.7736   -2.5812   -2.9175 H   0  0  0  0  0  0  0  0  0  0  0  0
   -4.5008   -1.8540   -4.4255 H   0  0  0  0  0  0  0  0  0  0  0  0
   -4.7740    0.4321    0.2853 H   0  0  0  0  0  0  0  0  0  0  0  0
   -5.2064    1.0719   -1.2309 H   0  0  0  0  0  0  0  0  0  0  0  0
   -1.3967    0.0960   -4.7748 H   0  0  0  0  0  0  0  0  0  0  0  0
    2.2387    0.2617   -4.4643 H   0  0  0  0  0  0  0  0  0  0  0  0
  2  1  1  0  0  0  0
  3  2  2  0  0  0  0
  4  2  1  0  0  0  0
  5  4  1  0  0  0  0
  6  5  1  0  0  0  0
  7  6  1  0  0  0  0
  8  7  2  0  0  0  0
  9  7  1  0  0  0  0
 10  9  1  0  0  0  0
 11 10  1  0  0  0  0
 12 11  1  0  0  0  0
 13 12  1  0  0  0  0
 14 13  1  0  0  0  0
 15 14  2  0  0  0  0
 16 14  1  0  0  0  0
 17 16  1  0  0  0  0
 18 17  2  0  0  0  0
 19 18  1  0  0  0  0
 19 13  1  0  0  0  0
 20 19  1  0  0  0  0
 21 20  2  0  0  0  0
 22 20  1  0  0  0  0
 22 16  2  0  0  0  0
 23 22  1  0  0  0  0
 24 23  2  0  0  0  0
 25 23  1  0  0  0  0
 26 25  1  0  0  0  0
 27 26  1  0  0  0  0
 28 27  1  0  0  0  0
 29 28  2  0  0  0  0
 30 29  1  0  0  0  0
 31 30  1  0  0  0  0
 32 31  1  0  0  0  0
 33 32  2  0  0  0  0
 34 33  1  0  0  0  0
 35 34  1  0  0  0  0
 35 31  2  0  0  0  0
 36 30  1  0  0  0  0
 36 27  2  0  0  0  0
 37 12  2  0  0  0  0
 38 37  1  0  0  0  0
 39 38  2  0  0  0  0
 40 38  1  0  0  0  0
 41 40  2  0  0  0  0
 42 41  1  0  0  0  0
 43 41  1  0  0  0  0
 44 43  1  0  0  0  0
 45 43  2  0  0  0  0
 46 37  1  0  0  0  0
 47 46  1  0  0  0  0
 47 11  1  0  0  0  0
 48 47  2  0  0  0  0
  1 49  1  0  0  0  0
  1 50  1  0  0  0  0
  1 51  1  0  0  0  0
  4 52  1  0  0  0  0
  5 53  1  0  0  0  0
  5 54  1  0  0  0  0
  6 55  1  0  0  0  0
  6 56  1  0  0  0  0
 10 57  1  0  0  0  0
 10 58  1  0  0  0  0
 17 59  1  0  0  0  0
 18 60  1  0  0  0  0
 26 61  1  0  0  0  0
 26 62  1  0  0  0  0
 32 63  1  0  0  0  0
 33 64  1  0  0  0  0
 34 65  1  0  0  0  0
 35 66  1  0  0  0  0
 42 67  1  0  0  0  0
 42 68  1  0  0  0  0
 44 69  1  0  0  0  0
 44 70  1  0  0  0  0
 46 71  1  0  0  0  0
 48 72  1  0  0  0  0
M  END
>  <energy>
78.564639794923806

$$$$
