NCCC(=NN)NC1C2C3C1C1C2C31
                    3D

 30 33  0  0  0  0  0  0  0  0999 V2000
   -3.6603    1.4702   -0.9884 N   0  0  0  0  0  0  0  0  0  0  0  0
   -2.3231    1.2751   -1.5438 C   0  0  0  0  0  0  0  0  0  0  0  0
   -1.9808   -0.2084   -1.6754 C   0  0  0  0  0  0  0  0  0  0  0  0
   -1.4288   -0.7745   -0.3668 C   0  0  0  0  0  0  0  0  0  0  0  0
   -2.2171   -0.7274    0.6719 N   0  0  0  0  0  0  0  0  0  0  0  0
   -1.7507   -1.3378    1.7835 N   0  0  0  0  0  0  0  0  0  0  0  0
   -0.1449   -1.3205   -0.3781 N   0  0  0  0  0  0  0  0  0  0  0  0
    0.8921   -0.3139   -0.4966 C   0  0  0  0  0  0  0  0  0  0  0  0
    2.3627   -0.9012   -0.2505 C   0  0  0  0  0  0  0  0  0  0  0  0
    1.9871   -0.7689    1.2845 C   0  0  0  0  0  0  0  0  0  0  0  0
    1.1818    0.5227    0.8365 C   0  0  0  0  0  0  0  0  0  0  0  0
    2.5355    1.1873    0.7978 C   0  0  0  0  0  0  0  0  0  0  0  0
    3.3627    0.1905    0.0381 C   0  0  0  0  0  0  0  0  0  0  0  0
    3.1564    0.0436    1.4899 C   0  0  0  0  0  0  0  0  0  0  0  0
   -3.7697    2.4360   -0.6849 H   0  0  0  0  0  0  0  0  0  0  0  0
   -3.7379    0.8987   -0.1387 H   0  0  0  0  0  0  0  0  0  0  0  0
   -1.5882    1.7880   -0.9137 H   0  0  0  0  0  0  0  0  0  0  0  0
   -2.2966    1.7443   -2.5326 H   0  0  0  0  0  0  0  0  0  0  0  0
   -2.8562   -0.7980   -1.9713 H   0  0  0  0  0  0  0  0  0  0  0  0
   -1.2308   -0.3373   -2.4642 H   0  0  0  0  0  0  0  0  0  0  0  0
   -0.7384   -1.4621    1.7664 H   0  0  0  0  0  0  0  0  0  0  0  0
   -2.0133   -0.8265    2.6243 H   0  0  0  0  0  0  0  0  0  0  0  0
   -0.0466   -1.9487   -1.1741 H   0  0  0  0  0  0  0  0  0  0  0  0
    0.8058    0.2794   -1.4125 H   0  0  0  0  0  0  0  0  0  0  0  0
    2.6476   -1.8793   -0.6160 H   0  0  0  0  0  0  0  0  0  0  0  0
    1.5557   -1.5706    1.8496 H   0  0  0  0  0  0  0  0  0  0  0  0
    0.3814    0.8707    1.4764 H   0  0  0  0  0  0  0  0  0  0  0  0
    2.7166    2.1974    1.0943 H   0  0  0  0  0  0  0  0  0  0  0  0
    4.3389    0.2419   -0.3934 H   0  0  0  0  0  0  0  0  0  0  0  0
    3.8591    0.0293    2.2882 H   0  0  0  0  0  0  0  0  0  0  0  0
  2  1  1  0  0  0  0
  3  2  1  0  0  0  0
  4  3  1  0  0  0  0
  5  4  2  0  0  0  0
  6  5  1  0  0  0  0
  7  4  1  0  0  0  0
  8  7  1  0  0  0  0
  9  8  1  0  0  0  0
 10  9  1  0  0  0  0
 11 10  1  0  0  0  0
 11  8  1  0  0  0  0
 12 11  1  0  0  0  0
 13 12  1  0  0  0  0
 13  9  1  0  0  0  0
 14 13  1  0  0  0  0
 14 10  1  0  0  0  0
 14 12  1  0  0  0  0
  1 15  1  0  0  0  0
  1 16  1  0  0  0  0
  2 17  1  0  0  0  0
  2 18  1  0  0  0  0
  3 19  1  0  0  0  0
  3 20  1  0  0  0  0
  6 21  1  0  0  0  0
  6 22  1  0  0  0  0
  7 23  1  0  0  0  0
  8 24  1  0  0  0  0
  9 25  1  0  0  0  0
 10 26  1  0  0  0  0
 11 27  1  0  0  0  0
 12 28  1  0  0  0  0
 13 29  1  0  0  0  0
 14 30  1  0  0  0  0
M  END
>  <energy>
104.46498378258846

$$$$
