CC(=O)C12NC(=O)C3(CC(C)=C1C)C1C=C(C)CC3[N+]2(CCCCNC(=O)C[N+](C)(C)CCO)C1
                    3D

 79 82  0  0  0  0  0  0  0  0999 V2000
    5.0487   -2.6321   -0.7833 C   0  0  0  0  0  0  0  0  0  0  0  0
    3.8035   -2.0973   -0.1093 C   0  0  0  0  0  0  0  0  0  0  0  0
    3.2866   -2.7531    0.7980 O   0  0  0  0  0  0  0  0  0  0  0  0
    3.1329   -0.7850   -0.6875 C   0  0  0  0  0  0  0  0  0  0  0  0
    4.1154   -0.0770   -1.4295 N   0  0  0  0  0  0  0  0  0  0  0  0
    3.6941    1.0750   -1.9785 C   0  0  0  0  0  0  0  0  0  0  0  0
    4.3329    1.6016   -2.8782 O   0  0  0  0  0  0  0  0  0  0  0  0
    2.4155    1.6728   -1.3466 C   0  0  0  0  0  0  0  0  0  0  0  0
    1.5138    1.4440   -2.5303 C   0  0  0  0  0  0  0  0  0  0  0  0
    1.3601   -0.1581   -2.6517 C   0  0  0  0  0  0  0  0  0  0  0  0
    0.4175   -0.5103   -3.7835 C   0  0  0  0  0  0  0  0  0  0  0  0
    1.9868   -1.0977   -1.8321 C   0  0  0  0  0  0  0  0  0  0  0  0
    1.6457   -2.5755   -1.9491 C   0  0  0  0  0  0  0  0  0  0  0  0
    3.1859    2.6531   -0.4721 C   0  0  0  0  0  0  0  0  0  0  0  0
    2.3370    3.7623    0.0648 C   0  0  0  0  0  0  0  0  0  0  0  0
    1.1548    3.4811    0.6135 C   0  0  0  0  0  0  0  0  0  0  0  0
    0.2450    4.5173    1.2046 C   0  0  0  0  0  0  0  0  0  0  0  0
    0.7120    2.0531    0.6436 C   0  0  0  0  0  0  0  0  0  0  0  0
    1.5617    1.0405   -0.1975 C   0  0  0  0  0  0  0  0  0  0  0  0
    2.6486    0.3243    0.4937 N   0  3  0  0  0  0  0  0  0  0  0  0
    2.3262   -0.3067    1.8540 C   0  0  0  0  0  0  0  0  0  0  0  0
    1.1294   -1.2796    1.8478 C   0  0  0  0  0  0  0  0  0  0  0  0
   -0.1497   -0.7643    2.5308 C   0  0  0  0  0  0  0  0  0  0  0  0
   -1.2029   -1.8604    2.7449 C   0  0  0  0  0  0  0  0  0  0  0  0
   -1.5856   -2.5085    1.5014 N   0  0  0  0  0  0  0  0  0  0  0  0
   -2.7786   -2.5169    0.8370 C   0  0  0  0  0  0  0  0  0  0  0  0
   -2.8976   -3.3066   -0.0959 O   0  0  0  0  0  0  0  0  0  0  0  0
   -3.9176   -1.5493    1.2203 C   0  0  0  0  0  0  0  0  0  0  0  0
   -4.5016   -0.6849    0.0594 N   0  3  0  0  0  0  0  0  0  0  0  0
   -4.9344   -1.5768   -1.1162 C   0  0  0  0  0  0  0  0  0  0  0  0
   -3.4491    0.2926   -0.4386 C   0  0  0  0  0  0  0  0  0  0  0  0
   -5.7822    0.0589    0.5334 C   0  0  0  0  0  0  0  0  0  0  0  0
   -5.5448    1.0983    1.6456 C   0  0  0  0  0  0  0  0  0  0  0  0
   -4.7721    2.1924    1.1579 O   0  0  0  0  0  0  0  0  0  0  0  0
    3.6556    1.6099    0.6757 C   0  0  0  0  0  0  0  0  0  0  0  0
    5.2897   -3.6177   -0.3755 H   0  0  0  0  0  0  0  0  0  0  0  0
    5.8922   -1.9659   -0.5969 H   0  0  0  0  0  0  0  0  0  0  0  0
    4.8800   -2.7459   -1.8570 H   0  0  0  0  0  0  0  0  0  0  0  0
    4.8015   -0.5353   -2.0224 H   0  0  0  0  0  0  0  0  0  0  0  0
    1.9073    1.8387   -3.4743 H   0  0  0  0  0  0  0  0  0  0  0  0
    0.5196    1.8838   -2.3806 H   0  0  0  0  0  0  0  0  0  0  0  0
    0.6257    0.1141   -4.6574 H   0  0  0  0  0  0  0  0  0  0  0  0
    0.5172   -1.5400   -4.1280 H   0  0  0  0  0  0  0  0  0  0  0  0
   -0.6163   -0.3394   -3.4735 H   0  0  0  0  0  0  0  0  0  0  0  0
    1.5003   -3.0280   -0.9649 H   0  0  0  0  0  0  0  0  0  0  0  0
    0.7087   -2.7634   -2.4773 H   0  0  0  0  0  0  0  0  0  0  0  0
    2.4399   -3.1110   -2.4741 H   0  0  0  0  0  0  0  0  0  0  0  0
    4.0799    3.1151   -0.9123 H   0  0  0  0  0  0  0  0  0  0  0  0
    2.7110    4.7851    0.0112 H   0  0  0  0  0  0  0  0  0  0  0  0
   -0.7070    4.5372    0.6666 H   0  0  0  0  0  0  0  0  0  0  0  0
    0.6783    5.5185    1.1569 H   0  0  0  0  0  0  0  0  0  0  0  0
    0.0413    4.2890    2.2537 H   0  0  0  0  0  0  0  0  0  0  0  0
    0.6349    1.7527    1.6913 H   0  0  0  0  0  0  0  0  0  0  0  0
   -0.3059    2.0262    0.2330 H   0  0  0  0  0  0  0  0  0  0  0  0
    0.8093    0.2899   -0.4413 H   0  0  0  0  0  0  0  0  0  0  0  0
    3.2489   -0.7962    2.1869 H   0  0  0  0  0  0  0  0  0  0  0  0
    2.1534    0.5050    2.5678 H   0  0  0  0  0  0  0  0  0  0  0  0
    0.8859   -1.6043    0.8333 H   0  0  0  0  0  0  0  0  0  0  0  0
    1.4359   -2.1785    2.3936 H   0  0  0  0  0  0  0  0  0  0  0  0
    0.0957   -0.3250    3.5057 H   0  0  0  0  0  0  0  0  0  0  0  0
   -0.6045    0.0216    1.9239 H   0  0  0  0  0  0  0  0  0  0  0  0
   -2.0812   -1.4431    3.2396 H   0  0  0  0  0  0  0  0  0  0  0  0
   -0.8023   -2.6466    3.3946 H   0  0  0  0  0  0  0  0  0  0  0  0
   -0.9960   -3.2813    1.1976 H   0  0  0  0  0  0  0  0  0  0  0  0
   -3.5860   -0.8425    1.9798 H   0  0  0  0  0  0  0  0  0  0  0  0
   -4.7408   -2.1512    1.6175 H   0  0  0  0  0  0  0  0  0  0  0  0
   -4.0505   -1.9708   -1.6264 H   0  0  0  0  0  0  0  0  0  0  0  0
   -5.5750   -2.3719   -0.7241 H   0  0  0  0  0  0  0  0  0  0  0  0
   -5.4948   -0.9527   -1.8214 H   0  0  0  0  0  0  0  0  0  0  0  0
   -3.0322    0.8315    0.4156 H   0  0  0  0  0  0  0  0  0  0  0  0
   -2.6355   -0.2714   -0.9040 H   0  0  0  0  0  0  0  0  0  0  0  0
   -3.9079    0.9701   -1.1648 H   0  0  0  0  0  0  0  0  0  0  0  0
   -6.1819    0.5700   -0.3508 H   0  0  0  0  0  0  0  0  0  0  0  0
   -6.4919   -0.7140    0.8563 H   0  0  0  0  0  0  0  0  0  0  0  0
   -5.0321    0.6723    2.5122 H   0  0  0  0  0  0  0  0  0  0  0  0
   -6.5147    1.4828    1.9793 H   0  0  0  0  0  0  0  0  0  0  0  0
   -4.8682    2.9156    1.8082 H   0  0  0  0  0  0  0  0  0  0  0  0
    4.6765    1.2339    0.5714 H   0  0  0  0  0  0  0  0  0  0  0  0
    3.4983    2.0058    1.6848 H   0  0  0  0  0  0  0  0  0  0  0  0
  2  1  1  0  0  0  0
  3  2  2  0  0  0  0
  4  2  1  0  0  0  0
  5  4  1  0  0  0  0
  6  5  1  0  0  0  0
  7  6  2  0  0  0  0
  8  6  1  0  0  0  0
  9  8  1  0  0  0  0
 10  9  1  0  0  0  0
 11 10  1  0  0  0  0
 12 10  2  0  0  0  0
 12  4  1  0  0  0  0
 13 12  1  0  0  0  0
 14  8  1  0  0  0  0
 15 14  1  0  0  0  0
 16 15  2  0  0  0  0
 17 16  1  0  0  0  0
 18 16  1  0  0  0  0
 19 18  1  0  0  0  0
 19  8  1  0  0  0  0
 20 19  1  0  0  0  0
 20  4  1  0  0  0  0
 21 20  1  0  0  0  0
 22 21  1  0  0  0  0
 23 22  1  0  0  0  0
 24 23  1  0  0  0  0
 25 24  1  0  0  0  0
 26 25  1  0  0  0  0
 27 26  2  0  0  0  0
 28 26  1  0  0  0  0
 29 28  1  0  0  0  0
 30 29  1  0  0  0  0
 31 29  1  0  0  0  0
 32 29  1  0  0  0  0
 33 32  1  0  0  0  0
 34 33  1  0  0  0  0
 35 20  1  0  0  0  0
 35 14  1  0  0  0  0
  1 36  1  0  0  0  0
  1 37  1  0  0  0  0
  1 38  1  0  0  0  0
  5 39  1  0  0  0  0
  9 40  1  0  0  0  0
  9 41  1  0  0  0  0
 11 42  1  0  0  0  0
 11 43  1  0  0  0  0
 11 44  1  0  0  0  0
 13 45  1  0  0  0  0
 13 46  1  0  0  0  0
 13 47  1  0  0  0  0
 14 48  1  0  0  0  0
 15 49  1  0  0  0  0
 17 50  1  0  0  0  0
 17 51  1  0  0  0  0
 17 52  1  0  0  0  0
 18 53  1  0  0  0  0
 18 54  1  0  0  0  0
 19 55  1  0  0  0  0
 21 56  1  0  0  0  0
 21 57  1  0  0  0  0
 22 58  1  0  0  0  0
 22 59  1  0  0  0  0
 23 60  1  0  0  0  0
 23 61  1  0  0  0  0
 24 62  1  0  0  0  0
 24 63  1  0  0  0  0
 25 64  1  0  0  0  0
 28 65  1  0  0  0  0
 28 66  1  0  0  0  0
 30 67  1  0  0  0  0
 30 68  1  0  0  0  0
 30 69  1  0  0  0  0
 31 70  1  0  0  0  0
 31 71  1  0  0  0  0
 31 72  1  0  0  0  0
 32 73  1  0  0  0  0
 32 74  1  0  0  0  0
 33 75  1  0  0  0  0
 33 76  1  0  0  0  0
 34 77  1  0  0  0  0
 35 78  1  0  0  0  0
 35 79  1  0  0  0  0
M  CHG  2  20   1  29   1
M  END
>  <energy>
198.384780792687

$$$$
