CC(=O)NCCCCCNC(=O)N1CC2CC(C(=O)N(C)C)C(C)(C)C3CC24C1CN34
                    3D

 70 73  0  0  0  0  0  0  0  0999 V2000
   -4.2839   -3.9945   -0.9692 C   0  0  0  0  0  0  0  0  0  0  0  0
   -4.3836   -2.5533   -0.5323 C   0  0  0  0  0  0  0  0  0  0  0  0
   -3.9695   -1.6390   -1.2245 O   0  0  0  0  0  0  0  0  0  0  0  0
   -4.8964   -2.3641    0.7399 N   0  0  0  0  0  0  0  0  0  0  0  0
   -4.6578   -1.0835    1.3964 C   0  0  0  0  0  0  0  0  0  0  0  0
   -5.5137    0.0789    0.8753 C   0  0  0  0  0  0  0  0  0  0  0  0
   -4.7683    1.4242    0.8545 C   0  0  0  0  0  0  0  0  0  0  0  0
   -3.5876    1.5148   -0.1185 C   0  0  0  0  0  0  0  0  0  0  0  0
   -2.8825    2.8678    0.0329 C   0  0  0  0  0  0  0  0  0  0  0  0
   -1.5659    2.9796   -0.5719 N   0  0  0  0  0  0  0  0  0  0  0  0
   -1.0861    2.2121   -1.6117 C   0  0  0  0  0  0  0  0  0  0  0  0
   -1.7424    1.4293   -2.2840 O   0  0  0  0  0  0  0  0  0  0  0  0
    0.2768    2.3607   -1.7716 N   0  0  0  0  0  0  0  0  0  0  0  0
    1.1062    1.3244   -2.5154 C   0  0  0  0  0  0  0  0  0  0  0  0
    2.4805    1.3219   -1.7441 C   0  0  0  0  0  0  0  0  0  0  0  0
    3.3203    0.0454   -1.6680 C   0  0  0  0  0  0  0  0  0  0  0  0
    3.6900   -0.6426   -0.3105 C   0  0  0  0  0  0  0  0  0  0  0  0
    3.2437   -2.1401   -0.1768 C   0  0  0  0  0  0  0  0  0  0  0  0
    4.1160   -3.0003   -0.0581 O   0  0  0  0  0  0  0  0  0  0  0  0
    1.8956   -2.4879   -0.0447 N   0  0  0  0  0  0  0  0  0  0  0  0
    1.0627   -2.4606   -1.2418 C   0  0  0  0  0  0  0  0  0  0  0  0
    1.6604   -3.6713    0.7833 C   0  0  0  0  0  0  0  0  0  0  0  0
    3.7465    0.1766    1.0721 C   0  0  0  0  0  0  0  0  0  0  0  0
    3.8455   -0.8034    2.2749 C   0  0  0  0  0  0  0  0  0  0  0  0
    5.0484    1.0291    1.1181 C   0  0  0  0  0  0  0  0  0  0  0  0
    2.5067    1.0951    1.3718 C   0  0  0  0  0  0  0  0  0  0  0  0
    1.2623    0.7573    0.5395 C   0  0  0  0  0  0  0  0  0  0  0  0
    1.9341    1.7464   -0.4429 C   0  0  0  0  0  0  0  0  0  0  0  0
    1.1915    3.0289   -0.8151 C   0  0  0  0  0  0  0  0  0  0  0  0
    1.3227    3.2940    0.6953 C   0  0  0  0  0  0  0  0  0  0  0  0
    2.6026    2.4277    0.6523 N   0  0  0  0  0  0  0  0  0  0  0  0
   -4.5592   -4.0826   -2.0197 H   0  0  0  0  0  0  0  0  0  0  0  0
   -4.9496   -4.6372   -0.3930 H   0  0  0  0  0  0  0  0  0  0  0  0
   -3.2484   -4.3290   -0.8476 H   0  0  0  0  0  0  0  0  0  0  0  0
   -4.9935   -3.1820    1.3293 H   0  0  0  0  0  0  0  0  0  0  0  0
   -4.8482   -1.2298    2.4658 H   0  0  0  0  0  0  0  0  0  0  0  0
   -3.5892   -0.8791    1.2868 H   0  0  0  0  0  0  0  0  0  0  0  0
   -6.3746    0.1903    1.5502 H   0  0  0  0  0  0  0  0  0  0  0  0
   -5.9411   -0.1228   -0.1103 H   0  0  0  0  0  0  0  0  0  0  0  0
   -5.4834    2.2086    0.5803 H   0  0  0  0  0  0  0  0  0  0  0  0
   -4.4212    1.6522    1.8684 H   0  0  0  0  0  0  0  0  0  0  0  0
   -3.9716    1.4247   -1.1434 H   0  0  0  0  0  0  0  0  0  0  0  0
   -2.8716    0.7002    0.0362 H   0  0  0  0  0  0  0  0  0  0  0  0
   -3.5246    3.6710   -0.3542 H   0  0  0  0  0  0  0  0  0  0  0  0
   -2.7198    3.0830    1.1025 H   0  0  0  0  0  0  0  0  0  0  0  0
   -1.1521    3.9026   -0.5570 H   0  0  0  0  0  0  0  0  0  0  0  0
    1.2437    1.6344   -3.5552 H   0  0  0  0  0  0  0  0  0  0  0  0
    0.5935    0.3615   -2.4964 H   0  0  0  0  0  0  0  0  0  0  0  0
    3.0993    2.1134   -2.2021 H   0  0  0  0  0  0  0  0  0  0  0  0
    4.2948    0.3621   -2.0718 H   0  0  0  0  0  0  0  0  0  0  0  0
    2.9732   -0.6894   -2.3988 H   0  0  0  0  0  0  0  0  0  0  0  0
    4.7679   -0.8321   -0.4751 H   0  0  0  0  0  0  0  0  0  0  0  0
    0.0248   -2.6915   -0.9685 H   0  0  0  0  0  0  0  0  0  0  0  0
    1.4326   -3.2051   -1.9606 H   0  0  0  0  0  0  0  0  0  0  0  0
    1.0977   -1.4798   -1.7067 H   0  0  0  0  0  0  0  0  0  0  0  0
    1.7346   -4.5792    0.1699 H   0  0  0  0  0  0  0  0  0  0  0  0
    2.3961   -3.7257    1.5974 H   0  0  0  0  0  0  0  0  0  0  0  0
    0.6603   -3.5930    1.2277 H   0  0  0  0  0  0  0  0  0  0  0  0
    2.9192   -1.3682    2.4070 H   0  0  0  0  0  0  0  0  0  0  0  0
    4.0160   -0.2762    3.2230 H   0  0  0  0  0  0  0  0  0  0  0  0
    4.6736   -1.5121    2.1584 H   0  0  0  0  0  0  0  0  0  0  0  0
    5.9435    0.3954    1.0657 H   0  0  0  0  0  0  0  0  0  0  0  0
    5.1226    1.6202    2.0399 H   0  0  0  0  0  0  0  0  0  0  0  0
    5.1096    1.7239    0.2748 H   0  0  0  0  0  0  0  0  0  0  0  0
    2.3177    1.2219    2.4430 H   0  0  0  0  0  0  0  0  0  0  0  0
    0.3144    1.0224    1.0124 H   0  0  0  0  0  0  0  0  0  0  0  0
    1.1465   -0.2655    0.2192 H   0  0  0  0  0  0  0  0  0  0  0  0
    1.7455    3.7942   -1.3791 H   0  0  0  0  0  0  0  0  0  0  0  0
    0.5091    2.9797    1.3593 H   0  0  0  0  0  0  0  0  0  0  0  0
    1.5372    4.3454    0.9169 H   0  0  0  0  0  0  0  0  0  0  0  0
  2  1  1  0  0  0  0
  3  2  2  0  0  0  0
  4  2  1  0  0  0  0
  5  4  1  0  0  0  0
  6  5  1  0  0  0  0
  7  6  1  0  0  0  0
  8  7  1  0  0  0  0
  9  8  1  0  0  0  0
 10  9  1  0  0  0  0
 11 10  1  0  0  0  0
 12 11  2  0  0  0  0
 13 11  1  0  0  0  0
 14 13  1  0  0  0  0
 15 14  1  0  0  0  0
 16 15  1  0  0  0  0
 17 16  1  0  0  0  0
 18 17  1  0  0  0  0
 19 18  2  0  0  0  0
 20 18  1  0  0  0  0
 21 20  1  0  0  0  0
 22 20  1  0  0  0  0
 23 17  1  0  0  0  0
 24 23  1  0  0  0  0
 25 23  1  0  0  0  0
 26 23  1  0  0  0  0
 27 26  1  0  0  0  0
 28 27  1  0  0  0  0
 28 15  1  0  0  0  0
 29 28  1  0  0  0  0
 29 13  1  0  0  0  0
 30 29  1  0  0  0  0
 31 30  1  0  0  0  0
 31 26  1  0  0  0  0
 31 28  1  0  0  0  0
  1 32  1  0  0  0  0
  1 33  1  0  0  0  0
  1 34  1  0  0  0  0
  4 35  1  0  0  0  0
  5 36  1  0  0  0  0
  5 37  1  0  0  0  0
  6 38  1  0  0  0  0
  6 39  1  0  0  0  0
  7 40  1  0  0  0  0
  7 41  1  0  0  0  0
  8 42  1  0  0  0  0
  8 43  1  0  0  0  0
  9 44  1  0  0  0  0
  9 45  1  0  0  0  0
 10 46  1  0  0  0  0
 14 47  1  0  0  0  0
 14 48  1  0  0  0  0
 15 49  1  0  0  0  0
 16 50  1  0  0  0  0
 16 51  1  0  0  0  0
 17 52  1  0  0  0  0
 21 53  1  0  0  0  0
 21 54  1  0  0  0  0
 21 55  1  0  0  0  0
 22 56  1  0  0  0  0
 22 57  1  0  0  0  0
 22 58  1  0  0  0  0
 24 59  1  0  0  0  0
 24 60  1  0  0  0  0
 24 61  1  0  0  0  0
 25 62  1  0  0  0  0
 25 63  1  0  0  0  0
 25 64  1  0  0  0  0
 26 65  1  0  0  0  0
 27 66  1  0  0  0  0
 27 67  1  0  0  0  0
 29 68  1  0  0  0  0
 30 69  1  0  0  0  0
 30 70  1  0  0  0  0
M  END
>  <energy>
60.699196727600025

$$$$
