CC(C)CNC(=S)N1C2NC(CNC(=O)CC[N+](C)(C)C)C(=O)C1C1CC3CC2C31
                    3D

 68 71  0  0  0  0  0  0  0  0999 V2000
   -2.2572   -3.4184   -1.3306 C   0  0  0  0  0  0  0  0  0  0  0  0
   -1.1368   -3.4914   -0.2890 C   0  0  0  0  0  0  0  0  0  0  0  0
   -1.3268   -4.7664    0.5404 C   0  0  0  0  0  0  0  0  0  0  0  0
    0.2972   -3.4610   -0.8689 C   0  0  0  0  0  0  0  0  0  0  0  0
    0.4670   -2.5321   -1.9916 N   0  0  0  0  0  0  0  0  0  0  0  0
    0.8741   -1.2465   -2.1221 C   0  0  0  0  0  0  0  0  0  0  0  0
    0.0972   -0.4145   -3.3660 S   0  0  0  0  0  0  0  0  0  0  0  0
    1.8543   -0.7050   -1.3187 N   0  0  0  0  0  0  0  0  0  0  0  0
    1.9652    0.7633   -1.1489 C   0  0  0  0  0  0  0  0  0  0  0  0
    1.4694    1.0536    0.2195 N   0  0  0  0  0  0  0  0  0  0  0  0
    1.2634   -0.1727    1.0603 C   0  0  0  0  0  0  0  0  0  0  0  0
    0.8940    0.2575    2.4888 C   0  0  0  0  0  0  0  0  0  0  0  0
   -0.3153    1.0927    2.3709 N   0  0  0  0  0  0  0  0  0  0  0  0
   -1.5442    0.5073    2.5734 C   0  0  0  0  0  0  0  0  0  0  0  0
   -1.6992   -0.4941    3.2647 O   0  0  0  0  0  0  0  0  0  0  0  0
   -2.7028    1.0597    1.7686 C   0  0  0  0  0  0  0  0  0  0  0  0
   -2.7557    2.5769    1.6668 C   0  0  0  0  0  0  0  0  0  0  0  0
   -3.9571    3.0962    0.8256 N   0  3  0  0  0  0  0  0  0  0  0  0
   -5.2805    2.8645    1.5507 C   0  0  0  0  0  0  0  0  0  0  0  0
   -4.0100    2.4399   -0.5542 C   0  0  0  0  0  0  0  0  0  0  0  0
   -3.7823    4.6067    0.6292 C   0  0  0  0  0  0  0  0  0  0  0  0
    2.4616   -1.1169    0.9554 C   0  0  0  0  0  0  0  0  0  0  0  0
    3.0629   -1.5380    1.9364 O   0  0  0  0  0  0  0  0  0  0  0  0
    2.8235   -1.5008   -0.4739 C   0  0  0  0  0  0  0  0  0  0  0  0
    4.1532   -1.0351   -1.0181 C   0  0  0  0  0  0  0  0  0  0  0  0
    5.6957   -0.9734   -1.1260 C   0  0  0  0  0  0  0  0  0  0  0  0
    5.5138    0.5717   -1.4206 C   0  0  0  0  0  0  0  0  0  0  0  0
    4.4645    1.0786   -2.4886 C   0  0  0  0  0  0  0  0  0  0  0  0
    3.4229    1.2911   -1.3114 C   0  0  0  0  0  0  0  0  0  0  0  0
    4.3341    0.4234   -0.4854 C   0  0  0  0  0  0  0  0  0  0  0  0
   -2.1212   -4.1586   -2.1251 H   0  0  0  0  0  0  0  0  0  0  0  0
   -2.3126   -2.4242   -1.7822 H   0  0  0  0  0  0  0  0  0  0  0  0
   -3.2270   -3.6090   -0.8552 H   0  0  0  0  0  0  0  0  0  0  0  0
   -1.2578   -2.6288    0.3756 H   0  0  0  0  0  0  0  0  0  0  0  0
   -2.3065   -4.7633    1.0246 H   0  0  0  0  0  0  0  0  0  0  0  0
   -1.2711   -5.6620   -0.0887 H   0  0  0  0  0  0  0  0  0  0  0  0
   -0.5673   -4.8557    1.3212 H   0  0  0  0  0  0  0  0  0  0  0  0
    0.5692   -4.4491   -1.2582 H   0  0  0  0  0  0  0  0  0  0  0  0
    0.9767   -3.2345   -0.0458 H   0  0  0  0  0  0  0  0  0  0  0  0
   -0.1260   -2.7826   -2.7810 H   0  0  0  0  0  0  0  0  0  0  0  0
    1.3434    1.3315   -1.8396 H   0  0  0  0  0  0  0  0  0  0  0  0
    2.1657    1.6352    0.6842 H   0  0  0  0  0  0  0  0  0  0  0  0
    0.3889   -0.7182    0.6744 H   0  0  0  0  0  0  0  0  0  0  0  0
    1.6830    0.8715    2.9375 H   0  0  0  0  0  0  0  0  0  0  0  0
    0.7189   -0.6117    3.1302 H   0  0  0  0  0  0  0  0  0  0  0  0
   -0.2091    1.7539    1.6118 H   0  0  0  0  0  0  0  0  0  0  0  0
   -3.6163    0.6863    2.2473 H   0  0  0  0  0  0  0  0  0  0  0  0
   -2.6306    0.5943    0.7785 H   0  0  0  0  0  0  0  0  0  0  0  0
   -2.8383    3.0417    2.6561 H   0  0  0  0  0  0  0  0  0  0  0  0
   -1.8609    2.9652    1.1696 H   0  0  0  0  0  0  0  0  0  0  0  0
   -5.4183    1.7927    1.7017 H   0  0  0  0  0  0  0  0  0  0  0  0
   -6.0907    3.2586    0.9274 H   0  0  0  0  0  0  0  0  0  0  0  0
   -5.2461    3.3906    2.5094 H   0  0  0  0  0  0  0  0  0  0  0  0
   -4.7137    2.9958   -1.1817 H   0  0  0  0  0  0  0  0  0  0  0  0
   -3.0044    2.4681   -0.9861 H   0  0  0  0  0  0  0  0  0  0  0  0
   -4.3549    1.4089   -0.4370 H   0  0  0  0  0  0  0  0  0  0  0  0
   -4.6544    4.9965    0.0941 H   0  0  0  0  0  0  0  0  0  0  0  0
   -2.8727    4.7773    0.0465 H   0  0  0  0  0  0  0  0  0  0  0  0
   -3.7010    5.0768    1.6128 H   0  0  0  0  0  0  0  0  0  0  0  0
    2.7165   -2.5692   -0.6411 H   0  0  0  0  0  0  0  0  0  0  0  0
    3.9345   -1.2416   -2.0833 H   0  0  0  0  0  0  0  0  0  0  0  0
    6.1424   -1.5461   -1.9444 H   0  0  0  0  0  0  0  0  0  0  0  0
    6.2315   -1.2022   -0.1982 H   0  0  0  0  0  0  0  0  0  0  0  0
    6.3017    1.2596   -1.1134 H   0  0  0  0  0  0  0  0  0  0  0  0
    4.1750    0.3709   -3.2717 H   0  0  0  0  0  0  0  0  0  0  0  0
    4.7616    2.0066   -2.9923 H   0  0  0  0  0  0  0  0  0  0  0  0
    3.4544    2.3471   -0.9957 H   0  0  0  0  0  0  0  0  0  0  0  0
    4.4912    0.6110    0.5805 H   0  0  0  0  0  0  0  0  0  0  0  0
  2  1  1  0  0  0  0
  3  2  1  0  0  0  0
  4  2  1  0  0  0  0
  5  4  1  0  0  0  0
  6  5  1  0  0  0  0
  7  6  2  0  0  0  0
  8  6  1  0  0  0  0
  9  8  1  0  0  0  0
 10  9  1  0  0  0  0
 11 10  1  0  0  0  0
 12 11  1  0  0  0  0
 13 12  1  0  0  0  0
 14 13  1  0  0  0  0
 15 14  2  0  0  0  0
 16 14  1  0  0  0  0
 17 16  1  0  0  0  0
 18 17  1  0  0  0  0
 19 18  1  0  0  0  0
 20 18  1  0  0  0  0
 21 18  1  0  0  0  0
 22 11  1  0  0  0  0
 23 22  2  0  0  0  0
 24 22  1  0  0  0  0
 24  8  1  0  0  0  0
 25 24  1  0  0  0  0
 26 25  1  0  0  0  0
 27 26  1  0  0  0  0
 28 27  1  0  0  0  0
 29 28  1  0  0  0  0
 29  9  1  0  0  0  0
 30 29  1  0  0  0  0
 30 27  1  0  0  0  0
 30 25  1  0  0  0  0
  1 31  1  0  0  0  0
  1 32  1  0  0  0  0
  1 33  1  0  0  0  0
  2 34  1  0  0  0  0
  3 35  1  0  0  0  0
  3 36  1  0  0  0  0
  3 37  1  0  0  0  0
  4 38  1  0  0  0  0
  4 39  1  0  0  0  0
  5 40  1  0  0  0  0
  9 41  1  0  0  0  0
 10 42  1  0  0  0  0
 11 43  1  0  0  0  0
 12 44  1  0  0  0  0
 12 45  1  0  0  0  0
 13 46  1  0  0  0  0
 16 47  1  0  0  0  0
 16 48  1  0  0  0  0
 17 49  1  0  0  0  0
 17 50  1  0  0  0  0
 19 51  1  0  0  0  0
 19 52  1  0  0  0  0
 19 53  1  0  0  0  0
 20 54  1  0  0  0  0
 20 55  1  0  0  0  0
 20 56  1  0  0  0  0
 21 57  1  0  0  0  0
 21 58  1  0  0  0  0
 21 59  1  0  0  0  0
 24 60  1  0  0  0  0
 25 61  1  0  0  0  0
 26 62  1  0  0  0  0
 26 63  1  0  0  0  0
 27 64  1  0  0  0  0
 28 65  1  0  0  0  0
 28 66  1  0  0  0  0
 29 67  1  0  0  0  0
 30 68  1  0  0  0  0
M  CHG  1  18   1
M  END
>  <energy>
60.53198370502885

$$$$
