CC(=O)N=CC12C3CC4C5C3C1C4C52C(=O)NCC(=O)NCC#CCCC[n+]1ccc[nH]1
                    3D

 60 65  0  0  0  0  0  0  0  0999 V2000
    0.1689   -0.3832    4.2521 C   0  0  0  0  0  0  0  0  0  0  0  0
   -1.0896    0.0437    3.5415 C   0  0  0  0  0  0  0  0  0  0  0  0
   -2.1894   -0.3645    3.8997 O   0  0  0  0  0  0  0  0  0  0  0  0
   -0.8621    0.8390    2.4403 N   0  0  0  0  0  0  0  0  0  0  0  0
   -1.9281    1.3244    1.8870 C   0  0  0  0  0  0  0  0  0  0  0  0
   -1.8531    2.1003    0.5804 C   0  0  0  0  0  0  0  0  0  0  0  0
   -2.9887    3.4712    0.2372 C   0  0  0  0  0  0  0  0  0  0  0  0
   -3.2392    4.0199   -1.4761 C   0  0  0  0  0  0  0  0  0  0  0  0
   -1.8849    3.1384   -2.3184 C   0  0  0  0  0  0  0  0  0  0  0  0
   -2.5582    2.3046   -1.4106 C   0  0  0  0  0  0  0  0  0  0  0  0
   -1.7936    3.7966   -0.4233 C   0  0  0  0  0  0  0  0  0  0  0  0
   -0.7102    2.9817    0.1151 C   0  0  0  0  0  0  0  0  0  0  0  0
   -0.5651    2.3538   -1.3139 C   0  0  0  0  0  0  0  0  0  0  0  0
   -1.6268    1.3702   -0.7956 C   0  0  0  0  0  0  0  0  0  0  0  0
   -1.5415   -0.1384   -0.7989 C   0  0  0  0  0  0  0  0  0  0  0  0
   -0.5426   -0.7341   -0.3827 O   0  0  0  0  0  0  0  0  0  0  0  0
   -2.6766   -0.8160   -1.2027 N   0  0  0  0  0  0  0  0  0  0  0  0
   -2.8475   -2.2267   -0.8960 C   0  0  0  0  0  0  0  0  0  0  0  0
   -1.9823   -3.1312   -1.7789 C   0  0  0  0  0  0  0  0  0  0  0  0
   -1.6613   -2.8442   -2.9288 O   0  0  0  0  0  0  0  0  0  0  0  0
   -1.6129   -4.3116   -1.1539 N   0  0  0  0  0  0  0  0  0  0  0  0
   -0.3807   -4.9571   -1.5376 C   0  0  0  0  0  0  0  0  0  0  0  0
    0.7131   -4.2803   -0.8264 C   0  0  0  0  0  0  0  0  0  0  0  0
    1.5036   -3.5947   -0.2279 C   0  0  0  0  0  0  0  0  0  0  0  0
    2.3578   -2.6432    0.4911 C   0  0  0  0  0  0  0  0  0  0  0  0
    3.6628   -2.4061   -0.2607 C   0  0  0  0  0  0  0  0  0  0  0  0
    4.5262   -1.3494    0.4218 C   0  0  0  0  0  0  0  0  0  0  0  0
    4.0351   -0.0038    0.2141 N   0  3  0  0  0  0  0  0  0  0  0  0
    3.5779    0.8776    1.1738 C   0  0  0  0  0  0  0  0  0  0  0  0
    3.2807    2.1352    0.5403 C   0  0  0  0  0  0  0  0  0  0  0  0
    3.5774    1.9774   -0.8199 C   0  0  0  0  0  0  0  0  0  0  0  0
    4.0257    0.6739   -0.9928 N   0  0  0  0  0  0  0  0  0  0  0  0
    0.4112   -1.4111    3.9640 H   0  0  0  0  0  0  0  0  0  0  0  0
    1.0013    0.2753    3.9897 H   0  0  0  0  0  0  0  0  0  0  0  0
    0.0149   -0.3330    5.3344 H   0  0  0  0  0  0  0  0  0  0  0  0
   -2.9456    1.1830    2.3000 H   0  0  0  0  0  0  0  0  0  0  0  0
   -3.2495    4.2034    1.0058 H   0  0  0  0  0  0  0  0  0  0  0  0
   -4.2467    3.7404   -1.8346 H   0  0  0  0  0  0  0  0  0  0  0  0
   -3.1461    5.1177   -1.5969 H   0  0  0  0  0  0  0  0  0  0  0  0
   -2.0723    2.8803   -3.3618 H   0  0  0  0  0  0  0  0  0  0  0  0
   -3.5976    1.9491   -1.4933 H   0  0  0  0  0  0  0  0  0  0  0  0
   -1.4629    4.8093   -0.7266 H   0  0  0  0  0  0  0  0  0  0  0  0
    0.0682    3.4070    0.7366 H   0  0  0  0  0  0  0  0  0  0  0  0
    0.3788    2.0104   -1.7276 H   0  0  0  0  0  0  0  0  0  0  0  0
   -3.4504   -0.3277   -1.6340 H   0  0  0  0  0  0  0  0  0  0  0  0
   -2.5767   -2.3676    0.1555 H   0  0  0  0  0  0  0  0  0  0  0  0
   -3.9000   -2.4887   -1.0308 H   0  0  0  0  0  0  0  0  0  0  0  0
   -1.8660   -4.4241   -0.1811 H   0  0  0  0  0  0  0  0  0  0  0  0
   -0.4471   -6.0081   -1.2458 H   0  0  0  0  0  0  0  0  0  0  0  0
   -0.2388   -4.8970   -2.6196 H   0  0  0  0  0  0  0  0  0  0  0  0
    2.5666   -3.0230    1.4970 H   0  0  0  0  0  0  0  0  0  0  0  0
    1.8186   -1.6976    0.6187 H   0  0  0  0  0  0  0  0  0  0  0  0
    3.4522   -2.1064   -1.2963 H   0  0  0  0  0  0  0  0  0  0  0  0
    4.2242   -3.3489   -0.3163 H   0  0  0  0  0  0  0  0  0  0  0  0
    4.6151   -1.5482    1.4972 H   0  0  0  0  0  0  0  0  0  0  0  0
    5.5421   -1.3891    0.0094 H   0  0  0  0  0  0  0  0  0  0  0  0
    3.4843    0.6270    2.2226 H   0  0  0  0  0  0  0  0  0  0  0  0
    2.9059    3.0363    1.0100 H   0  0  0  0  0  0  0  0  0  0  0  0
    3.5071    2.6633   -1.6587 H   0  0  0  0  0  0  0  0  0  0  0  0
    4.3140    0.2445   -1.8665 H   0  0  0  0  0  0  0  0  0  0  0  0
  2  1  1  0  0  0  0
  3  2  2  0  0  0  0
  4  2  1  0  0  0  0
  5  4  2  0  0  0  0
  6  5  1  0  0  0  0
  7  6  1  0  0  0  0
  8  7  1  0  0  0  0
  9  8  1  0  0  0  0
 10  9  1  0  0  0  0
 11 10  1  0  0  0  0
 11  7  1  0  0  0  0
 12 11  1  0  0  0  0
 12  6  1  0  0  0  0
 13 12  1  0  0  0  0
 13  9  1  0  0  0  0
 14 13  1  0  0  0  0
 14 10  1  0  0  0  0
 14  6  1  0  0  0  0
 15 14  1  0  0  0  0
 16 15  2  0  0  0  0
 17 15  1  0  0  0  0
 18 17  1  0  0  0  0
 19 18  1  0  0  0  0
 20 19  2  0  0  0  0
 21 19  1  0  0  0  0
 22 21  1  0  0  0  0
 23 22  1  0  0  0  0
 24 23  3  0  0  0  0
 25 24  1  0  0  0  0
 26 25  1  0  0  0  0
 27 26  1  0  0  0  0
 28 27  1  0  0  0  0
 29 28  2  0  0  0  0
 30 29  1  0  0  0  0
 31 30  2  0  0  0  0
 32 31  1  0  0  0  0
 32 28  1  0  0  0  0
  1 33  1  0  0  0  0
  1 34  1  0  0  0  0
  1 35  1  0  0  0  0
  5 36  1  0  0  0  0
  7 37  1  0  0  0  0
  8 38  1  0  0  0  0
  8 39  1  0  0  0  0
  9 40  1  0  0  0  0
 10 41  1  0  0  0  0
 11 42  1  0  0  0  0
 12 43  1  0  0  0  0
 13 44  1  0  0  0  0
 17 45  1  0  0  0  0
 18 46  1  0  0  0  0
 18 47  1  0  0  0  0
 21 48  1  0  0  0  0
 22 49  1  0  0  0  0
 22 50  1  0  0  0  0
 25 51  1  0  0  0  0
 25 52  1  0  0  0  0
 26 53  1  0  0  0  0
 26 54  1  0  0  0  0
 27 55  1  0  0  0  0
 27 56  1  0  0  0  0
 29 57  1  0  0  0  0
 30 58  1  0  0  0  0
 31 59  1  0  0  0  0
 32 60  1  0  0  0  0
M  CHG  1  28   1
M  END
>  <energy>
328.34454100782932

$$$$
