CC(C)CC(NC(=O)C(NC(=O)OC(C)(C)C)C(C)C)C(=O)NC(C(=O)NC12CC3CC4CC(C1)C3C2O4)C(C)(C
                    3D

 96 99  0  0  0  0  0  0  0  0999 V2000
    0.5198   -4.8735    1.2043 C   0  0  0  0  0  0  0  0  0  0  0  0
    2.0182   -4.7579    0.9410 C   0  0  0  0  0  0  0  0  0  0  0  0
    2.6818   -4.0819    2.1442 C   0  0  0  0  0  0  0  0  0  0  0  0
    2.3829   -4.0711   -0.3990 C   0  0  0  0  0  0  0  0  0  0  0  0
    1.9169   -2.6156   -0.6108 C   0  0  0  0  0  0  0  0  0  0  0  0
    0.4895   -2.4026   -0.8943 N   0  0  0  0  0  0  0  0  0  0  0  0
   -0.4055   -3.2651   -1.5202 C   0  0  0  0  0  0  0  0  0  0  0  0
   -0.0750   -4.2653   -2.1494 O   0  0  0  0  0  0  0  0  0  0  0  0
   -1.9002   -2.8171   -1.3517 C   0  0  0  0  0  0  0  0  0  0  0  0
   -1.9270   -2.2739    0.0162 N   0  0  0  0  0  0  0  0  0  0  0  0
   -2.9687   -1.9566    0.8081 C   0  0  0  0  0  0  0  0  0  0  0  0
   -4.1491   -2.1476    0.5719 O   0  0  0  0  0  0  0  0  0  0  0  0
   -2.4463   -1.3234    1.8806 O   0  0  0  0  0  0  0  0  0  0  0  0
   -3.2718   -0.5754    2.8043 C   0  0  0  0  0  0  0  0  0  0  0  0
   -2.2489    0.1831    3.6664 C   0  0  0  0  0  0  0  0  0  0  0  0
   -4.0932   -1.5170    3.6822 C   0  0  0  0  0  0  0  0  0  0  0  0
   -4.1454    0.4511    2.0789 C   0  0  0  0  0  0  0  0  0  0  0  0
   -2.2927   -1.7523   -2.4115 C   0  0  0  0  0  0  0  0  0  0  0  0
   -3.7443   -1.2787   -2.2844 C   0  0  0  0  0  0  0  0  0  0  0  0
   -2.0888   -2.2809   -3.8361 C   0  0  0  0  0  0  0  0  0  0  0  0
    2.8294   -1.9027   -1.6392 C   0  0  0  0  0  0  0  0  0  0  0  0
    3.1297   -2.4175   -2.7206 O   0  0  0  0  0  0  0  0  0  0  0  0
    3.2948   -0.6392   -1.3832 N   0  0  0  0  0  0  0  0  0  0  0  0
    2.9070    0.3322   -0.3550 C   0  0  0  0  0  0  0  0  0  0  0  0
    2.5751    1.6605   -1.0848 C   0  0  0  0  0  0  0  0  0  0  0  0
    3.4163    2.5013   -1.3890 O   0  0  0  0  0  0  0  0  0  0  0  0
    1.2485    1.8165   -1.4309 N   0  0  0  0  0  0  0  0  0  0  0  0
    0.5595    2.9828   -0.9542 C   0  0  0  0  0  0  0  0  0  0  0  0
   -0.2717    2.6929    0.3172 C   0  0  0  0  0  0  0  0  0  0  0  0
   -1.3227    3.8018    0.4148 C   0  0  0  0  0  0  0  0  0  0  0  0
   -2.7077    3.8143   -0.4052 C   0  0  0  0  0  0  0  0  0  0  0  0
   -2.4236    4.2436   -1.9809 C   0  0  0  0  0  0  0  0  0  0  0  0
   -1.2377    5.6033   -2.3547 C   0  0  0  0  0  0  0  0  0  0  0  0
    0.1711    5.5250   -1.2648 C   0  0  0  0  0  0  0  0  0  0  0  0
    1.2978    4.4067   -1.0610 C   0  0  0  0  0  0  0  0  0  0  0  0
   -0.7750    4.7903   -0.4992 C   0  0  0  0  0  0  0  0  0  0  0  0
   -0.4923    3.5362   -1.8090 C   0  0  0  0  0  0  0  0  0  0  0  0
   -1.7005    3.0359   -2.2533 O   0  0  0  0  0  0  0  0  0  0  0  0
    3.9744    0.5380    0.7794 C   0  0  0  0  0  0  0  0  0  0  0  0
    5.3151    1.1127    0.2796 C   0  0  0  0  0  0  0  0  0  0  0  0
    3.3956    1.4998    1.8431 C   0  0  0  0  0  0  0  0  0  0  0  0
    4.2863   -0.7903    1.4920 C   0  0  0  0  0  0  0  0  0  0  0  0
    0.0753   -3.9023    1.4441 H   0  0  0  0  0  0  0  0  0  0  0  0
    0.3350   -5.5328    2.0588 H   0  0  0  0  0  0  0  0  0  0  0  0
   -0.0037   -5.3071    0.3500 H   0  0  0  0  0  0  0  0  0  0  0  0
    2.4200   -5.7815    0.8823 H   0  0  0  0  0  0  0  0  0  0  0  0
    2.5805   -4.7083    3.0377 H   0  0  0  0  0  0  0  0  0  0  0  0
    2.2170   -3.1162    2.3739 H   0  0  0  0  0  0  0  0  0  0  0  0
    3.7514   -3.9243    1.9721 H   0  0  0  0  0  0  0  0  0  0  0  0
    2.0572   -4.7091   -1.2268 H   0  0  0  0  0  0  0  0  0  0  0  0
    3.4809   -4.0851   -0.4587 H   0  0  0  0  0  0  0  0  0  0  0  0
    2.0642   -2.1058    0.3415 H   0  0  0  0  0  0  0  0  0  0  0  0
    0.1734   -1.4435   -0.8713 H   0  0  0  0  0  0  0  0  0  0  0  0
   -2.5516   -3.6998   -1.3886 H   0  0  0  0  0  0  0  0  0  0  0  0
   -1.0528   -2.2499    0.5220 H   0  0  0  0  0  0  0  0  0  0  0  0
   -2.7285    0.8657    4.3778 H   0  0  0  0  0  0  0  0  0  0  0  0
   -1.5707    0.7689    3.0290 H   0  0  0  0  0  0  0  0  0  0  0  0
   -1.6156   -0.5136    4.2304 H   0  0  0  0  0  0  0  0  0  0  0  0
   -4.8314   -2.0740    3.0960 H   0  0  0  0  0  0  0  0  0  0  0  0
   -4.6307   -0.9754    4.4677 H   0  0  0  0  0  0  0  0  0  0  0  0
   -3.4527   -2.2663    4.1582 H   0  0  0  0  0  0  0  0  0  0  0  0
   -4.5407    1.2043    2.7649 H   0  0  0  0  0  0  0  0  0  0  0  0
   -5.0051   -0.0175    1.5908 H   0  0  0  0  0  0  0  0  0  0  0  0
   -3.5801    0.9653    1.2956 H   0  0  0  0  0  0  0  0  0  0  0  0
   -1.6479   -0.8714   -2.2957 H   0  0  0  0  0  0  0  0  0  0  0  0
   -4.4371   -2.1247   -2.2381 H   0  0  0  0  0  0  0  0  0  0  0  0
   -3.8827   -0.6521   -1.4005 H   0  0  0  0  0  0  0  0  0  0  0  0
   -4.0312   -0.6605   -3.1405 H   0  0  0  0  0  0  0  0  0  0  0  0
   -2.5688   -3.2554   -3.9714 H   0  0  0  0  0  0  0  0  0  0  0  0
   -1.0248   -2.3833   -4.0742 H   0  0  0  0  0  0  0  0  0  0  0  0
   -2.5191   -1.5963   -4.5763 H   0  0  0  0  0  0  0  0  0  0  0  0
    3.8901   -0.2889   -2.1298 H   0  0  0  0  0  0  0  0  0  0  0  0
    1.9743   -0.0132    0.1083 H   0  0  0  0  0  0  0  0  0  0  0  0
    0.6843    0.9797   -1.4840 H   0  0  0  0  0  0  0  0  0  0  0  0
   -0.7632    1.7158    0.2768 H   0  0  0  0  0  0  0  0  0  0  0  0
    0.3892    2.6995    1.1940 H   0  0  0  0  0  0  0  0  0  0  0  0
   -1.4745    4.1157    1.4493 H   0  0  0  0  0  0  0  0  0  0  0  0
   -3.1664    2.8208   -0.3558 H   0  0  0  0  0  0  0  0  0  0  0  0
   -3.4020    4.5422    0.0338 H   0  0  0  0  0  0  0  0  0  0  0  0
   -3.3282    4.3363   -2.5863 H   0  0  0  0  0  0  0  0  0  0  0  0
   -0.9001    5.5348   -3.3972 H   0  0  0  0  0  0  0  0  0  0  0  0
   -1.7636    6.5555   -2.1905 H   0  0  0  0  0  0  0  0  0  0  0  0
    0.4511    6.5146   -0.9011 H   0  0  0  0  0  0  0  0  0  0  0  0
    1.9871    4.4658   -1.9129 H   0  0  0  0  0  0  0  0  0  0  0  0
    1.8672    4.6013   -0.1407 H   0  0  0  0  0  0  0  0  0  0  0  0
   -1.5288    5.5886   -0.3404 H   0  0  0  0  0  0  0  0  0  0  0  0
    0.0138    3.8166   -2.7591 H   0  0  0  0  0  0  0  0  0  0  0  0
    5.2471    2.1737    0.0192 H   0  0  0  0  0  0  0  0  0  0  0  0
    6.0873    1.0510    1.0570 H   0  0  0  0  0  0  0  0  0  0  0  0
    5.6888    0.5689   -0.5928 H   0  0  0  0  0  0  0  0  0  0  0  0
    2.4763    1.0890    2.2777 H   0  0  0  0  0  0  0  0  0  0  0  0
    4.1098    1.6581    2.6610 H   0  0  0  0  0  0  0  0  0  0  0  0
    3.1573    2.4829    1.4200 H   0  0  0  0  0  0  0  0  0  0  0  0
    4.9980   -0.6408    2.3131 H   0  0  0  0  0  0  0  0  0  0  0  0
    4.7229   -1.5297    0.8126 H   0  0  0  0  0  0  0  0  0  0  0  0
    3.3807   -1.2087    1.9350 H   0  0  0  0  0  0  0  0  0  0  0  0
  2  1  1  0  0  0  0
  3  2  1  0  0  0  0
  4  2  1  0  0  0  0
  5  4  1  0  0  0  0
  6  5  1  0  0  0  0
  7  6  1  0  0  0  0
  8  7  2  0  0  0  0
  9  7  1  0  0  0  0
 10  9  1  0  0  0  0
 11 10  1  0  0  0  0
 12 11  2  0  0  0  0
 13 11  1  0  0  0  0
 14 13  1  0  0  0  0
 15 14  1  0  0  0  0
 16 14  1  0  0  0  0
 17 14  1  0  0  0  0
 18  9  1  0  0  0  0
 19 18  1  0  0  0  0
 20 18  1  0  0  0  0
 21  5  1  0  0  0  0
 22 21  2  0  0  0  0
 23 21  1  0  0  0  0
 24 23  1  0  0  0  0
 25 24  1  0  0  0  0
 26 25  2  0  0  0  0
 27 25  1  0  0  0  0
 28 27  1  0  0  0  0
 29 28  1  0  0  0  0
 30 29  1  0  0  0  0
 31 30  1  0  0  0  0
 32 31  1  0  0  0  0
 33 32  1  0  0  0  0
 34 33  1  0  0  0  0
 35 34  1  0  0  0  0
 35 28  1  0  0  0  0
 36 34  1  0  0  0  0
 36 30  1  0  0  0  0
 37 36  1  0  0  0  0
 37 28  1  0  0  0  0
 38 37  1  0  0  0  0
 38 32  1  0  0  0  0
 39 24  1  0  0  0  0
 40 39  1  0  0  0  0
 41 39  1  0  0  0  0
 42 39  1  0  0  0  0
  1 43  1  0  0  0  0
  1 44  1  0  0  0  0
  1 45  1  0  0  0  0
  2 46  1  0  0  0  0
  3 47  1  0  0  0  0
  3 48  1  0  0  0  0
  3 49  1  0  0  0  0
  4 50  1  0  0  0  0
  4 51  1  0  0  0  0
  5 52  1  0  0  0  0
  6 53  1  0  0  0  0
  9 54  1  0  0  0  0
 10 55  1  0  0  0  0
 15 56  1  0  0  0  0
 15 57  1  0  0  0  0
 15 58  1  0  0  0  0
 16 59  1  0  0  0  0
 16 60  1  0  0  0  0
 16 61  1  0  0  0  0
 17 62  1  0  0  0  0
 17 63  1  0  0  0  0
 17 64  1  0  0  0  0
 18 65  1  0  0  0  0
 19 66  1  0  0  0  0
 19 67  1  0  0  0  0
 19 68  1  0  0  0  0
 20 69  1  0  0  0  0
 20 70  1  0  0  0  0
 20 71  1  0  0  0  0
 23 72  1  0  0  0  0
 24 73  1  0  0  0  0
 27 74  1  0  0  0  0
 29 75  1  0  0  0  0
 29 76  1  0  0  0  0
 30 77  1  0  0  0  0
 31 78  1  0  0  0  0
 31 79  1  0  0  0  0
 32 80  1  0  0  0  0
 33 81  1  0  0  0  0
 33 82  1  0  0  0  0
 34 83  1  0  0  0  0
 35 84  1  0  0  0  0
 35 85  1  0  0  0  0
 36 86  1  0  0  0  0
 37 87  1  0  0  0  0
 40 88  1  0  0  0  0
 40 89  1  0  0  0  0
 40 90  1  0  0  0  0
 41 91  1  0  0  0  0
 41 92  1  0  0  0  0
 41 93  1  0  0  0  0
 42 94  1  0  0  0  0
 42 95  1  0  0  0  0
 42 96  1  0  0  0  0
M  END
>  <energy>
365.99891024283414

$$$$
