CN1CCC23CCC4(C5CCN(CC6CC6)C52)C2C(NC3)C2C14
                    3D

 54 60  0  0  0  0  0  0  0  0999 V2000
    4.2598    0.9647    0.7080 C   0  0  0  0  0  0  0  0  0  0  0  0
    2.8420    0.5931    0.5790 N   0  0  0  0  0  0  0  0  0  0  0  0
    1.9998    1.7231    1.0752 C   0  0  0  0  0  0  0  0  0  0  0  0
    0.4655    1.4379    1.4324 C   0  0  0  0  0  0  0  0  0  0  0  0
    0.0421    0.3909    0.4365 C   0  0  0  0  0  0  0  0  0  0  0  0
    0.2109    1.3729   -0.9755 C   0  0  0  0  0  0  0  0  0  0  0  0
    0.9641    0.7171   -2.1502 C   0  0  0  0  0  0  0  0  0  0  0  0
    1.1280   -0.6132   -1.4881 C   0  0  0  0  0  0  0  0  0  0  0  0
   -0.4475   -1.0176   -1.2998 C   0  0  0  0  0  0  0  0  0  0  0  0
   -1.2005   -2.2851   -1.5718 C   0  0  0  0  0  0  0  0  0  0  0  0
   -2.6300   -1.7937   -1.1431 C   0  0  0  0  0  0  0  0  0  0  0  0
   -2.4546   -0.4025   -0.5570 N   0  0  0  0  0  0  0  0  0  0  0  0
   -3.5099   -0.0884    0.3972 C   0  0  0  0  0  0  0  0  0  0  0  0
   -3.6009    1.3978    0.5629 C   0  0  0  0  0  0  0  0  0  0  0  0
   -2.9807    2.1113    1.7334 C   0  0  0  0  0  0  0  0  0  0  0  0
   -4.4729    1.9694    1.6530 C   0  0  0  0  0  0  0  0  0  0  0  0
   -1.1070   -0.5004    0.0102 C   0  0  0  0  0  0  0  0  0  0  0  0
    1.9070   -1.8323   -1.6554 C   0  0  0  0  0  0  0  0  0  0  0  0
    2.0666   -2.5878   -0.3521 C   0  0  0  0  0  0  0  0  0  0  0  0
    1.0533   -2.3689    0.7146 N   0  0  0  0  0  0  0  0  0  0  0  0
    0.8737   -0.9727    1.2373 C   0  0  0  0  0  0  0  0  0  0  0  0
    3.0032   -1.4913   -0.7140 C   0  0  0  0  0  0  0  0  0  0  0  0
    2.6646   -0.0546   -0.7735 C   0  0  0  0  0  0  0  0  0  0  0  0
    4.4911    1.3063    1.7227 H   0  0  0  0  0  0  0  0  0  0  0  0
    4.9160    0.1097    0.5186 H   0  0  0  0  0  0  0  0  0  0  0  0
    4.5326    1.7659    0.0110 H   0  0  0  0  0  0  0  0  0  0  0  0
    2.4207    2.0573    2.0337 H   0  0  0  0  0  0  0  0  0  0  0  0
    2.1201    2.5941    0.4210 H   0  0  0  0  0  0  0  0  0  0  0  0
   -0.1083    2.3680    1.3511 H   0  0  0  0  0  0  0  0  0  0  0  0
    0.3788    1.1024    2.4725 H   0  0  0  0  0  0  0  0  0  0  0  0
   -0.8088    1.6323   -1.3082 H   0  0  0  0  0  0  0  0  0  0  0  0
    0.6156    2.3735   -0.8010 H   0  0  0  0  0  0  0  0  0  0  0  0
    1.8492    1.3019   -2.4146 H   0  0  0  0  0  0  0  0  0  0  0  0
    0.3759    0.6954   -3.0750 H   0  0  0  0  0  0  0  0  0  0  0  0
   -0.8917   -0.4537   -2.1438 H   0  0  0  0  0  0  0  0  0  0  0  0
   -1.1695   -2.5735   -2.6269 H   0  0  0  0  0  0  0  0  0  0  0  0
   -0.8787   -3.1314   -0.9621 H   0  0  0  0  0  0  0  0  0  0  0  0
   -3.3007   -1.7412   -2.0077 H   0  0  0  0  0  0  0  0  0  0  0  0
   -3.0499   -2.4953   -0.4118 H   0  0  0  0  0  0  0  0  0  0  0  0
   -3.3749   -0.6045    1.3562 H   0  0  0  0  0  0  0  0  0  0  0  0
   -4.4776   -0.4170   -0.0051 H   0  0  0  0  0  0  0  0  0  0  0  0
   -3.6290    1.9076   -0.3952 H   0  0  0  0  0  0  0  0  0  0  0  0
   -2.5529    3.0901    1.5514 H   0  0  0  0  0  0  0  0  0  0  0  0
   -2.4575    1.5268    2.4806 H   0  0  0  0  0  0  0  0  0  0  0  0
   -4.9529    1.2908    2.3484 H   0  0  0  0  0  0  0  0  0  0  0  0
   -5.0570    2.8534    1.4222 H   0  0  0  0  0  0  0  0  0  0  0  0
   -1.2449   -1.2829    0.7662 H   0  0  0  0  0  0  0  0  0  0  0  0
    2.1176   -2.2114   -2.6400 H   0  0  0  0  0  0  0  0  0  0  0  0
    2.4332   -3.6091   -0.4263 H   0  0  0  0  0  0  0  0  0  0  0  0
    1.2954   -2.9549    1.5153 H   0  0  0  0  0  0  0  0  0  0  0  0
    1.7604   -0.7115    1.8168 H   0  0  0  0  0  0  0  0  0  0  0  0
    0.2017   -1.1408    2.0990 H   0  0  0  0  0  0  0  0  0  0  0  0
    4.0212   -1.7173   -1.0049 H   0  0  0  0  0  0  0  0  0  0  0  0
    3.3482    0.3993   -1.5235 H   0  0  0  0  0  0  0  0  0  0  0  0
  2  1  1  0  0  0  0
  3  2  1  0  0  0  0
  4  3  1  0  0  0  0
  5  4  1  0  0  0  0
  6  5  1  0  0  0  0
  7  6  1  0  0  0  0
  8  7  1  0  0  0  0
  9  8  1  0  0  0  0
 10  9  1  0  0  0  0
 11 10  1  0  0  0  0
 12 11  1  0  0  0  0
 13 12  1  0  0  0  0
 14 13  1  0  0  0  0
 15 14  1  0  0  0  0
 16 15  1  0  0  0  0
 16 14  1  0  0  0  0
 17 12  1  0  0  0  0
 17  9  1  0  0  0  0
 17  5  1  0  0  0  0
 18  8  1  0  0  0  0
 19 18  1  0  0  0  0
 20 19  1  0  0  0  0
 21 20  1  0  0  0  0
 21  5  1  0  0  0  0
 22 19  1  0  0  0  0
 22 18  1  0  0  0  0
 23 22  1  0  0  0  0
 23  2  1  0  0  0  0
 23  8  1  0  0  0  0
  1 24  1  0  0  0  0
  1 25  1  0  0  0  0
  1 26  1  0  0  0  0
  3 27  1  0  0  0  0
  3 28  1  0  0  0  0
  4 29  1  0  0  0  0
  4 30  1  0  0  0  0
  6 31  1  0  0  0  0
  6 32  1  0  0  0  0
  7 33  1  0  0  0  0
  7 34  1  0  0  0  0
  9 35  1  0  0  0  0
 10 36  1  0  0  0  0
 10 37  1  0  0  0  0
 11 38  1  0  0  0  0
 11 39  1  0  0  0  0
 13 40  1  0  0  0  0
 13 41  1  0  0  0  0
 14 42  1  0  0  0  0
 15 43  1  0  0  0  0
 15 44  1  0  0  0  0
 16 45  1  0  0  0  0
 16 46  1  0  0  0  0
 17 47  1  0  0  0  0
 18 48  1  0  0  0  0
 19 49  1  0  0  0  0
 20 50  1  0  0  0  0
 21 51  1  0  0  0  0
 21 52  1  0  0  0  0
 22 53  1  0  0  0  0
 23 54  1  0  0  0  0
M  END
>  <energy>
330.9035175470637

$$$$
