CNC(=O)CCC(=O)NC12CCC3C4(C(OC)CC41)C1OC(C(C)C)(C3(C)C)C(C)(C)C12C
                    3D

 77 81  0  0  0  0  0  0  0  0999 V2000
    5.4641    0.3946    0.9014 C   0  0  0  0  0  0  0  0  0  0  0  0
    4.6802    1.5065    1.3659 N   0  0  0  0  0  0  0  0  0  0  0  0
    5.1459    2.7960    1.2660 C   0  0  0  0  0  0  0  0  0  0  0  0
    6.2724    3.0791    0.8794 O   0  0  0  0  0  0  0  0  0  0  0  0
    4.1406    3.8594    1.6460 C   0  0  0  0  0  0  0  0  0  0  0  0
    3.0749    4.0203    0.5578 C   0  0  0  0  0  0  0  0  0  0  0  0
    1.8609    3.1821    0.8992 C   0  0  0  0  0  0  0  0  0  0  0  0
    1.3511    3.2278    2.0157 O   0  0  0  0  0  0  0  0  0  0  0  0
    1.4339    2.3346   -0.1039 N   0  0  0  0  0  0  0  0  0  0  0  0
    0.3263    1.3620    0.0504 C   0  0  0  0  0  0  0  0  0  0  0  0
   -0.9689    2.1298    0.2309 C   0  0  0  0  0  0  0  0  0  0  0  0
   -2.1178    1.3042    0.7694 C   0  0  0  0  0  0  0  0  0  0  0  0
   -1.8855   -0.2108    0.9060 C   0  0  0  0  0  0  0  0  0  0  0  0
   -0.3855   -0.6031    1.1238 C   0  0  0  0  0  0  0  0  0  0  0  0
    0.0012   -1.0116    2.5961 C   0  0  0  0  0  0  0  0  0  0  0  0
   -1.0278   -1.6398    3.3896 O   0  0  0  0  0  0  0  0  0  0  0  0
   -0.7259   -1.8255    4.7640 C   0  0  0  0  0  0  0  0  0  0  0  0
    0.2318    0.5173    2.8321 C   0  0  0  0  0  0  0  0  0  0  0  0
    0.6311    0.5622    1.3311 C   0  0  0  0  0  0  0  0  0  0  0  0
    0.2867   -1.1153   -0.1438 C   0  0  0  0  0  0  0  0  0  0  0  0
   -0.4835   -2.1003   -0.8170 O   0  0  0  0  0  0  0  0  0  0  0  0
   -1.6173   -1.4276   -1.4389 C   0  0  0  0  0  0  0  0  0  0  0  0
   -2.1849   -2.4281   -2.5664 C   0  0  0  0  0  0  0  0  0  0  0  0
   -1.2654   -3.6378   -2.8200 C   0  0  0  0  0  0  0  0  0  0  0  0
   -3.6129   -2.9800   -2.5395 C   0  0  0  0  0  0  0  0  0  0  0  0
   -2.5693   -1.1508   -0.1596 C   0  0  0  0  0  0  0  0  0  0  0  0
   -3.9902   -0.6342   -0.4843 C   0  0  0  0  0  0  0  0  0  0  0  0
   -2.8004   -2.4874    0.6430 C   0  0  0  0  0  0  0  0  0  0  0  0
   -0.8017   -0.1634   -2.0970 C   0  0  0  0  0  0  0  0  0  0  0  0
   -0.1353   -0.5568   -3.4701 C   0  0  0  0  0  0  0  0  0  0  0  0
   -1.7139    0.9879   -2.5319 C   0  0  0  0  0  0  0  0  0  0  0  0
    0.3772    0.1574   -1.0454 C   0  0  0  0  0  0  0  0  0  0  0  0
    1.8140    0.1304   -1.6649 C   0  0  0  0  0  0  0  0  0  0  0  0
    5.1758    0.1854   -0.1330 H   0  0  0  0  0  0  0  0  0  0  0  0
    6.5325    0.6284    0.9379 H   0  0  0  0  0  0  0  0  0  0  0  0
    5.2452   -0.4753    1.5229 H   0  0  0  0  0  0  0  0  0  0  0  0
    3.7522    1.3372    1.7361 H   0  0  0  0  0  0  0  0  0  0  0  0
    4.6963    4.7981    1.7626 H   0  0  0  0  0  0  0  0  0  0  0  0
    3.7216    3.6206    2.6301 H   0  0  0  0  0  0  0  0  0  0  0  0
    2.7314    5.0602    0.5260 H   0  0  0  0  0  0  0  0  0  0  0  0
    3.4644    3.7722   -0.4343 H   0  0  0  0  0  0  0  0  0  0  0  0
    1.6497    2.6319   -1.0488 H   0  0  0  0  0  0  0  0  0  0  0  0
   -0.8237    2.9492    0.9445 H   0  0  0  0  0  0  0  0  0  0  0  0
   -1.2403    2.6698   -0.6800 H   0  0  0  0  0  0  0  0  0  0  0  0
   -3.0361    1.5581    0.2355 H   0  0  0  0  0  0  0  0  0  0  0  0
   -2.3328    1.6904    1.7786 H   0  0  0  0  0  0  0  0  0  0  0  0
   -2.4119   -0.4234    1.8453 H   0  0  0  0  0  0  0  0  0  0  0  0
    0.9230   -1.6067    2.6293 H   0  0  0  0  0  0  0  0  0  0  0  0
    0.1142   -2.5166    4.8708 H   0  0  0  0  0  0  0  0  0  0  0  0
   -1.6052   -2.2550    5.2520 H   0  0  0  0  0  0  0  0  0  0  0  0
   -0.4910   -0.8684    5.2398 H   0  0  0  0  0  0  0  0  0  0  0  0
    1.0425    0.7439    3.5278 H   0  0  0  0  0  0  0  0  0  0  0  0
   -0.6492    1.0885    3.1242 H   0  0  0  0  0  0  0  0  0  0  0  0
    1.6962    0.2607    1.2881 H   0  0  0  0  0  0  0  0  0  0  0  0
    1.2645   -1.5656    0.0733 H   0  0  0  0  0  0  0  0  0  0  0  0
   -2.2227   -1.8554   -3.4902 H   0  0  0  0  0  0  0  0  0  0  0  0
   -0.2311   -3.3550   -3.0181 H   0  0  0  0  0  0  0  0  0  0  0  0
   -1.2769   -4.3218   -1.9637 H   0  0  0  0  0  0  0  0  0  0  0  0
   -1.6023   -4.2012   -3.6974 H   0  0  0  0  0  0  0  0  0  0  0  0
   -3.8064   -3.5386   -3.4678 H   0  0  0  0  0  0  0  0  0  0  0  0
   -4.3635   -2.1911   -2.5265 H   0  0  0  0  0  0  0  0  0  0  0  0
   -3.7877   -3.6988   -1.7387 H   0  0  0  0  0  0  0  0  0  0  0  0
   -4.4328   -0.1208    0.3789 H   0  0  0  0  0  0  0  0  0  0  0  0
   -4.0196    0.0506   -1.3316 H   0  0  0  0  0  0  0  0  0  0  0  0
   -4.6936   -1.4443   -0.6877 H   0  0  0  0  0  0  0  0  0  0  0  0
   -1.8695   -2.9413    0.9930 H   0  0  0  0  0  0  0  0  0  0  0  0
   -3.4188   -2.3056    1.5330 H   0  0  0  0  0  0  0  0  0  0  0  0
   -3.3291   -3.2488    0.0806 H   0  0  0  0  0  0  0  0  0  0  0  0
   -0.8568   -0.7426   -4.2731 H   0  0  0  0  0  0  0  0  0  0  0  0
    0.4967   -1.4428   -3.3971 H   0  0  0  0  0  0  0  0  0  0  0  0
    0.4744    0.2666   -3.8583 H   0  0  0  0  0  0  0  0  0  0  0  0
   -1.1229    1.8475   -2.8671 H   0  0  0  0  0  0  0  0  0  0  0  0
   -2.4023    1.3309   -1.7723 H   0  0  0  0  0  0  0  0  0  0  0  0
   -2.3537    0.6879   -3.3721 H   0  0  0  0  0  0  0  0  0  0  0  0
    1.9515    0.9340   -2.3937 H   0  0  0  0  0  0  0  0  0  0  0  0
    2.5894    0.2531   -0.9019 H   0  0  0  0  0  0  0  0  0  0  0  0
    2.0523   -0.8254   -2.1425 H   0  0  0  0  0  0  0  0  0  0  0  0
  2  1  1  0  0  0  0
  3  2  1  0  0  0  0
  4  3  2  0  0  0  0
  5  3  1  0  0  0  0
  6  5  1  0  0  0  0
  7  6  1  0  0  0  0
  8  7  2  0  0  0  0
  9  7  1  0  0  0  0
 10  9  1  0  0  0  0
 11 10  1  0  0  0  0
 12 11  1  0  0  0  0
 13 12  1  0  0  0  0
 14 13  1  0  0  0  0
 15 14  1  0  0  0  0
 16 15  1  0  0  0  0
 17 16  1  0  0  0  0
 18 15  1  0  0  0  0
 19 18  1  0  0  0  0
 19 14  1  0  0  0  0
 19 10  1  0  0  0  0
 20 14  1  0  0  0  0
 21 20  1  0  0  0  0
 22 21  1  0  0  0  0
 23 22  1  0  0  0  0
 24 23  1  0  0  0  0
 25 23  1  0  0  0  0
 26 22  1  0  0  0  0
 26 13  1  0  0  0  0
 27 26  1  0  0  0  0
 28 26  1  0  0  0  0
 29 22  1  0  0  0  0
 30 29  1  0  0  0  0
 31 29  1  0  0  0  0
 32 29  1  0  0  0  0
 32 20  1  0  0  0  0
 32 10  1  0  0  0  0
 33 32  1  0  0  0  0
  1 34  1  0  0  0  0
  1 35  1  0  0  0  0
  1 36  1  0  0  0  0
  2 37  1  0  0  0  0
  5 38  1  0  0  0  0
  5 39  1  0  0  0  0
  6 40  1  0  0  0  0
  6 41  1  0  0  0  0
  9 42  1  0  0  0  0
 11 43  1  0  0  0  0
 11 44  1  0  0  0  0
 12 45  1  0  0  0  0
 12 46  1  0  0  0  0
 13 47  1  0  0  0  0
 15 48  1  0  0  0  0
 17 49  1  0  0  0  0
 17 50  1  0  0  0  0
 17 51  1  0  0  0  0
 18 52  1  0  0  0  0
 18 53  1  0  0  0  0
 19 54  1  0  0  0  0
 20 55  1  0  0  0  0
 23 56  1  0  0  0  0
 24 57  1  0  0  0  0
 24 58  1  0  0  0  0
 24 59  1  0  0  0  0
 25 60  1  0  0  0  0
 25 61  1  0  0  0  0
 25 62  1  0  0  0  0
 27 63  1  0  0  0  0
 27 64  1  0  0  0  0
 27 65  1  0  0  0  0
 28 66  1  0  0  0  0
 28 67  1  0  0  0  0
 28 68  1  0  0  0  0
 30 69  1  0  0  0  0
 30 70  1  0  0  0  0
 30 71  1  0  0  0  0
 31 72  1  0  0  0  0
 31 73  1  0  0  0  0
 31 74  1  0  0  0  0
 33 75  1  0  0  0  0
 33 76  1  0  0  0  0
 33 77  1  0  0  0  0
M  END
>  <energy>
138.5910654035028

$$$$
