CCCCN(C)C(=O)C1C23CCC4C5CCC(O)(CCC(O)OCC)C1(C)C(C(C)C2CC43)C5C1CCC(O)C1(C)CO
                    3D

104109  0  0  0  0  0  0  0  0999 V2000
   -4.3512   -4.9170   -1.1659 C   0  0  0  0  0  0  0  0  0  0  0  0
   -4.0075   -3.4372   -1.2684 C   0  0  0  0  0  0  0  0  0  0  0  0
   -4.8550   -2.5329   -0.3657 C   0  0  0  0  0  0  0  0  0  0  0  0
   -4.5211   -2.5838    1.1368 C   0  0  0  0  0  0  0  0  0  0  0  0
   -3.2532   -1.9394    1.5169 N   0  0  0  0  0  0  0  0  0  0  0  0
   -2.4973   -2.6544    2.5363 C   0  0  0  0  0  0  0  0  0  0  0  0
   -3.1722   -0.5464    1.3907 C   0  0  0  0  0  0  0  0  0  0  0  0
   -4.2037    0.0964    1.1530 O   0  0  0  0  0  0  0  0  0  0  0  0
   -1.7864    0.1854    1.5696 C   0  0  0  0  0  0  0  0  0  0  0  0
   -1.9844    1.7552    1.8280 C   0  0  0  0  0  0  0  0  0  0  0  0
   -1.8030    1.9070    3.3699 C   0  0  0  0  0  0  0  0  0  0  0  0
   -0.2717    2.2619    3.5500 C   0  0  0  0  0  0  0  0  0  0  0  0
    0.1451    2.9854    2.2437 C   0  0  0  0  0  0  0  0  0  0  0  0
    1.1466    2.4097    1.1636 C   0  0  0  0  0  0  0  0  0  0  0  0
    2.1738    1.3852    1.6189 C   0  0  0  0  0  0  0  0  0  0  0  0
    2.0411   -0.0256    1.0608 C   0  0  0  0  0  0  0  0  0  0  0  0
    0.7354   -0.7465    1.3817 C   0  0  0  0  0  0  0  0  0  0  0  0
    0.5459   -0.4802    2.7896 O   0  0  0  0  0  0  0  0  0  0  0  0
    0.9090   -2.3378    1.4474 C   0  0  0  0  0  0  0  0  0  0  0  0
    2.2377   -3.0515    1.1356 C   0  0  0  0  0  0  0  0  0  0  0  0
    2.5078   -3.2921   -0.3521 C   0  0  0  0  0  0  0  0  0  0  0  0
    3.1617   -2.1775   -0.9184 O   0  0  0  0  0  0  0  0  0  0  0  0
    3.3748   -4.4147   -0.4463 O   0  0  0  0  0  0  0  0  0  0  0  0
    3.4969   -4.9616   -1.7555 C   0  0  0  0  0  0  0  0  0  0  0  0
    2.3171   -5.8505   -2.1110 C   0  0  0  0  0  0  0  0  0  0  0  0
   -0.6125   -0.1618    0.5467 C   0  0  0  0  0  0  0  0  0  0  0  0
   -0.9967   -1.3237   -0.4341 C   0  0  0  0  0  0  0  0  0  0  0  0
   -0.4681    1.0775   -0.4829 C   0  0  0  0  0  0  0  0  0  0  0  0
   -1.8599    1.7599   -0.8529 C   0  0  0  0  0  0  0  0  0  0  0  0
   -2.8366    0.9858   -1.7359 C   0  0  0  0  0  0  0  0  0  0  0  0
   -2.5801    2.2762    0.4099 C   0  0  0  0  0  0  0  0  0  0  0  0
   -2.1472    3.7051    0.6490 C   0  0  0  0  0  0  0  0  0  0  0  0
   -1.2635    3.2056    1.7696 C   0  0  0  0  0  0  0  0  0  0  0  0
    0.5915    2.2381   -0.2692 C   0  0  0  0  0  0  0  0  0  0  0  0
    1.4605    2.4762   -1.5896 C   0  0  0  0  0  0  0  0  0  0  0  0
    2.0987    1.2384   -2.2638 C   0  0  0  0  0  0  0  0  0  0  0  0
    3.6096    1.4272   -2.2413 C   0  0  0  0  0  0  0  0  0  0  0  0
    3.8636    2.7666   -1.5603 C   0  0  0  0  0  0  0  0  0  0  0  0
    4.9982    3.4226   -2.1047 O   0  0  0  0  0  0  0  0  0  0  0  0
    2.5685    3.5806   -1.7375 C   0  0  0  0  0  0  0  0  0  0  0  0
    2.4783    4.1522   -3.1900 C   0  0  0  0  0  0  0  0  0  0  0  0
    2.5789    4.8118   -0.8166 C   0  0  0  0  0  0  0  0  0  0  0  0
    1.2885    5.3960   -0.7232 O   0  0  0  0  0  0  0  0  0  0  0  0
   -5.3903   -5.0997   -1.4540 H   0  0  0  0  0  0  0  0  0  0  0  0
   -4.1966   -5.2983   -0.1544 H   0  0  0  0  0  0  0  0  0  0  0  0
   -3.7118   -5.4920   -1.8457 H   0  0  0  0  0  0  0  0  0  0  0  0
   -4.1711   -3.1275   -2.3095 H   0  0  0  0  0  0  0  0  0  0  0  0
   -2.9416   -3.3022   -1.0716 H   0  0  0  0  0  0  0  0  0  0  0  0
   -4.7712   -1.5072   -0.7376 H   0  0  0  0  0  0  0  0  0  0  0  0
   -5.9090   -2.8100   -0.4915 H   0  0  0  0  0  0  0  0  0  0  0  0
   -5.3256   -2.0844    1.6914 H   0  0  0  0  0  0  0  0  0  0  0  0
   -4.5041   -3.6287    1.4688 H   0  0  0  0  0  0  0  0  0  0  0  0
   -1.5886   -2.1431    2.8398 H   0  0  0  0  0  0  0  0  0  0  0  0
   -3.1265   -2.7678    3.4262 H   0  0  0  0  0  0  0  0  0  0  0  0
   -2.2290   -3.6415    2.1488 H   0  0  0  0  0  0  0  0  0  0  0  0
   -1.4971   -0.2281    2.5280 H   0  0  0  0  0  0  0  0  0  0  0  0
   -2.0541    1.0135    3.9536 H   0  0  0  0  0  0  0  0  0  0  0  0
   -2.4557    2.6870    3.7903 H   0  0  0  0  0  0  0  0  0  0  0  0
    0.3483    1.4158    3.8146 H   0  0  0  0  0  0  0  0  0  0  0  0
   -0.1924    2.9501    4.4026 H   0  0  0  0  0  0  0  0  0  0  0  0
    0.5741    3.9532    2.5468 H   0  0  0  0  0  0  0  0  0  0  0  0
    1.7824    3.2907    1.0618 H   0  0  0  0  0  0  0  0  0  0  0  0
    2.2489    1.3706    2.7115 H   0  0  0  0  0  0  0  0  0  0  0  0
    3.1646    1.7394    1.3059 H   0  0  0  0  0  0  0  0  0  0  0  0
    2.2501   -0.0541    0.0011 H   0  0  0  0  0  0  0  0  0  0  0  0
    2.8801   -0.5508    1.5256 H   0  0  0  0  0  0  0  0  0  0  0  0
    1.3690   -0.6922    3.2644 H   0  0  0  0  0  0  0  0  0  0  0  0
    0.1528   -2.8848    0.8946 H   0  0  0  0  0  0  0  0  0  0  0  0
    0.6945   -2.6429    2.4829 H   0  0  0  0  0  0  0  0  0  0  0  0
    2.1663   -4.0432    1.6078 H   0  0  0  0  0  0  0  0  0  0  0  0
    3.0893   -2.5756    1.6316 H   0  0  0  0  0  0  0  0  0  0  0  0
    1.5751   -3.4758   -0.8893 H   0  0  0  0  0  0  0  0  0  0  0  0
    4.0046   -2.1211   -0.4386 H   0  0  0  0  0  0  0  0  0  0  0  0
    4.4030   -5.5782   -1.7536 H   0  0  0  0  0  0  0  0  0  0  0  0
    3.6426   -4.1729   -2.5006 H   0  0  0  0  0  0  0  0  0  0  0  0
    1.4028   -5.2659   -2.2427 H   0  0  0  0  0  0  0  0  0  0  0  0
    2.1233   -6.5782   -1.3172 H   0  0  0  0  0  0  0  0  0  0  0  0
    2.5119   -6.3897   -3.0434 H   0  0  0  0  0  0  0  0  0  0  0  0
   -0.1333   -1.6042   -1.0488 H   0  0  0  0  0  0  0  0  0  0  0  0
   -1.7858   -1.0853   -1.1392 H   0  0  0  0  0  0  0  0  0  0  0  0
   -1.3547   -2.2191    0.0636 H   0  0  0  0  0  0  0  0  0  0  0  0
   -0.1801    0.6228   -1.4356 H   0  0  0  0  0  0  0  0  0  0  0  0
   -1.6260    2.6130   -1.5029 H   0  0  0  0  0  0  0  0  0  0  0  0
   -2.3304    0.5478   -2.6008 H   0  0  0  0  0  0  0  0  0  0  0  0
   -3.3720    0.2057   -1.2006 H   0  0  0  0  0  0  0  0  0  0  0  0
   -3.6098    1.6640   -2.1196 H   0  0  0  0  0  0  0  0  0  0  0  0
   -3.6722    2.2290    0.3327 H   0  0  0  0  0  0  0  0  0  0  0  0
   -1.6633    4.2786   -0.1446 H   0  0  0  0  0  0  0  0  0  0  0  0
   -2.9798    4.3332    1.0011 H   0  0  0  0  0  0  0  0  0  0  0  0
   -1.5853    3.9677    2.5201 H   0  0  0  0  0  0  0  0  0  0  0  0
    0.0297    3.1692   -0.3514 H   0  0  0  0  0  0  0  0  0  0  0  0
    0.6679    2.7730   -2.3002 H   0  0  0  0  0  0  0  0  0  0  0  0
    1.7706    1.1956   -3.3116 H   0  0  0  0  0  0  0  0  0  0  0  0
    1.8117    0.2720   -1.8520 H   0  0  0  0  0  0  0  0  0  0  0  0
    4.1017    0.6212   -1.6860 H   0  0  0  0  0  0  0  0  0  0  0  0
    4.0195    1.3971   -3.2580 H   0  0  0  0  0  0  0  0  0  0  0  0
    4.0681    2.5977   -0.4991 H   0  0  0  0  0  0  0  0  0  0  0  0
    5.6942    2.7579   -2.2359 H   0  0  0  0  0  0  0  0  0  0  0  0
    1.5332    4.6898   -3.3347 H   0  0  0  0  0  0  0  0  0  0  0  0
    3.2893    4.8596   -3.4011 H   0  0  0  0  0  0  0  0  0  0  0  0
    2.5287    3.3694   -3.9534 H   0  0  0  0  0  0  0  0  0  0  0  0
    3.2609    5.5770   -1.2092 H   0  0  0  0  0  0  0  0  0  0  0  0
    2.9476    4.5905    0.1875 H   0  0  0  0  0  0  0  0  0  0  0  0
    1.3928    6.2410   -0.2517 H   0  0  0  0  0  0  0  0  0  0  0  0
  2  1  1  0  0  0  0
  3  2  1  0  0  0  0
  4  3  1  0  0  0  0
  5  4  1  0  0  0  0
  6  5  1  0  0  0  0
  7  5  1  0  0  0  0
  8  7  2  0  0  0  0
  9  7  1  0  0  0  0
 10  9  1  0  0  0  0
 11 10  1  0  0  0  0
 12 11  1  0  0  0  0
 13 12  1  0  0  0  0
 14 13  1  0  0  0  0
 15 14  1  0  0  0  0
 16 15  1  0  0  0  0
 17 16  1  0  0  0  0
 18 17  1  0  0  0  0
 19 17  1  0  0  0  0
 20 19  1  0  0  0  0
 21 20  1  0  0  0  0
 22 21  1  0  0  0  0
 23 21  1  0  0  0  0
 24 23  1  0  0  0  0
 25 24  1  0  0  0  0
 26 17  1  0  0  0  0
 26  9  1  0  0  0  0
 27 26  1  0  0  0  0
 28 26  1  0  0  0  0
 29 28  1  0  0  0  0
 30 29  1  0  0  0  0
 31 29  1  0  0  0  0
 31 10  1  0  0  0  0
 32 31  1  0  0  0  0
 33 32  1  0  0  0  0
 33 13  1  0  0  0  0
 33 10  1  0  0  0  0
 34 28  1  0  0  0  0
 34 14  1  0  0  0  0
 35 34  1  0  0  0  0
 36 35  1  0  0  0  0
 37 36  1  0  0  0  0
 38 37  1  0  0  0  0
 39 38  1  0  0  0  0
 40 38  1  0  0  0  0
 40 35  1  0  0  0  0
 41 40  1  0  0  0  0
 42 40  1  0  0  0  0
 43 42  1  0  0  0  0
  1 44  1  0  0  0  0
  1 45  1  0  0  0  0
  1 46  1  0  0  0  0
  2 47  1  0  0  0  0
  2 48  1  0  0  0  0
  3 49  1  0  0  0  0
  3 50  1  0  0  0  0
  4 51  1  0  0  0  0
  4 52  1  0  0  0  0
  6 53  1  0  0  0  0
  6 54  1  0  0  0  0
  6 55  1  0  0  0  0
  9 56  1  0  0  0  0
 11 57  1  0  0  0  0
 11 58  1  0  0  0  0
 12 59  1  0  0  0  0
 12 60  1  0  0  0  0
 13 61  1  0  0  0  0
 14 62  1  0  0  0  0
 15 63  1  0  0  0  0
 15 64  1  0  0  0  0
 16 65  1  0  0  0  0
 16 66  1  0  0  0  0
 18 67  1  0  0  0  0
 19 68  1  0  0  0  0
 19 69  1  0  0  0  0
 20 70  1  0  0  0  0
 20 71  1  0  0  0  0
 21 72  1  0  0  0  0
 22 73  1  0  0  0  0
 24 74  1  0  0  0  0
 24 75  1  0  0  0  0
 25 76  1  0  0  0  0
 25 77  1  0  0  0  0
 25 78  1  0  0  0  0
 27 79  1  0  0  0  0
 27 80  1  0  0  0  0
 27 81  1  0  0  0  0
 28 82  1  0  0  0  0
 29 83  1  0  0  0  0
 30 84  1  0  0  0  0
 30 85  1  0  0  0  0
 30 86  1  0  0  0  0
 31 87  1  0  0  0  0
 32 88  1  0  0  0  0
 32 89  1  0  0  0  0
 33 90  1  0  0  0  0
 34 91  1  0  0  0  0
 35 92  1  0  0  0  0
 36 93  1  0  0  0  0
 36 94  1  0  0  0  0
 37 95  1  0  0  0  0
 37 96  1  0  0  0  0
 38 97  1  0  0  0  0
 39 98  1  0  0  0  0
 41 99  1  0  0  0  0
 41100  1  0  0  0  0
 41101  1  0  0  0  0
 42102  1  0  0  0  0
 42103  1  0  0  0  0
 43104  1  0  0  0  0
M  END
>  <energy>
287.62026792662073

$$$$
