CCCC[n+]1cc(CCC2CCC(=O)N(C)NC(CCCN=C(N)N)C(=O)NC(CC(C)C)C(=O)N2)c2cc1NC(=O)C=C2C
                    3D

 97 99  0  0  0  0  0  0  0  0999 V2000
   -3.7890   -3.3519   -1.7808 C   0  0  0  0  0  0  0  0  0  0  0  0
   -3.6178   -1.8391   -1.7506 C   0  0  0  0  0  0  0  0  0  0  0  0
   -2.1606   -1.4338   -1.5626 C   0  0  0  0  0  0  0  0  0  0  0  0
   -1.2605   -1.6683   -2.7881 C   0  0  0  0  0  0  0  0  0  0  0  0
   -0.1463   -2.5655   -2.3941 N   0  3  0  0  0  0  0  0  0  0  0  0
    0.6791   -2.2219   -1.3763 C   0  0  0  0  0  0  0  0  0  0  0  0
    1.7801   -3.0284   -1.0702 C   0  0  0  0  0  0  0  0  0  0  0  0
    2.6958   -2.6096    0.0623 C   0  0  0  0  0  0  0  0  0  0  0  0
    3.4153   -1.2786   -0.1936 C   0  0  0  0  0  0  0  0  0  0  0  0
    3.0661   -0.0984    0.7479 C   0  0  0  0  0  0  0  0  0  0  0  0
    3.3397   -0.3416    2.2472 C   0  0  0  0  0  0  0  0  0  0  0  0
    2.2100   -0.7990    3.1935 C   0  0  0  0  0  0  0  0  0  0  0  0
    2.2744    0.0401    4.4588 C   0  0  0  0  0  0  0  0  0  0  0  0
    2.9748   -0.3009    5.4083 O   0  0  0  0  0  0  0  0  0  0  0  0
    1.6323    1.2956    4.3494 N   0  0  0  0  0  0  0  0  0  0  0  0
    2.3433    2.3741    5.0647 C   0  0  0  0  0  0  0  0  0  0  0  0
    0.2301    1.2605    4.6906 N   0  0  0  0  0  0  0  0  0  0  0  0
   -0.7423    1.4791    3.5722 C   0  0  0  0  0  0  0  0  0  0  0  0
   -2.0209    2.0300    4.2185 C   0  0  0  0  0  0  0  0  0  0  0  0
   -3.2544    2.2579    3.3369 C   0  0  0  0  0  0  0  0  0  0  0  0
   -3.6981    1.0776    2.4622 C   0  0  0  0  0  0  0  0  0  0  0  0
   -3.3599    1.3350    1.0526 N   0  0  0  0  0  0  0  0  0  0  0  0
   -4.2820    1.2939    0.1624 C   0  0  0  0  0  0  0  0  0  0  0  0
   -3.9852    1.5298   -1.1374 N   0  0  0  0  0  0  0  0  0  0  0  0
   -5.6104    1.0632    0.2666 N   0  0  0  0  0  0  0  0  0  0  0  0
   -0.1862    2.3712    2.4282 C   0  0  0  0  0  0  0  0  0  0  0  0
    0.5361    3.3409    2.5969 O   0  0  0  0  0  0  0  0  0  0  0  0
   -0.5327    1.8963    1.1640 N   0  0  0  0  0  0  0  0  0  0  0  0
    0.1665    2.3283   -0.0612 C   0  0  0  0  0  0  0  0  0  0  0  0
   -0.0097    3.8121   -0.4302 C   0  0  0  0  0  0  0  0  0  0  0  0
    0.4021    4.1624   -1.8863 C   0  0  0  0  0  0  0  0  0  0  0  0
   -0.5690    3.6174   -2.9349 C   0  0  0  0  0  0  0  0  0  0  0  0
    0.5428    5.6803   -2.0583 C   0  0  0  0  0  0  0  0  0  0  0  0
    1.6425    1.8133   -0.0120 C   0  0  0  0  0  0  0  0  0  0  0  0
    2.5899    2.4020   -0.5258 O   0  0  0  0  0  0  0  0  0  0  0  0
    1.7617    0.5046    0.4760 N   0  0  0  0  0  0  0  0  0  0  0  0
    1.8949   -4.2286   -1.7907 C   0  0  0  0  0  0  0  0  0  0  0  0
    0.7461   -4.7225   -2.3607 C   0  0  0  0  0  0  0  0  0  0  0  0
    0.1047   -3.7234   -3.0561 C   0  0  0  0  0  0  0  0  0  0  0  0
    0.4251   -3.6833   -4.4248 N   0  0  0  0  0  0  0  0  0  0  0  0
    1.6826   -3.9545   -4.9440 C   0  0  0  0  0  0  0  0  0  0  0  0
    1.8495   -3.8344   -6.1597 O   0  0  0  0  0  0  0  0  0  0  0  0
    2.8718   -4.3572   -4.0671 C   0  0  0  0  0  0  0  0  0  0  0  0
    3.0353   -4.5123   -2.7272 C   0  0  0  0  0  0  0  0  0  0  0  0
    4.2975   -5.1005   -2.1482 C   0  0  0  0  0  0  0  0  0  0  0  0
   -3.3429   -3.8114   -0.8933 H   0  0  0  0  0  0  0  0  0  0  0  0
   -3.3160   -3.7945   -2.6594 H   0  0  0  0  0  0  0  0  0  0  0  0
   -4.8521   -3.6113   -1.7920 H   0  0  0  0  0  0  0  0  0  0  0  0
   -4.0467   -1.3781   -2.6462 H   0  0  0  0  0  0  0  0  0  0  0  0
   -4.1927   -1.4566   -0.9014 H   0  0  0  0  0  0  0  0  0  0  0  0
   -2.1156   -0.3678   -1.3193 H   0  0  0  0  0  0  0  0  0  0  0  0
   -1.7910   -1.9661   -0.6781 H   0  0  0  0  0  0  0  0  0  0  0  0
   -0.7979   -0.7368   -3.1417 H   0  0  0  0  0  0  0  0  0  0  0  0
   -1.7946   -2.1178   -3.6339 H   0  0  0  0  0  0  0  0  0  0  0  0
    0.4794   -1.2803   -0.8825 H   0  0  0  0  0  0  0  0  0  0  0  0
    2.1021   -2.5486    0.9822 H   0  0  0  0  0  0  0  0  0  0  0  0
    3.4385   -3.3879    0.2598 H   0  0  0  0  0  0  0  0  0  0  0  0
    4.4946   -1.4640   -0.0851 H   0  0  0  0  0  0  0  0  0  0  0  0
    3.2844   -0.9635   -1.2391 H   0  0  0  0  0  0  0  0  0  0  0  0
    3.8128    0.6599    0.4656 H   0  0  0  0  0  0  0  0  0  0  0  0
    3.7433    0.6061    2.6262 H   0  0  0  0  0  0  0  0  0  0  0  0
    4.1703   -1.0520    2.3476 H   0  0  0  0  0  0  0  0  0  0  0  0
    1.2046   -0.7583    2.7708 H   0  0  0  0  0  0  0  0  0  0  0  0
    2.3689   -1.8413    3.4951 H   0  0  0  0  0  0  0  0  0  0  0  0
    3.3796    2.4051    4.7182 H   0  0  0  0  0  0  0  0  0  0  0  0
    2.3326    2.1716    6.1401 H   0  0  0  0  0  0  0  0  0  0  0  0
    1.8691    3.3354    4.8549 H   0  0  0  0  0  0  0  0  0  0  0  0
    0.0677    1.9704    5.4229 H   0  0  0  0  0  0  0  0  0  0  0  0
   -0.9455    0.4792    3.1626 H   0  0  0  0  0  0  0  0  0  0  0  0
   -2.3138    1.3401    5.0314 H   0  0  0  0  0  0  0  0  0  0  0  0
   -1.7984    2.9865    4.7138 H   0  0  0  0  0  0  0  0  0  0  0  0
   -4.0646    2.4671    4.0512 H   0  0  0  0  0  0  0  0  0  0  0  0
   -3.1442    3.1695    2.7374 H   0  0  0  0  0  0  0  0  0  0  0  0
   -3.2324    0.1367    2.7739 H   0  0  0  0  0  0  0  0  0  0  0  0
   -4.7646    0.9255    2.6205 H   0  0  0  0  0  0  0  0  0  0  0  0
   -3.1414    2.0846   -1.1927 H   0  0  0  0  0  0  0  0  0  0  0  0
   -4.7502    1.9851   -1.6281 H   0  0  0  0  0  0  0  0  0  0  0  0
   -5.9439    0.7687    1.1734 H   0  0  0  0  0  0  0  0  0  0  0  0
   -5.9830    0.4650   -0.4633 H   0  0  0  0  0  0  0  0  0  0  0  0
   -1.5372    1.7191    1.0740 H   0  0  0  0  0  0  0  0  0  0  0  0
   -0.3052    1.7256   -0.8472 H   0  0  0  0  0  0  0  0  0  0  0  0
   -1.0609    4.0908   -0.2803 H   0  0  0  0  0  0  0  0  0  0  0  0
    0.5693    4.4346    0.2607 H   0  0  0  0  0  0  0  0  0  0  0  0
    1.3851    3.7313   -2.1083 H   0  0  0  0  0  0  0  0  0  0  0  0
   -0.2022    3.8383   -3.9448 H   0  0  0  0  0  0  0  0  0  0  0  0
   -1.5638    4.0633   -2.8359 H   0  0  0  0  0  0  0  0  0  0  0  0
   -0.6691    2.5324   -2.8696 H   0  0  0  0  0  0  0  0  0  0  0  0
    1.3195    6.0708   -1.3922 H   0  0  0  0  0  0  0  0  0  0  0  0
    0.8412    5.9368   -3.0825 H   0  0  0  0  0  0  0  0  0  0  0  0
   -0.3943    6.2030   -1.8359 H   0  0  0  0  0  0  0  0  0  0  0  0
    0.9546    0.1931    1.0092 H   0  0  0  0  0  0  0  0  0  0  0  0
    0.8128   -5.6951   -2.8611 H   0  0  0  0  0  0  0  0  0  0  0  0
   -0.1350   -3.1387   -5.0748 H   0  0  0  0  0  0  0  0  0  0  0  0
    3.7118   -4.6214   -4.7140 H   0  0  0  0  0  0  0  0  0  0  0  0
    4.5828   -4.6469   -1.1975 H   0  0  0  0  0  0  0  0  0  0  0  0
    5.1528   -4.9942   -2.8260 H   0  0  0  0  0  0  0  0  0  0  0  0
    4.1566   -6.1748   -1.9834 H   0  0  0  0  0  0  0  0  0  0  0  0
  2  1  1  0  0  0  0
  3  2  1  0  0  0  0
  4  3  1  0  0  0  0
  5  4  1  0  0  0  0
  6  5  2  0  0  0  0
  7  6  1  0  0  0  0
  8  7  1  0  0  0  0
  9  8  1  0  0  0  0
 10  9  1  0  0  0  0
 11 10  1  0  0  0  0
 12 11  1  0  0  0  0
 13 12  1  0  0  0  0
 14 13  2  0  0  0  0
 15 13  1  0  0  0  0
 16 15  1  0  0  0  0
 17 15  1  0  0  0  0
 18 17  1  0  0  0  0
 19 18  1  0  0  0  0
 20 19  1  0  0  0  0
 21 20  1  0  0  0  0
 22 21  1  0  0  0  0
 23 22  2  0  0  0  0
 24 23  1  0  0  0  0
 25 23  1  0  0  0  0
 26 18  1  0  0  0  0
 27 26  2  0  0  0  0
 28 26  1  0  0  0  0
 29 28  1  0  0  0  0
 30 29  1  0  0  0  0
 31 30  1  0  0  0  0
 32 31  1  0  0  0  0
 33 31  1  0  0  0  0
 34 29  1  0  0  0  0
 35 34  2  0  0  0  0
 36 34  1  0  0  0  0
 36 10  1  0  0  0  0
 37  7  2  0  0  0  0
 38 37  1  0  0  0  0
 39 38  2  0  0  0  0
 39  5  1  0  0  0  0
 40 39  1  0  0  0  0
 41 40  1  0  0  0  0
 42 41  2  0  0  0  0
 43 41  1  0  0  0  0
 44 43  2  0  0  0  0
 44 37  1  0  0  0  0
 45 44  1  0  0  0  0
  1 46  1  0  0  0  0
  1 47  1  0  0  0  0
  1 48  1  0  0  0  0
  2 49  1  0  0  0  0
  2 50  1  0  0  0  0
  3 51  1  0  0  0  0
  3 52  1  0  0  0  0
  4 53  1  0  0  0  0
  4 54  1  0  0  0  0
  6 55  1  0  0  0  0
  8 56  1  0  0  0  0
  8 57  1  0  0  0  0
  9 58  1  0  0  0  0
  9 59  1  0  0  0  0
 10 60  1  0  0  0  0
 11 61  1  0  0  0  0
 11 62  1  0  0  0  0
 12 63  1  0  0  0  0
 12 64  1  0  0  0  0
 16 65  1  0  0  0  0
 16 66  1  0  0  0  0
 16 67  1  0  0  0  0
 17 68  1  0  0  0  0
 18 69  1  0  0  0  0
 19 70  1  0  0  0  0
 19 71  1  0  0  0  0
 20 72  1  0  0  0  0
 20 73  1  0  0  0  0
 21 74  1  0  0  0  0
 21 75  1  0  0  0  0
 24 76  1  0  0  0  0
 24 77  1  0  0  0  0
 25 78  1  0  0  0  0
 25 79  1  0  0  0  0
 28 80  1  0  0  0  0
 29 81  1  0  0  0  0
 30 82  1  0  0  0  0
 30 83  1  0  0  0  0
 31 84  1  0  0  0  0
 32 85  1  0  0  0  0
 32 86  1  0  0  0  0
 32 87  1  0  0  0  0
 33 88  1  0  0  0  0
 33 89  1  0  0  0  0
 33 90  1  0  0  0  0
 36 91  1  0  0  0  0
 38 92  1  0  0  0  0
 40 93  1  0  0  0  0
 43 94  1  0  0  0  0
 45 95  1  0  0  0  0
 45 96  1  0  0  0  0
 45 97  1  0  0  0  0
M  CHG  1   5   1
M  END
>  <energy>
78.204672687124713

$$$$
