CN1N=C2NC(=NCC(=O)Nc3ccc([N+](=O)[O-])cn3)NC(=N)N=C1N2
                    3D

 39 41  0  0  0  0  0  0  0  0999 V2000
    3.8954   -1.9532   -1.8795 C   0  0  0  0  0  0  0  0  0  0  0  0
    2.6724   -1.2331   -2.2173 N   0  0  0  0  0  0  0  0  0  0  0  0
    2.8784    0.1050   -2.7325 N   0  0  0  0  0  0  0  0  0  0  0  0
    1.7935    0.7209   -2.2729 C   0  0  0  0  0  0  0  0  0  0  0  0
    1.7901    1.8630   -1.5107 N   0  0  0  0  0  0  0  0  0  0  0  0
    1.0594    2.0817   -0.3584 C   0  0  0  0  0  0  0  0  0  0  0  0
    0.4973    3.2519   -0.3096 N   0  0  0  0  0  0  0  0  0  0  0  0
   -0.5221    3.5564    0.7031 C   0  0  0  0  0  0  0  0  0  0  0  0
   -1.8031    2.7743    0.3639 C   0  0  0  0  0  0  0  0  0  0  0  0
   -2.3460    2.8375   -0.7357 O   0  0  0  0  0  0  0  0  0  0  0  0
   -2.1795    1.9110    1.3673 N   0  0  0  0  0  0  0  0  0  0  0  0
   -2.3776    0.5390    1.1789 C   0  0  0  0  0  0  0  0  0  0  0  0
   -2.4796   -0.0637   -0.0703 C   0  0  0  0  0  0  0  0  0  0  0  0
   -2.4513   -1.4586   -0.1466 C   0  0  0  0  0  0  0  0  0  0  0  0
   -2.3331   -2.1947    1.0316 C   0  0  0  0  0  0  0  0  0  0  0  0
   -2.2719   -3.6500    0.9975 N   0  3  0  0  0  0  0  0  0  0  0  0
   -2.3663   -4.2547    2.0758 O   0  0  0  0  0  0  0  0  0  0  0  0
   -2.1508   -4.1946   -0.1085 O   0  5  0  0  0  0  0  0  0  0  0  0
   -2.2716   -1.5208    2.2373 C   0  0  0  0  0  0  0  0  0  0  0  0
   -2.2891   -0.1634    2.3310 N   0  0  0  0  0  0  0  0  0  0  0  0
    0.9263    1.0760    0.5952 N   0  0  0  0  0  0  0  0  0  0  0  0
    1.2245   -0.2589    0.8396 C   0  0  0  0  0  0  0  0  0  0  0  0
    0.8956   -0.8009    1.9715 N   0  0  0  0  0  0  0  0  0  0  0  0
    1.8924   -1.1596    0.0446 N   0  0  0  0  0  0  0  0  0  0  0  0
    1.6721   -1.1123   -1.2305 C   0  0  0  0  0  0  0  0  0  0  0  0
    0.8569   -0.1955   -1.8512 N   0  0  0  0  0  0  0  0  0  0  0  0
    4.4578   -1.4336   -1.0983 H   0  0  0  0  0  0  0  0  0  0  0  0
    3.6558   -2.9626   -1.5173 H   0  0  0  0  0  0  0  0  0  0  0  0
    4.5322   -2.0489   -2.7609 H   0  0  0  0  0  0  0  0  0  0  0  0
    1.8603    2.7060   -2.0692 H   0  0  0  0  0  0  0  0  0  0  0  0
   -0.1598    3.3351    1.7132 H   0  0  0  0  0  0  0  0  0  0  0  0
   -0.7607    4.6219    0.6797 H   0  0  0  0  0  0  0  0  0  0  0  0
   -1.9768    2.1395    2.3284 H   0  0  0  0  0  0  0  0  0  0  0  0
   -2.5413    0.5137   -0.9853 H   0  0  0  0  0  0  0  0  0  0  0  0
   -2.5042   -1.9431   -1.1109 H   0  0  0  0  0  0  0  0  0  0  0  0
   -2.1857   -2.0358    3.1957 H   0  0  0  0  0  0  0  0  0  0  0  0
    0.4528    1.4294    1.4084 H   0  0  0  0  0  0  0  0  0  0  0  0
    0.4143   -0.1627    2.5984 H   0  0  0  0  0  0  0  0  0  0  0  0
    0.5429   -0.6618   -2.6957 H   0  0  0  0  0  0  0  0  0  0  0  0
  2  1  1  0  0  0  0
  3  2  1  0  0  0  0
  4  3  2  0  0  0  0
  5  4  1  0  0  0  0
  6  5  1  0  0  0  0
  7  6  2  0  0  0  0
  8  7  1  0  0  0  0
  9  8  1  0  0  0  0
 10  9  2  0  0  0  0
 11  9  1  0  0  0  0
 12 11  1  0  0  0  0
 13 12  2  0  0  0  0
 14 13  1  0  0  0  0
 15 14  2  0  0  0  0
 16 15  1  0  0  0  0
 17 16  2  0  0  0  0
 18 16  1  0  0  0  0
 19 15  1  0  0  0  0
 20 19  2  0  0  0  0
 20 12  1  0  0  0  0
 21  6  1  0  0  0  0
 22 21  1  0  0  0  0
 23 22  2  0  0  0  0
 24 22  1  0  0  0  0
 25 24  2  0  0  0  0
 25  2  1  0  0  0  0
 26 25  1  0  0  0  0
 26  4  1  0  0  0  0
  1 27  1  0  0  0  0
  1 28  1  0  0  0  0
  1 29  1  0  0  0  0
  5 30  1  0  0  0  0
  8 31  1  0  0  0  0
  8 32  1  0  0  0  0
 11 33  1  0  0  0  0
 13 34  1  0  0  0  0
 14 35  1  0  0  0  0
 19 36  1  0  0  0  0
 21 37  1  0  0  0  0
 23 38  1  0  0  0  0
 26 39  1  0  0  0  0
M  CHG  2  16   1  18  -1
M  END
>  <energy>
-84.09242481170935

$$$$
