CCc1nc(C(N)=O)c(N)n1CCn1[nH]c(=NC(=O)c2ccsc2CN)n2c(=O)c3c(nc12)N1C(=O)NC(=O)C(=N
                    3D

 76 81  0  0  0  0  0  0  0  0999 V2000
   -2.5172   -4.0919    2.1104 C   0  0  0  0  0  0  0  0  0  0  0  0
   -3.8293   -3.4004    1.7569 C   0  0  0  0  0  0  0  0  0  0  0  0
   -3.7343   -1.9129    1.8432 C   0  0  0  0  0  0  0  0  0  0  0  0
   -4.3100   -1.1591    2.7588 N   0  0  0  0  0  0  0  0  0  0  0  0
   -3.8471    0.1362    2.5369 C   0  0  0  0  0  0  0  0  0  0  0  0
   -4.3415    1.2796    3.3028 C   0  0  0  0  0  0  0  0  0  0  0  0
   -5.4797    1.0036    4.0203 N   0  0  0  0  0  0  0  0  0  0  0  0
   -3.8450    2.4016    3.2848 O   0  0  0  0  0  0  0  0  0  0  0  0
   -2.9188    0.1239    1.5061 C   0  0  0  0  0  0  0  0  0  0  0  0
   -2.0751    1.0425    0.9711 N   0  0  0  0  0  0  0  0  0  0  0  0
   -3.0956   -1.1113    0.9206 N   0  0  0  0  0  0  0  0  0  0  0  0
   -3.1709   -1.3124   -0.5170 C   0  0  0  0  0  0  0  0  0  0  0  0
   -2.0686   -2.1730   -1.1082 C   0  0  0  0  0  0  0  0  0  0  0  0
   -1.2480   -1.4250   -2.0347 N   0  0  0  0  0  0  0  0  0  0  0  0
   -1.7107   -0.7978   -3.1601 N   0  0  0  0  0  0  0  0  0  0  0  0
   -0.6586   -0.0146   -3.6280 C   0  0  0  0  0  0  0  0  0  0  0  0
   -0.6585    1.0618   -4.3321 N   0  0  0  0  0  0  0  0  0  0  0  0
   -1.8378    1.7487   -4.2907 C   0  0  0  0  0  0  0  0  0  0  0  0
   -2.8739    1.4255   -4.8551 O   0  0  0  0  0  0  0  0  0  0  0  0
   -1.7717    2.7645   -3.2259 C   0  0  0  0  0  0  0  0  0  0  0  0
   -2.8276    2.9782   -2.2714 C   0  0  0  0  0  0  0  0  0  0  0  0
   -2.4729    3.8428   -1.2627 C   0  0  0  0  0  0  0  0  0  0  0  0
   -0.8942    4.4449   -1.4685 S   0  0  0  0  0  0  0  0  0  0  0  0
   -0.6747    3.5775   -2.9422 C   0  0  0  0  0  0  0  0  0  0  0  0
    0.6122    3.7777   -3.7040 C   0  0  0  0  0  0  0  0  0  0  0  0
    0.6451    5.1167   -4.3049 N   0  0  0  0  0  0  0  0  0  0  0  0
    0.4961   -0.4220   -2.9908 N   0  0  0  0  0  0  0  0  0  0  0  0
    1.7804    0.0698   -3.1442 C   0  0  0  0  0  0  0  0  0  0  0  0
    2.2435    0.5220   -4.1877 O   0  0  0  0  0  0  0  0  0  0  0  0
    2.6232   -0.0802   -1.9191 C   0  0  0  0  0  0  0  0  0  0  0  0
    2.0315   -0.6962   -0.8514 C   0  0  0  0  0  0  0  0  0  0  0  0
    0.8022   -1.2938   -0.8259 N   0  0  0  0  0  0  0  0  0  0  0  0
    0.0768   -1.0961   -1.8734 C   0  0  0  0  0  0  0  0  0  0  0  0
    2.7899   -0.7120    0.3406 N   0  0  0  0  0  0  0  0  0  0  0  0
    2.6839    0.5352    1.1052 C   0  0  0  0  0  0  0  0  0  0  0  0
    1.6246    0.9538    1.5724 O   0  0  0  0  0  0  0  0  0  0  0  0
    3.8712    1.3037    1.1814 N   0  0  0  0  0  0  0  0  0  0  0  0
    4.9054    1.2486    0.2466 C   0  0  0  0  0  0  0  0  0  0  0  0
    5.9265    1.9018    0.1794 O   0  0  0  0  0  0  0  0  0  0  0  0
    4.5145    0.1572   -0.7399 C   0  0  0  0  0  0  0  0  0  0  0  0
    3.8719    0.5677   -1.8121 N   0  0  0  0  0  0  0  0  0  0  0  0
    4.1302   -0.9791   -0.0647 N   0  0  0  0  0  0  0  0  0  0  0  0
    4.9185   -1.9681    0.6344 C   0  0  0  0  0  0  0  0  0  0  0  0
    5.3944   -1.6155    2.0420 C   0  0  0  0  0  0  0  0  0  0  0  0
    4.3046   -1.7477    3.1190 C   0  0  0  0  0  0  0  0  0  0  0  0
    4.7645   -2.5518    4.2270 N   0  0  0  0  0  0  0  0  0  0  0  0
    4.0258   -0.4647    3.6275 O   0  0  0  0  0  0  0  0  0  0  0  0
   -1.9361   -4.3070    1.2074 H   0  0  0  0  0  0  0  0  0  0  0  0
   -2.7157   -5.0540    2.5950 H   0  0  0  0  0  0  0  0  0  0  0  0
   -1.8880   -3.4965    2.7807 H   0  0  0  0  0  0  0  0  0  0  0  0
   -4.6008   -3.7317    2.4615 H   0  0  0  0  0  0  0  0  0  0  0  0
   -4.1586   -3.7148    0.7612 H   0  0  0  0  0  0  0  0  0  0  0  0
   -5.9665    1.7420    4.5071 H   0  0  0  0  0  0  0  0  0  0  0  0
   -5.9140    0.0908    3.9316 H   0  0  0  0  0  0  0  0  0  0  0  0
   -1.1350    0.7181    0.7250 H   0  0  0  0  0  0  0  0  0  0  0  0
   -1.9609    1.9032    1.5174 H   0  0  0  0  0  0  0  0  0  0  0  0
   -3.2286   -0.3228   -0.9857 H   0  0  0  0  0  0  0  0  0  0  0  0
   -4.1440   -1.7830   -0.7073 H   0  0  0  0  0  0  0  0  0  0  0  0
   -1.4466   -2.6241   -0.3287 H   0  0  0  0  0  0  0  0  0  0  0  0
   -2.5240   -3.0054   -1.6585 H   0  0  0  0  0  0  0  0  0  0  0  0
   -2.6482   -0.4000   -3.2080 H   0  0  0  0  0  0  0  0  0  0  0  0
   -3.7821    2.4666   -2.2921 H   0  0  0  0  0  0  0  0  0  0  0  0
   -3.0612    4.1333   -0.4016 H   0  0  0  0  0  0  0  0  0  0  0  0
    1.4679    3.6546   -3.0265 H   0  0  0  0  0  0  0  0  0  0  0  0
    0.7438    3.0431   -4.5000 H   0  0  0  0  0  0  0  0  0  0  0  0
    0.5775    5.7863   -3.5388 H   0  0  0  0  0  0  0  0  0  0  0  0
   -0.1796    5.2521   -4.8883 H   0  0  0  0  0  0  0  0  0  0  0  0
    3.8356    2.1229    1.7685 H   0  0  0  0  0  0  0  0  0  0  0  0
    5.8028   -2.1669    0.0164 H   0  0  0  0  0  0  0  0  0  0  0  0
    4.3610   -2.9130    0.6578 H   0  0  0  0  0  0  0  0  0  0  0  0
    6.2000   -2.3301    2.2615 H   0  0  0  0  0  0  0  0  0  0  0  0
    5.8591   -0.6238    2.0592 H   0  0  0  0  0  0  0  0  0  0  0  0
    3.3840   -2.1744    2.7082 H   0  0  0  0  0  0  0  0  0  0  0  0
    5.5769   -2.0949    4.6471 H   0  0  0  0  0  0  0  0  0  0  0  0
    4.0747   -2.5826    4.9757 H   0  0  0  0  0  0  0  0  0  0  0  0
    3.2313   -0.5476    4.1814 H   0  0  0  0  0  0  0  0  0  0  0  0
  2  1  1  0  0  0  0
  3  2  1  0  0  0  0
  4  3  2  0  0  0  0
  5  4  1  0  0  0  0
  6  5  1  0  0  0  0
  7  6  1  0  0  0  0
  8  6  2  0  0  0  0
  9  5  2  0  0  0  0
 10  9  1  0  0  0  0
 11  9  1  0  0  0  0
 11  3  1  0  0  0  0
 12 11  1  0  0  0  0
 13 12  1  0  0  0  0
 14 13  1  0  0  0  0
 15 14  1  0  0  0  0
 16 15  1  0  0  0  0
 17 16  2  0  0  0  0
 18 17  1  0  0  0  0
 19 18  2  0  0  0  0
 20 18  1  0  0  0  0
 21 20  1  0  0  0  0
 22 21  2  0  0  0  0
 23 22  1  0  0  0  0
 24 23  1  0  0  0  0
 24 20  2  0  0  0  0
 25 24  1  0  0  0  0
 26 25  1  0  0  0  0
 27 16  1  0  0  0  0
 28 27  1  0  0  0  0
 29 28  2  0  0  0  0
 30 28  1  0  0  0  0
 31 30  2  0  0  0  0
 32 31  1  0  0  0  0
 33 32  2  0  0  0  0
 33 14  1  0  0  0  0
 33 27  1  0  0  0  0
 34 31  1  0  0  0  0
 35 34  1  0  0  0  0
 36 35  2  0  0  0  0
 37 35  1  0  0  0  0
 38 37  1  0  0  0  0
 39 38  2  0  0  0  0
 40 38  1  0  0  0  0
 41 40  2  0  0  0  0
 41 30  1  0  0  0  0
 42 40  1  0  0  0  0
 42 34  1  0  0  0  0
 43 42  1  0  0  0  0
 44 43  1  0  0  0  0
 45 44  1  0  0  0  0
 46 45  1  0  0  0  0
 47 45  1  0  0  0  0
  1 48  1  0  0  0  0
  1 49  1  0  0  0  0
  1 50  1  0  0  0  0
  2 51  1  0  0  0  0
  2 52  1  0  0  0  0
  7 53  1  0  0  0  0
  7 54  1  0  0  0  0
 10 55  1  0  0  0  0
 10 56  1  0  0  0  0
 12 57  1  0  0  0  0
 12 58  1  0  0  0  0
 13 59  1  0  0  0  0
 13 60  1  0  0  0  0
 15 61  1  0  0  0  0
 21 62  1  0  0  0  0
 22 63  1  0  0  0  0
 25 64  1  0  0  0  0
 25 65  1  0  0  0  0
 26 66  1  0  0  0  0
 26 67  1  0  0  0  0
 37 68  1  0  0  0  0
 43 69  1  0  0  0  0
 43 70  1  0  0  0  0
 44 71  1  0  0  0  0
 44 72  1  0  0  0  0
 45 73  1  0  0  0  0
 46 74  1  0  0  0  0
 46 75  1  0  0  0  0
 47 76  1  0  0  0  0
M  END
>  <energy>
110.97935046566189

$$$$
