CC(=CC1(O)C2CCC3(C)OC4(CC5CC4(O)C51O)C3C2)C(C)C#N
                    3D

 52 56  0  0  0  0  0  0  0  0999 V2000
    2.8642    1.8673    1.0165 C   0  0  0  0  0  0  0  0  0  0  0  0
    1.7715    2.4912    0.1902 C   0  0  0  0  0  0  0  0  0  0  0  0
    0.4725    2.1003    0.1367 C   0  0  0  0  0  0  0  0  0  0  0  0
   -0.4120    0.9493    0.7166 C   0  0  0  0  0  0  0  0  0  0  0  0
   -1.0467    1.5430    1.8638 O   0  0  0  0  0  0  0  0  0  0  0  0
    0.4139   -0.2833    1.2337 C   0  0  0  0  0  0  0  0  0  0  0  0
    1.3561   -1.0335    0.2475 C   0  0  0  0  0  0  0  0  0  0  0  0
    1.0292   -2.4659   -0.2767 C   0  0  0  0  0  0  0  0  0  0  0  0
   -0.2264   -3.1422    0.2910 C   0  0  0  0  0  0  0  0  0  0  0  0
    0.0216   -4.5448    0.8301 C   0  0  0  0  0  0  0  0  0  0  0  0
   -1.4077   -3.1768   -0.6241 O   0  0  0  0  0  0  0  0  0  0  0  0
   -1.7668   -1.8604   -0.1089 C   0  0  0  0  0  0  0  0  0  0  0  0
   -3.1767   -1.5384    0.3486 C   0  0  0  0  0  0  0  0  0  0  0  0
   -3.1024   -0.1013   -0.1478 C   0  0  0  0  0  0  0  0  0  0  0  0
   -2.8949   -0.4048   -1.6664 C   0  0  0  0  0  0  0  0  0  0  0  0
   -1.4392   -0.6906   -1.1111 C   0  0  0  0  0  0  0  0  0  0  0  0
   -0.4550   -0.7906   -2.1572 O   0  0  0  0  0  0  0  0  0  0  0  0
   -1.6052    0.6378   -0.3144 C   0  0  0  0  0  0  0  0  0  0  0  0
   -1.8316    1.8651   -1.1100 O   0  0  0  0  0  0  0  0  0  0  0  0
   -1.0423   -2.2309    1.1924 C   0  0  0  0  0  0  0  0  0  0  0  0
   -0.3686   -1.2523    2.0835 C   0  0  0  0  0  0  0  0  0  0  0  0
    2.2649    3.6920   -0.6522 C   0  0  0  0  0  0  0  0  0  0  0  0
    2.4946    3.2358   -2.0939 C   0  0  0  0  0  0  0  0  0  0  0  0
    1.3560    4.8577   -0.6149 C   0  0  0  0  0  0  0  0  0  0  0  0
    0.6454    5.7788   -0.6089 N   0  0  0  0  0  0  0  0  0  0  0  0
    3.5882    2.6225    1.3456 H   0  0  0  0  0  0  0  0  0  0  0  0
    3.4108    1.1164    0.4406 H   0  0  0  0  0  0  0  0  0  0  0  0
    2.4983    1.4214    1.9373 H   0  0  0  0  0  0  0  0  0  0  0  0
   -0.1364    2.8052   -0.4322 H   0  0  0  0  0  0  0  0  0  0  0  0
   -0.9147    2.5120    1.8282 H   0  0  0  0  0  0  0  0  0  0  0  0
    1.0677    0.1510    1.9939 H   0  0  0  0  0  0  0  0  0  0  0  0
    2.3258   -1.1344    0.7629 H   0  0  0  0  0  0  0  0  0  0  0  0
    1.6011   -0.3949   -0.6050 H   0  0  0  0  0  0  0  0  0  0  0  0
    1.0026   -2.4692   -1.3703 H   0  0  0  0  0  0  0  0  0  0  0  0
    1.9068   -3.0860   -0.0410 H   0  0  0  0  0  0  0  0  0  0  0  0
    0.6702   -4.5127    1.7117 H   0  0  0  0  0  0  0  0  0  0  0  0
    0.4949   -5.1771    0.0714 H   0  0  0  0  0  0  0  0  0  0  0  0
   -0.9161   -5.0306    1.1251 H   0  0  0  0  0  0  0  0  0  0  0  0
   -3.3551   -1.5557    1.4278 H   0  0  0  0  0  0  0  0  0  0  0  0
   -3.9544   -2.1344   -0.1455 H   0  0  0  0  0  0  0  0  0  0  0  0
   -3.9431    0.5514    0.0996 H   0  0  0  0  0  0  0  0  0  0  0  0
   -3.0223    0.4124   -2.3861 H   0  0  0  0  0  0  0  0  0  0  0  0
   -3.4177   -1.2668   -2.1006 H   0  0  0  0  0  0  0  0  0  0  0  0
    0.1498   -0.0403   -2.0448 H   0  0  0  0  0  0  0  0  0  0  0  0
   -1.4110    1.6951   -1.9707 H   0  0  0  0  0  0  0  0  0  0  0  0
   -1.6632   -2.8609    1.8550 H   0  0  0  0  0  0  0  0  0  0  0  0
   -1.0953   -0.7414    2.7248 H   0  0  0  0  0  0  0  0  0  0  0  0
    0.3027   -1.7934    2.7666 H   0  0  0  0  0  0  0  0  0  0  0  0
    3.2228    4.0484   -0.2544 H   0  0  0  0  0  0  0  0  0  0  0  0
    1.5499    3.0109   -2.6038 H   0  0  0  0  0  0  0  0  0  0  0  0
    3.1187    2.3367   -2.1276 H   0  0  0  0  0  0  0  0  0  0  0  0
    3.0046    4.0120   -2.6728 H   0  0  0  0  0  0  0  0  0  0  0  0
  2  1  1  0  0  0  0
  3  2  2  0  0  0  0
  4  3  1  0  0  0  0
  5  4  1  0  0  0  0
  6  4  1  0  0  0  0
  7  6  1  0  0  0  0
  8  7  1  0  0  0  0
  9  8  1  0  0  0  0
 10  9  1  0  0  0  0
 11  9  1  0  0  0  0
 12 11  1  0  0  0  0
 13 12  1  0  0  0  0
 14 13  1  0  0  0  0
 15 14  1  0  0  0  0
 16 15  1  0  0  0  0
 16 12  1  0  0  0  0
 17 16  1  0  0  0  0
 18 16  1  0  0  0  0
 18 14  1  0  0  0  0
 18  4  1  0  0  0  0
 19 18  1  0  0  0  0
 20 12  1  0  0  0  0
 20  9  1  0  0  0  0
 21 20  1  0  0  0  0
 21  6  1  0  0  0  0
 22  2  1  0  0  0  0
 23 22  1  0  0  0  0
 24 22  1  0  0  0  0
 25 24  3  0  0  0  0
  1 26  1  0  0  0  0
  1 27  1  0  0  0  0
  1 28  1  0  0  0  0
  3 29  1  0  0  0  0
  5 30  1  0  0  0  0
  6 31  1  0  0  0  0
  7 32  1  0  0  0  0
  7 33  1  0  0  0  0
  8 34  1  0  0  0  0
  8 35  1  0  0  0  0
 10 36  1  0  0  0  0
 10 37  1  0  0  0  0
 10 38  1  0  0  0  0
 13 39  1  0  0  0  0
 13 40  1  0  0  0  0
 14 41  1  0  0  0  0
 15 42  1  0  0  0  0
 15 43  1  0  0  0  0
 17 44  1  0  0  0  0
 19 45  1  0  0  0  0
 20 46  1  0  0  0  0
 21 47  1  0  0  0  0
 21 48  1  0  0  0  0
 22 49  1  0  0  0  0
 23 50  1  0  0  0  0
 23 51  1  0  0  0  0
 23 52  1  0  0  0  0
M  END
>  <energy>
207.16276722506217

$$$$
