CC1N[N+]2(C)CCC12
                    3D

 21 22  0  0  0  0  0  0  0  0999 V2000
   -2.4639    0.0654   -0.3164 C   0  0  0  0  0  0  0  0  0  0  0  0
   -1.0793    0.6435   -0.5464 C   0  0  0  0  0  0  0  0  0  0  0  0
   -0.1795   -0.2873   -1.2611 N   0  0  0  0  0  0  0  0  0  0  0  0
    0.6864   -0.4218   -0.1592 N   0  3  0  0  0  0  0  0  0  0  0  0
    0.8522   -1.7487    0.4481 C   0  0  0  0  0  0  0  0  0  0  0  0
    1.8668    0.4483   -0.1831 C   0  0  0  0  0  0  0  0  0  0  0  0
    1.0800    1.5232    0.5827 C   0  0  0  0  0  0  0  0  0  0  0  0
   -0.0945    0.5395    0.6403 C   0  0  0  0  0  0  0  0  0  0  0  0
   -2.4271   -0.9360    0.1264 H   0  0  0  0  0  0  0  0  0  0  0  0
   -3.0183    0.0002   -1.2588 H   0  0  0  0  0  0  0  0  0  0  0  0
   -3.0358    0.7084    0.3609 H   0  0  0  0  0  0  0  0  0  0  0  0
   -1.1322    1.6364   -1.0085 H   0  0  0  0  0  0  0  0  0  0  0  0
   -0.6185   -1.1587   -1.5854 H   0  0  0  0  0  0  0  0  0  0  0  0
   -0.1299   -2.2126    0.5853 H   0  0  0  0  0  0  0  0  0  0  0  0
    1.3513   -1.6448    1.4169 H   0  0  0  0  0  0  0  0  0  0  0  0
    1.4633   -2.3582   -0.2240 H   0  0  0  0  0  0  0  0  0  0  0  0
    2.1957    0.7369   -1.1872 H   0  0  0  0  0  0  0  0  0  0  0  0
    2.7268    0.0503    0.3668 H   0  0  0  0  0  0  0  0  0  0  0  0
    0.8992    2.4491    0.0282 H   0  0  0  0  0  0  0  0  0  0  0  0
    1.5032    1.7740    1.5606 H   0  0  0  0  0  0  0  0  0  0  0  0
   -0.4462    0.1930    1.6141 H   0  0  0  0  0  0  0  0  0  0  0  0
  2  1  1  0  0  0  0
  3  2  1  0  0  0  0
  4  3  1  0  0  0  0
  5  4  1  0  0  0  0
  6  4  1  0  0  0  0
  7  6  1  0  0  0  0
  8  7  1  0  0  0  0
  8  2  1  0  0  0  0
  8  4  1  0  0  0  0
  1  9  1  0  0  0  0
  1 10  1  0  0  0  0
  1 11  1  0  0  0  0
  2 12  1  0  0  0  0
  3 13  1  0  0  0  0
  5 14  1  0  0  0  0
  5 15  1  0  0  0  0
  5 16  1  0  0  0  0
  6 17  1  0  0  0  0
  6 18  1  0  0  0  0
  7 19  1  0  0  0  0
  7 20  1  0  0  0  0
  8 21  1  0  0  0  0
M  CHG  1   4   1
M  END
>  <energy>
101.803094236037

$$$$
