CCNCCOCC1CCCCC2C1C1N2C2C(O)C(O)C21O
                    3D

 53 56  0  0  0  0  0  0  0  0999 V2000
   -4.5248   -0.9919    1.9294 C   0  0  0  0  0  0  0  0  0  0  0  0
   -4.4887    0.0264    0.8017 C   0  0  0  0  0  0  0  0  0  0  0  0
   -3.4429   -0.3373   -0.1490 N   0  0  0  0  0  0  0  0  0  0  0  0
   -3.4481    0.5445   -1.3250 C   0  0  0  0  0  0  0  0  0  0  0  0
   -2.3526    0.1533   -2.3306 C   0  0  0  0  0  0  0  0  0  0  0  0
   -1.0836    0.6064   -1.8510 O   0  0  0  0  0  0  0  0  0  0  0  0
    0.0076   -0.2166   -2.2611 C   0  0  0  0  0  0  0  0  0  0  0  0
    0.2915   -1.2694   -1.1907 C   0  0  0  0  0  0  0  0  0  0  0  0
    1.2737   -2.3266   -1.7434 C   0  0  0  0  0  0  0  0  0  0  0  0
    1.7367   -3.4172   -0.7634 C   0  0  0  0  0  0  0  0  0  0  0  0
    2.4566   -3.0023    0.5342 C   0  0  0  0  0  0  0  0  0  0  0  0
    3.2434   -1.6923    0.4854 C   0  0  0  0  0  0  0  0  0  0  0  0
    2.3680   -0.4717    0.2110 C   0  0  0  0  0  0  0  0  0  0  0  0
    0.8453   -0.6824    0.1091 C   0  0  0  0  0  0  0  0  0  0  0  0
    0.7035    0.6578    0.8565 C   0  0  0  0  0  0  0  0  0  0  0  0
    2.0994    0.3790    1.4287 N   0  0  0  0  0  0  0  0  0  0  0  0
    2.5146    1.7592    1.1226 C   0  0  0  0  0  0  0  0  0  0  0  0
    2.0898    2.7497    2.2283 C   0  0  0  0  0  0  0  0  0  0  0  0
    3.0165    3.8294    2.4936 O   0  0  0  0  0  0  0  0  0  0  0  0
    0.8642    3.1486    1.3503 C   0  0  0  0  0  0  0  0  0  0  0  0
    0.9335    4.4937    0.8040 O   0  0  0  0  0  0  0  0  0  0  0  0
    1.2194    2.0124    0.3542 C   0  0  0  0  0  0  0  0  0  0  0  0
    1.2994    2.3460   -1.0407 O   0  0  0  0  0  0  0  0  0  0  0  0
   -5.2948   -0.7213    2.6611 H   0  0  0  0  0  0  0  0  0  0  0  0
   -4.7544   -1.9937    1.5484 H   0  0  0  0  0  0  0  0  0  0  0  0
   -3.5619   -1.0398    2.4509 H   0  0  0  0  0  0  0  0  0  0  0  0
   -4.2876    1.0199    1.2154 H   0  0  0  0  0  0  0  0  0  0  0  0
   -5.4690    0.0495    0.3140 H   0  0  0  0  0  0  0  0  0  0  0  0
   -3.5559   -1.3055   -0.4482 H   0  0  0  0  0  0  0  0  0  0  0  0
   -4.4202    0.4779   -1.8270 H   0  0  0  0  0  0  0  0  0  0  0  0
   -3.2830    1.5779   -1.0017 H   0  0  0  0  0  0  0  0  0  0  0  0
   -2.5410    0.6526   -3.2877 H   0  0  0  0  0  0  0  0  0  0  0  0
   -2.3643   -0.9285   -2.5119 H   0  0  0  0  0  0  0  0  0  0  0  0
    0.8857    0.4149   -2.4233 H   0  0  0  0  0  0  0  0  0  0  0  0
   -0.2170   -0.6881   -3.2278 H   0  0  0  0  0  0  0  0  0  0  0  0
   -0.6572   -1.7695   -0.9547 H   0  0  0  0  0  0  0  0  0  0  0  0
    0.7890   -2.8306   -2.5921 H   0  0  0  0  0  0  0  0  0  0  0  0
    2.1576   -1.8284   -2.1607 H   0  0  0  0  0  0  0  0  0  0  0  0
    0.8784   -4.0473   -0.4952 H   0  0  0  0  0  0  0  0  0  0  0  0
    2.4179   -4.0734   -1.3201 H   0  0  0  0  0  0  0  0  0  0  0  0
    1.7328   -2.9684    1.3560 H   0  0  0  0  0  0  0  0  0  0  0  0
    3.1429   -3.8131    0.8137 H   0  0  0  0  0  0  0  0  0  0  0  0
    3.7970   -1.5670    1.4245 H   0  0  0  0  0  0  0  0  0  0  0  0
    4.0087   -1.7729   -0.2973 H   0  0  0  0  0  0  0  0  0  0  0  0
    2.7876    0.0736   -0.6491 H   0  0  0  0  0  0  0  0  0  0  0  0
    0.4785   -1.4175    0.8493 H   0  0  0  0  0  0  0  0  0  0  0  0
   -0.0919    0.6833    1.6076 H   0  0  0  0  0  0  0  0  0  0  0  0
    3.4733    1.9224    0.6238 H   0  0  0  0  0  0  0  0  0  0  0  0
    1.8081    2.2790    3.1778 H   0  0  0  0  0  0  0  0  0  0  0  0
    2.5700    4.6193    2.1250 H   0  0  0  0  0  0  0  0  0  0  0  0
   -0.0906    3.0207    1.8721 H   0  0  0  0  0  0  0  0  0  0  0  0
    0.1895    4.5245    0.1696 H   0  0  0  0  0  0  0  0  0  0  0  0
    1.8491    3.1508   -1.0663 H   0  0  0  0  0  0  0  0  0  0  0  0
  2  1  1  0  0  0  0
  3  2  1  0  0  0  0
  4  3  1  0  0  0  0
  5  4  1  0  0  0  0
  6  5  1  0  0  0  0
  7  6  1  0  0  0  0
  8  7  1  0  0  0  0
  9  8  1  0  0  0  0
 10  9  1  0  0  0  0
 11 10  1  0  0  0  0
 12 11  1  0  0  0  0
 13 12  1  0  0  0  0
 14 13  1  0  0  0  0
 14  8  1  0  0  0  0
 15 14  1  0  0  0  0
 16 15  1  0  0  0  0
 16 13  1  0  0  0  0
 17 16  1  0  0  0  0
 18 17  1  0  0  0  0
 19 18  1  0  0  0  0
 20 18  1  0  0  0  0
 21 20  1  0  0  0  0
 22 20  1  0  0  0  0
 22 17  1  0  0  0  0
 22 15  1  0  0  0  0
 23 22  1  0  0  0  0
  1 24  1  0  0  0  0
  1 25  1  0  0  0  0
  1 26  1  0  0  0  0
  2 27  1  0  0  0  0
  2 28  1  0  0  0  0
  3 29  1  0  0  0  0
  4 30  1  0  0  0  0
  4 31  1  0  0  0  0
  5 32  1  0  0  0  0
  5 33  1  0  0  0  0
  7 34  1  0  0  0  0
  7 35  1  0  0  0  0
  8 36  1  0  0  0  0
  9 37  1  0  0  0  0
  9 38  1  0  0  0  0
 10 39  1  0  0  0  0
 10 40  1  0  0  0  0
 11 41  1  0  0  0  0
 11 42  1  0  0  0  0
 12 43  1  0  0  0  0
 12 44  1  0  0  0  0
 13 45  1  0  0  0  0
 14 46  1  0  0  0  0
 15 47  1  0  0  0  0
 17 48  1  0  0  0  0
 18 49  1  0  0  0  0
 19 50  1  0  0  0  0
 20 51  1  0  0  0  0
 21 52  1  0  0  0  0
 23 53  1  0  0  0  0
M  END
>  <energy>
143.40948391413983

$$$$
