CC(C#CC[N+]1(C)C2CC3C=[N+](C)C4(C3NC[N+]3(C)C=CC3)C1CC1(C)CC1C(O)C24C)CO
                    3D

 79 84  0  0  0  0  0  0  0  0999 V2000
    5.0787   -2.5896   -0.3107 C   0  0  0  0  0  0  0  0  0  0  0  0
    5.3272   -1.0838   -0.2254 C   0  0  0  0  0  0  0  0  0  0  0  0
    4.1403   -0.3944    0.3312 C   0  0  0  0  0  0  0  0  0  0  0  0
    3.2194    0.2437    0.7645 C   0  0  0  0  0  0  0  0  0  0  0  0
    2.1798    1.1364    1.2826 C   0  0  0  0  0  0  0  0  0  0  0  0
    0.7241    0.5605    1.2768 N   0  3  0  0  0  0  0  0  0  0  0  0
    0.9575   -0.8321    1.9624 C   0  0  0  0  0  0  0  0  0  0  0  0
   -0.2095    1.5713    1.9313 C   0  0  0  0  0  0  0  0  0  0  0  0
   -1.0715    0.7478    2.9595 C   0  0  0  0  0  0  0  0  0  0  0  0
   -2.2232   -0.1018    2.3404 C   0  0  0  0  0  0  0  0  0  0  0  0
   -3.2020    0.9674    2.3512 C   0  0  0  0  0  0  0  0  0  0  0  0
   -2.9214    1.7144    1.3554 N   0  3  0  0  0  0  0  0  0  0  0  0
   -3.7672    2.9651    1.2074 C   0  0  0  0  0  0  0  0  0  0  0  0
   -1.6539    1.0968    0.1767 C   0  0  0  0  0  0  0  0  0  0  0  0
   -2.2860   -0.3310    0.7977 C   0  0  0  0  0  0  0  0  0  0  0  0
   -1.9963   -1.6782    0.2187 N   0  0  0  0  0  0  0  0  0  0  0  0
   -2.9189   -2.7598    0.6470 C   0  0  0  0  0  0  0  0  0  0  0  0
   -3.0325   -3.9465   -0.2585 N   0  3  0  0  0  0  0  0  0  0  0  0
   -4.0038   -5.0167    0.1902 C   0  0  0  0  0  0  0  0  0  0  0  0
   -3.1950   -3.6694   -1.6679 C   0  0  0  0  0  0  0  0  0  0  0  0
   -1.9848   -4.1606   -1.9974 C   0  0  0  0  0  0  0  0  0  0  0  0
   -1.7213   -4.5812   -0.5582 C   0  0  0  0  0  0  0  0  0  0  0  0
   -0.0772    0.4425    0.0141 C   0  0  0  0  0  0  0  0  0  0  0  0
    0.6925    0.7202   -1.3195 C   0  0  0  0  0  0  0  0  0  0  0  0
    0.9124    2.0985   -1.9309 C   0  0  0  0  0  0  0  0  0  0  0  0
    0.5961    2.1252   -3.4228 C   0  0  0  0  0  0  0  0  0  0  0  0
    2.1574    2.8912   -1.5740 C   0  0  0  0  0  0  0  0  0  0  0  0
    0.8103    3.4066   -1.1400 C   0  0  0  0  0  0  0  0  0  0  0  0
    0.2142    3.5052    0.2397 C   0  0  0  0  0  0  0  0  0  0  0  0
    1.2004    3.7568    1.2254 O   0  0  0  0  0  0  0  0  0  0  0  0
   -0.9365    2.4817    0.6704 C   0  0  0  0  0  0  0  0  0  0  0  0
   -1.8302    2.9381   -0.6990 C   0  0  0  0  0  0  0  0  0  0  0  0
    5.6661   -0.4851   -1.6006 C   0  0  0  0  0  0  0  0  0  0  0  0
    6.7872   -1.1359   -2.1730 O   0  0  0  0  0  0  0  0  0  0  0  0
    5.9866   -3.1222   -0.6150 H   0  0  0  0  0  0  0  0  0  0  0  0
    4.7645   -2.9924    0.6585 H   0  0  0  0  0  0  0  0  0  0  0  0
    4.2917   -2.8217   -1.0368 H   0  0  0  0  0  0  0  0  0  0  0  0
    6.1864   -0.9288    0.4424 H   0  0  0  0  0  0  0  0  0  0  0  0
    2.4045    1.4219    2.3138 H   0  0  0  0  0  0  0  0  0  0  0  0
    2.1799    2.0225    0.6954 H   0  0  0  0  0  0  0  0  0  0  0  0
    1.4859   -0.6694    2.9084 H   0  0  0  0  0  0  0  0  0  0  0  0
    0.0094   -1.3403    2.1276 H   0  0  0  0  0  0  0  0  0  0  0  0
    1.5406   -1.4641    1.2851 H   0  0  0  0  0  0  0  0  0  0  0  0
    0.3826    2.2344    2.5702 H   0  0  0  0  0  0  0  0  0  0  0  0
   -0.4485    0.1160    3.6012 H   0  0  0  0  0  0  0  0  0  0  0  0
   -1.4629    1.4778    3.6927 H   0  0  0  0  0  0  0  0  0  0  0  0
   -2.5652   -0.9395    2.9544 H   0  0  0  0  0  0  0  0  0  0  0  0
   -3.9560    1.1628    3.1212 H   0  0  0  0  0  0  0  0  0  0  0  0
   -4.4125    3.0752    2.0867 H   0  0  0  0  0  0  0  0  0  0  0  0
   -3.1230    3.8466    1.1934 H   0  0  0  0  0  0  0  0  0  0  0  0
   -4.3956    2.8647    0.3206 H   0  0  0  0  0  0  0  0  0  0  0  0
   -3.3411   -0.2768    0.4581 H   0  0  0  0  0  0  0  0  0  0  0  0
   -2.1057   -1.6105   -0.7974 H   0  0  0  0  0  0  0  0  0  0  0  0
   -2.5985   -3.1375    1.6252 H   0  0  0  0  0  0  0  0  0  0  0  0
   -3.9407   -2.3730    0.7537 H   0  0  0  0  0  0  0  0  0  0  0  0
   -5.0009   -4.5685    0.2493 H   0  0  0  0  0  0  0  0  0  0  0  0
   -4.0156   -5.8504   -0.5242 H   0  0  0  0  0  0  0  0  0  0  0  0
   -3.6967   -5.3754    1.1782 H   0  0  0  0  0  0  0  0  0  0  0  0
   -3.9923   -3.2426   -2.2908 H   0  0  0  0  0  0  0  0  0  0  0  0
   -1.4429   -4.2933   -2.9305 H   0  0  0  0  0  0  0  0  0  0  0  0
   -1.6699   -5.6627   -0.3815 H   0  0  0  0  0  0  0  0  0  0  0  0
   -0.8667   -4.1213   -0.0508 H   0  0  0  0  0  0  0  0  0  0  0  0
   -0.1521   -0.6367   -0.1046 H   0  0  0  0  0  0  0  0  0  0  0  0
    0.1111    0.1611   -2.0694 H   0  0  0  0  0  0  0  0  0  0  0  0
    1.6556    0.1961   -1.3179 H   0  0  0  0  0  0  0  0  0  0  0  0
   -0.4470    1.8521   -3.6068 H   0  0  0  0  0  0  0  0  0  0  0  0
    1.2408    1.4084   -3.9435 H   0  0  0  0  0  0  0  0  0  0  0  0
    0.7670    3.1097   -3.8658 H   0  0  0  0  0  0  0  0  0  0  0  0
    2.6506    3.4538   -2.3678 H   0  0  0  0  0  0  0  0  0  0  0  0
    2.9153    2.4461   -0.9548 H   0  0  0  0  0  0  0  0  0  0  0  0
    0.5096    4.2981   -1.7009 H   0  0  0  0  0  0  0  0  0  0  0  0
   -0.3079    4.4759    0.2603 H   0  0  0  0  0  0  0  0  0  0  0  0
    1.6659    4.5852    0.9752 H   0  0  0  0  0  0  0  0  0  0  0  0
   -2.0570    4.0121   -0.6501 H   0  0  0  0  0  0  0  0  0  0  0  0
   -2.8119    2.4814   -0.9120 H   0  0  0  0  0  0  0  0  0  0  0  0
   -1.3326    2.7688   -1.6501 H   0  0  0  0  0  0  0  0  0  0  0  0
    5.8979    0.5822   -1.5059 H   0  0  0  0  0  0  0  0  0  0  0  0
    4.8197   -0.5884   -2.2906 H   0  0  0  0  0  0  0  0  0  0  0  0
    7.0451   -0.6412   -2.9694 H   0  0  0  0  0  0  0  0  0  0  0  0
  2  1  1  0  0  0  0
  3  2  1  0  0  0  0
  4  3  3  0  0  0  0
  5  4  1  0  0  0  0
  6  5  1  0  0  0  0
  7  6  1  0  0  0  0
  8  6  1  0  0  0  0
  9  8  1  0  0  0  0
 10  9  1  0  0  0  0
 11 10  1  0  0  0  0
 12 11  2  0  0  0  0
 13 12  1  0  0  0  0
 14 12  1  0  0  0  0
 15 14  1  0  0  0  0
 15 10  1  0  0  0  0
 16 15  1  0  0  0  0
 17 16  1  0  0  0  0
 18 17  1  0  0  0  0
 19 18  1  0  0  0  0
 20 18  1  0  0  0  0
 21 20  2  0  0  0  0
 22 21  1  0  0  0  0
 22 18  1  0  0  0  0
 23 14  1  0  0  0  0
 23  6  1  0  0  0  0
 24 23  1  0  0  0  0
 25 24  1  0  0  0  0
 26 25  1  0  0  0  0
 27 25  1  0  0  0  0
 28 27  1  0  0  0  0
 28 25  1  0  0  0  0
 29 28  1  0  0  0  0
 30 29  1  0  0  0  0
 31 29  1  0  0  0  0
 31  8  1  0  0  0  0
 31 14  1  0  0  0  0
 32 31  1  0  0  0  0
 33  2  1  0  0  0  0
 34 33  1  0  0  0  0
  1 35  1  0  0  0  0
  1 36  1  0  0  0  0
  1 37  1  0  0  0  0
  2 38  1  0  0  0  0
  5 39  1  0  0  0  0
  5 40  1  0  0  0  0
  7 41  1  0  0  0  0
  7 42  1  0  0  0  0
  7 43  1  0  0  0  0
  8 44  1  0  0  0  0
  9 45  1  0  0  0  0
  9 46  1  0  0  0  0
 10 47  1  0  0  0  0
 11 48  1  0  0  0  0
 13 49  1  0  0  0  0
 13 50  1  0  0  0  0
 13 51  1  0  0  0  0
 15 52  1  0  0  0  0
 16 53  1  0  0  0  0
 17 54  1  0  0  0  0
 17 55  1  0  0  0  0
 19 56  1  0  0  0  0
 19 57  1  0  0  0  0
 19 58  1  0  0  0  0
 20 59  1  0  0  0  0
 21 60  1  0  0  0  0
 22 61  1  0  0  0  0
 22 62  1  0  0  0  0
 23 63  1  0  0  0  0
 24 64  1  0  0  0  0
 24 65  1  0  0  0  0
 26 66  1  0  0  0  0
 26 67  1  0  0  0  0
 26 68  1  0  0  0  0
 27 69  1  0  0  0  0
 27 70  1  0  0  0  0
 28 71  1  0  0  0  0
 29 72  1  0  0  0  0
 30 73  1  0  0  0  0
 32 74  1  0  0  0  0
 32 75  1  0  0  0  0
 32 76  1  0  0  0  0
 33 77  1  0  0  0  0
 33 78  1  0  0  0  0
 34 79  1  0  0  0  0
M  CHG  3   6   1  12   1  18   1
M  END
>  <energy>
620.9734637532631

$$$$
