C=C1C2C(=O)OC3CC45CC6C(CC4C3C6C2C(Br)=CC1C(Cl)(Cl)Cl)O5
                    3D

 44 49  0  0  0  0  0  0  0  0999 V2000
    3.2865   -1.0227    1.7145 C   0  0  0  0  0  0  0  0  0  0  0  0
    2.8819   -0.3387    0.6221 C   0  0  0  0  0  0  0  0  0  0  0  0
    1.5492   -0.5597   -0.1037 C   0  0  0  0  0  0  0  0  0  0  0  0
    0.9479   -1.9165    0.2648 C   0  0  0  0  0  0  0  0  0  0  0  0
    1.3999   -2.9929   -0.1076 O   0  0  0  0  0  0  0  0  0  0  0  0
   -0.1574   -1.8173    1.0420 O   0  0  0  0  0  0  0  0  0  0  0  0
   -1.3109   -1.9986    0.2339 C   0  0  0  0  0  0  0  0  0  0  0  0
   -2.6647   -1.9020    1.0663 C   0  0  0  0  0  0  0  0  0  0  0  0
   -3.0802   -0.5347    0.6197 C   0  0  0  0  0  0  0  0  0  0  0  0
   -2.2210    0.4545    1.4411 C   0  0  0  0  0  0  0  0  0  0  0  0
   -1.9520    1.3756    0.2995 C   0  0  0  0  0  0  0  0  0  0  0  0
   -3.4323    1.3409   -0.3044 C   0  0  0  0  0  0  0  0  0  0  0  0
   -3.3828    0.5534   -1.5797 C   0  0  0  0  0  0  0  0  0  0  0  0
   -2.8295   -0.7089   -0.9437 C   0  0  0  0  0  0  0  0  0  0  0  0
   -1.3469   -0.8674   -0.8667 C   0  0  0  0  0  0  0  0  0  0  0  0
   -0.8088    0.5923   -0.5483 C   0  0  0  0  0  0  0  0  0  0  0  0
    0.6265    0.6886    0.1184 C   0  0  0  0  0  0  0  0  0  0  0  0
    1.4320    1.9553   -0.2683 C   0  0  0  0  0  0  0  0  0  0  0  0
    0.5126    3.5416   -0.6838 Br  0  0  0  0  0  0  0  0  0  0  0  0
    2.7788    1.9895   -0.2847 C   0  0  0  0  0  0  0  0  0  0  0  0
    3.7103    0.8436    0.0979 C   0  0  0  0  0  0  0  0  0  0  0  0
    4.8082    0.5090   -0.9856 C   0  0  0  0  0  0  0  0  0  0  0  0
    4.1009    0.1394   -2.5919 Cl  0  0  0  0  0  0  0  0  0  0  0  0
    5.8427   -0.8807   -0.4922 Cl  0  0  0  0  0  0  0  0  0  0  0  0
    5.9255    1.9213   -1.1925 Cl  0  0  0  0  0  0  0  0  0  0  0  0
   -4.1878    0.3157    0.5276 O   0  0  0  0  0  0  0  0  0  0  0  0
    2.7294   -1.8546    2.1386 H   0  0  0  0  0  0  0  0  0  0  0  0
    4.2147   -0.7869    2.2297 H   0  0  0  0  0  0  0  0  0  0  0  0
    1.7354   -0.6419   -1.1848 H   0  0  0  0  0  0  0  0  0  0  0  0
   -1.2855   -2.9912   -0.2328 H   0  0  0  0  0  0  0  0  0  0  0  0
   -2.5125   -2.0043    2.1436 H   0  0  0  0  0  0  0  0  0  0  0  0
   -3.3906   -2.6574    0.7432 H   0  0  0  0  0  0  0  0  0  0  0  0
   -2.8064    0.9498    2.2309 H   0  0  0  0  0  0  0  0  0  0  0  0
   -1.3345    0.0598    1.9388 H   0  0  0  0  0  0  0  0  0  0  0  0
   -1.6642    2.3759    0.6220 H   0  0  0  0  0  0  0  0  0  0  0  0
   -3.9703    2.2903   -0.3205 H   0  0  0  0  0  0  0  0  0  0  0  0
   -2.7743    0.9788   -2.3792 H   0  0  0  0  0  0  0  0  0  0  0  0
   -4.3946    0.3669   -1.9631 H   0  0  0  0  0  0  0  0  0  0  0  0
   -3.3317   -1.5890   -1.3645 H   0  0  0  0  0  0  0  0  0  0  0  0
   -0.9014   -1.2231   -1.8027 H   0  0  0  0  0  0  0  0  0  0  0  0
   -0.7471    1.0890   -1.5259 H   0  0  0  0  0  0  0  0  0  0  0  0
    0.4755    0.7900    1.1988 H   0  0  0  0  0  0  0  0  0  0  0  0
    3.2681    2.9318   -0.5354 H   0  0  0  0  0  0  0  0  0  0  0  0
    4.2615    1.2356    0.9686 H   0  0  0  0  0  0  0  0  0  0  0  0
  2  1  2  0  0  0  0
  3  2  1  0  0  0  0
  4  3  1  0  0  0  0
  5  4  2  0  0  0  0
  6  4  1  0  0  0  0
  7  6  1  0  0  0  0
  8  7  1  0  0  0  0
  9  8  1  0  0  0  0
 10  9  1  0  0  0  0
 11 10  1  0  0  0  0
 12 11  1  0  0  0  0
 13 12  1  0  0  0  0
 14 13  1  0  0  0  0
 14  9  1  0  0  0  0
 15 14  1  0  0  0  0
 15  7  1  0  0  0  0
 16 15  1  0  0  0  0
 16 11  1  0  0  0  0
 17 16  1  0  0  0  0
 17  3  1  0  0  0  0
 18 17  1  0  0  0  0
 19 18  1  0  0  0  0
 20 18  2  0  0  0  0
 21 20  1  0  0  0  0
 21  2  1  0  0  0  0
 22 21  1  0  0  0  0
 23 22  1  0  0  0  0
 24 22  1  0  0  0  0
 25 22  1  0  0  0  0
 26 12  1  0  0  0  0
 26  9  1  0  0  0  0
  1 27  1  0  0  0  0
  1 28  1  0  0  0  0
  3 29  1  0  0  0  0
  7 30  1  0  0  0  0
  8 31  1  0  0  0  0
  8 32  1  0  0  0  0
 10 33  1  0  0  0  0
 10 34  1  0  0  0  0
 11 35  1  0  0  0  0
 12 36  1  0  0  0  0
 13 37  1  0  0  0  0
 13 38  1  0  0  0  0
 14 39  1  0  0  0  0
 15 40  1  0  0  0  0
 16 41  1  0  0  0  0
 17 42  1  0  0  0  0
 20 43  1  0  0  0  0
 21 44  1  0  0  0  0
M  END
>  <energy>
232.75154022577138

$$$$
