C=CCN1C(=O)C2C3C4C5CCC1(C(N)=O)C2(C(=O)NC(C=O)CCCNC(=N)N)C3(C(=O)NC12CC3CC(CC(C3
                    3D

 90 97  0  0  0  0  0  0  0  0999 V2000
    6.2641    1.3110    0.4898 C   0  0  0  0  0  0  0  0  0  0  0  0
    5.7991    0.4945    1.4453 C   0  0  0  0  0  0  0  0  0  0  0  0
    5.1380   -0.8249    1.1896 C   0  0  0  0  0  0  0  0  0  0  0  0
    3.7238   -0.7045    1.5156 N   0  0  0  0  0  0  0  0  0  0  0  0
    3.3241   -0.7835    2.8417 C   0  0  0  0  0  0  0  0  0  0  0  0
    4.0585   -0.8439    3.8192 O   0  0  0  0  0  0  0  0  0  0  0  0
    1.8092   -0.7061    2.8257 C   0  0  0  0  0  0  0  0  0  0  0  0
    0.8887   -1.8905    3.0737 C   0  0  0  0  0  0  0  0  0  0  0  0
    0.9574   -3.2752    2.5313 C   0  0  0  0  0  0  0  0  0  0  0  0
    0.8180   -3.8716    1.1477 C   0  0  0  0  0  0  0  0  0  0  0  0
    1.6295   -3.4814   -0.0319 C   0  0  0  0  0  0  0  0  0  0  0  0
    2.8327   -2.6567    0.3751 C   0  0  0  0  0  0  0  0  0  0  0  0
    2.6403   -1.1359    0.5687 C   0  0  0  0  0  0  0  0  0  0  0  0
    2.7818   -0.4497   -0.8359 C   0  0  0  0  0  0  0  0  0  0  0  0
    1.8376   -0.7566   -1.7806 N   0  0  0  0  0  0  0  0  0  0  0  0
    3.6657    0.3504   -1.1336 O   0  0  0  0  0  0  0  0  0  0  0  0
    1.3540   -0.6296    1.3338 C   0  0  0  0  0  0  0  0  0  0  0  0
    0.9975    0.8398    0.8180 C   0  0  0  0  0  0  0  0  0  0  0  0
    0.1684    1.0480   -0.0692 O   0  0  0  0  0  0  0  0  0  0  0  0
    1.6906    1.8663    1.4281 N   0  0  0  0  0  0  0  0  0  0  0  0
    1.4760    3.3015    1.2072 C   0  0  0  0  0  0  0  0  0  0  0  0
    0.0471    3.7006    1.5959 C   0  0  0  0  0  0  0  0  0  0  0  0
   -0.4609    4.7898    1.3347 O   0  0  0  0  0  0  0  0  0  0  0  0
    1.9900    3.8621   -0.1301 C   0  0  0  0  0  0  0  0  0  0  0  0
    1.0153    3.7385   -1.3063 C   0  0  0  0  0  0  0  0  0  0  0  0
    1.6091    3.0615   -2.5451 C   0  0  0  0  0  0  0  0  0  0  0  0
    0.5150    2.6580   -3.4216 N   0  0  0  0  0  0  0  0  0  0  0  0
    0.7202    2.1481   -4.6527 C   0  0  0  0  0  0  0  0  0  0  0  0
    1.8369    2.1190   -5.2767 N   0  0  0  0  0  0  0  0  0  0  0  0
   -0.4077    1.6995   -5.2438 N   0  0  0  0  0  0  0  0  0  0  0  0
    0.0455   -1.4576    1.8320 C   0  0  0  0  0  0  0  0  0  0  0  0
   -1.2638   -0.6115    2.2017 C   0  0  0  0  0  0  0  0  0  0  0  0
   -1.2826    0.5061    2.7161 O   0  0  0  0  0  0  0  0  0  0  0  0
   -2.4503   -1.2898    2.0153 N   0  0  0  0  0  0  0  0  0  0  0  0
   -3.3498   -0.9985    0.8904 C   0  0  0  0  0  0  0  0  0  0  0  0
   -3.9599   -2.3521    0.4516 C   0  0  0  0  0  0  0  0  0  0  0  0
   -4.9466   -2.1575   -0.7057 C   0  0  0  0  0  0  0  0  0  0  0  0
   -6.0822   -1.2356   -0.2342 C   0  0  0  0  0  0  0  0  0  0  0  0
   -5.5093    0.1308    0.1827 C   0  0  0  0  0  0  0  0  0  0  0  0
   -4.7965    0.7588   -1.0246 C   0  0  0  0  0  0  0  0  0  0  0  0
   -3.6461   -0.1520   -1.4860 C   0  0  0  0  0  0  0  0  0  0  0  0
   -4.2135   -1.5189   -1.8946 C   0  0  0  0  0  0  0  0  0  0  0  0
   -2.6511   -0.3473   -0.3270 C   0  0  0  0  0  0  0  0  0  0  0  0
   -4.5029   -0.0612    1.3342 C   0  0  0  0  0  0  0  0  0  0  0  0
   -0.1913   -2.9156    1.6173 C   0  0  0  0  0  0  0  0  0  0  0  0
    6.7646    2.2402    0.7440 H   0  0  0  0  0  0  0  0  0  0  0  0
    6.1509    1.0756   -0.5659 H   0  0  0  0  0  0  0  0  0  0  0  0
    5.9304    0.7743    2.4871 H   0  0  0  0  0  0  0  0  0  0  0  0
    5.5928   -1.5891    1.8306 H   0  0  0  0  0  0  0  0  0  0  0  0
    5.2724   -1.1488    0.1530 H   0  0  0  0  0  0  0  0  0  0  0  0
    1.4823    0.1505    3.4350 H   0  0  0  0  0  0  0  0  0  0  0  0
    0.3751   -1.8360    4.0439 H   0  0  0  0  0  0  0  0  0  0  0  0
    0.8022   -3.9702    3.3516 H   0  0  0  0  0  0  0  0  0  0  0  0
    0.5103   -4.9082    1.0754 H   0  0  0  0  0  0  0  0  0  0  0  0
    1.0075   -2.9888   -0.7878 H   0  0  0  0  0  0  0  0  0  0  0  0
    1.9907   -4.4043   -0.5056 H   0  0  0  0  0  0  0  0  0  0  0  0
    3.2593   -3.1045    1.2846 H   0  0  0  0  0  0  0  0  0  0  0  0
    3.6033   -2.8124   -0.3908 H   0  0  0  0  0  0  0  0  0  0  0  0
    1.9319   -0.2072   -2.6314 H   0  0  0  0  0  0  0  0  0  0  0  0
    0.8701   -0.8460   -1.4918 H   0  0  0  0  0  0  0  0  0  0  0  0
    2.5538    1.6258    1.9088 H   0  0  0  0  0  0  0  0  0  0  0  0
    2.0935    3.7628    1.9917 H   0  0  0  0  0  0  0  0  0  0  0  0
   -0.4791    2.9851    2.2527 H   0  0  0  0  0  0  0  0  0  0  0  0
    2.1779    4.9387    0.0139 H   0  0  0  0  0  0  0  0  0  0  0  0
    2.9685    3.4202   -0.3682 H   0  0  0  0  0  0  0  0  0  0  0  0
    0.1002    3.2209   -0.9971 H   0  0  0  0  0  0  0  0  0  0  0  0
    0.6989    4.7497   -1.5960 H   0  0  0  0  0  0  0  0  0  0  0  0
    2.2768    3.7621   -3.0608 H   0  0  0  0  0  0  0  0  0  0  0  0
    2.1931    2.1816   -2.2701 H   0  0  0  0  0  0  0  0  0  0  0  0
   -0.2948    2.3317   -2.9140 H   0  0  0  0  0  0  0  0  0  0  0  0
    1.6400    1.7094   -6.1968 H   0  0  0  0  0  0  0  0  0  0  0  0
   -0.9560    1.1385   -4.6035 H   0  0  0  0  0  0  0  0  0  0  0  0
   -1.0080    2.4976   -5.4410 H   0  0  0  0  0  0  0  0  0  0  0  0
   -2.9863   -1.2282    2.8746 H   0  0  0  0  0  0  0  0  0  0  0  0
   -4.4724   -2.8253    1.3015 H   0  0  0  0  0  0  0  0  0  0  0  0
   -3.1618   -3.0443    0.1477 H   0  0  0  0  0  0  0  0  0  0  0  0
   -5.3568   -3.1290   -1.0024 H   0  0  0  0  0  0  0  0  0  0  0  0
   -6.8159   -1.1022   -1.0409 H   0  0  0  0  0  0  0  0  0  0  0  0
   -6.6126   -1.6926    0.6134 H   0  0  0  0  0  0  0  0  0  0  0  0
   -6.3234    0.7864    0.5145 H   0  0  0  0  0  0  0  0  0  0  0  0
   -4.4141    1.7550   -0.7624 H   0  0  0  0  0  0  0  0  0  0  0  0
   -5.5132    0.8983   -1.8456 H   0  0  0  0  0  0  0  0  0  0  0  0
   -3.1326    0.3096   -2.3380 H   0  0  0  0  0  0  0  0  0  0  0  0
   -3.3992   -2.1744   -2.2312 H   0  0  0  0  0  0  0  0  0  0  0  0
   -4.9019   -1.4011   -2.7403 H   0  0  0  0  0  0  0  0  0  0  0  0
   -1.8034   -0.9587   -0.6627 H   0  0  0  0  0  0  0  0  0  0  0  0
   -2.2494    0.6337   -0.0452 H   0  0  0  0  0  0  0  0  0  0  0  0
   -4.1007    0.9104    1.6542 H   0  0  0  0  0  0  0  0  0  0  0  0
   -5.0190   -0.4841    2.2076 H   0  0  0  0  0  0  0  0  0  0  0  0
   -1.1655   -3.2796    1.9206 H   0  0  0  0  0  0  0  0  0  0  0  0
  2  1  2  0  0  0  0
  3  2  1  0  0  0  0
  4  3  1  0  0  0  0
  5  4  1  0  0  0  0
  6  5  2  0  0  0  0
  7  5  1  0  0  0  0
  8  7  1  0  0  0  0
  9  8  1  0  0  0  0
 10  9  1  0  0  0  0
 11 10  1  0  0  0  0
 12 11  1  0  0  0  0
 13 12  1  0  0  0  0
 13  4  1  0  0  0  0
 14 13  1  0  0  0  0
 15 14  1  0  0  0  0
 16 14  2  0  0  0  0
 17 13  1  0  0  0  0
 17  7  1  0  0  0  0
 18 17  1  0  0  0  0
 19 18  2  0  0  0  0
 20 18  1  0  0  0  0
 21 20  1  0  0  0  0
 22 21  1  0  0  0  0
 23 22  2  0  0  0  0
 24 21  1  0  0  0  0
 25 24  1  0  0  0  0
 26 25  1  0  0  0  0
 27 26  1  0  0  0  0
 28 27  1  0  0  0  0
 29 28  2  0  0  0  0
 30 28  1  0  0  0  0
 31 17  1  0  0  0  0
 31  8  1  0  0  0  0
 32 31  1  0  0  0  0
 33 32  2  0  0  0  0
 34 32  1  0  0  0  0
 35 34  1  0  0  0  0
 36 35  1  0  0  0  0
 37 36  1  0  0  0  0
 38 37  1  0  0  0  0
 39 38  1  0  0  0  0
 40 39  1  0  0  0  0
 41 40  1  0  0  0  0
 42 41  1  0  0  0  0
 42 37  1  0  0  0  0
 43 41  1  0  0  0  0
 43 35  1  0  0  0  0
 44 39  1  0  0  0  0
 44 35  1  0  0  0  0
 45 31  1  0  0  0  0
 45 10  1  0  0  0  0
 45  9  1  0  0  0  0
  1 46  1  0  0  0  0
  1 47  1  0  0  0  0
  2 48  1  0  0  0  0
  3 49  1  0  0  0  0
  3 50  1  0  0  0  0
  7 51  1  0  0  0  0
  8 52  1  0  0  0  0
  9 53  1  0  0  0  0
 10 54  1  0  0  0  0
 11 55  1  0  0  0  0
 11 56  1  0  0  0  0
 12 57  1  0  0  0  0
 12 58  1  0  0  0  0
 15 59  1  0  0  0  0
 15 60  1  0  0  0  0
 20 61  1  0  0  0  0
 21 62  1  0  0  0  0
 22 63  1  0  0  0  0
 24 64  1  0  0  0  0
 24 65  1  0  0  0  0
 25 66  1  0  0  0  0
 25 67  1  0  0  0  0
 26 68  1  0  0  0  0
 26 69  1  0  0  0  0
 27 70  1  0  0  0  0
 29 71  1  0  0  0  0
 30 72  1  0  0  0  0
 30 73  1  0  0  0  0
 34 74  1  0  0  0  0
 36 75  1  0  0  0  0
 36 76  1  0  0  0  0
 37 77  1  0  0  0  0
 38 78  1  0  0  0  0
 38 79  1  0  0  0  0
 39 80  1  0  0  0  0
 40 81  1  0  0  0  0
 40 82  1  0  0  0  0
 41 83  1  0  0  0  0
 42 84  1  0  0  0  0
 42 85  1  0  0  0  0
 43 86  1  0  0  0  0
 43 87  1  0  0  0  0
 44 88  1  0  0  0  0
 44 89  1  0  0  0  0
 45 90  1  0  0  0  0
M  END
>  <energy>
-115.22404400176777

$$$$
