CC(C)CC1NC(=O)NCCCC(=O)NC(CCCC[NH+]=[N-])C(=O)N(CC=CC23CC4CC(C2)C43)C(=O)C(CC(=O
                    3D

 92 95  0  0  0  0  0  0  0  0999 V2000
    5.7468    1.1328   -1.2013 C   0  0  0  0  0  0  0  0  0  0  0  0
    4.6397    0.4369   -2.0026 C   0  0  0  0  0  0  0  0  0  0  0  0
    5.1404    0.2075   -3.4350 C   0  0  0  0  0  0  0  0  0  0  0  0
    4.2441   -0.9092   -1.3582 C   0  0  0  0  0  0  0  0  0  0  0  0
    3.0624   -0.8324   -0.3765 C   0  0  0  0  0  0  0  0  0  0  0  0
    3.3731   -0.0624    0.8379 N   0  0  0  0  0  0  0  0  0  0  0  0
    2.3353    0.6465    1.3878 C   0  0  0  0  0  0  0  0  0  0  0  0
    1.8070    0.3149    2.4347 O   0  0  0  0  0  0  0  0  0  0  0  0
    1.9124    1.6685    0.5789 N   0  0  0  0  0  0  0  0  0  0  0  0
    0.5505    1.6764    0.1191 C   0  0  0  0  0  0  0  0  0  0  0  0
   -0.1730    2.9998    0.2415 C   0  0  0  0  0  0  0  0  0  0  0  0
   -1.4459    2.9785   -0.6026 C   0  0  0  0  0  0  0  0  0  0  0  0
   -2.5212    2.0668   -0.0400 C   0  0  0  0  0  0  0  0  0  0  0  0
   -2.9270    2.1489    1.1137 O   0  0  0  0  0  0  0  0  0  0  0  0
   -3.0689    1.1301   -0.8850 N   0  0  0  0  0  0  0  0  0  0  0  0
   -2.2701   -0.0089   -1.3469 C   0  0  0  0  0  0  0  0  0  0  0  0
   -2.8199   -0.6181   -2.6501 C   0  0  0  0  0  0  0  0  0  0  0  0
   -2.1799   -0.0210   -3.9027 C   0  0  0  0  0  0  0  0  0  0  0  0
   -2.8283    1.2946   -4.3181 C   0  0  0  0  0  0  0  0  0  0  0  0
   -1.7959    2.3132   -4.7946 C   0  0  0  0  0  0  0  0  0  0  0  0
   -2.4254    3.6431   -4.8231 N   0  3  0  0  0  0  0  0  0  0  0  0
   -2.1187    4.5194   -3.9745 N   0  5  0  0  0  0  0  0  0  0  0  0
   -2.4211   -1.0747   -0.2373 C   0  0  0  0  0  0  0  0  0  0  0  0
   -3.5399   -1.5084    0.0356 O   0  0  0  0  0  0  0  0  0  0  0  0
   -1.2689   -1.3858    0.4721 N   0  0  0  0  0  0  0  0  0  0  0  0
   -1.2936   -1.1221    1.9285 C   0  0  0  0  0  0  0  0  0  0  0  0
   -2.4474   -1.7051    2.6876 C   0  0  0  0  0  0  0  0  0  0  0  0
   -2.8771   -1.3789    3.9248 C   0  0  0  0  0  0  0  0  0  0  0  0
   -2.2450   -0.4220    4.8417 C   0  0  0  0  0  0  0  0  0  0  0  0
   -2.4157   -0.7126    6.3604 C   0  0  0  0  0  0  0  0  0  0  0  0
   -0.9264   -0.4042    6.5667 C   0  0  0  0  0  0  0  0  0  0  0  0
   -0.6528    1.1051    6.6163 C   0  0  0  0  0  0  0  0  0  0  0  0
   -0.7794    1.1631    5.0836 C   0  0  0  0  0  0  0  0  0  0  0  0
   -2.2310    1.0969    4.5597 C   0  0  0  0  0  0  0  0  0  0  0  0
   -0.7319   -0.3687    5.0534 C   0  0  0  0  0  0  0  0  0  0  0  0
   -0.6905   -2.5992    0.1280 C   0  0  0  0  0  0  0  0  0  0  0  0
   -0.8919   -3.6509    0.7352 O   0  0  0  0  0  0  0  0  0  0  0  0
    0.3942   -2.5400   -0.9775 C   0  0  0  0  0  0  0  0  0  0  0  0
    0.0290   -3.5321   -2.0789 C   0  0  0  0  0  0  0  0  0  0  0  0
    0.7236   -3.1356   -3.3443 C   0  0  0  0  0  0  0  0  0  0  0  0
    0.4400   -2.1708   -4.0336 O   0  0  0  0  0  0  0  0  0  0  0  0
    1.7651   -3.9274   -3.6618 O   0  0  0  0  0  0  0  0  0  0  0  0
    1.6680   -2.9657   -0.3557 N   0  0  0  0  0  0  0  0  0  0  0  0
    2.7366   -2.2672    0.1149 C   0  0  0  0  0  0  0  0  0  0  0  0
    3.4801   -2.8302    0.9260 O   0  0  0  0  0  0  0  0  0  0  0  0
    5.9930    2.1083   -1.6391 H   0  0  0  0  0  0  0  0  0  0  0  0
    6.6664    0.5333   -1.1899 H   0  0  0  0  0  0  0  0  0  0  0  0
    5.4482    1.3099   -0.1636 H   0  0  0  0  0  0  0  0  0  0  0  0
    3.7685    1.1025   -2.0564 H   0  0  0  0  0  0  0  0  0  0  0  0
    5.9991   -0.4747   -3.4559 H   0  0  0  0  0  0  0  0  0  0  0  0
    5.4481    1.1483   -3.9080 H   0  0  0  0  0  0  0  0  0  0  0  0
    4.3503   -0.2283   -4.0566 H   0  0  0  0  0  0  0  0  0  0  0  0
    3.9685   -1.6260   -2.1446 H   0  0  0  0  0  0  0  0  0  0  0  0
    5.1197   -1.3357   -0.8529 H   0  0  0  0  0  0  0  0  0  0  0  0
    2.1865   -0.4111   -0.8761 H   0  0  0  0  0  0  0  0  0  0  0  0
    3.7574   -0.6820    1.5529 H   0  0  0  0  0  0  0  0  0  0  0  0
    2.6024    1.9644   -0.0995 H   0  0  0  0  0  0  0  0  0  0  0  0
   -0.0041    0.9056    0.6410 H   0  0  0  0  0  0  0  0  0  0  0  0
    0.6042    1.3738   -0.9321 H   0  0  0  0  0  0  0  0  0  0  0  0
    0.4792    3.8060   -0.1076 H   0  0  0  0  0  0  0  0  0  0  0  0
   -0.3951    3.2067    1.2934 H   0  0  0  0  0  0  0  0  0  0  0  0
   -1.2102    2.6975   -1.6296 H   0  0  0  0  0  0  0  0  0  0  0  0
   -1.8772    3.9847   -0.6335 H   0  0  0  0  0  0  0  0  0  0  0  0
   -3.9397    0.7968   -0.4761 H   0  0  0  0  0  0  0  0  0  0  0  0
   -1.2226    0.2718   -1.4454 H   0  0  0  0  0  0  0  0  0  0  0  0
   -2.6119   -1.6941   -2.6594 H   0  0  0  0  0  0  0  0  0  0  0  0
   -3.9111   -0.5221   -2.7053 H   0  0  0  0  0  0  0  0  0  0  0  0
   -2.2832   -0.7374   -4.7265 H   0  0  0  0  0  0  0  0  0  0  0  0
   -1.1039    0.0984   -3.7417 H   0  0  0  0  0  0  0  0  0  0  0  0
   -3.4013    1.7401   -3.4960 H   0  0  0  0  0  0  0  0  0  0  0  0
   -3.5621    1.0984   -5.1142 H   0  0  0  0  0  0  0  0  0  0  0  0
   -0.9162    2.3342   -4.1337 H   0  0  0  0  0  0  0  0  0  0  0  0
   -1.4334    2.0548   -5.7985 H   0  0  0  0  0  0  0  0  0  0  0  0
   -3.2876    3.7535   -5.3410 H   0  0  0  0  0  0  0  0  0  0  0  0
   -0.3681   -1.5361    2.3468 H   0  0  0  0  0  0  0  0  0  0  0  0
   -1.2801   -0.0349    2.0509 H   0  0  0  0  0  0  0  0  0  0  0  0
   -3.0073   -2.4932    2.1828 H   0  0  0  0  0  0  0  0  0  0  0  0
   -3.7650   -1.8890    4.2962 H   0  0  0  0  0  0  0  0  0  0  0  0
   -3.1117   -0.0595    6.9015 H   0  0  0  0  0  0  0  0  0  0  0  0
   -2.6666   -1.7480    6.6152 H   0  0  0  0  0  0  0  0  0  0  0  0
   -0.2988   -1.0834    7.1423 H   0  0  0  0  0  0  0  0  0  0  0  0
    0.3474    1.3476    6.9866 H   0  0  0  0  0  0  0  0  0  0  0  0
   -1.3731    1.6948    7.1841 H   0  0  0  0  0  0  0  0  0  0  0  0
   -0.0342    1.7343    4.5295 H   0  0  0  0  0  0  0  0  0  0  0  0
   -2.2982    1.3666    3.5022 H   0  0  0  0  0  0  0  0  0  0  0  0
   -2.9635    1.7068    5.1003 H   0  0  0  0  0  0  0  0  0  0  0  0
    0.0351   -0.9350    4.5301 H   0  0  0  0  0  0  0  0  0  0  0  0
    0.4873   -1.5195   -1.3438 H   0  0  0  0  0  0  0  0  0  0  0  0
    0.3090   -4.5603   -1.8216 H   0  0  0  0  0  0  0  0  0  0  0  0
   -1.0474   -3.5507   -2.2872 H   0  0  0  0  0  0  0  0  0  0  0  0
    2.1271   -3.5430   -4.4898 H   0  0  0  0  0  0  0  0  0  0  0  0
    1.6146   -3.8644    0.1214 H   0  0  0  0  0  0  0  0  0  0  0  0
  2  1  1  0  0  0  0
  3  2  1  0  0  0  0
  4  2  1  0  0  0  0
  5  4  1  0  0  0  0
  6  5  1  0  0  0  0
  7  6  1  0  0  0  0
  8  7  2  0  0  0  0
  9  7  1  0  0  0  0
 10  9  1  0  0  0  0
 11 10  1  0  0  0  0
 12 11  1  0  0  0  0
 13 12  1  0  0  0  0
 14 13  2  0  0  0  0
 15 13  1  0  0  0  0
 16 15  1  0  0  0  0
 17 16  1  0  0  0  0
 18 17  1  0  0  0  0
 19 18  1  0  0  0  0
 20 19  1  0  0  0  0
 21 20  1  0  0  0  0
 22 21  2  0  0  0  0
 23 16  1  0  0  0  0
 24 23  2  0  0  0  0
 25 23  1  0  0  0  0
 26 25  1  0  0  0  0
 27 26  1  0  0  0  0
 28 27  2  0  0  0  0
 29 28  1  0  0  0  0
 30 29  1  0  0  0  0
 31 30  1  0  0  0  0
 32 31  1  0  0  0  0
 33 32  1  0  0  0  0
 34 33  1  0  0  0  0
 34 29  1  0  0  0  0
 35 33  1  0  0  0  0
 35 31  1  0  0  0  0
 35 29  1  0  0  0  0
 36 25  1  0  0  0  0
 37 36  2  0  0  0  0
 38 36  1  0  0  0  0
 39 38  1  0  0  0  0
 40 39  1  0  0  0  0
 41 40  2  0  0  0  0
 42 40  1  0  0  0  0
 43 38  1  0  0  0  0
 44 43  1  0  0  0  0
 44  5  1  0  0  0  0
 45 44  2  0  0  0  0
  1 46  1  0  0  0  0
  1 47  1  0  0  0  0
  1 48  1  0  0  0  0
  2 49  1  0  0  0  0
  3 50  1  0  0  0  0
  3 51  1  0  0  0  0
  3 52  1  0  0  0  0
  4 53  1  0  0  0  0
  4 54  1  0  0  0  0
  5 55  1  0  0  0  0
  6 56  1  0  0  0  0
  9 57  1  0  0  0  0
 10 58  1  0  0  0  0
 10 59  1  0  0  0  0
 11 60  1  0  0  0  0
 11 61  1  0  0  0  0
 12 62  1  0  0  0  0
 12 63  1  0  0  0  0
 15 64  1  0  0  0  0
 16 65  1  0  0  0  0
 17 66  1  0  0  0  0
 17 67  1  0  0  0  0
 18 68  1  0  0  0  0
 18 69  1  0  0  0  0
 19 70  1  0  0  0  0
 19 71  1  0  0  0  0
 20 72  1  0  0  0  0
 20 73  1  0  0  0  0
 21 74  1  0  0  0  0
 26 75  1  0  0  0  0
 26 76  1  0  0  0  0
 27 77  1  0  0  0  0
 28 78  1  0  0  0  0
 30 79  1  0  0  0  0
 30 80  1  0  0  0  0
 31 81  1  0  0  0  0
 32 82  1  0  0  0  0
 32 83  1  0  0  0  0
 33 84  1  0  0  0  0
 34 85  1  0  0  0  0
 34 86  1  0  0  0  0
 35 87  1  0  0  0  0
 38 88  1  0  0  0  0
 39 89  1  0  0  0  0
 39 90  1  0  0  0  0
 42 91  1  0  0  0  0
 43 92  1  0  0  0  0
M  CHG  2  21   1  22  -1
M  END
>  <energy>
-23.866993346789997

$$$$
