CC(C=CC(OCC(=O)OC1CC(=O)C2(C)C3C4=CC(O)C(C3NC4=O)C12C)C(C)C)=CCOC(=O)CCC(C)(C)C
                    3D

 89 92  0  0  0  0  0  0  0  0999 V2000
   -1.4555    4.5695   -3.0290 C   0  0  0  0  0  0  0  0  0  0  0  0
   -1.5783    3.8391   -1.7109 C   0  0  0  0  0  0  0  0  0  0  0  0
   -2.9668    3.6880   -1.2556 C   0  0  0  0  0  0  0  0  0  0  0  0
   -3.5353    3.0241   -0.2328 C   0  0  0  0  0  0  0  0  0  0  0  0
   -2.9245    2.1043    0.7913 C   0  0  0  0  0  0  0  0  0  0  0  0
   -3.9127    1.1923    1.2967 O   0  0  0  0  0  0  0  0  0  0  0  0
   -4.4361    0.2506    0.3834 C   0  0  0  0  0  0  0  0  0  0  0  0
   -3.8725   -1.1678    0.3740 C   0  0  0  0  0  0  0  0  0  0  0  0
   -4.5688   -2.1814    0.3732 O   0  0  0  0  0  0  0  0  0  0  0  0
   -2.5230   -1.1757    0.1800 O   0  0  0  0  0  0  0  0  0  0  0  0
   -2.0671   -2.1703   -0.7665 C   0  0  0  0  0  0  0  0  0  0  0  0
   -1.2043   -1.3813   -1.7510 C   0  0  0  0  0  0  0  0  0  0  0  0
    0.1889   -1.6337   -1.2612 C   0  0  0  0  0  0  0  0  0  0  0  0
    1.1495   -0.9655   -1.6258 O   0  0  0  0  0  0  0  0  0  0  0  0
    0.2968   -2.8149   -0.3152 C   0  0  0  0  0  0  0  0  0  0  0  0
    0.9872   -2.3449    0.9703 C   0  0  0  0  0  0  0  0  0  0  0  0
    1.0719   -4.0016   -0.9371 C   0  0  0  0  0  0  0  0  0  0  0  0
    1.0675   -4.2471   -2.4492 C   0  0  0  0  0  0  0  0  0  0  0  0
   -0.0746   -4.1649   -3.1752 C   0  0  0  0  0  0  0  0  0  0  0  0
   -1.3561   -4.5546   -2.4701 C   0  0  0  0  0  0  0  0  0  0  0  0
   -1.7819   -5.8061   -2.9987 O   0  0  0  0  0  0  0  0  0  0  0  0
   -1.1845   -4.6876   -0.9254 C   0  0  0  0  0  0  0  0  0  0  0  0
    0.2479   -5.2412   -0.5733 C   0  0  0  0  0  0  0  0  0  0  0  0
    0.7735   -6.2786   -1.4308 N   0  0  0  0  0  0  0  0  0  0  0  0
    1.4254   -5.7146   -2.5217 C   0  0  0  0  0  0  0  0  0  0  0  0
    2.0958   -6.2636   -3.3626 O   0  0  0  0  0  0  0  0  0  0  0  0
   -1.1822   -3.3025   -0.1516 C   0  0  0  0  0  0  0  0  0  0  0  0
   -1.5962   -3.5920    1.3096 C   0  0  0  0  0  0  0  0  0  0  0  0
   -2.3742    2.9086    1.9976 C   0  0  0  0  0  0  0  0  0  0  0  0
   -3.4669    3.5316    2.8709 C   0  0  0  0  0  0  0  0  0  0  0  0
   -1.4996    2.0065    2.8724 C   0  0  0  0  0  0  0  0  0  0  0  0
   -0.4783    3.4739   -1.0247 C   0  0  0  0  0  0  0  0  0  0  0  0
    0.9525    3.7887   -1.4007 C   0  0  0  0  0  0  0  0  0  0  0  0
    1.7968    3.3170   -0.3420 O   0  0  0  0  0  0  0  0  0  0  0  0
    2.3196    4.2251    0.5188 C   0  0  0  0  0  0  0  0  0  0  0  0
    2.2162    5.4438    0.4403 O   0  0  0  0  0  0  0  0  0  0  0  0
    3.0118    3.5083    1.6621 C   0  0  0  0  0  0  0  0  0  0  0  0
    4.3913    2.9370    1.2990 C   0  0  0  0  0  0  0  0  0  0  0  0
    4.5021    1.3838    1.2159 C   0  0  0  0  0  0  0  0  0  0  0  0
    3.5431    0.8114    0.1669 C   0  0  0  0  0  0  0  0  0  0  0  0
    5.9429    1.0103    0.8029 C   0  0  0  0  0  0  0  0  0  0  0  0
    4.2231    0.7368    2.5819 C   0  0  0  0  0  0  0  0  0  0  0  0
   -0.5567    4.2767   -3.5728 H   0  0  0  0  0  0  0  0  0  0  0  0
   -2.2938    4.3510   -3.6943 H   0  0  0  0  0  0  0  0  0  0  0  0
   -1.4160    5.6456   -2.8501 H   0  0  0  0  0  0  0  0  0  0  0  0
   -3.6676    4.2726   -1.8581 H   0  0  0  0  0  0  0  0  0  0  0  0
   -4.6099    3.1726   -0.1098 H   0  0  0  0  0  0  0  0  0  0  0  0
   -2.1356    1.5068    0.3249 H   0  0  0  0  0  0  0  0  0  0  0  0
   -4.4226    0.6121   -0.6500 H   0  0  0  0  0  0  0  0  0  0  0  0
   -5.4944    0.1501    0.6462 H   0  0  0  0  0  0  0  0  0  0  0  0
   -2.9362   -2.5870   -1.2857 H   0  0  0  0  0  0  0  0  0  0  0  0
   -1.2998   -1.7422   -2.7751 H   0  0  0  0  0  0  0  0  0  0  0  0
   -1.4183   -0.3107   -1.7243 H   0  0  0  0  0  0  0  0  0  0  0  0
    0.4536   -1.5106    1.4357 H   0  0  0  0  0  0  0  0  0  0  0  0
    2.0031   -1.9926    0.7572 H   0  0  0  0  0  0  0  0  0  0  0  0
    1.0803   -3.1547    1.7011 H   0  0  0  0  0  0  0  0  0  0  0  0
    2.1040   -4.0606   -0.5709 H   0  0  0  0  0  0  0  0  0  0  0  0
   -0.0533   -4.3898   -4.2436 H   0  0  0  0  0  0  0  0  0  0  0  0
   -2.1516   -3.8604   -2.7354 H   0  0  0  0  0  0  0  0  0  0  0  0
   -1.1140   -6.4913   -2.8120 H   0  0  0  0  0  0  0  0  0  0  0  0
   -1.9535   -5.3704   -0.5378 H   0  0  0  0  0  0  0  0  0  0  0  0
    0.3525   -5.5417    0.4723 H   0  0  0  0  0  0  0  0  0  0  0  0
    0.9158   -7.2571   -1.1946 H   0  0  0  0  0  0  0  0  0  0  0  0
   -0.9424   -4.3290    1.7867 H   0  0  0  0  0  0  0  0  0  0  0  0
   -1.5708   -2.6934    1.9347 H   0  0  0  0  0  0  0  0  0  0  0  0
   -2.6157   -3.9932    1.3488 H   0  0  0  0  0  0  0  0  0  0  0  0
   -1.7401    3.7248    1.6350 H   0  0  0  0  0  0  0  0  0  0  0  0
   -4.1418    4.1652    2.2889 H   0  0  0  0  0  0  0  0  0  0  0  0
   -3.0161    4.1599    3.6470 H   0  0  0  0  0  0  0  0  0  0  0  0
   -4.0659    2.7682    3.3797 H   0  0  0  0  0  0  0  0  0  0  0  0
   -0.6777    1.5672    2.2910 H   0  0  0  0  0  0  0  0  0  0  0  0
   -1.0537    2.5804    3.6939 H   0  0  0  0  0  0  0  0  0  0  0  0
   -2.0819    1.1867    3.3118 H   0  0  0  0  0  0  0  0  0  0  0  0
   -0.5645    2.9381   -0.0856 H   0  0  0  0  0  0  0  0  0  0  0  0
    1.2367    3.2322   -2.2989 H   0  0  0  0  0  0  0  0  0  0  0  0
    1.0870    4.8584   -1.5874 H   0  0  0  0  0  0  0  0  0  0  0  0
    2.3230    2.7575    2.0589 H   0  0  0  0  0  0  0  0  0  0  0  0
    3.1314    4.2432    2.4707 H   0  0  0  0  0  0  0  0  0  0  0  0
    4.7405    3.3825    0.3562 H   0  0  0  0  0  0  0  0  0  0  0  0
    5.1023    3.2813    2.0672 H   0  0  0  0  0  0  0  0  0  0  0  0
    3.7184   -0.2572    0.0125 H   0  0  0  0  0  0  0  0  0  0  0  0
    3.6748    1.3070   -0.8006 H   0  0  0  0  0  0  0  0  0  0  0  0
    2.4994    0.9233    0.4705 H   0  0  0  0  0  0  0  0  0  0  0  0
    6.6765    1.3673    1.5358 H   0  0  0  0  0  0  0  0  0  0  0  0
    6.2059    1.4372   -0.1723 H   0  0  0  0  0  0  0  0  0  0  0  0
    6.0595   -0.0774    0.7264 H   0  0  0  0  0  0  0  0  0  0  0  0
    4.8637    1.1637    3.3615 H   0  0  0  0  0  0  0  0  0  0  0  0
    3.1840    0.8674    2.8944 H   0  0  0  0  0  0  0  0  0  0  0  0
    4.4173   -0.3406    2.5539 H   0  0  0  0  0  0  0  0  0  0  0  0
  2  1  1  0  0  0  0
  3  2  1  0  0  0  0
  4  3  2  0  0  0  0
  5  4  1  0  0  0  0
  6  5  1  0  0  0  0
  7  6  1  0  0  0  0
  8  7  1  0  0  0  0
  9  8  2  0  0  0  0
 10  8  1  0  0  0  0
 11 10  1  0  0  0  0
 12 11  1  0  0  0  0
 13 12  1  0  0  0  0
 14 13  2  0  0  0  0
 15 13  1  0  0  0  0
 16 15  1  0  0  0  0
 17 15  1  0  0  0  0
 18 17  1  0  0  0  0
 19 18  2  0  0  0  0
 20 19  1  0  0  0  0
 21 20  1  0  0  0  0
 22 20  1  0  0  0  0
 23 22  1  0  0  0  0
 23 17  1  0  0  0  0
 24 23  1  0  0  0  0
 25 24  1  0  0  0  0
 25 18  1  0  0  0  0
 26 25  2  0  0  0  0
 27 22  1  0  0  0  0
 27 11  1  0  0  0  0
 27 15  1  0  0  0  0
 28 27  1  0  0  0  0
 29  5  1  0  0  0  0
 30 29  1  0  0  0  0
 31 29  1  0  0  0  0
 32  2  2  0  0  0  0
 33 32  1  0  0  0  0
 34 33  1  0  0  0  0
 35 34  1  0  0  0  0
 36 35  2  0  0  0  0
 37 35  1  0  0  0  0
 38 37  1  0  0  0  0
 39 38  1  0  0  0  0
 40 39  1  0  0  0  0
 41 39  1  0  0  0  0
 42 39  1  0  0  0  0
  1 43  1  0  0  0  0
  1 44  1  0  0  0  0
  1 45  1  0  0  0  0
  3 46  1  0  0  0  0
  4 47  1  0  0  0  0
  5 48  1  0  0  0  0
  7 49  1  0  0  0  0
  7 50  1  0  0  0  0
 11 51  1  0  0  0  0
 12 52  1  0  0  0  0
 12 53  1  0  0  0  0
 16 54  1  0  0  0  0
 16 55  1  0  0  0  0
 16 56  1  0  0  0  0
 17 57  1  0  0  0  0
 19 58  1  0  0  0  0
 20 59  1  0  0  0  0
 21 60  1  0  0  0  0
 22 61  1  0  0  0  0
 23 62  1  0  0  0  0
 24 63  1  0  0  0  0
 28 64  1  0  0  0  0
 28 65  1  0  0  0  0
 28 66  1  0  0  0  0
 29 67  1  0  0  0  0
 30 68  1  0  0  0  0
 30 69  1  0  0  0  0
 30 70  1  0  0  0  0
 31 71  1  0  0  0  0
 31 72  1  0  0  0  0
 31 73  1  0  0  0  0
 32 74  1  0  0  0  0
 33 75  1  0  0  0  0
 33 76  1  0  0  0  0
 37 77  1  0  0  0  0
 37 78  1  0  0  0  0
 38 79  1  0  0  0  0
 38 80  1  0  0  0  0
 40 81  1  0  0  0  0
 40 82  1  0  0  0  0
 40 83  1  0  0  0  0
 41 84  1  0  0  0  0
 41 85  1  0  0  0  0
 41 86  1  0  0  0  0
 42 87  1  0  0  0  0
 42 88  1  0  0  0  0
 42 89  1  0  0  0  0
M  END
>  <energy>
125.38504770542687

$$$$
