C=C1C2C3C4OC5(C(O)CN1C)C4CC1CC5C2C13
                    3D

 40 45  0  0  0  0  0  0  0  0999 V2000
   -2.6840    1.5992   -1.1175 C   0  0  0  0  0  0  0  0  0  0  0  0
   -1.8491    1.0163   -0.2454 C   0  0  0  0  0  0  0  0  0  0  0  0
   -0.5501    1.7586    0.0848 C   0  0  0  0  0  0  0  0  0  0  0  0
    0.7541    1.8227   -0.8350 C   0  0  0  0  0  0  0  0  0  0  0  0
    0.9059    0.6179   -1.7901 C   0  0  0  0  0  0  0  0  0  0  0  0
   -0.2125   -0.2387   -1.6704 O   0  0  0  0  0  0  0  0  0  0  0  0
    0.4432   -0.9874   -0.5262 C   0  0  0  0  0  0  0  0  0  0  0  0
   -0.5506   -2.1547   -0.4856 C   0  0  0  0  0  0  0  0  0  0  0  0
   -0.2271   -3.1107    0.5329 O   0  0  0  0  0  0  0  0  0  0  0  0
   -2.0181   -1.5493   -0.2971 C   0  0  0  0  0  0  0  0  0  0  0  0
   -2.1233   -0.2079    0.4277 N   0  0  0  0  0  0  0  0  0  0  0  0
   -3.1830   -0.2036    1.4422 C   0  0  0  0  0  0  0  0  0  0  0  0
    1.7779   -0.5880   -1.3443 C   0  0  0  0  0  0  0  0  0  0  0  0
    3.0550   -0.0809   -0.7081 C   0  0  0  0  0  0  0  0  0  0  0  0
    2.6939    0.5418    0.6261 C   0  0  0  0  0  0  0  0  0  0  0  0
    2.0236   -0.5494    1.4659 C   0  0  0  0  0  0  0  0  0  0  0  0
    0.5839   -0.4660    0.9717 C   0  0  0  0  0  0  0  0  0  0  0  0
    0.3423    1.0213    1.0756 C   0  0  0  0  0  0  0  0  0  0  0  0
    1.6138    1.6380    0.4623 C   0  0  0  0  0  0  0  0  0  0  0  0
   -2.4399    2.5408   -1.5956 H   0  0  0  0  0  0  0  0  0  0  0  0
   -3.6244    1.1301   -1.3816 H   0  0  0  0  0  0  0  0  0  0  0  0
   -0.8041    2.7632    0.4595 H   0  0  0  0  0  0  0  0  0  0  0  0
    0.8937    2.7868   -1.3351 H   0  0  0  0  0  0  0  0  0  0  0  0
    1.0800    0.9169   -2.8293 H   0  0  0  0  0  0  0  0  0  0  0  0
   -0.5408   -2.7092   -1.4321 H   0  0  0  0  0  0  0  0  0  0  0  0
    0.6643   -3.4446    0.3364 H   0  0  0  0  0  0  0  0  0  0  0  0
   -2.6216   -2.2987    0.2298 H   0  0  0  0  0  0  0  0  0  0  0  0
   -2.4750   -1.4219   -1.2871 H   0  0  0  0  0  0  0  0  0  0  0  0
   -3.1502    0.7180    2.0339 H   0  0  0  0  0  0  0  0  0  0  0  0
   -3.0500   -1.0403    2.1360 H   0  0  0  0  0  0  0  0  0  0  0  0
   -4.1694   -0.2852    0.9737 H   0  0  0  0  0  0  0  0  0  0  0  0
    1.9905   -1.2856   -2.1659 H   0  0  0  0  0  0  0  0  0  0  0  0
    3.5511    0.6472   -1.3607 H   0  0  0  0  0  0  0  0  0  0  0  0
    3.7577   -0.9094   -0.5606 H   0  0  0  0  0  0  0  0  0  0  0  0
    3.5877    0.9287    1.1263 H   0  0  0  0  0  0  0  0  0  0  0  0
    2.0765   -0.2838    2.5295 H   0  0  0  0  0  0  0  0  0  0  0  0
    2.4684   -1.5418    1.3403 H   0  0  0  0  0  0  0  0  0  0  0  0
   -0.0611   -1.0084    1.6707 H   0  0  0  0  0  0  0  0  0  0  0  0
    0.1695    1.3279    2.1169 H   0  0  0  0  0  0  0  0  0  0  0  0
    1.9014    2.5903    0.9256 H   0  0  0  0  0  0  0  0  0  0  0  0
  2  1  2  0  0  0  0
  3  2  1  0  0  0  0
  4  3  1  0  0  0  0
  5  4  1  0  0  0  0
  6  5  1  0  0  0  0
  7  6  1  0  0  0  0
  8  7  1  0  0  0  0
  9  8  1  0  0  0  0
 10  8  1  0  0  0  0
 11 10  1  0  0  0  0
 11  2  1  0  0  0  0
 12 11  1  0  0  0  0
 13  7  1  0  0  0  0
 13  5  1  0  0  0  0
 14 13  1  0  0  0  0
 15 14  1  0  0  0  0
 16 15  1  0  0  0  0
 17 16  1  0  0  0  0
 17  7  1  0  0  0  0
 18 17  1  0  0  0  0
 18  3  1  0  0  0  0
 19 18  1  0  0  0  0
 19 15  1  0  0  0  0
 19  4  1  0  0  0  0
  1 20  1  0  0  0  0
  1 21  1  0  0  0  0
  3 22  1  0  0  0  0
  4 23  1  0  0  0  0
  5 24  1  0  0  0  0
  8 25  1  0  0  0  0
  9 26  1  0  0  0  0
 10 27  1  0  0  0  0
 10 28  1  0  0  0  0
 12 29  1  0  0  0  0
 12 30  1  0  0  0  0
 12 31  1  0  0  0  0
 13 32  1  0  0  0  0
 14 33  1  0  0  0  0
 14 34  1  0  0  0  0
 15 35  1  0  0  0  0
 16 36  1  0  0  0  0
 16 37  1  0  0  0  0
 17 38  1  0  0  0  0
 18 39  1  0  0  0  0
 19 40  1  0  0  0  0
M  END
>  <energy>
172.70907376982262

$$$$
