OC1CC2CC3CC4(C2)N2CC5(O)CCN6C5C32C164
                    3D

 39 45  0  0  0  0  0  0  0  0999 V2000
   -1.8676    2.2031   -1.8285 O   0  0  0  0  0  0  0  0  0  0  0  0
   -1.6878    1.3943   -0.6620 C   0  0  0  0  0  0  0  0  0  0  0  0
   -2.9833    0.6778   -0.3544 C   0  0  0  0  0  0  0  0  0  0  0  0
   -2.6636   -0.5824    0.4419 C   0  0  0  0  0  0  0  0  0  0  0  0
   -1.6215   -0.1529    1.6143 C   0  0  0  0  0  0  0  0  0  0  0  0
   -0.0952   -0.5278    1.3390 C   0  0  0  0  0  0  0  0  0  0  0  0
   -0.2692   -1.9485    1.0123 C   0  0  0  0  0  0  0  0  0  0  0  0
   -0.6311   -1.4175   -0.3800 C   0  0  0  0  0  0  0  0  0  0  0  0
   -2.0814   -1.6408   -0.5967 C   0  0  0  0  0  0  0  0  0  0  0  0
    0.5999   -1.5072   -1.1480 N   0  0  0  0  0  0  0  0  0  0  0  0
    2.1214   -1.5807   -0.7824 C   0  0  0  0  0  0  0  0  0  0  0  0
    2.7344   -0.1254   -0.2200 C   0  0  0  0  0  0  0  0  0  0  0  0
    2.6356   -0.3422    1.2187 O   0  0  0  0  0  0  0  0  0  0  0  0
    3.0308    1.4003   -0.1692 C   0  0  0  0  0  0  0  0  0  0  0  0
    1.6317    2.1160    0.1105 C   0  0  0  0  0  0  0  0  0  0  0  0
    0.8209    1.5798   -0.9845 N   0  0  0  0  0  0  0  0  0  0  0  0
    1.5458    0.3637   -1.0571 C   0  0  0  0  0  0  0  0  0  0  0  0
    0.5252   -0.2028   -0.0913 C   0  0  0  0  0  0  0  0  0  0  0  0
   -0.5332    0.4277   -0.9100 C   0  0  0  0  0  0  0  0  0  0  0  0
   -0.9681    2.5196   -2.0501 H   0  0  0  0  0  0  0  0  0  0  0  0
   -1.4492    2.0942    0.1472 H   0  0  0  0  0  0  0  0  0  0  0  0
   -3.6345    1.3442    0.2253 H   0  0  0  0  0  0  0  0  0  0  0  0
   -3.5451    0.4435   -1.2670 H   0  0  0  0  0  0  0  0  0  0  0  0
   -3.5915   -0.9672    0.8803 H   0  0  0  0  0  0  0  0  0  0  0  0
   -1.9372   -0.6879    2.5222 H   0  0  0  0  0  0  0  0  0  0  0  0
   -1.7147    0.9062    1.8768 H   0  0  0  0  0  0  0  0  0  0  0  0
    0.5346   -0.3230    2.2049 H   0  0  0  0  0  0  0  0  0  0  0  0
    0.6361   -2.5534    1.0830 H   0  0  0  0  0  0  0  0  0  0  0  0
   -1.0575   -2.4873    1.5498 H   0  0  0  0  0  0  0  0  0  0  0  0
   -2.3944   -2.6545   -0.3239 H   0  0  0  0  0  0  0  0  0  0  0  0
   -2.4091   -1.4546   -1.6241 H   0  0  0  0  0  0  0  0  0  0  0  0
    2.6587   -1.8441   -1.7046 H   0  0  0  0  0  0  0  0  0  0  0  0
    2.3154   -2.3896   -0.0697 H   0  0  0  0  0  0  0  0  0  0  0  0
    3.4731   -0.7586    1.4906 H   0  0  0  0  0  0  0  0  0  0  0  0
    3.7286    1.6567    0.6383 H   0  0  0  0  0  0  0  0  0  0  0  0
    3.4896    1.7599   -1.1035 H   0  0  0  0  0  0  0  0  0  0  0  0
    1.7516    3.1984   -0.0008 H   0  0  0  0  0  0  0  0  0  0  0  0
    1.2425    1.9155    1.1145 H   0  0  0  0  0  0  0  0  0  0  0  0
    1.6591    0.1475   -2.1416 H   0  0  0  0  0  0  0  0  0  0  0  0
  2  1  1  0  0  0  0
  3  2  1  0  0  0  0
  4  3  1  0  0  0  0
  5  4  1  0  0  0  0
  6  5  1  0  0  0  0
  7  6  1  0  0  0  0
  8  7  1  0  0  0  0
  9  8  1  0  0  0  0
  9  4  1  0  0  0  0
 10  8  1  0  0  0  0
 11 10  1  0  0  0  0
 12 11  1  0  0  0  0
 13 12  1  0  0  0  0
 14 12  1  0  0  0  0
 15 14  1  0  0  0  0
 16 15  1  0  0  0  0
 17 16  1  0  0  0  0
 17 12  1  0  0  0  0
 18 17  1  0  0  0  0
 18  6  1  0  0  0  0
 18 10  1  0  0  0  0
 19 18  1  0  0  0  0
 19  2  1  0  0  0  0
 19 16  1  0  0  0  0
 19  8  1  0  0  0  0
  1 20  1  0  0  0  0
  2 21  1  0  0  0  0
  3 22  1  0  0  0  0
  3 23  1  0  0  0  0
  4 24  1  0  0  0  0
  5 25  1  0  0  0  0
  5 26  1  0  0  0  0
  6 27  1  0  0  0  0
  7 28  1  0  0  0  0
  7 29  1  0  0  0  0
  9 30  1  0  0  0  0
  9 31  1  0  0  0  0
 11 32  1  0  0  0  0
 11 33  1  0  0  0  0
 13 34  1  0  0  0  0
 14 35  1  0  0  0  0
 14 36  1  0  0  0  0
 15 37  1  0  0  0  0
 15 38  1  0  0  0  0
 17 39  1  0  0  0  0
M  END
>  <energy>
525.6221380968924

$$$$
