NC(N)=NNC(N)C12CC3CC(C1)C32
                    3D

 31 33  0  0  0  0  0  0  0  0999 V2000
   -3.8200    0.3865    1.1721 N   0  0  0  0  0  0  0  0  0  0  0  0
   -3.4879   -0.5504    0.2453 C   0  0  0  0  0  0  0  0  0  0  0  0
   -4.5426   -1.3395   -0.0545 N   0  0  0  0  0  0  0  0  0  0  0  0
   -2.3386   -0.7303   -0.3247 N   0  0  0  0  0  0  0  0  0  0  0  0
   -1.3024   -0.0510    0.2118 N   0  0  0  0  0  0  0  0  0  0  0  0
   -0.3856    0.7103   -0.6000 C   0  0  0  0  0  0  0  0  0  0  0  0
   -0.6594    2.1023   -0.2686 N   0  0  0  0  0  0  0  0  0  0  0  0
    1.0521    0.3614   -0.2702 C   0  0  0  0  0  0  0  0  0  0  0  0
    2.1779    0.7490   -1.2795 C   0  0  0  0  0  0  0  0  0  0  0  0
    2.7974   -0.6538   -1.1092 C   0  0  0  0  0  0  0  0  0  0  0  0
    3.6015   -0.8329    0.1936 C   0  0  0  0  0  0  0  0  0  0  0  0
    2.2809   -0.9337    0.9757 C   0  0  0  0  0  0  0  0  0  0  0  0
    1.5856    0.4214    1.1939 C   0  0  0  0  0  0  0  0  0  0  0  0
    1.5467   -1.0888   -0.3558 C   0  0  0  0  0  0  0  0  0  0  0  0
   -4.7874    0.6799    1.0940 H   0  0  0  0  0  0  0  0  0  0  0  0
   -3.2099    1.1972    1.0942 H   0  0  0  0  0  0  0  0  0  0  0  0
   -4.2129   -2.1374   -0.5951 H   0  0  0  0  0  0  0  0  0  0  0  0
   -5.0215   -1.6764    0.7739 H   0  0  0  0  0  0  0  0  0  0  0  0
   -1.4186    0.3259    1.1507 H   0  0  0  0  0  0  0  0  0  0  0  0
   -0.5796    0.5456   -1.6695 H   0  0  0  0  0  0  0  0  0  0  0  0
   -1.6004    2.2984   -0.6131 H   0  0  0  0  0  0  0  0  0  0  0  0
   -0.0427    2.6925   -0.8243 H   0  0  0  0  0  0  0  0  0  0  0  0
    1.8134    0.9168   -2.2980 H   0  0  0  0  0  0  0  0  0  0  0  0
    2.8132    1.6003   -1.0177 H   0  0  0  0  0  0  0  0  0  0  0  0
    3.1120   -1.2045   -1.9975 H   0  0  0  0  0  0  0  0  0  0  0  0
    4.2773   -0.0156    0.4680 H   0  0  0  0  0  0  0  0  0  0  0  0
    4.1790   -1.7669    0.2074 H   0  0  0  0  0  0  0  0  0  0  0  0
    2.1762   -1.7040    1.7360 H   0  0  0  0  0  0  0  0  0  0  0  0
    2.2399    1.2694    1.4241 H   0  0  0  0  0  0  0  0  0  0  0  0
    0.8082    0.3781    1.9678 H   0  0  0  0  0  0  0  0  0  0  0  0
    0.9483   -1.9499   -0.6310 H   0  0  0  0  0  0  0  0  0  0  0  0
  2  1  1  0  0  0  0
  3  2  1  0  0  0  0
  4  2  2  0  0  0  0
  5  4  1  0  0  0  0
  6  5  1  0  0  0  0
  7  6  1  0  0  0  0
  8  6  1  0  0  0  0
  9  8  1  0  0  0  0
 10  9  1  0  0  0  0
 11 10  1  0  0  0  0
 12 11  1  0  0  0  0
 13 12  1  0  0  0  0
 13  8  1  0  0  0  0
 14 12  1  0  0  0  0
 14 10  1  0  0  0  0
 14  8  1  0  0  0  0
  1 15  1  0  0  0  0
  1 16  1  0  0  0  0
  3 17  1  0  0  0  0
  3 18  1  0  0  0  0
  5 19  1  0  0  0  0
  6 20  1  0  0  0  0
  7 21  1  0  0  0  0
  7 22  1  0  0  0  0
  9 23  1  0  0  0  0
  9 24  1  0  0  0  0
 10 25  1  0  0  0  0
 11 26  1  0  0  0  0
 11 27  1  0  0  0  0
 12 28  1  0  0  0  0
 13 29  1  0  0  0  0
 13 30  1  0  0  0  0
 14 31  1  0  0  0  0
M  END
>  <energy>
-105.71295275465573

$$$$
