COCOCC12CC3(CN4C(NC=O)C5CC6C(O)C4C3C5C61)C2O
                    3D

 51 56  0  0  0  0  0  0  0  0999 V2000
   -4.7291   -1.6200   -0.1940 C   0  0  0  0  0  0  0  0  0  0  0  0
   -4.9754   -0.2528   -0.4977 O   0  0  0  0  0  0  0  0  0  0  0  0
   -4.3343    0.1355   -1.7070 C   0  0  0  0  0  0  0  0  0  0  0  0
   -2.9222    0.2006   -1.5505 O   0  0  0  0  0  0  0  0  0  0  0  0
   -2.5118    1.3643   -0.8337 C   0  0  0  0  0  0  0  0  0  0  0  0
   -1.1963    1.0453   -0.1348 C   0  0  0  0  0  0  0  0  0  0  0  0
   -1.4275    0.2244    1.2371 C   0  0  0  0  0  0  0  0  0  0  0  0
   -0.0165    0.8746    1.7187 C   0  0  0  0  0  0  0  0  0  0  0  0
    1.1196    0.1986    2.7211 C   0  0  0  0  0  0  0  0  0  0  0  0
    2.0046   -0.9622    1.7641 N   0  0  0  0  0  0  0  0  0  0  0  0
    3.0359   -0.6356    0.6293 C   0  0  0  0  0  0  0  0  0  0  0  0
    4.0703    0.0943    1.3057 N   0  0  0  0  0  0  0  0  0  0  0  0
    5.3097    0.2805    0.7623 C   0  0  0  0  0  0  0  0  0  0  0  0
    5.6512   -0.0032   -0.3758 O   0  0  0  0  0  0  0  0  0  0  0  0
    2.4946    0.0991   -0.8574 C   0  0  0  0  0  0  0  0  0  0  0  0
    1.8812   -0.7860   -1.9519 C   0  0  0  0  0  0  0  0  0  0  0  0
    0.3790   -0.8988   -1.5428 C   0  0  0  0  0  0  0  0  0  0  0  0
    0.3968   -1.8185   -0.3312 C   0  0  0  0  0  0  0  0  0  0  0  0
    1.1406   -3.0169   -0.5095 O   0  0  0  0  0  0  0  0  0  0  0  0
    0.8667   -1.0530    0.9106 C   0  0  0  0  0  0  0  0  0  0  0  0
    0.9964    0.5430    0.7343 C   0  0  0  0  0  0  0  0  0  0  0  0
    1.2581    0.9983   -0.6130 C   0  0  0  0  0  0  0  0  0  0  0  0
   -0.0399    0.5865   -1.2341 C   0  0  0  0  0  0  0  0  0  0  0  0
   -0.6878    2.1719    1.0616 C   0  0  0  0  0  0  0  0  0  0  0  0
    0.1485    3.2630    0.6444 O   0  0  0  0  0  0  0  0  0  0  0  0
   -3.6571   -1.8146   -0.0940 H   0  0  0  0  0  0  0  0  0  0  0  0
   -5.2127   -1.8529    0.7584 H   0  0  0  0  0  0  0  0  0  0  0  0
   -5.1569   -2.2660   -0.9668 H   0  0  0  0  0  0  0  0  0  0  0  0
   -4.7264    1.1102   -2.0177 H   0  0  0  0  0  0  0  0  0  0  0  0
   -4.5679   -0.5799   -2.5035 H   0  0  0  0  0  0  0  0  0  0  0  0
   -3.2692    1.6667   -0.1004 H   0  0  0  0  0  0  0  0  0  0  0  0
   -2.3852    2.1864   -1.5461 H   0  0  0  0  0  0  0  0  0  0  0  0
   -2.2837    0.5494    1.8509 H   0  0  0  0  0  0  0  0  0  0  0  0
   -1.5974   -0.8437    1.1184 H   0  0  0  0  0  0  0  0  0  0  0  0
    0.6329   -0.3757    3.5171 H   0  0  0  0  0  0  0  0  0  0  0  0
    1.8433    0.9139    3.1314 H   0  0  0  0  0  0  0  0  0  0  0  0
    3.4753   -1.5950    0.3215 H   0  0  0  0  0  0  0  0  0  0  0  0
    3.9859    0.1037    2.3102 H   0  0  0  0  0  0  0  0  0  0  0  0
    6.0072    0.7348    1.4868 H   0  0  0  0  0  0  0  0  0  0  0  0
    3.3289    0.6751   -1.2703 H   0  0  0  0  0  0  0  0  0  0  0  0
    1.9432   -0.2708   -2.9200 H   0  0  0  0  0  0  0  0  0  0  0  0
    2.4037   -1.7399   -2.0630 H   0  0  0  0  0  0  0  0  0  0  0  0
   -0.2120   -1.3317   -2.3569 H   0  0  0  0  0  0  0  0  0  0  0  0
   -0.6367   -2.1510   -0.1750 H   0  0  0  0  0  0  0  0  0  0  0  0
    0.7986   -3.4613   -1.3035 H   0  0  0  0  0  0  0  0  0  0  0  0
    0.1566   -1.4721    1.6389 H   0  0  0  0  0  0  0  0  0  0  0  0
    1.8597    1.1417    1.1260 H   0  0  0  0  0  0  0  0  0  0  0  0
    1.4964    2.0550   -0.7543 H   0  0  0  0  0  0  0  0  0  0  0  0
   -0.1938    1.1337   -2.1716 H   0  0  0  0  0  0  0  0  0  0  0  0
   -1.5081    2.5823    1.6688 H   0  0  0  0  0  0  0  0  0  0  0  0
   -0.4369    3.8687    0.1586 H   0  0  0  0  0  0  0  0  0  0  0  0
  2  1  1  0  0  0  0
  3  2  1  0  0  0  0
  4  3  1  0  0  0  0
  5  4  1  0  0  0  0
  6  5  1  0  0  0  0
  7  6  1  0  0  0  0
  8  7  1  0  0  0  0
  9  8  1  0  0  0  0
 10  9  1  0  0  0  0
 11 10  1  0  0  0  0
 12 11  1  0  0  0  0
 13 12  1  0  0  0  0
 14 13  2  0  0  0  0
 15 11  1  0  0  0  0
 16 15  1  0  0  0  0
 17 16  1  0  0  0  0
 18 17  1  0  0  0  0
 19 18  1  0  0  0  0
 20 18  1  0  0  0  0
 20 10  1  0  0  0  0
 21 20  1  0  0  0  0
 21  8  1  0  0  0  0
 22 21  1  0  0  0  0
 22 15  1  0  0  0  0
 23 22  1  0  0  0  0
 23 17  1  0  0  0  0
 23  6  1  0  0  0  0
 24  8  1  0  0  0  0
 24  6  1  0  0  0  0
 25 24  1  0  0  0  0
  1 26  1  0  0  0  0
  1 27  1  0  0  0  0
  1 28  1  0  0  0  0
  3 29  1  0  0  0  0
  3 30  1  0  0  0  0
  5 31  1  0  0  0  0
  5 32  1  0  0  0  0
  7 33  1  0  0  0  0
  7 34  1  0  0  0  0
  9 35  1  0  0  0  0
  9 36  1  0  0  0  0
 11 37  1  0  0  0  0
 12 38  1  0  0  0  0
 13 39  1  0  0  0  0
 15 40  1  0  0  0  0
 16 41  1  0  0  0  0
 16 42  1  0  0  0  0
 17 43  1  0  0  0  0
 18 44  1  0  0  0  0
 19 45  1  0  0  0  0
 20 46  1  0  0  0  0
 21 47  1  0  0  0  0
 22 48  1  0  0  0  0
 23 49  1  0  0  0  0
 24 50  1  0  0  0  0
 25 51  1  0  0  0  0
M  END
>  <energy>
263.71541993658275

$$$$
