C=C1C(=O)C2=CC(CC(=O)C2SCCCCC(=O)O)C2CCC3CCC(=O)C3(C)C12
                    3D

 60 63  0  0  0  0  0  0  0  0999 V2000
    1.7522    0.5296    2.2904 C   0  0  0  0  0  0  0  0  0  0  0  0
    1.4310    0.4829    0.9875 C   0  0  0  0  0  0  0  0  0  0  0  0
   -0.0434    0.3914    0.7538 C   0  0  0  0  0  0  0  0  0  0  0  0
   -0.6672   -0.6456    0.9495 O   0  0  0  0  0  0  0  0  0  0  0  0
   -0.7104    1.6498    0.2721 C   0  0  0  0  0  0  0  0  0  0  0  0
    0.1179    2.6683   -0.0322 C   0  0  0  0  0  0  0  0  0  0  0  0
    0.7786    2.4673   -1.3835 C   0  0  0  0  0  0  0  0  0  0  0  0
   -0.3494    2.6171   -2.4227 C   0  0  0  0  0  0  0  0  0  0  0  0
   -1.6770    1.9336   -2.0528 C   0  0  0  0  0  0  0  0  0  0  0  0
   -2.5456    1.8088   -2.9240 O   0  0  0  0  0  0  0  0  0  0  0  0
   -1.9165    1.4293   -0.6062 C   0  0  0  0  0  0  0  0  0  0  0  0
   -3.3496    2.2832    0.1359 S   0  0  0  0  0  0  0  0  0  0  0  0
   -4.6113    0.9698   -0.0424 C   0  0  0  0  0  0  0  0  0  0  0  0
   -4.3922   -0.2223    0.8964 C   0  0  0  0  0  0  0  0  0  0  0  0
   -4.5699    0.1143    2.3831 C   0  0  0  0  0  0  0  0  0  0  0  0
   -3.9991   -0.9583    3.3079 C   0  0  0  0  0  0  0  0  0  0  0  0
   -4.6350   -2.3078    3.0894 C   0  0  0  0  0  0  0  0  0  0  0  0
   -5.7461   -2.6102    3.4991 O   0  0  0  0  0  0  0  0  0  0  0  0
   -3.8726   -3.1538    2.3617 O   0  0  0  0  0  0  0  0  0  0  0  0
    1.6544    1.1667   -1.5015 C   0  0  0  0  0  0  0  0  0  0  0  0
    0.9767   -0.0528   -2.1781 C   0  0  0  0  0  0  0  0  0  0  0  0
    1.5253   -1.4083   -1.7403 C   0  0  0  0  0  0  0  0  0  0  0  0
    3.0333   -1.3601   -1.5419 C   0  0  0  0  0  0  0  0  0  0  0  0
    3.5858   -2.7068   -1.0564 C   0  0  0  0  0  0  0  0  0  0  0  0
    3.5438   -2.6435    0.4599 C   0  0  0  0  0  0  0  0  0  0  0  0
    3.8736   -1.1980    0.6967 C   0  0  0  0  0  0  0  0  0  0  0  0
    4.4240   -0.7953    1.7154 O   0  0  0  0  0  0  0  0  0  0  0  0
    3.4806   -0.3096   -0.4837 C   0  0  0  0  0  0  0  0  0  0  0  0
    4.7865    0.3557   -0.9643 C   0  0  0  0  0  0  0  0  0  0  0  0
    2.3941    0.7810   -0.1662 C   0  0  0  0  0  0  0  0  0  0  0  0
    2.7669    0.7255    2.6212 H   0  0  0  0  0  0  0  0  0  0  0  0
    1.0129    0.3969    3.0773 H   0  0  0  0  0  0  0  0  0  0  0  0
   -0.3104    3.6776   -0.0113 H   0  0  0  0  0  0  0  0  0  0  0  0
    1.4745    3.3065   -1.5204 H   0  0  0  0  0  0  0  0  0  0  0  0
   -0.5889    3.6833   -2.5313 H   0  0  0  0  0  0  0  0  0  0  0  0
   -0.0243    2.2549   -3.4045 H   0  0  0  0  0  0  0  0  0  0  0  0
   -2.1179    0.3615   -0.7241 H   0  0  0  0  0  0  0  0  0  0  0  0
   -4.6183    0.6314   -1.0839 H   0  0  0  0  0  0  0  0  0  0  0  0
   -5.5923    1.4156    0.1580 H   0  0  0  0  0  0  0  0  0  0  0  0
   -3.4051   -0.6645    0.7276 H   0  0  0  0  0  0  0  0  0  0  0  0
   -5.1210   -0.9997    0.6304 H   0  0  0  0  0  0  0  0  0  0  0  0
   -4.0717    1.0587    2.6260 H   0  0  0  0  0  0  0  0  0  0  0  0
   -5.6372    0.2594    2.5926 H   0  0  0  0  0  0  0  0  0  0  0  0
   -4.1714   -0.6803    4.3538 H   0  0  0  0  0  0  0  0  0  0  0  0
   -2.9118   -1.0275    3.1947 H   0  0  0  0  0  0  0  0  0  0  0  0
   -3.0027   -2.7896    2.1012 H   0  0  0  0  0  0  0  0  0  0  0  0
    2.4476    1.4518   -2.2101 H   0  0  0  0  0  0  0  0  0  0  0  0
   -0.1028   -0.0829   -2.0238 H   0  0  0  0  0  0  0  0  0  0  0  0
    1.1139    0.0455   -3.2645 H   0  0  0  0  0  0  0  0  0  0  0  0
    1.0298   -1.7364   -0.8222 H   0  0  0  0  0  0  0  0  0  0  0  0
    1.2655   -2.1559   -2.4994 H   0  0  0  0  0  0  0  0  0  0  0  0
    3.4777   -1.1339   -2.5209 H   0  0  0  0  0  0  0  0  0  0  0  0
    3.0293   -3.5663   -1.4447 H   0  0  0  0  0  0  0  0  0  0  0  0
    4.6269   -2.8124   -1.3874 H   0  0  0  0  0  0  0  0  0  0  0  0
    4.2893   -3.3007    0.9144 H   0  0  0  0  0  0  0  0  0  0  0  0
    2.5473   -2.8590    0.8560 H   0  0  0  0  0  0  0  0  0  0  0  0
    4.6350    0.9282   -1.8848 H   0  0  0  0  0  0  0  0  0  0  0  0
    5.5651   -0.3911   -1.1624 H   0  0  0  0  0  0  0  0  0  0  0  0
    5.1858    1.0388   -0.2047 H   0  0  0  0  0  0  0  0  0  0  0  0
    2.9361    1.6879    0.1450 H   0  0  0  0  0  0  0  0  0  0  0  0
  2  1  2  0  0  0  0
  3  2  1  0  0  0  0
  4  3  2  0  0  0  0
  5  3  1  0  0  0  0
  6  5  2  0  0  0  0
  7  6  1  0  0  0  0
  8  7  1  0  0  0  0
  9  8  1  0  0  0  0
 10  9  2  0  0  0  0
 11  9  1  0  0  0  0
 11  5  1  0  0  0  0
 12 11  1  0  0  0  0
 13 12  1  0  0  0  0
 14 13  1  0  0  0  0
 15 14  1  0  0  0  0
 16 15  1  0  0  0  0
 17 16  1  0  0  0  0
 18 17  2  0  0  0  0
 19 17  1  0  0  0  0
 20  7  1  0  0  0  0
 21 20  1  0  0  0  0
 22 21  1  0  0  0  0
 23 22  1  0  0  0  0
 24 23  1  0  0  0  0
 25 24  1  0  0  0  0
 26 25  1  0  0  0  0
 27 26  2  0  0  0  0
 28 26  1  0  0  0  0
 28 23  1  0  0  0  0
 29 28  1  0  0  0  0
 30 28  1  0  0  0  0
 30  2  1  0  0  0  0
 30 20  1  0  0  0  0
  1 31  1  0  0  0  0
  1 32  1  0  0  0  0
  6 33  1  0  0  0  0
  7 34  1  0  0  0  0
  8 35  1  0  0  0  0
  8 36  1  0  0  0  0
 11 37  1  0  0  0  0
 13 38  1  0  0  0  0
 13 39  1  0  0  0  0
 14 40  1  0  0  0  0
 14 41  1  0  0  0  0
 15 42  1  0  0  0  0
 15 43  1  0  0  0  0
 16 44  1  0  0  0  0
 16 45  1  0  0  0  0
 19 46  1  0  0  0  0
 20 47  1  0  0  0  0
 21 48  1  0  0  0  0
 21 49  1  0  0  0  0
 22 50  1  0  0  0  0
 22 51  1  0  0  0  0
 23 52  1  0  0  0  0
 24 53  1  0  0  0  0
 24 54  1  0  0  0  0
 25 55  1  0  0  0  0
 25 56  1  0  0  0  0
 29 57  1  0  0  0  0
 29 58  1  0  0  0  0
 29 59  1  0  0  0  0
 30 60  1  0  0  0  0
M  END
>  <energy>
126.16683589704324

$$$$
