C=CCN(CC=C)CCCN1C(=O)C2=NC(=O)C1(C=C)C2=O
                    3D

 41 42  0  0  0  0  0  0  0  0999 V2000
   -1.5120    2.3800   -2.4892 C   0  0  0  0  0  0  0  0  0  0  0  0
   -2.3440    1.6963   -1.6911 C   0  0  0  0  0  0  0  0  0  0  0  0
   -2.1610    1.5460   -0.2027 C   0  0  0  0  0  0  0  0  0  0  0  0
   -1.9164    0.1762    0.2764 N   0  0  0  0  0  0  0  0  0  0  0  0
   -3.0553   -0.7326    0.1000 C   0  0  0  0  0  0  0  0  0  0  0  0
   -4.2131   -0.3768    0.9938 C   0  0  0  0  0  0  0  0  0  0  0  0
   -4.6351   -1.1172    2.0288 C   0  0  0  0  0  0  0  0  0  0  0  0
   -0.6632   -0.3661   -0.2649 C   0  0  0  0  0  0  0  0  0  0  0  0
   -0.0314   -1.4121    0.6675 C   0  0  0  0  0  0  0  0  0  0  0  0
    1.2792   -1.9824    0.1103 C   0  0  0  0  0  0  0  0  0  0  0  0
    2.4815   -1.2926    0.5550 N   0  0  0  0  0  0  0  0  0  0  0  0
    3.0346   -1.5566    1.8242 C   0  0  0  0  0  0  0  0  0  0  0  0
    2.8892   -2.4657    2.5983 O   0  0  0  0  0  0  0  0  0  0  0  0
    3.8518   -0.2743    2.0400 C   0  0  0  0  0  0  0  0  0  0  0  0
    3.1544    0.7778    2.4037 N   0  0  0  0  0  0  0  0  0  0  0  0
    2.5056    1.1294    1.1898 C   0  0  0  0  0  0  0  0  0  0  0  0
    1.7642    2.0844    1.0199 O   0  0  0  0  0  0  0  0  0  0  0  0
    2.9536    0.0652    0.0743 C   0  0  0  0  0  0  0  0  0  0  0  0
    2.7791    0.3367   -1.3725 C   0  0  0  0  0  0  0  0  0  0  0  0
    3.5395    1.1637   -2.1055 C   0  0  0  0  0  0  0  0  0  0  0  0
    4.3444   -0.0735    0.6497 C   0  0  0  0  0  0  0  0  0  0  0  0
    5.4749    0.0981    0.2762 O   0  0  0  0  0  0  0  0  0  0  0  0
   -1.7123    2.4752   -3.5524 H   0  0  0  0  0  0  0  0  0  0  0  0
   -0.6217    2.8647   -2.0977 H   0  0  0  0  0  0  0  0  0  0  0  0
   -3.2366    1.2553   -2.1255 H   0  0  0  0  0  0  0  0  0  0  0  0
   -1.3341    2.1832    0.1366 H   0  0  0  0  0  0  0  0  0  0  0  0
   -3.0435    1.9711    0.2906 H   0  0  0  0  0  0  0  0  0  0  0  0
   -2.7607   -1.7630    0.3292 H   0  0  0  0  0  0  0  0  0  0  0  0
   -3.3951   -0.7604   -0.9429 H   0  0  0  0  0  0  0  0  0  0  0  0
   -4.7497    0.5400    0.7616 H   0  0  0  0  0  0  0  0  0  0  0  0
   -5.4796   -0.7933    2.6301 H   0  0  0  0  0  0  0  0  0  0  0  0
   -4.1378   -2.0385    2.3152 H   0  0  0  0  0  0  0  0  0  0  0  0
   -0.8174   -0.7876   -1.2658 H   0  0  0  0  0  0  0  0  0  0  0  0
    0.0648    0.4430   -0.3756 H   0  0  0  0  0  0  0  0  0  0  0  0
    0.1265   -0.9845    1.6655 H   0  0  0  0  0  0  0  0  0  0  0  0
   -0.7249   -2.2525    0.7886 H   0  0  0  0  0  0  0  0  0  0  0  0
    1.2765   -2.0389   -0.9818 H   0  0  0  0  0  0  0  0  0  0  0  0
    1.3675   -3.0141    0.4708 H   0  0  0  0  0  0  0  0  0  0  0  0
    1.9464   -0.1390   -1.8816 H   0  0  0  0  0  0  0  0  0  0  0  0
    4.3763    1.7162   -1.6852 H   0  0  0  0  0  0  0  0  0  0  0  0
    3.3349    1.3191   -3.1614 H   0  0  0  0  0  0  0  0  0  0  0  0
  2  1  2  0  0  0  0
  3  2  1  0  0  0  0
  4  3  1  0  0  0  0
  5  4  1  0  0  0  0
  6  5  1  0  0  0  0
  7  6  2  0  0  0  0
  8  4  1  0  0  0  0
  9  8  1  0  0  0  0
 10  9  1  0  0  0  0
 11 10  1  0  0  0  0
 12 11  1  0  0  0  0
 13 12  2  0  0  0  0
 14 12  1  0  0  0  0
 15 14  2  0  0  0  0
 16 15  1  0  0  0  0
 17 16  2  0  0  0  0
 18 16  1  0  0  0  0
 18 11  1  0  0  0  0
 19 18  1  0  0  0  0
 20 19  2  0  0  0  0
 21 18  1  0  0  0  0
 21 14  1  0  0  0  0
 22 21  2  0  0  0  0
  1 23  1  0  0  0  0
  1 24  1  0  0  0  0
  2 25  1  0  0  0  0
  3 26  1  0  0  0  0
  3 27  1  0  0  0  0
  5 28  1  0  0  0  0
  5 29  1  0  0  0  0
  6 30  1  0  0  0  0
  7 31  1  0  0  0  0
  7 32  1  0  0  0  0
  8 33  1  0  0  0  0
  8 34  1  0  0  0  0
  9 35  1  0  0  0  0
  9 36  1  0  0  0  0
 10 37  1  0  0  0  0
 10 38  1  0  0  0  0
 19 39  1  0  0  0  0
 20 40  1  0  0  0  0
 20 41  1  0  0  0  0
M  END
>  <energy>
213.25120934219342

$$$$
