CC12CC(O)(C(N)=O)C(C=O)C(OC(=O)CCCCCCCC=N[N+](=O)[O-])CC3C4CCC1CC2CC(O)C43C
                    3D

 85 88  0  0  0  0  0  0  0  0999 V2000
   -4.2179   -0.2848   -2.4495 C   0  0  0  0  0  0  0  0  0  0  0  0
   -2.9728    0.0705   -1.5585 C   0  0  0  0  0  0  0  0  0  0  0  0
   -2.2237   -1.2768   -1.3341 C   0  0  0  0  0  0  0  0  0  0  0  0
   -2.5635   -2.1995   -0.1291 C   0  0  0  0  0  0  0  0  0  0  0  0
   -2.5521   -3.5261   -0.7864 O   0  0  0  0  0  0  0  0  0  0  0  0
   -4.0367   -2.1397    0.3468 C   0  0  0  0  0  0  0  0  0  0  0  0
   -4.3957   -1.3359    1.3763 N   0  0  0  0  0  0  0  0  0  0  0  0
   -4.9124   -2.8023   -0.2131 O   0  0  0  0  0  0  0  0  0  0  0  0
   -1.4582   -2.4026    0.9760 C   0  0  0  0  0  0  0  0  0  0  0  0
   -2.0398   -3.2702    2.0843 C   0  0  0  0  0  0  0  0  0  0  0  0
   -1.9513   -4.4937    2.1042 O   0  0  0  0  0  0  0  0  0  0  0  0
   -0.7642   -1.1854    1.6511 C   0  0  0  0  0  0  0  0  0  0  0  0
    0.3101   -1.4901    2.5989 O   0  0  0  0  0  0  0  0  0  0  0  0
    0.9042   -2.6856    2.7990 C   0  0  0  0  0  0  0  0  0  0  0  0
    0.8848   -3.2084    3.9079 O   0  0  0  0  0  0  0  0  0  0  0  0
    1.6874   -3.2437    1.6382 C   0  0  0  0  0  0  0  0  0  0  0  0
    3.1655   -3.4388    1.9921 C   0  0  0  0  0  0  0  0  0  0  0  0
    4.0166   -2.1663    1.8929 C   0  0  0  0  0  0  0  0  0  0  0  0
    4.2175   -1.7023    0.4465 C   0  0  0  0  0  0  0  0  0  0  0  0
    5.1886   -0.5208    0.3543 C   0  0  0  0  0  0  0  0  0  0  0  0
    5.1387    0.1603   -1.0175 C   0  0  0  0  0  0  0  0  0  0  0  0
    3.9330    1.0911   -1.1455 C   0  0  0  0  0  0  0  0  0  0  0  0
    3.6994    1.4700   -2.5838 C   0  0  0  0  0  0  0  0  0  0  0  0
    3.7144    2.7102   -2.9320 N   0  0  0  0  0  0  0  0  0  0  0  0
    3.4647    2.9086   -4.2418 N   0  3  0  0  0  0  0  0  0  0  0  0
    4.1524    2.3150   -5.0862 O   0  0  0  0  0  0  0  0  0  0  0  0
    2.5519    3.6869   -4.5399 O   0  5  0  0  0  0  0  0  0  0  0  0
   -0.2152   -0.1733    0.6496 C   0  0  0  0  0  0  0  0  0  0  0  0
    0.2785    1.1195    1.1665 C   0  0  0  0  0  0  0  0  0  0  0  0
    0.4377    2.3005    0.2142 C   0  0  0  0  0  0  0  0  0  0  0  0
   -0.0645    2.5477   -1.1921 C   0  0  0  0  0  0  0  0  0  0  0  0
   -0.5502    1.4232   -2.1102 C   0  0  0  0  0  0  0  0  0  0  0  0
   -2.0764    1.1936   -2.2906 C   0  0  0  0  0  0  0  0  0  0  0  0
   -3.0613    2.2522   -1.7299 C   0  0  0  0  0  0  0  0  0  0  0  0
   -3.3981    1.2758   -0.5660 C   0  0  0  0  0  0  0  0  0  0  0  0
   -2.9570    1.5146    0.8856 C   0  0  0  0  0  0  0  0  0  0  0  0
   -2.0039    2.6350    1.2897 C   0  0  0  0  0  0  0  0  0  0  0  0
   -2.2902    3.8492    0.6153 O   0  0  0  0  0  0  0  0  0  0  0  0
   -0.4903    2.4189    1.4303 C   0  0  0  0  0  0  0  0  0  0  0  0
    0.0668    3.2314    2.6039 C   0  0  0  0  0  0  0  0  0  0  0  0
   -4.9061   -0.9463   -1.9191 H   0  0  0  0  0  0  0  0  0  0  0  0
   -3.9104   -0.7811   -3.3775 H   0  0  0  0  0  0  0  0  0  0  0  0
   -4.8064    0.5878   -2.7451 H   0  0  0  0  0  0  0  0  0  0  0  0
   -2.3999   -1.8643   -2.2512 H   0  0  0  0  0  0  0  0  0  0  0  0
   -1.1411   -1.1806   -1.4243 H   0  0  0  0  0  0  0  0  0  0  0  0
   -3.4500   -3.6546   -1.1684 H   0  0  0  0  0  0  0  0  0  0  0  0
   -3.7755   -0.9236    2.0534 H   0  0  0  0  0  0  0  0  0  0  0  0
   -5.3728   -1.3968    1.6443 H   0  0  0  0  0  0  0  0  0  0  0  0
   -0.6707   -3.0163    0.5229 H   0  0  0  0  0  0  0  0  0  0  0  0
   -2.5935   -2.7475    2.8801 H   0  0  0  0  0  0  0  0  0  0  0  0
   -1.4957   -0.6922    2.2964 H   0  0  0  0  0  0  0  0  0  0  0  0
    1.2409   -4.2166    1.4017 H   0  0  0  0  0  0  0  0  0  0  0  0
    1.5751   -2.6181    0.7526 H   0  0  0  0  0  0  0  0  0  0  0  0
    3.2550   -3.8346    3.0108 H   0  0  0  0  0  0  0  0  0  0  0  0
    3.5928   -4.1987    1.3271 H   0  0  0  0  0  0  0  0  0  0  0  0
    3.5603   -1.3631    2.4844 H   0  0  0  0  0  0  0  0  0  0  0  0
    4.9992   -2.3680    2.3381 H   0  0  0  0  0  0  0  0  0  0  0  0
    4.6108   -2.5306   -0.1568 H   0  0  0  0  0  0  0  0  0  0  0  0
    3.2525   -1.4279    0.0149 H   0  0  0  0  0  0  0  0  0  0  0  0
    6.2049   -0.8926    0.5353 H   0  0  0  0  0  0  0  0  0  0  0  0
    4.9747    0.2166    1.1370 H   0  0  0  0  0  0  0  0  0  0  0  0
    5.1391   -0.5967   -1.8117 H   0  0  0  0  0  0  0  0  0  0  0  0
    6.0511    0.7536   -1.1568 H   0  0  0  0  0  0  0  0  0  0  0  0
    3.0165    0.6067   -0.7967 H   0  0  0  0  0  0  0  0  0  0  0  0
    4.0881    1.9942   -0.5436 H   0  0  0  0  0  0  0  0  0  0  0  0
    3.4933    0.6354   -3.2839 H   0  0  0  0  0  0  0  0  0  0  0  0
   -1.0091    0.1091   -0.0013 H   0  0  0  0  0  0  0  0  0  0  0  0
    0.5872   -0.6330    0.0626 H   0  0  0  0  0  0  0  0  0  0  0  0
    1.1280    0.9256    1.8208 H   0  0  0  0  0  0  0  0  0  0  0  0
    1.3976    2.8165    0.3078 H   0  0  0  0  0  0  0  0  0  0  0  0
   -0.7204    3.4174   -1.2150 H   0  0  0  0  0  0  0  0  0  0  0  0
    0.8331    2.9335   -1.7032 H   0  0  0  0  0  0  0  0  0  0  0  0
   -0.2064    1.7324   -3.1099 H   0  0  0  0  0  0  0  0  0  0  0  0
   -0.0059    0.4932   -1.9414 H   0  0  0  0  0  0  0  0  0  0  0  0
   -2.1995    1.0951   -3.3845 H   0  0  0  0  0  0  0  0  0  0  0  0
   -2.6929    3.2507   -1.5252 H   0  0  0  0  0  0  0  0  0  0  0  0
   -3.9145    2.4387   -2.3983 H   0  0  0  0  0  0  0  0  0  0  0  0
   -4.4980    1.2408   -0.4523 H   0  0  0  0  0  0  0  0  0  0  0  0
   -2.6518    0.5879    1.3425 H   0  0  0  0  0  0  0  0  0  0  0  0
   -3.8898    1.7602    1.4206 H   0  0  0  0  0  0  0  0  0  0  0  0
   -2.3184    2.8458    2.3212 H   0  0  0  0  0  0  0  0  0  0  0  0
   -1.6048    4.4987    0.8478 H   0  0  0  0  0  0  0  0  0  0  0  0
   -0.1924    4.2910    2.5045 H   0  0  0  0  0  0  0  0  0  0  0  0
    1.1594    3.1631    2.6741 H   0  0  0  0  0  0  0  0  0  0  0  0
   -0.3504    2.8614    3.5476 H   0  0  0  0  0  0  0  0  0  0  0  0
  2  1  1  0  0  0  0
  3  2  1  0  0  0  0
  4  3  1  0  0  0  0
  5  4  1  0  0  0  0
  6  4  1  0  0  0  0
  7  6  1  0  0  0  0
  8  6  2  0  0  0  0
  9  4  1  0  0  0  0
 10  9  1  0  0  0  0
 11 10  2  0  0  0  0
 12  9  1  0  0  0  0
 13 12  1  0  0  0  0
 14 13  1  0  0  0  0
 15 14  2  0  0  0  0
 16 14  1  0  0  0  0
 17 16  1  0  0  0  0
 18 17  1  0  0  0  0
 19 18  1  0  0  0  0
 20 19  1  0  0  0  0
 21 20  1  0  0  0  0
 22 21  1  0  0  0  0
 23 22  1  0  0  0  0
 24 23  2  0  0  0  0
 25 24  1  0  0  0  0
 26 25  2  0  0  0  0
 27 25  1  0  0  0  0
 28 12  1  0  0  0  0
 29 28  1  0  0  0  0
 30 29  1  0  0  0  0
 31 30  1  0  0  0  0
 32 31  1  0  0  0  0
 33 32  1  0  0  0  0
 33  2  1  0  0  0  0
 34 33  1  0  0  0  0
 35 34  1  0  0  0  0
 35  2  1  0  0  0  0
 36 35  1  0  0  0  0
 37 36  1  0  0  0  0
 38 37  1  0  0  0  0
 39 37  1  0  0  0  0
 39 30  1  0  0  0  0
 39 29  1  0  0  0  0
 40 39  1  0  0  0  0
  1 41  1  0  0  0  0
  1 42  1  0  0  0  0
  1 43  1  0  0  0  0
  3 44  1  0  0  0  0
  3 45  1  0  0  0  0
  5 46  1  0  0  0  0
  7 47  1  0  0  0  0
  7 48  1  0  0  0  0
  9 49  1  0  0  0  0
 10 50  1  0  0  0  0
 12 51  1  0  0  0  0
 16 52  1  0  0  0  0
 16 53  1  0  0  0  0
 17 54  1  0  0  0  0
 17 55  1  0  0  0  0
 18 56  1  0  0  0  0
 18 57  1  0  0  0  0
 19 58  1  0  0  0  0
 19 59  1  0  0  0  0
 20 60  1  0  0  0  0
 20 61  1  0  0  0  0
 21 62  1  0  0  0  0
 21 63  1  0  0  0  0
 22 64  1  0  0  0  0
 22 65  1  0  0  0  0
 23 66  1  0  0  0  0
 28 67  1  0  0  0  0
 28 68  1  0  0  0  0
 29 69  1  0  0  0  0
 30 70  1  0  0  0  0
 31 71  1  0  0  0  0
 31 72  1  0  0  0  0
 32 73  1  0  0  0  0
 32 74  1  0  0  0  0
 33 75  1  0  0  0  0
 34 76  1  0  0  0  0
 34 77  1  0  0  0  0
 35 78  1  0  0  0  0
 36 79  1  0  0  0  0
 36 80  1  0  0  0  0
 37 81  1  0  0  0  0
 38 82  1  0  0  0  0
 40 83  1  0  0  0  0
 40 84  1  0  0  0  0
 40 85  1  0  0  0  0
M  CHG  2  25   1  27  -1
M  END
>  <energy>
150.52688102262582

$$$$
