C=CCCC1C2C(C3CCCO3)C(O)C3C4OCCC45COC4C(C2C5C43OC)N1C(=O)Cl
                    3D

 67 73  0  0  0  0  0  0  0  0999 V2000
   -6.7282   -0.3602   -0.4247 C   0  0  0  0  0  0  0  0  0  0  0  0
   -5.6313   -0.8500    0.1594 C   0  0  0  0  0  0  0  0  0  0  0  0
   -4.3105   -1.0642   -0.5371 C   0  0  0  0  0  0  0  0  0  0  0  0
   -3.3468    0.0892   -0.2629 C   0  0  0  0  0  0  0  0  0  0  0  0
   -1.9585   -0.1232   -0.9009 C   0  0  0  0  0  0  0  0  0  0  0  0
   -0.7923   -0.2219    0.2432 C   0  0  0  0  0  0  0  0  0  0  0  0
    0.4215   -1.2654    0.0951 C   0  0  0  0  0  0  0  0  0  0  0  0
   -0.0120   -2.5791    0.8021 C   0  0  0  0  0  0  0  0  0  0  0  0
    0.7740   -3.8141    0.3947 C   0  0  0  0  0  0  0  0  0  0  0  0
   -0.1502   -4.9246    0.8408 C   0  0  0  0  0  0  0  0  0  0  0  0
   -1.5294   -4.3312    0.6322 C   0  0  0  0  0  0  0  0  0  0  0  0
   -1.3751   -2.9142    0.4819 O   0  0  0  0  0  0  0  0  0  0  0  0
    2.0214   -0.9193    0.5635 C   0  0  0  0  0  0  0  0  0  0  0  0
    2.2082   -1.2565    1.9383 O   0  0  0  0  0  0  0  0  0  0  0  0
    2.8547    0.5265    0.1953 C   0  0  0  0  0  0  0  0  0  0  0  0
    3.0491    1.4393    1.3930 C   0  0  0  0  0  0  0  0  0  0  0  0
    4.1999    2.2240    1.6469 O   0  0  0  0  0  0  0  0  0  0  0  0
    3.7051    3.1684    2.6561 C   0  0  0  0  0  0  0  0  0  0  0  0
    2.1591    3.1725    2.5178 C   0  0  0  0  0  0  0  0  0  0  0  0
    2.0134    2.4967    1.1640 C   0  0  0  0  0  0  0  0  0  0  0  0
    2.2993    3.5517    0.0292 C   0  0  0  0  0  0  0  0  0  0  0  0
    1.1864    3.5426   -0.8896 O   0  0  0  0  0  0  0  0  0  0  0  0
    1.0674    2.2725   -1.5245 C   0  0  0  0  0  0  0  0  0  0  0  0
   -0.2900    1.4738   -1.3420 C   0  0  0  0  0  0  0  0  0  0  0  0
   -0.3811    1.2107    0.1397 C   0  0  0  0  0  0  0  0  0  0  0  0
    0.9400    1.5158    0.7005 C   0  0  0  0  0  0  0  0  0  0  0  0
    1.8570    1.1698   -0.7448 C   0  0  0  0  0  0  0  0  0  0  0  0
    1.8607    0.0680   -1.6918 O   0  0  0  0  0  0  0  0  0  0  0  0
    2.8248    0.1900   -2.7443 C   0  0  0  0  0  0  0  0  0  0  0  0
   -1.6064    1.1515   -1.7216 N   0  0  0  0  0  0  0  0  0  0  0  0
   -2.0879    1.5418   -2.9621 C   0  0  0  0  0  0  0  0  0  0  0  0
   -1.5910    2.5055   -3.5398 O   0  0  0  0  0  0  0  0  0  0  0  0
   -3.3753    0.5896   -3.6315 Cl  0  0  0  0  0  0  0  0  0  0  0  0
   -6.7335   -0.0439   -1.4654 H   0  0  0  0  0  0  0  0  0  0  0  0
   -7.6565   -0.2592    0.1322 H   0  0  0  0  0  0  0  0  0  0  0  0
   -5.6716   -1.1362    1.2098 H   0  0  0  0  0  0  0  0  0  0  0  0
   -3.8822   -2.0058   -0.1810 H   0  0  0  0  0  0  0  0  0  0  0  0
   -4.4785   -1.1875   -1.6116 H   0  0  0  0  0  0  0  0  0  0  0  0
   -3.7970    1.0073   -0.6573 H   0  0  0  0  0  0  0  0  0  0  0  0
   -3.2673    0.2456    0.8208 H   0  0  0  0  0  0  0  0  0  0  0  0
   -1.9125   -0.9911   -1.5687 H   0  0  0  0  0  0  0  0  0  0  0  0
   -1.2321   -0.4035    1.2351 H   0  0  0  0  0  0  0  0  0  0  0  0
    0.4503   -1.5122   -0.9731 H   0  0  0  0  0  0  0  0  0  0  0  0
    0.0266   -2.4510    1.8924 H   0  0  0  0  0  0  0  0  0  0  0  0
    1.7648   -3.8817    0.8525 H   0  0  0  0  0  0  0  0  0  0  0  0
    0.8926   -3.8517   -0.6947 H   0  0  0  0  0  0  0  0  0  0  0  0
   -0.0040   -5.8623    0.2932 H   0  0  0  0  0  0  0  0  0  0  0  0
    0.0048   -5.1357    1.9051 H   0  0  0  0  0  0  0  0  0  0  0  0
   -2.0109   -4.7167   -0.2706 H   0  0  0  0  0  0  0  0  0  0  0  0
   -2.1846   -4.5326    1.4833 H   0  0  0  0  0  0  0  0  0  0  0  0
    2.5997   -1.6781    0.0102 H   0  0  0  0  0  0  0  0  0  0  0  0
    3.1380   -1.5277    2.0336 H   0  0  0  0  0  0  0  0  0  0  0  0
    3.8284    0.2651   -0.2346 H   0  0  0  0  0  0  0  0  0  0  0  0
    2.8848    0.8602    2.3121 H   0  0  0  0  0  0  0  0  0  0  0  0
    4.1502    4.1536    2.4701 H   0  0  0  0  0  0  0  0  0  0  0  0
    4.0074    2.8109    3.6442 H   0  0  0  0  0  0  0  0  0  0  0  0
    1.7457    4.1870    2.5669 H   0  0  0  0  0  0  0  0  0  0  0  0
    1.6934    2.5969    3.3304 H   0  0  0  0  0  0  0  0  0  0  0  0
    2.3886    4.5721    0.4159 H   0  0  0  0  0  0  0  0  0  0  0  0
    3.2186    3.3346   -0.5290 H   0  0  0  0  0  0  0  0  0  0  0  0
    1.3197    2.3814   -2.5809 H   0  0  0  0  0  0  0  0  0  0  0  0
    0.0229    0.6104   -1.9410 H   0  0  0  0  0  0  0  0  0  0  0  0
   -1.1936    1.8091    0.5994 H   0  0  0  0  0  0  0  0  0  0  0  0
    0.4082    2.4655    0.9101 H   0  0  0  0  0  0  0  0  0  0  0  0
    3.7521    0.6610   -2.4041 H   0  0  0  0  0  0  0  0  0  0  0  0
    2.4000    0.7584   -3.5752 H   0  0  0  0  0  0  0  0  0  0  0  0
    3.0515   -0.8179   -3.1061 H   0  0  0  0  0  0  0  0  0  0  0  0
  2  1  2  0  0  0  0
  3  2  1  0  0  0  0
  4  3  1  0  0  0  0
  5  4  1  0  0  0  0
  6  5  1  0  0  0  0
  7  6  1  0  0  0  0
  8  7  1  0  0  0  0
  9  8  1  0  0  0  0
 10  9  1  0  0  0  0
 11 10  1  0  0  0  0
 12 11  1  0  0  0  0
 12  8  1  0  0  0  0
 13  7  1  0  0  0  0
 14 13  1  0  0  0  0
 15 13  1  0  0  0  0
 16 15  1  0  0  0  0
 17 16  1  0  0  0  0
 18 17  1  0  0  0  0
 19 18  1  0  0  0  0
 20 19  1  0  0  0  0
 20 16  1  0  0  0  0
 21 20  1  0  0  0  0
 22 21  1  0  0  0  0
 23 22  1  0  0  0  0
 24 23  1  0  0  0  0
 25 24  1  0  0  0  0
 25  6  1  0  0  0  0
 26 25  1  0  0  0  0
 26 20  1  0  0  0  0
 27 26  1  0  0  0  0
 27 23  1  0  0  0  0
 27 15  1  0  0  0  0
 28 27  1  0  0  0  0
 29 28  1  0  0  0  0
 30 24  1  0  0  0  0
 30  5  1  0  0  0  0
 31 30  1  0  0  0  0
 32 31  2  0  0  0  0
 33 31  1  0  0  0  0
  1 34  1  0  0  0  0
  1 35  1  0  0  0  0
  2 36  1  0  0  0  0
  3 37  1  0  0  0  0
  3 38  1  0  0  0  0
  4 39  1  0  0  0  0
  4 40  1  0  0  0  0
  5 41  1  0  0  0  0
  6 42  1  0  0  0  0
  7 43  1  0  0  0  0
  8 44  1  0  0  0  0
  9 45  1  0  0  0  0
  9 46  1  0  0  0  0
 10 47  1  0  0  0  0
 10 48  1  0  0  0  0
 11 49  1  0  0  0  0
 11 50  1  0  0  0  0
 13 51  1  0  0  0  0
 14 52  1  0  0  0  0
 15 53  1  0  0  0  0
 16 54  1  0  0  0  0
 18 55  1  0  0  0  0
 18 56  1  0  0  0  0
 19 57  1  0  0  0  0
 19 58  1  0  0  0  0
 21 59  1  0  0  0  0
 21 60  1  0  0  0  0
 23 61  1  0  0  0  0
 24 62  1  0  0  0  0
 25 63  1  0  0  0  0
 26 64  1  0  0  0  0
 29 65  1  0  0  0  0
 29 66  1  0  0  0  0
 29 67  1  0  0  0  0
M  END
>  <energy>
421.61811191769641

$$$$
