CCOCCNC(=O)Cn1c(=O)c2c3n(-c4ccccc4)c(c4cccc(c4-2)c1=O)=CC(F)=C3
                    3D

 56 60  0  0  0  0  0  0  0  0999 V2000
   -4.0872   -2.0922    1.3678 C   0  0  0  0  0  0  0  0  0  0  0  0
   -4.4920   -1.1837    0.2224 C   0  0  0  0  0  0  0  0  0  0  0  0
   -5.3319   -0.1345    0.7093 O   0  0  0  0  0  0  0  0  0  0  0  0
   -4.6349    1.0929    0.9310 C   0  0  0  0  0  0  0  0  0  0  0  0
   -4.4367    1.8626   -0.3840 C   0  0  0  0  0  0  0  0  0  0  0  0
   -3.1845    2.5939   -0.4187 N   0  0  0  0  0  0  0  0  0  0  0  0
   -2.6425    3.0433   -1.6083 C   0  0  0  0  0  0  0  0  0  0  0  0
   -3.2397    2.9982   -2.6789 O   0  0  0  0  0  0  0  0  0  0  0  0
   -1.1936    3.5223   -1.4787 C   0  0  0  0  0  0  0  0  0  0  0  0
   -0.2915    2.3707   -1.4852 N   0  0  0  0  0  0  0  0  0  0  0  0
   -0.1732    1.6605   -0.2865 C   0  0  0  0  0  0  0  0  0  0  0  0
   -0.8249    1.9121    0.7290 O   0  0  0  0  0  0  0  0  0  0  0  0
    0.8382    0.5850   -0.2964 C   0  0  0  0  0  0  0  0  0  0  0  0
    1.1573   -0.1324    0.8239 C   0  0  0  0  0  0  0  0  0  0  0  0
    2.3829   -0.8448    0.7194 N   0  0  0  0  0  0  0  0  0  0  0  0
    3.3570   -0.8994    1.7600 C   0  0  0  0  0  0  0  0  0  0  0  0
    3.1703   -0.2284    2.9832 C   0  0  0  0  0  0  0  0  0  0  0  0
    4.1440   -0.2635    3.9898 C   0  0  0  0  0  0  0  0  0  0  0  0
    5.3308   -0.9627    3.7910 C   0  0  0  0  0  0  0  0  0  0  0  0
    5.5463   -1.6166    2.5817 C   0  0  0  0  0  0  0  0  0  0  0  0
    4.5695   -1.5870    1.5789 C   0  0  0  0  0  0  0  0  0  0  0  0
    2.2914   -1.7935   -0.3250 C   0  0  0  0  0  0  0  0  0  0  0  0
    2.2256   -1.0538   -1.6270 C   0  0  0  0  0  0  0  0  0  0  0  0
    2.7698   -1.4931   -2.8301 C   0  0  0  0  0  0  0  0  0  0  0  0
    2.5776   -0.7223   -3.9808 C   0  0  0  0  0  0  0  0  0  0  0  0
    1.8271    0.4638   -3.9330 C   0  0  0  0  0  0  0  0  0  0  0  0
    1.2647    0.9022   -2.7255 C   0  0  0  0  0  0  0  0  0  0  0  0
    1.4831    0.1706   -1.5711 C   0  0  0  0  0  0  0  0  0  0  0  0
    0.4047    2.1081   -2.6767 C   0  0  0  0  0  0  0  0  0  0  0  0
    0.3476    2.8241   -3.6735 O   0  0  0  0  0  0  0  0  0  0  0  0
    1.2758   -2.7019   -0.2124 C   0  0  0  0  0  0  0  0  0  0  0  0
    0.2234   -2.3751    0.7751 C   0  0  0  0  0  0  0  0  0  0  0  0
   -0.7014   -3.3145    1.0514 F   0  0  0  0  0  0  0  0  0  0  0  0
    0.1026   -1.1088    1.2482 C   0  0  0  0  0  0  0  0  0  0  0  0
   -3.4559   -2.9094    1.0077 H   0  0  0  0  0  0  0  0  0  0  0  0
   -3.5412   -1.5428    2.1408 H   0  0  0  0  0  0  0  0  0  0  0  0
   -4.9696   -2.5249    1.8483 H   0  0  0  0  0  0  0  0  0  0  0  0
   -5.0783   -1.7505   -0.5109 H   0  0  0  0  0  0  0  0  0  0  0  0
   -3.6049   -0.7937   -0.2918 H   0  0  0  0  0  0  0  0  0  0  0  0
   -5.2415    1.6982    1.6143 H   0  0  0  0  0  0  0  0  0  0  0  0
   -3.6841    0.8893    1.4383 H   0  0  0  0  0  0  0  0  0  0  0  0
   -4.4633    1.1870   -1.2467 H   0  0  0  0  0  0  0  0  0  0  0  0
   -5.2503    2.5852   -0.5248 H   0  0  0  0  0  0  0  0  0  0  0  0
   -2.5301    2.4623    0.3527 H   0  0  0  0  0  0  0  0  0  0  0  0
   -1.0808    4.0782   -0.5408 H   0  0  0  0  0  0  0  0  0  0  0  0
   -0.9830    4.2133   -2.3012 H   0  0  0  0  0  0  0  0  0  0  0  0
    2.2566    0.3291    3.1755 H   0  0  0  0  0  0  0  0  0  0  0  0
    3.9686    0.2580    4.9279 H   0  0  0  0  0  0  0  0  0  0  0  0
    6.0857   -0.9953    4.5765 H   0  0  0  0  0  0  0  0  0  0  0  0
    6.4798   -2.1498    2.4162 H   0  0  0  0  0  0  0  0  0  0  0  0
    4.7819   -2.0943    0.6396 H   0  0  0  0  0  0  0  0  0  0  0  0
    3.3320   -2.4206   -2.8828 H   0  0  0  0  0  0  0  0  0  0  0  0
    3.0006   -1.0476   -4.9296 H   0  0  0  0  0  0  0  0  0  0  0  0
    1.6719    1.0348   -4.8496 H   0  0  0  0  0  0  0  0  0  0  0  0
    0.9392   -3.3194   -1.0415 H   0  0  0  0  0  0  0  0  0  0  0  0
   -0.6891   -0.7893    1.9117 H   0  0  0  0  0  0  0  0  0  0  0  0
  2  1  1  0  0  0  0
  3  2  1  0  0  0  0
  4  3  1  0  0  0  0
  5  4  1  0  0  0  0
  6  5  1  0  0  0  0
  7  6  1  0  0  0  0
  8  7  2  0  0  0  0
  9  7  1  0  0  0  0
 10  9  1  0  0  0  0
 11 10  1  0  0  0  0
 12 11  2  0  0  0  0
 13 11  1  0  0  0  0
 14 13  2  0  0  0  0
 15 14  1  0  0  0  0
 16 15  1  0  0  0  0
 17 16  2  0  0  0  0
 18 17  1  0  0  0  0
 19 18  2  0  0  0  0
 20 19  1  0  0  0  0
 21 20  2  0  0  0  0
 21 16  1  0  0  0  0
 22 15  1  0  0  0  0
 23 22  1  0  0  0  0
 24 23  1  0  0  0  0
 25 24  2  0  0  0  0
 26 25  1  0  0  0  0
 27 26  2  0  0  0  0
 28 27  1  0  0  0  0
 28 23  2  0  0  0  0
 28 13  1  0  0  0  0
 29 27  1  0  0  0  0
 29 10  1  0  0  0  0
 30 29  2  0  0  0  0
 31 22  2  0  0  0  0
 32 31  1  0  0  0  0
 33 32  1  0  0  0  0
 34 32  2  0  0  0  0
 34 14  1  0  0  0  0
  1 35  1  0  0  0  0
  1 36  1  0  0  0  0
  1 37  1  0  0  0  0
  2 38  1  0  0  0  0
  2 39  1  0  0  0  0
  4 40  1  0  0  0  0
  4 41  1  0  0  0  0
  5 42  1  0  0  0  0
  5 43  1  0  0  0  0
  6 44  1  0  0  0  0
  9 45  1  0  0  0  0
  9 46  1  0  0  0  0
 17 47  1  0  0  0  0
 18 48  1  0  0  0  0
 19 49  1  0  0  0  0
 20 50  1  0  0  0  0
 21 51  1  0  0  0  0
 24 52  1  0  0  0  0
 25 53  1  0  0  0  0
 26 54  1  0  0  0  0
 31 55  1  0  0  0  0
 34 56  1  0  0  0  0
M  END
>  <energy>
141.07388235866424

$$$$
