C=CCN1CC23CC4C2C2ON5CC(C2(Cl)CC1(CC)N(CCCO)C3=O)C4(OC)C5
                    3D

 65 70  0  0  0  0  0  0  0  0999 V2000
    1.0869   -3.0774   -3.4506 C   0  0  0  0  0  0  0  0  0  0  0  0
    1.1886   -2.9643   -2.1184 C   0  0  0  0  0  0  0  0  0  0  0  0
    0.0643   -3.2049   -1.1487 C   0  0  0  0  0  0  0  0  0  0  0  0
   -0.1329   -2.1132   -0.2139 N   0  0  0  0  0  0  0  0  0  0  0  0
    0.3483   -2.3352    1.1553 C   0  0  0  0  0  0  0  0  0  0  0  0
    0.5838   -0.9788    1.9275 C   0  0  0  0  0  0  0  0  0  0  0  0
    2.0346   -0.9460    1.3306 C   0  0  0  0  0  0  0  0  0  0  0  0
    2.4083    0.4603    1.6871 C   0  0  0  0  0  0  0  0  0  0  0  0
    0.9968    0.6854    2.1371 C   0  0  0  0  0  0  0  0  0  0  0  0
    0.2689    1.7838    1.3367 C   0  0  0  0  0  0  0  0  0  0  0  0
    0.7304    3.1056    1.7879 O   0  0  0  0  0  0  0  0  0  0  0  0
    1.9835    3.6508    1.2228 N   0  0  0  0  0  0  0  0  0  0  0  0
    1.9887    3.5508   -0.2309 C   0  0  0  0  0  0  0  0  0  0  0  0
    1.9141    2.0402   -0.4320 C   0  0  0  0  0  0  0  0  0  0  0  0
    0.4420    1.5861   -0.1746 C   0  0  0  0  0  0  0  0  0  0  0  0
   -0.7941    2.6745   -0.9824 Cl  0  0  0  0  0  0  0  0  0  0  0  0
    0.2364    0.2186   -0.8949 C   0  0  0  0  0  0  0  0  0  0  0  0
   -0.8593   -0.8660   -0.5361 C   0  0  0  0  0  0  0  0  0  0  0  0
   -1.7595   -1.0760   -1.8179 C   0  0  0  0  0  0  0  0  0  0  0  0
   -2.6211    0.0824   -2.3211 C   0  0  0  0  0  0  0  0  0  0  0  0
   -1.6131   -0.5790    0.7014 N   0  0  0  0  0  0  0  0  0  0  0  0
   -3.0612   -0.8192    0.8165 C   0  0  0  0  0  0  0  0  0  0  0  0
   -3.8605    0.4465    1.1218 C   0  0  0  0  0  0  0  0  0  0  0  0
   -5.3559    0.1461    1.0796 C   0  0  0  0  0  0  0  0  0  0  0  0
   -6.1057    1.3208    1.3498 O   0  0  0  0  0  0  0  0  0  0  0  0
   -0.9478   -0.6281    1.9367 C   0  0  0  0  0  0  0  0  0  0  0  0
   -1.5521   -0.4437    3.0008 O   0  0  0  0  0  0  0  0  0  0  0  0
    2.9254    1.5219    0.6998 C   0  0  0  0  0  0  0  0  0  0  0  0
    4.2409    1.1723    0.2542 O   0  0  0  0  0  0  0  0  0  0  0  0
    4.3710    0.3581   -0.8950 C   0  0  0  0  0  0  0  0  0  0  0  0
    3.0968    2.7881    1.6103 C   0  0  0  0  0  0  0  0  0  0  0  0
    1.9456   -2.9316   -4.0987 H   0  0  0  0  0  0  0  0  0  0  0  0
    0.1489   -3.3323   -3.9302 H   0  0  0  0  0  0  0  0  0  0  0  0
    2.1588   -2.7265   -1.6917 H   0  0  0  0  0  0  0  0  0  0  0  0
   -0.8589   -3.4674   -1.6748 H   0  0  0  0  0  0  0  0  0  0  0  0
    0.3180   -4.1194   -0.5951 H   0  0  0  0  0  0  0  0  0  0  0  0
    1.2240   -3.0074    1.1657 H   0  0  0  0  0  0  0  0  0  0  0  0
   -0.4053   -2.9297    1.6960 H   0  0  0  0  0  0  0  0  0  0  0  0
    2.7074   -1.6405    1.8704 H   0  0  0  0  0  0  0  0  0  0  0  0
    2.2248   -1.2015    0.2912 H   0  0  0  0  0  0  0  0  0  0  0  0
    3.0929    0.4124    2.5526 H   0  0  0  0  0  0  0  0  0  0  0  0
    0.9417    0.9542    3.2056 H   0  0  0  0  0  0  0  0  0  0  0  0
   -0.7920    1.7912    1.6096 H   0  0  0  0  0  0  0  0  0  0  0  0
    2.9334    3.9492   -0.6279 H   0  0  0  0  0  0  0  0  0  0  0  0
    1.2121    4.1647   -0.6917 H   0  0  0  0  0  0  0  0  0  0  0  0
    2.2327    1.7993   -1.4485 H   0  0  0  0  0  0  0  0  0  0  0  0
    1.2060   -0.2724   -0.9657 H   0  0  0  0  0  0  0  0  0  0  0  0
    0.1247    0.4460   -1.9658 H   0  0  0  0  0  0  0  0  0  0  0  0
   -2.4202   -1.9399   -1.6824 H   0  0  0  0  0  0  0  0  0  0  0  0
   -1.1178   -1.3380   -2.6658 H   0  0  0  0  0  0  0  0  0  0  0  0
   -3.3295    0.4485   -1.5807 H   0  0  0  0  0  0  0  0  0  0  0  0
   -3.2133   -0.2537   -3.1828 H   0  0  0  0  0  0  0  0  0  0  0  0
   -2.0184    0.9195   -2.6771 H   0  0  0  0  0  0  0  0  0  0  0  0
   -3.2261   -1.5464    1.6244 H   0  0  0  0  0  0  0  0  0  0  0  0
   -3.4533   -1.3118   -0.0695 H   0  0  0  0  0  0  0  0  0  0  0  0
   -3.5962    0.8600    2.1014 H   0  0  0  0  0  0  0  0  0  0  0  0
   -3.6239    1.2406    0.4047 H   0  0  0  0  0  0  0  0  0  0  0  0
   -5.6547   -0.2296    0.0958 H   0  0  0  0  0  0  0  0  0  0  0  0
   -5.6231   -0.6067    1.8267 H   0  0  0  0  0  0  0  0  0  0  0  0
   -5.8375    2.0009    0.7080 H   0  0  0  0  0  0  0  0  0  0  0  0
    4.1475    0.9264   -1.8013 H   0  0  0  0  0  0  0  0  0  0  0  0
    5.4129    0.0283   -0.9691 H   0  0  0  0  0  0  0  0  0  0  0  0
    3.7526   -0.5392   -0.8528 H   0  0  0  0  0  0  0  0  0  0  0  0
    3.0959    2.5975    2.6912 H   0  0  0  0  0  0  0  0  0  0  0  0
    4.0438    3.2946    1.3888 H   0  0  0  0  0  0  0  0  0  0  0  0
  2  1  2  0  0  0  0
  3  2  1  0  0  0  0
  4  3  1  0  0  0  0
  5  4  1  0  0  0  0
  6  5  1  0  0  0  0
  7  6  1  0  0  0  0
  8  7  1  0  0  0  0
  9  8  1  0  0  0  0
  9  6  1  0  0  0  0
 10  9  1  0  0  0  0
 11 10  1  0  0  0  0
 12 11  1  0  0  0  0
 13 12  1  0  0  0  0
 14 13  1  0  0  0  0
 15 14  1  0  0  0  0
 15 10  1  0  0  0  0
 16 15  1  0  0  0  0
 17 15  1  0  0  0  0
 18 17  1  0  0  0  0
 18  4  1  0  0  0  0
 19 18  1  0  0  0  0
 20 19  1  0  0  0  0
 21 18  1  0  0  0  0
 22 21  1  0  0  0  0
 23 22  1  0  0  0  0
 24 23  1  0  0  0  0
 25 24  1  0  0  0  0
 26 21  1  0  0  0  0
 26  6  1  0  0  0  0
 27 26  2  0  0  0  0
 28 14  1  0  0  0  0
 28  8  1  0  0  0  0
 29 28  1  0  0  0  0
 30 29  1  0  0  0  0
 31 28  1  0  0  0  0
 31 12  1  0  0  0  0
  1 32  1  0  0  0  0
  1 33  1  0  0  0  0
  2 34  1  0  0  0  0
  3 35  1  0  0  0  0
  3 36  1  0  0  0  0
  5 37  1  0  0  0  0
  5 38  1  0  0  0  0
  7 39  1  0  0  0  0
  7 40  1  0  0  0  0
  8 41  1  0  0  0  0
  9 42  1  0  0  0  0
 10 43  1  0  0  0  0
 13 44  1  0  0  0  0
 13 45  1  0  0  0  0
 14 46  1  0  0  0  0
 17 47  1  0  0  0  0
 17 48  1  0  0  0  0
 19 49  1  0  0  0  0
 19 50  1  0  0  0  0
 20 51  1  0  0  0  0
 20 52  1  0  0  0  0
 20 53  1  0  0  0  0
 22 54  1  0  0  0  0
 22 55  1  0  0  0  0
 23 56  1  0  0  0  0
 23 57  1  0  0  0  0
 24 58  1  0  0  0  0
 24 59  1  0  0  0  0
 25 60  1  0  0  0  0
 30 61  1  0  0  0  0
 30 62  1  0  0  0  0
 30 63  1  0  0  0  0
 31 64  1  0  0  0  0
 31 65  1  0  0  0  0
M  END
>  <energy>
181.98493287108715

$$$$
