CN1C(=O)NC(C)(c2c[nH]c3ccc(F)cc23)C2C1CCC1(C)C2(C)C2C=CC21C(F)(F)F
                    3D

 60 65  0  0  0  0  0  0  0  0999 V2000
    0.0326   -3.8467    2.5277 C   0  0  0  0  0  0  0  0  0  0  0  0
   -0.2884   -3.0299    1.3675 N   0  0  0  0  0  0  0  0  0  0  0  0
   -1.5665   -3.1703    0.8438 C   0  0  0  0  0  0  0  0  0  0  0  0
   -2.3696   -4.0250    1.2133 O   0  0  0  0  0  0  0  0  0  0  0  0
   -1.9363   -2.3203   -0.1533 N   0  0  0  0  0  0  0  0  0  0  0  0
   -1.2361   -1.1020   -0.6139 C   0  0  0  0  0  0  0  0  0  0  0  0
   -1.4479   -1.0649   -2.1387 C   0  0  0  0  0  0  0  0  0  0  0  0
   -1.9426    0.0510    0.1261 C   0  0  0  0  0  0  0  0  0  0  0  0
   -2.2387    0.0579    1.4869 C   0  0  0  0  0  0  0  0  0  0  0  0
   -2.8673    1.2164    1.8257 N   0  0  0  0  0  0  0  0  0  0  0  0
   -3.0949    1.9696    0.7069 C   0  0  0  0  0  0  0  0  0  0  0  0
   -3.7408    3.2105    0.6015 C   0  0  0  0  0  0  0  0  0  0  0  0
   -3.8800    3.7647   -0.6682 C   0  0  0  0  0  0  0  0  0  0  0  0
   -3.4039    3.0847   -1.7743 C   0  0  0  0  0  0  0  0  0  0  0  0
   -3.5434    3.6336   -2.9890 F   0  0  0  0  0  0  0  0  0  0  0  0
   -2.7693    1.8438   -1.6608 C   0  0  0  0  0  0  0  0  0  0  0  0
   -2.5726    1.2625   -0.3849 C   0  0  0  0  0  0  0  0  0  0  0  0
    0.2599   -1.3579   -0.3355 C   0  0  0  0  0  0  0  0  0  0  0  0
    0.4763   -1.7946    1.1294 C   0  0  0  0  0  0  0  0  0  0  0  0
    1.9793   -1.8389    1.5493 C   0  0  0  0  0  0  0  0  0  0  0  0
    2.8326   -0.5852    1.1817 C   0  0  0  0  0  0  0  0  0  0  0  0
    1.9831    0.4407    0.4103 C   0  0  0  0  0  0  0  0  0  0  0  0
    1.1655    1.2252    1.4705 C   0  0  0  0  0  0  0  0  0  0  0  0
    1.3804   -0.4063   -0.8142 C   0  0  0  0  0  0  0  0  0  0  0  0
    2.3772   -1.3676   -1.6058 C   0  0  0  0  0  0  0  0  0  0  0  0
    1.5212    0.8443   -1.7351 C   0  0  0  0  0  0  0  0  0  0  0  0
    0.6749    2.0651   -1.5447 C   0  0  0  0  0  0  0  0  0  0  0  0
    1.6127    2.7217   -0.8430 C   0  0  0  0  0  0  0  0  0  0  0  0
    2.5109    1.4760   -0.6932 C   0  0  0  0  0  0  0  0  0  0  0  0
    3.9735    1.7021   -0.9627 C   0  0  0  0  0  0  0  0  0  0  0  0
    4.6906    0.5579   -0.9272 F   0  0  0  0  0  0  0  0  0  0  0  0
    4.1695    2.2670   -2.1771 F   0  0  0  0  0  0  0  0  0  0  0  0
    4.5005    2.5343   -0.0311 F   0  0  0  0  0  0  0  0  0  0  0  0
    1.0809   -4.1532    2.4936 H   0  0  0  0  0  0  0  0  0  0  0  0
   -0.5785   -4.7536    2.5652 H   0  0  0  0  0  0  0  0  0  0  0  0
   -0.1575   -3.2630    3.4326 H   0  0  0  0  0  0  0  0  0  0  0  0
   -2.9130   -2.4162   -0.3951 H   0  0  0  0  0  0  0  0  0  0  0  0
   -0.9135   -0.2337   -2.6051 H   0  0  0  0  0  0  0  0  0  0  0  0
   -2.5105   -0.9882   -2.3964 H   0  0  0  0  0  0  0  0  0  0  0  0
   -1.0864   -1.9865   -2.6127 H   0  0  0  0  0  0  0  0  0  0  0  0
   -2.0573   -0.6810    2.2550 H   0  0  0  0  0  0  0  0  0  0  0  0
   -3.1768    1.4624    2.7570 H   0  0  0  0  0  0  0  0  0  0  0  0
   -4.1243    3.7255    1.4770 H   0  0  0  0  0  0  0  0  0  0  0  0
   -4.3654    4.7286   -0.7979 H   0  0  0  0  0  0  0  0  0  0  0  0
   -2.4244    1.3736   -2.5730 H   0  0  0  0  0  0  0  0  0  0  0  0
    0.4296   -2.2936   -0.8984 H   0  0  0  0  0  0  0  0  0  0  0  0
    0.0171   -1.0840    1.8107 H   0  0  0  0  0  0  0  0  0  0  0  0
    2.4593   -2.7289    1.1232 H   0  0  0  0  0  0  0  0  0  0  0  0
    2.0452   -1.9774    2.6366 H   0  0  0  0  0  0  0  0  0  0  0  0
    3.2444   -0.1372    2.0944 H   0  0  0  0  0  0  0  0  0  0  0  0
    3.7107   -0.9043    0.6110 H   0  0  0  0  0  0  0  0  0  0  0  0
    1.7662    2.0525    1.8664 H   0  0  0  0  0  0  0  0  0  0  0  0
    0.2370    1.6389    1.0751 H   0  0  0  0  0  0  0  0  0  0  0  0
    0.9015    0.6279    2.3455 H   0  0  0  0  0  0  0  0  0  0  0  0
    3.3099   -0.8829   -1.9014 H   0  0  0  0  0  0  0  0  0  0  0  0
    1.8940   -1.7211   -2.5262 H   0  0  0  0  0  0  0  0  0  0  0  0
    2.6498   -2.2562   -1.0303 H   0  0  0  0  0  0  0  0  0  0  0  0
    1.8956    0.6996   -2.7549 H   0  0  0  0  0  0  0  0  0  0  0  0
   -0.2573    2.3983   -1.9853 H   0  0  0  0  0  0  0  0  0  0  0  0
    1.6812    3.7343   -0.4543 H   0  0  0  0  0  0  0  0  0  0  0  0
  2  1  1  0  0  0  0
  3  2  1  0  0  0  0
  4  3  2  0  0  0  0
  5  3  1  0  0  0  0
  6  5  1  0  0  0  0
  7  6  1  0  0  0  0
  8  6  1  0  0  0  0
  9  8  2  0  0  0  0
 10  9  1  0  0  0  0
 11 10  1  0  0  0  0
 12 11  1  0  0  0  0
 13 12  2  0  0  0  0
 14 13  1  0  0  0  0
 15 14  1  0  0  0  0
 16 14  2  0  0  0  0
 17 16  1  0  0  0  0
 17  8  1  0  0  0  0
 17 11  2  0  0  0  0
 18  6  1  0  0  0  0
 19 18  1  0  0  0  0
 19  2  1  0  0  0  0
 20 19  1  0  0  0  0
 21 20  1  0  0  0  0
 22 21  1  0  0  0  0
 23 22  1  0  0  0  0
 24 22  1  0  0  0  0
 24 18  1  0  0  0  0
 25 24  1  0  0  0  0
 26 24  1  0  0  0  0
 27 26  1  0  0  0  0
 28 27  2  0  0  0  0
 29 28  1  0  0  0  0
 29 26  1  0  0  0  0
 29 22  1  0  0  0  0
 30 29  1  0  0  0  0
 31 30  1  0  0  0  0
 32 30  1  0  0  0  0
 33 30  1  0  0  0  0
  1 34  1  0  0  0  0
  1 35  1  0  0  0  0
  1 36  1  0  0  0  0
  5 37  1  0  0  0  0
  7 38  1  0  0  0  0
  7 39  1  0  0  0  0
  7 40  1  0  0  0  0
  9 41  1  0  0  0  0
 10 42  1  0  0  0  0
 12 43  1  0  0  0  0
 13 44  1  0  0  0  0
 16 45  1  0  0  0  0
 18 46  1  0  0  0  0
 19 47  1  0  0  0  0
 20 48  1  0  0  0  0
 20 49  1  0  0  0  0
 21 50  1  0  0  0  0
 21 51  1  0  0  0  0
 23 52  1  0  0  0  0
 23 53  1  0  0  0  0
 23 54  1  0  0  0  0
 25 55  1  0  0  0  0
 25 56  1  0  0  0  0
 25 57  1  0  0  0  0
 26 58  1  0  0  0  0
 27 59  1  0  0  0  0
 28 60  1  0  0  0  0
M  END
>  <energy>
34.028357809537226

$$$$
