Cn1c(=O)c2c3sn(c4c(nc5n4C(=O)NC(N)N5)c4c2c1c1nc2c(=N)c(=O)n(O)c2cn14)C(=O)NC3=O
                    3D

 51 58  0  0  0  0  0  0  0  0999 V2000
    4.3906   -0.5639   -2.8109 C   0  0  0  0  0  0  0  0  0  0  0  0
    3.2715   -1.0503   -2.0472 N   0  0  0  0  0  0  0  0  0  0  0  0
    2.7969   -2.3761   -2.0870 C   0  0  0  0  0  0  0  0  0  0  0  0
    3.2638   -3.3242   -2.6925 O   0  0  0  0  0  0  0  0  0  0  0  0
    1.4775   -2.3689   -1.3108 C   0  0  0  0  0  0  0  0  0  0  0  0
    0.7164   -3.4692   -1.3182 C   0  0  0  0  0  0  0  0  0  0  0  0
   -1.0122   -3.4115   -1.4052 S   0  0  0  0  0  0  0  0  0  0  0  0
   -1.2678   -2.9684    0.2180 N   0  0  0  0  0  0  0  0  0  0  0  0
   -1.6791   -1.6592    0.3937 C   0  0  0  0  0  0  0  0  0  0  0  0
   -1.0159   -0.4491    0.2065 C   0  0  0  0  0  0  0  0  0  0  0  0
   -1.9076    0.5963    0.3042 N   0  0  0  0  0  0  0  0  0  0  0  0
   -3.0839    0.0385    0.4509 C   0  0  0  0  0  0  0  0  0  0  0  0
   -3.0162   -1.3307    0.5761 N   0  0  0  0  0  0  0  0  0  0  0  0
   -4.1561   -2.1383    0.7466 C   0  0  0  0  0  0  0  0  0  0  0  0
   -4.0835   -3.3554    0.8319 O   0  0  0  0  0  0  0  0  0  0  0  0
   -5.3292   -1.4143    0.7467 N   0  0  0  0  0  0  0  0  0  0  0  0
   -5.3804   -0.0292    1.0651 C   0  0  0  0  0  0  0  0  0  0  0  0
   -6.6929    0.3431    0.6406 N   0  0  0  0  0  0  0  0  0  0  0  0
   -4.2921    0.6316    0.4252 N   0  0  0  0  0  0  0  0  0  0  0  0
    0.4011   -0.1949   -0.2373 C   0  0  0  0  0  0  0  0  0  0  0  0
    1.2715   -1.0251   -0.9011 C   0  0  0  0  0  0  0  0  0  0  0  0
    2.3819   -0.2875   -1.3195 C   0  0  0  0  0  0  0  0  0  0  0  0
    2.2871    1.0053   -0.8861 C   0  0  0  0  0  0  0  0  0  0  0  0
    3.1282    2.0937   -1.0150 N   0  0  0  0  0  0  0  0  0  0  0  0
    2.8121    3.0931   -0.2556 C   0  0  0  0  0  0  0  0  0  0  0  0
    3.5200    4.4210   -0.0659 C   0  0  0  0  0  0  0  0  0  0  0  0
    4.5538    4.8673   -0.7149 N   0  0  0  0  0  0  0  0  0  0  0  0
    2.7921    5.1678    1.0588 C   0  0  0  0  0  0  0  0  0  0  0  0
    3.1564    6.2160    1.5469 O   0  0  0  0  0  0  0  0  0  0  0  0
    1.7257    4.3551    1.3673 N   0  0  0  0  0  0  0  0  0  0  0  0
    0.8802    4.5657    2.4592 O   0  0  0  0  0  0  0  0  0  0  0  0
    1.6637    3.1724    0.6922 C   0  0  0  0  0  0  0  0  0  0  0  0
    0.8226    2.1338    0.7250 C   0  0  0  0  0  0  0  0  0  0  0  0
    1.1005    1.0261   -0.0920 N   0  0  0  0  0  0  0  0  0  0  0  0
   -0.5329   -3.5714    1.2443 C   0  0  0  0  0  0  0  0  0  0  0  0
   -0.5750   -3.2349    2.4276 O   0  0  0  0  0  0  0  0  0  0  0  0
    0.3310   -4.5721    0.8419 N   0  0  0  0  0  0  0  0  0  0  0  0
    1.2022   -4.3794   -0.2131 C   0  0  0  0  0  0  0  0  0  0  0  0
    2.3437   -4.8247   -0.1601 O   0  0  0  0  0  0  0  0  0  0  0  0
    4.0373    0.2103   -3.5002 H   0  0  0  0  0  0  0  0  0  0  0  0
    4.8352   -1.3732   -3.3972 H   0  0  0  0  0  0  0  0  0  0  0  0
    5.1405   -0.1438   -2.1369 H   0  0  0  0  0  0  0  0  0  0  0  0
   -6.1751   -1.9437    0.9363 H   0  0  0  0  0  0  0  0  0  0  0  0
   -5.2943    0.0739    2.1530 H   0  0  0  0  0  0  0  0  0  0  0  0
   -6.6475    0.3079   -0.3775 H   0  0  0  0  0  0  0  0  0  0  0  0
   -6.8025    1.3327    0.8521 H   0  0  0  0  0  0  0  0  0  0  0  0
   -4.2959    1.6435    0.4711 H   0  0  0  0  0  0  0  0  0  0  0  0
    4.8484    5.8046   -0.3778 H   0  0  0  0  0  0  0  0  0  0  0  0
    1.3305    5.2846    2.9464 H   0  0  0  0  0  0  0  0  0  0  0  0
   -0.0448    2.0831    1.3704 H   0  0  0  0  0  0  0  0  0  0  0  0
    0.8026   -5.0077    1.6235 H   0  0  0  0  0  0  0  0  0  0  0  0
  2  1  1  0  0  0  0
  3  2  1  0  0  0  0
  4  3  2  0  0  0  0
  5  3  1  0  0  0  0
  6  5  2  0  0  0  0
  7  6  1  0  0  0  0
  8  7  1  0  0  0  0
  9  8  1  0  0  0  0
 10  9  2  0  0  0  0
 11 10  1  0  0  0  0
 12 11  2  0  0  0  0
 13 12  1  0  0  0  0
 13  9  1  0  0  0  0
 14 13  1  0  0  0  0
 15 14  2  0  0  0  0
 16 14  1  0  0  0  0
 17 16  1  0  0  0  0
 18 17  1  0  0  0  0
 19 17  1  0  0  0  0
 19 12  1  0  0  0  0
 20 10  1  0  0  0  0
 21 20  2  0  0  0  0
 21  5  1  0  0  0  0
 22 21  1  0  0  0  0
 22  2  1  0  0  0  0
 23 22  2  0  0  0  0
 24 23  1  0  0  0  0
 25 24  2  0  0  0  0
 26 25  1  0  0  0  0
 27 26  2  0  0  0  0
 28 26  1  0  0  0  0
 29 28  2  0  0  0  0
 30 28  1  0  0  0  0
 31 30  1  0  0  0  0
 32 30  1  0  0  0  0
 32 25  1  0  0  0  0
 33 32  2  0  0  0  0
 34 33  1  0  0  0  0
 34 23  1  0  0  0  0
 34 20  1  0  0  0  0
 35  8  1  0  0  0  0
 36 35  2  0  0  0  0
 37 35  1  0  0  0  0
 38 37  1  0  0  0  0
 38  6  1  0  0  0  0
 39 38  2  0  0  0  0
  1 40  1  0  0  0  0
  1 41  1  0  0  0  0
  1 42  1  0  0  0  0
 16 43  1  0  0  0  0
 17 44  1  0  0  0  0
 18 45  1  0  0  0  0
 18 46  1  0  0  0  0
 19 47  1  0  0  0  0
 27 48  1  0  0  0  0
 31 49  1  0  0  0  0
 33 50  1  0  0  0  0
 37 51  1  0  0  0  0
M  END
>  <energy>
-6.1901190250286504

$$$$
