CCNC(=O)C1C2CC3C2C31
                    3D

 24 26  0  0  0  0  0  0  0  0999 V2000
   -3.3585    0.9517    0.6392 C   0  0  0  0  0  0  0  0  0  0  0  0
   -2.9870   -0.2183   -0.2548 C   0  0  0  0  0  0  0  0  0  0  0  0
   -1.5584   -0.3113   -0.4762 N   0  0  0  0  0  0  0  0  0  0  0  0
   -0.6941   -0.8611    0.4540 C   0  0  0  0  0  0  0  0  0  0  0  0
   -1.1198   -1.2635    1.5442 O   0  0  0  0  0  0  0  0  0  0  0  0
    0.8032   -0.9912    0.0405 C   0  0  0  0  0  0  0  0  0  0  0  0
    1.8567   -0.0799    0.8477 C   0  0  0  0  0  0  0  0  0  0  0  0
    3.3469   -0.2640    0.3244 C   0  0  0  0  0  0  0  0  0  0  0  0
    2.7745    0.1233   -0.9959 C   0  0  0  0  0  0  0  0  0  0  0  0
    1.7108    0.8572   -0.2631 C   0  0  0  0  0  0  0  0  0  0  0  0
    1.3257   -0.2502   -1.1536 C   0  0  0  0  0  0  0  0  0  0  0  0
   -2.9686    0.8160    1.6521 H   0  0  0  0  0  0  0  0  0  0  0  0
   -4.4465    1.0470    0.7106 H   0  0  0  0  0  0  0  0  0  0  0  0
   -2.9574    1.8915    0.2439 H   0  0  0  0  0  0  0  0  0  0  0  0
   -3.4580   -0.1019   -1.2361 H   0  0  0  0  0  0  0  0  0  0  0  0
   -3.3445   -1.1568    0.1842 H   0  0  0  0  0  0  0  0  0  0  0  0
   -1.1929    0.0559   -1.3407 H   0  0  0  0  0  0  0  0  0  0  0  0
    1.1005   -2.0518    0.0350 H   0  0  0  0  0  0  0  0  0  0  0  0
    1.6756    0.1810    1.8783 H   0  0  0  0  0  0  0  0  0  0  0  0
    4.0769    0.4328    0.7503 H   0  0  0  0  0  0  0  0  0  0  0  0
    3.7347   -1.2822    0.3963 H   0  0  0  0  0  0  0  0  0  0  0  0
    3.3897    0.6597   -1.6941 H   0  0  0  0  0  0  0  0  0  0  0  0
    1.5601    1.9108   -0.2544 H   0  0  0  0  0  0  0  0  0  0  0  0
    0.7305   -0.0948   -2.0317 H   0  0  0  0  0  0  0  0  0  0  0  0
  2  1  1  0  0  0  0
  3  2  1  0  0  0  0
  4  3  1  0  0  0  0
  5  4  2  0  0  0  0
  6  4  1  0  0  0  0
  7  6  1  0  0  0  0
  8  7  1  0  0  0  0
  9  8  1  0  0  0  0
 10  9  1  0  0  0  0
 10  7  1  0  0  0  0
 11 10  1  0  0  0  0
 11  9  1  0  0  0  0
 11  6  1  0  0  0  0
  1 12  1  0  0  0  0
  1 13  1  0  0  0  0
  1 14  1  0  0  0  0
  2 15  1  0  0  0  0
  2 16  1  0  0  0  0
  3 17  1  0  0  0  0
  6 18  1  0  0  0  0
  7 19  1  0  0  0  0
  8 20  1  0  0  0  0
  8 21  1  0  0  0  0
  9 22  1  0  0  0  0
 10 23  1  0  0  0  0
 11 24  1  0  0  0  0
M  END
>  <energy>
26.849130106906046

$$$$
