COC1(OCC[N+](C)(C)CCCNC(=O)C[N+]23CCCOC2C2CC4(CC3)CC(C4)C2(C)C)CCC[N+](C)(C)C1
                    3D

101105  0  0  0  0  0  0  0  0999 V2000
    1.3437    2.9821    1.4484 C   0  0  0  0  0  0  0  0  0  0  0  0
    2.6909    2.5587    1.2531 O   0  0  0  0  0  0  0  0  0  0  0  0
    2.9024    1.5270    0.2827 C   0  0  0  0  0  0  0  0  0  0  0  0
    2.3919    0.2348    0.7309 O   0  0  0  0  0  0  0  0  0  0  0  0
    2.6779   -0.0799    2.1020 C   0  0  0  0  0  0  0  0  0  0  0  0
    2.0037   -1.4018    2.5570 C   0  0  0  0  0  0  0  0  0  0  0  0
    2.6549   -2.7182    2.0372 N   0  3  0  0  0  0  0  0  0  0  0  0
    2.1039   -3.8951    2.8770 C   0  0  0  0  0  0  0  0  0  0  0  0
    4.1689   -2.6995    2.3093 C   0  0  0  0  0  0  0  0  0  0  0  0
    2.4210   -2.9713    0.5324 C   0  0  0  0  0  0  0  0  0  0  0  0
    0.9765   -3.3635    0.1796 C   0  0  0  0  0  0  0  0  0  0  0  0
    0.7610   -3.4718   -1.3370 C   0  0  0  0  0  0  0  0  0  0  0  0
    0.5838   -2.1603   -1.9375 N   0  0  0  0  0  0  0  0  0  0  0  0
   -0.5550   -1.4719   -2.2510 C   0  0  0  0  0  0  0  0  0  0  0  0
   -0.4017   -0.2923   -2.5625 O   0  0  0  0  0  0  0  0  0  0  0  0
   -1.9523   -2.1342   -2.1745 C   0  0  0  0  0  0  0  0  0  0  0  0
   -3.1329   -1.2110   -1.5696 N   0  3  0  0  0  0  0  0  0  0  0  0
   -4.3866   -2.1055   -1.4206 C   0  0  0  0  0  0  0  0  0  0  0  0
   -4.2415   -3.2122   -0.3917 C   0  0  0  0  0  0  0  0  0  0  0  0
   -3.3530   -2.8451    0.7719 C   0  0  0  0  0  0  0  0  0  0  0  0
   -3.2960   -1.4458    0.9287 O   0  0  0  0  0  0  0  0  0  0  0  0
   -2.6612   -0.7489   -0.1293 C   0  0  0  0  0  0  0  0  0  0  0  0
   -2.4593    0.7838    0.2717 C   0  0  0  0  0  0  0  0  0  0  0  0
   -2.6290    1.6743   -0.9218 C   0  0  0  0  0  0  0  0  0  0  0  0
   -4.1491    1.6372   -1.1656 C   0  0  0  0  0  0  0  0  0  0  0  0
   -4.4470    0.9620   -2.4747 C   0  0  0  0  0  0  0  0  0  0  0  0
   -3.4900   -0.2145   -2.7425 C   0  0  0  0  0  0  0  0  0  0  0  0
   -5.2044    1.0192   -0.1003 C   0  0  0  0  0  0  0  0  0  0  0  0
   -4.6433    2.0783    0.8461 C   0  0  0  0  0  0  0  0  0  0  0  0
   -4.6474    2.9676   -0.4854 C   0  0  0  0  0  0  0  0  0  0  0  0
   -3.3033    1.5139    1.4417 C   0  0  0  0  0  0  0  0  0  0  0  0
   -3.6181    0.6360    2.6643 C   0  0  0  0  0  0  0  0  0  0  0  0
   -2.5125    2.7294    1.9934 C   0  0  0  0  0  0  0  0  0  0  0  0
    2.1918    1.8466   -1.0566 C   0  0  0  0  0  0  0  0  0  0  0  0
    3.0464    1.4902   -2.2666 C   0  0  0  0  0  0  0  0  0  0  0  0
    4.2929    2.3698   -2.3383 C   0  0  0  0  0  0  0  0  0  0  0  0
    5.0134    2.4491   -0.9789 N   0  3  0  0  0  0  0  0  0  0  0  0
    6.5103    2.1699   -1.1962 C   0  0  0  0  0  0  0  0  0  0  0  0
    4.9154    3.8786   -0.4103 C   0  0  0  0  0  0  0  0  0  0  0  0
    4.4585    1.4276    0.0452 C   0  0  0  0  0  0  0  0  0  0  0  0
    1.2896    3.5258    2.3965 H   0  0  0  0  0  0  0  0  0  0  0  0
    0.6607    2.1297    1.4941 H   0  0  0  0  0  0  0  0  0  0  0  0
    1.0343    3.6733    0.6596 H   0  0  0  0  0  0  0  0  0  0  0  0
    2.2580    0.7088    2.7345 H   0  0  0  0  0  0  0  0  0  0  0  0
    3.7573   -0.0882    2.2708 H   0  0  0  0  0  0  0  0  0  0  0  0
    2.0481   -1.4564    3.6504 H   0  0  0  0  0  0  0  0  0  0  0  0
    0.9533   -1.4238    2.2510 H   0  0  0  0  0  0  0  0  0  0  0  0
    1.0123   -3.8724    2.8337 H   0  0  0  0  0  0  0  0  0  0  0  0
    2.4391   -3.7720    3.9111 H   0  0  0  0  0  0  0  0  0  0  0  0
    2.4963   -4.8268    2.4570 H   0  0  0  0  0  0  0  0  0  0  0  0
    4.6302   -1.9678    1.6422 H   0  0  0  0  0  0  0  0  0  0  0  0
    4.5726   -3.6946    2.1015 H   0  0  0  0  0  0  0  0  0  0  0  0
    4.3257   -2.4321    3.3587 H   0  0  0  0  0  0  0  0  0  0  0  0
    3.0916   -3.7908    0.2477 H   0  0  0  0  0  0  0  0  0  0  0  0
    2.7445   -2.0741   -0.0017 H   0  0  0  0  0  0  0  0  0  0  0  0
    0.7610   -4.3496    0.6070 H   0  0  0  0  0  0  0  0  0  0  0  0
    0.2565   -2.6584    0.6047 H   0  0  0  0  0  0  0  0  0  0  0  0
   -0.1149   -4.0897   -1.5479 H   0  0  0  0  0  0  0  0  0  0  0  0
    1.6208   -3.9427   -1.8247 H   0  0  0  0  0  0  0  0  0  0  0  0
    1.4144   -1.6152   -2.1395 H   0  0  0  0  0  0  0  0  0  0  0  0
   -2.2644   -2.4387   -3.1797 H   0  0  0  0  0  0  0  0  0  0  0  0
   -1.9077   -3.0154   -1.5398 H   0  0  0  0  0  0  0  0  0  0  0  0
   -5.2322   -1.4606   -1.1732 H   0  0  0  0  0  0  0  0  0  0  0  0
   -4.5986   -2.5495   -2.4011 H   0  0  0  0  0  0  0  0  0  0  0  0
   -5.2475   -3.4534   -0.0214 H   0  0  0  0  0  0  0  0  0  0  0  0
   -3.8836   -4.1406   -0.8545 H   0  0  0  0  0  0  0  0  0  0  0  0
   -2.3408   -3.2462    0.6499 H   0  0  0  0  0  0  0  0  0  0  0  0
   -3.7458   -3.2842    1.6946 H   0  0  0  0  0  0  0  0  0  0  0  0
   -1.6303   -1.1154   -0.0779 H   0  0  0  0  0  0  0  0  0  0  0  0
   -1.4095    0.8419    0.5945 H   0  0  0  0  0  0  0  0  0  0  0  0
   -2.2536    2.6859   -0.7321 H   0  0  0  0  0  0  0  0  0  0  0  0
   -2.0035    1.3716   -1.7571 H   0  0  0  0  0  0  0  0  0  0  0  0
   -5.4859    0.6211   -2.5411 H   0  0  0  0  0  0  0  0  0  0  0  0
   -4.3264    1.6823   -3.2926 H   0  0  0  0  0  0  0  0  0  0  0  0
   -3.9306   -0.8284   -3.5402 H   0  0  0  0  0  0  0  0  0  0  0  0
   -2.5568    0.1449   -3.1732 H   0  0  0  0  0  0  0  0  0  0  0  0
   -5.1244   -0.0066    0.2445 H   0  0  0  0  0  0  0  0  0  0  0  0
   -6.2644    1.1537   -0.3621 H   0  0  0  0  0  0  0  0  0  0  0  0
   -5.3337    2.4404    1.6167 H   0  0  0  0  0  0  0  0  0  0  0  0
   -5.6385    3.3130   -0.8069 H   0  0  0  0  0  0  0  0  0  0  0  0
   -3.9854    3.8384   -0.4887 H   0  0  0  0  0  0  0  0  0  0  0  0
   -3.9941    1.2438    3.4978 H   0  0  0  0  0  0  0  0  0  0  0  0
   -2.7218    0.1145    3.0197 H   0  0  0  0  0  0  0  0  0  0  0  0
   -4.4074   -0.0928    2.4649 H   0  0  0  0  0  0  0  0  0  0  0  0
   -2.2969    3.4810    1.2296 H   0  0  0  0  0  0  0  0  0  0  0  0
   -1.5617    2.4080    2.4320 H   0  0  0  0  0  0  0  0  0  0  0  0
   -3.0791    3.2469    2.7772 H   0  0  0  0  0  0  0  0  0  0  0  0
    1.9446    2.9114   -1.1327 H   0  0  0  0  0  0  0  0  0  0  0  0
    1.2415    1.3036   -1.1181 H   0  0  0  0  0  0  0  0  0  0  0  0
    2.4626    1.6242   -3.1853 H   0  0  0  0  0  0  0  0  0  0  0  0
    3.3245    0.4293   -2.2356 H   0  0  0  0  0  0  0  0  0  0  0  0
    4.0327    3.3904   -2.6411 H   0  0  0  0  0  0  0  0  0  0  0  0
    4.9885    1.9656   -3.0819 H   0  0  0  0  0  0  0  0  0  0  0  0
    6.6139    1.1481   -1.5727 H   0  0  0  0  0  0  0  0  0  0  0  0
    7.0256    2.2789   -0.2374 H   0  0  0  0  0  0  0  0  0  0  0  0
    6.8923    2.8909   -1.9254 H   0  0  0  0  0  0  0  0  0  0  0  0
    3.8642    4.1612   -0.3339 H   0  0  0  0  0  0  0  0  0  0  0  0
    5.4010    3.8939    0.5703 H   0  0  0  0  0  0  0  0  0  0  0  0
    5.4312    4.5541   -1.1002 H   0  0  0  0  0  0  0  0  0  0  0  0
    4.7197    0.4317   -0.3360 H   0  0  0  0  0  0  0  0  0  0  0  0
    5.0058    1.5851    0.9825 H   0  0  0  0  0  0  0  0  0  0  0  0
  2  1  1  0  0  0  0
  3  2  1  0  0  0  0
  4  3  1  0  0  0  0
  5  4  1  0  0  0  0
  6  5  1  0  0  0  0
  7  6  1  0  0  0  0
  8  7  1  0  0  0  0
  9  7  1  0  0  0  0
 10  7  1  0  0  0  0
 11 10  1  0  0  0  0
 12 11  1  0  0  0  0
 13 12  1  0  0  0  0
 14 13  1  0  0  0  0
 15 14  2  0  0  0  0
 16 14  1  0  0  0  0
 17 16  1  0  0  0  0
 18 17  1  0  0  0  0
 19 18  1  0  0  0  0
 20 19  1  0  0  0  0
 21 20  1  0  0  0  0
 22 21  1  0  0  0  0
 22 17  1  0  0  0  0
 23 22  1  0  0  0  0
 24 23  1  0  0  0  0
 25 24  1  0  0  0  0
 26 25  1  0  0  0  0
 27 26  1  0  0  0  0
 27 17  1  0  0  0  0
 28 25  1  0  0  0  0
 29 28  1  0  0  0  0
 30 29  1  0  0  0  0
 30 25  1  0  0  0  0
 31 29  1  0  0  0  0
 31 23  1  0  0  0  0
 32 31  1  0  0  0  0
 33 31  1  0  0  0  0
 34  3  1  0  0  0  0
 35 34  1  0  0  0  0
 36 35  1  0  0  0  0
 37 36  1  0  0  0  0
 38 37  1  0  0  0  0
 39 37  1  0  0  0  0
 40 37  1  0  0  0  0
 40  3  1  0  0  0  0
  1 41  1  0  0  0  0
  1 42  1  0  0  0  0
  1 43  1  0  0  0  0
  5 44  1  0  0  0  0
  5 45  1  0  0  0  0
  6 46  1  0  0  0  0
  6 47  1  0  0  0  0
  8 48  1  0  0  0  0
  8 49  1  0  0  0  0
  8 50  1  0  0  0  0
  9 51  1  0  0  0  0
  9 52  1  0  0  0  0
  9 53  1  0  0  0  0
 10 54  1  0  0  0  0
 10 55  1  0  0  0  0
 11 56  1  0  0  0  0
 11 57  1  0  0  0  0
 12 58  1  0  0  0  0
 12 59  1  0  0  0  0
 13 60  1  0  0  0  0
 16 61  1  0  0  0  0
 16 62  1  0  0  0  0
 18 63  1  0  0  0  0
 18 64  1  0  0  0  0
 19 65  1  0  0  0  0
 19 66  1  0  0  0  0
 20 67  1  0  0  0  0
 20 68  1  0  0  0  0
 22 69  1  0  0  0  0
 23 70  1  0  0  0  0
 24 71  1  0  0  0  0
 24 72  1  0  0  0  0
 26 73  1  0  0  0  0
 26 74  1  0  0  0  0
 27 75  1  0  0  0  0
 27 76  1  0  0  0  0
 28 77  1  0  0  0  0
 28 78  1  0  0  0  0
 29 79  1  0  0  0  0
 30 80  1  0  0  0  0
 30 81  1  0  0  0  0
 32 82  1  0  0  0  0
 32 83  1  0  0  0  0
 32 84  1  0  0  0  0
 33 85  1  0  0  0  0
 33 86  1  0  0  0  0
 33 87  1  0  0  0  0
 34 88  1  0  0  0  0
 34 89  1  0  0  0  0
 35 90  1  0  0  0  0
 35 91  1  0  0  0  0
 36 92  1  0  0  0  0
 36 93  1  0  0  0  0
 38 94  1  0  0  0  0
 38 95  1  0  0  0  0
 38 96  1  0  0  0  0
 39 97  1  0  0  0  0
 39 98  1  0  0  0  0
 39 99  1  0  0  0  0
 40100  1  0  0  0  0
 40101  1  0  0  0  0
M  CHG  3   7   1  17   1  37   1
M  END
>  <energy>
334.4739207058264

$$$$
