CCCCC(=O)N(CC)CC(CCCNC(C)=O)C(O)NC(=O)C1COC2C3C4CCC5(C)CC(C)(C(N)=O)C(C5)(C3CCN1
                    3D

111115  0  0  0  0  0  0  0  0999 V2000
   -3.5135    4.8071   -0.2202 C   0  0  0  0  0  0  0  0  0  0  0  0
   -4.7328    3.9425   -0.5071 C   0  0  0  0  0  0  0  0  0  0  0  0
   -4.5481    2.5383    0.0631 C   0  0  0  0  0  0  0  0  0  0  0  0
   -5.7246    1.6059   -0.2506 C   0  0  0  0  0  0  0  0  0  0  0  0
   -5.5472    0.3270    0.5409 C   0  0  0  0  0  0  0  0  0  0  0  0
   -5.3724    0.3651    1.7622 O   0  0  0  0  0  0  0  0  0  0  0  0
   -5.5026   -0.8645   -0.1803 N   0  0  0  0  0  0  0  0  0  0  0  0
   -6.6111   -1.1740   -1.0875 C   0  0  0  0  0  0  0  0  0  0  0  0
   -6.2004   -1.9436   -2.3337 C   0  0  0  0  0  0  0  0  0  0  0  0
   -4.8490   -1.9893    0.4941 C   0  0  0  0  0  0  0  0  0  0  0  0
   -3.3354   -1.7740    0.7995 C   0  0  0  0  0  0  0  0  0  0  0  0
   -2.9610   -2.5731    2.0866 C   0  0  0  0  0  0  0  0  0  0  0  0
   -3.4785   -1.9742    3.4054 C   0  0  0  0  0  0  0  0  0  0  0  0
   -2.3513   -1.7700    4.4239 C   0  0  0  0  0  0  0  0  0  0  0  0
   -1.4267   -0.7317    3.9991 N   0  0  0  0  0  0  0  0  0  0  0  0
   -1.4938    0.5571    4.4761 C   0  0  0  0  0  0  0  0  0  0  0  0
   -0.5533    1.5151    3.7959 C   0  0  0  0  0  0  0  0  0  0  0  0
   -2.2428    0.9168    5.3769 O   0  0  0  0  0  0  0  0  0  0  0  0
   -2.3670   -2.2337   -0.3292 C   0  0  0  0  0  0  0  0  0  0  0  0
   -2.8968   -3.1302   -1.2788 O   0  0  0  0  0  0  0  0  0  0  0  0
   -1.6603   -1.2020   -1.0316 N   0  0  0  0  0  0  0  0  0  0  0  0
   -2.1499   -0.3979   -2.0296 C   0  0  0  0  0  0  0  0  0  0  0  0
   -3.3394   -0.2098   -2.2681 O   0  0  0  0  0  0  0  0  0  0  0  0
   -1.0536    0.3180   -2.8362 C   0  0  0  0  0  0  0  0  0  0  0  0
   -0.8943    1.7685   -2.3316 C   0  0  0  0  0  0  0  0  0  0  0  0
    0.5178    1.9858   -2.0497 O   0  0  0  0  0  0  0  0  0  0  0  0
    1.1517    0.9420   -2.7522 C   0  0  0  0  0  0  0  0  0  0  0  0
    2.5630    0.5467   -2.3418 C   0  0  0  0  0  0  0  0  0  0  0  0
    3.7624    1.4730   -1.9244 C   0  0  0  0  0  0  0  0  0  0  0  0
    3.6186    2.5910   -0.8382 C   0  0  0  0  0  0  0  0  0  0  0  0
    4.1628    2.4357    0.6588 C   0  0  0  0  0  0  0  0  0  0  0  0
    3.9403    1.0923    1.4362 C   0  0  0  0  0  0  0  0  0  0  0  0
    3.4138    1.4153    2.8460 C   0  0  0  0  0  0  0  0  0  0  0  0
    5.0179   -0.0540    1.5290 C   0  0  0  0  0  0  0  0  0  0  0  0
    4.5725   -1.2566    0.5577 C   0  0  0  0  0  0  0  0  0  0  0  0
    3.7400   -2.3103    1.3399 C   0  0  0  0  0  0  0  0  0  0  0  0
    5.7392   -2.0864    0.0062 C   0  0  0  0  0  0  0  0  0  0  0  0
    6.8559   -2.2110    0.7827 N   0  0  0  0  0  0  0  0  0  0  0  0
    5.6561   -2.7571   -1.0196 O   0  0  0  0  0  0  0  0  0  0  0  0
    3.7664   -0.4450   -0.4894 C   0  0  0  0  0  0  0  0  0  0  0  0
    2.9228    0.3980    0.6161 C   0  0  0  0  0  0  0  0  0  0  0  0
    2.5285   -0.7153   -1.3871 C   0  0  0  0  0  0  0  0  0  0  0  0
    2.0531   -1.9183   -2.2228 C   0  0  0  0  0  0  0  0  0  0  0  0
    0.7999   -1.4712   -3.0943 C   0  0  0  0  0  0  0  0  0  0  0  0
    0.2807   -0.2152   -2.5604 N   0  0  0  0  0  0  0  0  0  0  0  0
    4.7637    0.3784   -1.5033 C   0  0  0  0  0  0  0  0  0  0  0  0
    5.1933   -0.4818   -2.7553 C   0  0  0  0  0  0  0  0  0  0  0  0
    6.1464    0.9472   -1.1180 C   0  0  0  0  0  0  0  0  0  0  0  0
   -2.6238    4.4030   -0.7126 H   0  0  0  0  0  0  0  0  0  0  0  0
   -3.6704    5.8247   -0.5867 H   0  0  0  0  0  0  0  0  0  0  0  0
   -3.3138    4.8580    0.8547 H   0  0  0  0  0  0  0  0  0  0  0  0
   -4.8978    3.8912   -1.5887 H   0  0  0  0  0  0  0  0  0  0  0  0
   -5.6195    4.4082   -0.0616 H   0  0  0  0  0  0  0  0  0  0  0  0
   -4.3936    2.6160    1.1473 H   0  0  0  0  0  0  0  0  0  0  0  0
   -3.6293    2.0945   -0.3413 H   0  0  0  0  0  0  0  0  0  0  0  0
   -5.7401    1.4100   -1.3263 H   0  0  0  0  0  0  0  0  0  0  0  0
   -6.6790    2.0561    0.0425 H   0  0  0  0  0  0  0  0  0  0  0  0
   -7.3482   -1.7513   -0.5160 H   0  0  0  0  0  0  0  0  0  0  0  0
   -7.1196   -0.2548   -1.3893 H   0  0  0  0  0  0  0  0  0  0  0  0
   -7.0614   -2.0883   -2.9938 H   0  0  0  0  0  0  0  0  0  0  0  0
   -5.8073   -2.9360   -2.0931 H   0  0  0  0  0  0  0  0  0  0  0  0
   -5.4356   -1.4064   -2.9005 H   0  0  0  0  0  0  0  0  0  0  0  0
   -5.4097   -2.1609    1.4220 H   0  0  0  0  0  0  0  0  0  0  0  0
   -4.9904   -2.9028   -0.0891 H   0  0  0  0  0  0  0  0  0  0  0  0
   -3.1277   -0.7168    1.0194 H   0  0  0  0  0  0  0  0  0  0  0  0
   -3.3335   -3.6012    1.9916 H   0  0  0  0  0  0  0  0  0  0  0  0
   -1.8715   -2.6664    2.1513 H   0  0  0  0  0  0  0  0  0  0  0  0
   -3.9898   -1.0234    3.2441 H   0  0  0  0  0  0  0  0  0  0  0  0
   -4.2107   -2.6653    3.8380 H   0  0  0  0  0  0  0  0  0  0  0  0
   -2.7715   -1.5100    5.4002 H   0  0  0  0  0  0  0  0  0  0  0  0
   -1.7686   -2.6892    4.5427 H   0  0  0  0  0  0  0  0  0  0  0  0
   -0.7949   -0.9315    3.2369 H   0  0  0  0  0  0  0  0  0  0  0  0
    0.0571    2.0183    4.5503 H   0  0  0  0  0  0  0  0  0  0  0  0
    0.1138    1.0027    3.0989 H   0  0  0  0  0  0  0  0  0  0  0  0
   -1.1349    2.2521    3.2366 H   0  0  0  0  0  0  0  0  0  0  0  0
   -1.5404   -2.7856    0.1314 H   0  0  0  0  0  0  0  0  0  0  0  0
   -3.0619   -3.9678   -0.8194 H   0  0  0  0  0  0  0  0  0  0  0  0
   -0.6482   -1.2425   -1.0224 H   0  0  0  0  0  0  0  0  0  0  0  0
   -1.2996    0.2823   -3.9028 H   0  0  0  0  0  0  0  0  0  0  0  0
   -1.4514    1.9802   -1.4164 H   0  0  0  0  0  0  0  0  0  0  0  0
   -1.1868    2.4839   -3.1097 H   0  0  0  0  0  0  0  0  0  0  0  0
    1.1733    1.2400   -3.8132 H   0  0  0  0  0  0  0  0  0  0  0  0
    2.9288    0.1438   -3.3028 H   0  0  0  0  0  0  0  0  0  0  0  0
    4.1055    1.9792   -2.8371 H   0  0  0  0  0  0  0  0  0  0  0  0
    2.5722    2.9153   -0.7964 H   0  0  0  0  0  0  0  0  0  0  0  0
    4.1441    3.4736   -1.2317 H   0  0  0  0  0  0  0  0  0  0  0  0
    3.6124    3.2255    1.1964 H   0  0  0  0  0  0  0  0  0  0  0  0
    5.1899    2.7907    0.7621 H   0  0  0  0  0  0  0  0  0  0  0  0
    3.1206    0.5062    3.3864 H   0  0  0  0  0  0  0  0  0  0  0  0
    4.1823    1.9247    3.4389 H   0  0  0  0  0  0  0  0  0  0  0  0
    2.5286    2.0629    2.8041 H   0  0  0  0  0  0  0  0  0  0  0  0
    6.0167    0.3278    1.3196 H   0  0  0  0  0  0  0  0  0  0  0  0
    5.0805   -0.4472    2.5533 H   0  0  0  0  0  0  0  0  0  0  0  0
    4.3898   -3.0038    1.8890 H   0  0  0  0  0  0  0  0  0  0  0  0
    3.1383   -2.9150    0.6529 H   0  0  0  0  0  0  0  0  0  0  0  0
    3.0709   -1.8864    2.0944 H   0  0  0  0  0  0  0  0  0  0  0  0
    7.1128   -1.5456    1.5010 H   0  0  0  0  0  0  0  0  0  0  0  0
    7.6235   -2.7388    0.3792 H   0  0  0  0  0  0  0  0  0  0  0  0
    2.3037   -0.2672    1.2332 H   0  0  0  0  0  0  0  0  0  0  0  0
    2.1606    1.0872    0.2282 H   0  0  0  0  0  0  0  0  0  0  0  0
    1.6534   -0.6340   -0.7266 H   0  0  0  0  0  0  0  0  0  0  0  0
    2.8155   -2.3311   -2.8855 H   0  0  0  0  0  0  0  0  0  0  0  0
    1.7503   -2.7264   -1.5442 H   0  0  0  0  0  0  0  0  0  0  0  0
    0.0514   -2.2684   -3.0465 H   0  0  0  0  0  0  0  0  0  0  0  0
    1.0854   -1.3690   -4.1485 H   0  0  0  0  0  0  0  0  0  0  0  0
    5.3056    0.1532   -3.6423 H   0  0  0  0  0  0  0  0  0  0  0  0
    6.1568   -0.9837   -2.6054 H   0  0  0  0  0  0  0  0  0  0  0  0
    4.5074   -1.2789   -3.0165 H   0  0  0  0  0  0  0  0  0  0  0  0
    6.5658    1.5036   -1.9667 H   0  0  0  0  0  0  0  0  0  0  0  0
    6.1902    1.6465   -0.3044 H   0  0  0  0  0  0  0  0  0  0  0  0
    6.8629    0.1577   -0.8643 H   0  0  0  0  0  0  0  0  0  0  0  0
  2  1  1  0  0  0  0
  3  2  1  0  0  0  0
  4  3  1  0  0  0  0
  5  4  1  0  0  0  0
  6  5  2  0  0  0  0
  7  5  1  0  0  0  0
  8  7  1  0  0  0  0
  9  8  1  0  0  0  0
 10  7  1  0  0  0  0
 11 10  1  0  0  0  0
 12 11  1  0  0  0  0
 13 12  1  0  0  0  0
 14 13  1  0  0  0  0
 15 14  1  0  0  0  0
 16 15  1  0  0  0  0
 17 16  1  0  0  0  0
 18 16  2  0  0  0  0
 19 11  1  0  0  0  0
 20 19  1  0  0  0  0
 21 19  1  0  0  0  0
 22 21  1  0  0  0  0
 23 22  2  0  0  0  0
 24 22  1  0  0  0  0
 25 24  1  0  0  0  0
 26 25  1  0  0  0  0
 27 26  1  0  0  0  0
 28 27  1  0  0  0  0
 29 28  1  0  0  0  0
 30 29  1  0  0  0  0
 31 30  1  0  0  0  0
 32 31  1  0  0  0  0
 33 32  1  0  0  0  0
 34 32  1  0  0  0  0
 35 34  1  0  0  0  0
 36 35  1  0  0  0  0
 37 35  1  0  0  0  0
 38 37  1  0  0  0  0
 39 37  2  0  0  0  0
 40 35  1  0  0  0  0
 41 40  1  0  0  0  0
 41 32  1  0  0  0  0
 42 40  1  0  0  0  0
 42 28  1  0  0  0  0
 43 42  1  0  0  0  0
 44 43  1  0  0  0  0
 45 44  1  0  0  0  0
 45 24  1  0  0  0  0
 45 27  1  0  0  0  0
 46 40  1  0  0  0  0
 46 29  1  0  0  0  0
 47 46  1  0  0  0  0
 48 46  1  0  0  0  0
  1 49  1  0  0  0  0
  1 50  1  0  0  0  0
  1 51  1  0  0  0  0
  2 52  1  0  0  0  0
  2 53  1  0  0  0  0
  3 54  1  0  0  0  0
  3 55  1  0  0  0  0
  4 56  1  0  0  0  0
  4 57  1  0  0  0  0
  8 58  1  0  0  0  0
  8 59  1  0  0  0  0
  9 60  1  0  0  0  0
  9 61  1  0  0  0  0
  9 62  1  0  0  0  0
 10 63  1  0  0  0  0
 10 64  1  0  0  0  0
 11 65  1  0  0  0  0
 12 66  1  0  0  0  0
 12 67  1  0  0  0  0
 13 68  1  0  0  0  0
 13 69  1  0  0  0  0
 14 70  1  0  0  0  0
 14 71  1  0  0  0  0
 15 72  1  0  0  0  0
 17 73  1  0  0  0  0
 17 74  1  0  0  0  0
 17 75  1  0  0  0  0
 19 76  1  0  0  0  0
 20 77  1  0  0  0  0
 21 78  1  0  0  0  0
 24 79  1  0  0  0  0
 25 80  1  0  0  0  0
 25 81  1  0  0  0  0
 27 82  1  0  0  0  0
 28 83  1  0  0  0  0
 29 84  1  0  0  0  0
 30 85  1  0  0  0  0
 30 86  1  0  0  0  0
 31 87  1  0  0  0  0
 31 88  1  0  0  0  0
 33 89  1  0  0  0  0
 33 90  1  0  0  0  0
 33 91  1  0  0  0  0
 34 92  1  0  0  0  0
 34 93  1  0  0  0  0
 36 94  1  0  0  0  0
 36 95  1  0  0  0  0
 36 96  1  0  0  0  0
 38 97  1  0  0  0  0
 38 98  1  0  0  0  0
 41 99  1  0  0  0  0
 41100  1  0  0  0  0
 42101  1  0  0  0  0
 43102  1  0  0  0  0
 43103  1  0  0  0  0
 44104  1  0  0  0  0
 44105  1  0  0  0  0
 47106  1  0  0  0  0
 47107  1  0  0  0  0
 47108  1  0  0  0  0
 48109  1  0  0  0  0
 48110  1  0  0  0  0
 48111  1  0  0  0  0
M  END
>  <energy>
171.87722389439904

$$$$
