CC1=CCC23CCc4[nH]c(=NCCCCCNCCN=C(N)N)ncc4C4(C2)CC25CC6C1(O)C2CCCC(C4C)C635
                    3D

 93100  0  0  0  0  0  0  0  0999 V2000
    2.0821   -4.1257    2.3319 C   0  0  0  0  0  0  0  0  0  0  0  0
    2.6238   -2.7243    2.1392 C   0  0  0  0  0  0  0  0  0  0  0  0
    2.2035   -1.7090    2.9842 C   0  0  0  0  0  0  0  0  0  0  0  0
    2.4873   -0.1392    2.9629 C   0  0  0  0  0  0  0  0  0  0  0  0
    2.1042    0.5573    1.6064 C   0  0  0  0  0  0  0  0  0  0  0  0
    0.6114    0.9936    1.7811 C   0  0  0  0  0  0  0  0  0  0  0  0
    0.2320    2.5282    1.5448 C   0  0  0  0  0  0  0  0  0  0  0  0
    0.6646    3.4239    0.3336 C   0  0  0  0  0  0  0  0  0  0  0  0
   -0.1282    4.5612    0.1511 N   0  0  0  0  0  0  0  0  0  0  0  0
   -0.6870    4.6042   -1.1015 C   0  0  0  0  0  0  0  0  0  0  0  0
   -1.9680    4.5772   -1.0843 N   0  0  0  0  0  0  0  0  0  0  0  0
   -2.7825    4.0703   -2.1619 C   0  0  0  0  0  0  0  0  0  0  0  0
   -3.4954    2.8058   -1.6041 C   0  0  0  0  0  0  0  0  0  0  0  0
   -4.0585    3.0070   -0.1793 C   0  0  0  0  0  0  0  0  0  0  0  0
   -5.1674    2.0363    0.2497 C   0  0  0  0  0  0  0  0  0  0  0  0
   -4.7664    0.5692    0.4627 C   0  0  0  0  0  0  0  0  0  0  0  0
   -3.8338    0.3930    1.5873 N   0  0  0  0  0  0  0  0  0  0  0  0
   -3.5989   -1.0388    1.8610 C   0  0  0  0  0  0  0  0  0  0  0  0
   -2.4534   -1.6249    1.0219 C   0  0  0  0  0  0  0  0  0  0  0  0
   -2.8278   -2.9522    0.5298 N   0  0  0  0  0  0  0  0  0  0  0  0
   -3.0756   -3.1382   -0.7103 C   0  0  0  0  0  0  0  0  0  0  0  0
   -3.4082   -4.3771   -1.1508 N   0  0  0  0  0  0  0  0  0  0  0  0
   -3.0740   -2.2757   -1.7499 N   0  0  0  0  0  0  0  0  0  0  0  0
    0.1355    4.4871   -2.1937 N   0  0  0  0  0  0  0  0  0  0  0  0
    1.2314    3.8196   -1.9498 C   0  0  0  0  0  0  0  0  0  0  0  0
    1.5059    3.0674   -0.6784 C   0  0  0  0  0  0  0  0  0  0  0  0
    2.1512    1.7136   -0.6279 C   0  0  0  0  0  0  0  0  0  0  0  0
    2.7571    1.7379    0.9338 C   0  0  0  0  0  0  0  0  0  0  0  0
    3.3077    0.8671   -1.4230 C   0  0  0  0  0  0  0  0  0  0  0  0
    3.5493   -0.5222   -0.6353 C   0  0  0  0  0  0  0  0  0  0  0  0
    4.8536   -0.5019    0.0911 C   0  0  0  0  0  0  0  0  0  0  0  0
    4.0655   -1.1742    1.1743 C   0  0  0  0  0  0  0  0  0  0  0  0
    3.6412   -2.5660    0.9237 C   0  0  0  0  0  0  0  0  0  0  0  0
    4.7009   -3.4799    0.9749 O   0  0  0  0  0  0  0  0  0  0  0  0
    3.2070   -2.1844   -0.5441 C   0  0  0  0  0  0  0  0  0  0  0  0
    2.6706   -2.8940   -1.7745 C   0  0  0  0  0  0  0  0  0  0  0  0
    1.0691   -2.8804   -1.7362 C   0  0  0  0  0  0  0  0  0  0  0  0
    0.4113   -1.7922   -0.7629 C   0  0  0  0  0  0  0  0  0  0  0  0
    1.3170   -0.5622   -0.6939 C   0  0  0  0  0  0  0  0  0  0  0  0
    0.8471    0.8284   -1.0022 C   0  0  0  0  0  0  0  0  0  0  0  0
    0.3493    0.9586   -2.4757 C   0  0  0  0  0  0  0  0  0  0  0  0
    2.5396   -0.4528    0.5322 C   0  0  0  0  0  0  0  0  0  0  0  0
    1.2814   -4.1619    3.0740 H   0  0  0  0  0  0  0  0  0  0  0  0
    1.6618   -4.5016    1.3950 H   0  0  0  0  0  0  0  0  0  0  0  0
    2.8595   -4.8126    2.6784 H   0  0  0  0  0  0  0  0  0  0  0  0
    1.5261   -1.9967    3.7899 H   0  0  0  0  0  0  0  0  0  0  0  0
    1.9039    0.2837    3.7914 H   0  0  0  0  0  0  0  0  0  0  0  0
    3.4994    0.1156    3.2992 H   0  0  0  0  0  0  0  0  0  0  0  0
    0.2951    0.8410    2.8166 H   0  0  0  0  0  0  0  0  0  0  0  0
   -0.0754    0.3048    1.2813 H   0  0  0  0  0  0  0  0  0  0  0  0
    0.5142    3.0738    2.4556 H   0  0  0  0  0  0  0  0  0  0  0  0
   -0.8721    2.5128    1.5290 H   0  0  0  0  0  0  0  0  0  0  0  0
   -0.8864    4.6212    0.8259 H   0  0  0  0  0  0  0  0  0  0  0  0
   -3.5346    4.8199   -2.4289 H   0  0  0  0  0  0  0  0  0  0  0  0
   -2.2316    3.8105   -3.0739 H   0  0  0  0  0  0  0  0  0  0  0  0
   -2.7827    1.9700   -1.5686 H   0  0  0  0  0  0  0  0  0  0  0  0
   -4.2949    2.5143   -2.2900 H   0  0  0  0  0  0  0  0  0  0  0  0
   -3.2378    2.9583    0.5520 H   0  0  0  0  0  0  0  0  0  0  0  0
   -4.4768    4.0183   -0.1123 H   0  0  0  0  0  0  0  0  0  0  0  0
   -5.6050    2.4160    1.1900 H   0  0  0  0  0  0  0  0  0  0  0  0
   -5.9788    2.0753   -0.4883 H   0  0  0  0  0  0  0  0  0  0  0  0
   -5.6910    0.0162    0.6774 H   0  0  0  0  0  0  0  0  0  0  0  0
   -4.3562    0.1616   -0.4670 H   0  0  0  0  0  0  0  0  0  0  0  0
   -4.2580    0.8075    2.4194 H   0  0  0  0  0  0  0  0  0  0  0  0
   -3.3021   -1.1187    2.9144 H   0  0  0  0  0  0  0  0  0  0  0  0
   -4.5177   -1.6335    1.7541 H   0  0  0  0  0  0  0  0  0  0  0  0
   -2.1560   -0.9318    0.2282 H   0  0  0  0  0  0  0  0  0  0  0  0
   -1.5593   -1.7348    1.6532 H   0  0  0  0  0  0  0  0  0  0  0  0
   -2.8700   -4.6582   -1.9588 H   0  0  0  0  0  0  0  0  0  0  0  0
   -3.2680   -5.0497   -0.3990 H   0  0  0  0  0  0  0  0  0  0  0  0
   -3.0651   -1.2986   -1.4877 H   0  0  0  0  0  0  0  0  0  0  0  0
   -3.8008   -2.4779   -2.4214 H   0  0  0  0  0  0  0  0  0  0  0  0
    1.9728    3.6920   -2.7605 H   0  0  0  0  0  0  0  0  0  0  0  0
    3.8497    1.6838    0.9122 H   0  0  0  0  0  0  0  0  0  0  0  0
    2.6397    2.6785    1.4854 H   0  0  0  0  0  0  0  0  0  0  0  0
    4.2284    1.4694   -1.4010 H   0  0  0  0  0  0  0  0  0  0  0  0
    3.0977    0.6989   -2.4851 H   0  0  0  0  0  0  0  0  0  0  0  0
    5.2950    0.4492    0.3741 H   0  0  0  0  0  0  0  0  0  0  0  0
    5.6532   -1.1074   -0.3452 H   0  0  0  0  0  0  0  0  0  0  0  0
    4.5417   -0.9530    2.1278 H   0  0  0  0  0  0  0  0  0  0  0  0
    4.3032   -4.3696    0.9607 H   0  0  0  0  0  0  0  0  0  0  0  0
    2.2504   -2.3620   -0.0922 H   0  0  0  0  0  0  0  0  0  0  0  0
    3.0361   -3.9254   -1.8339 H   0  0  0  0  0  0  0  0  0  0  0  0
    3.0063   -2.3818   -2.6873 H   0  0  0  0  0  0  0  0  0  0  0  0
    0.7074   -3.8700   -1.4197 H   0  0  0  0  0  0  0  0  0  0  0  0
    0.7005   -2.7093   -2.7585 H   0  0  0  0  0  0  0  0  0  0  0  0
   -0.5642   -1.5337   -1.1683 H   0  0  0  0  0  0  0  0  0  0  0  0
    0.2525   -2.2262    0.2295 H   0  0  0  0  0  0  0  0  0  0  0  0
    1.7777   -0.7202   -1.6791 H   0  0  0  0  0  0  0  0  0  0  0  0
   -0.0595    1.0767   -0.4550 H   0  0  0  0  0  0  0  0  0  0  0  0
   -0.2792    0.1070   -2.7519 H   0  0  0  0  0  0  0  0  0  0  0  0
    1.1562    1.0229   -3.2093 H   0  0  0  0  0  0  0  0  0  0  0  0
   -0.2807    1.8437   -2.6093 H   0  0  0  0  0  0  0  0  0  0  0  0
  2  1  1  0  0  0  0
  3  2  2  0  0  0  0
  4  3  1  0  0  0  0
  5  4  1  0  0  0  0
  6  5  1  0  0  0  0
  7  6  1  0  0  0  0
  8  7  1  0  0  0  0
  9  8  1  0  0  0  0
 10  9  1  0  0  0  0
 11 10  2  0  0  0  0
 12 11  1  0  0  0  0
 13 12  1  0  0  0  0
 14 13  1  0  0  0  0
 15 14  1  0  0  0  0
 16 15  1  0  0  0  0
 17 16  1  0  0  0  0
 18 17  1  0  0  0  0
 19 18  1  0  0  0  0
 20 19  1  0  0  0  0
 21 20  2  0  0  0  0
 22 21  1  0  0  0  0
 23 21  1  0  0  0  0
 24 10  1  0  0  0  0
 25 24  2  0  0  0  0
 26 25  1  0  0  0  0
 26  8  2  0  0  0  0
 27 26  1  0  0  0  0
 28 27  1  0  0  0  0
 28  5  1  0  0  0  0
 29 27  1  0  0  0  0
 30 29  1  0  0  0  0
 31 30  1  0  0  0  0
 32 31  1  0  0  0  0
 33 32  1  0  0  0  0
 33  2  1  0  0  0  0
 34 33  1  0  0  0  0
 35 33  1  0  0  0  0
 35 30  1  0  0  0  0
 36 35  1  0  0  0  0
 37 36  1  0  0  0  0
 38 37  1  0  0  0  0
 39 38  1  0  0  0  0
 40 39  1  0  0  0  0
 40 27  1  0  0  0  0
 41 40  1  0  0  0  0
 42 39  1  0  0  0  0
 42 32  1  0  0  0  0
 42  5  1  0  0  0  0
 42 30  1  0  0  0  0
  1 43  1  0  0  0  0
  1 44  1  0  0  0  0
  1 45  1  0  0  0  0
  3 46  1  0  0  0  0
  4 47  1  0  0  0  0
  4 48  1  0  0  0  0
  6 49  1  0  0  0  0
  6 50  1  0  0  0  0
  7 51  1  0  0  0  0
  7 52  1  0  0  0  0
  9 53  1  0  0  0  0
 12 54  1  0  0  0  0
 12 55  1  0  0  0  0
 13 56  1  0  0  0  0
 13 57  1  0  0  0  0
 14 58  1  0  0  0  0
 14 59  1  0  0  0  0
 15 60  1  0  0  0  0
 15 61  1  0  0  0  0
 16 62  1  0  0  0  0
 16 63  1  0  0  0  0
 17 64  1  0  0  0  0
 18 65  1  0  0  0  0
 18 66  1  0  0  0  0
 19 67  1  0  0  0  0
 19 68  1  0  0  0  0
 22 69  1  0  0  0  0
 22 70  1  0  0  0  0
 23 71  1  0  0  0  0
 23 72  1  0  0  0  0
 25 73  1  0  0  0  0
 28 74  1  0  0  0  0
 28 75  1  0  0  0  0
 29 76  1  0  0  0  0
 29 77  1  0  0  0  0
 31 78  1  0  0  0  0
 31 79  1  0  0  0  0
 32 80  1  0  0  0  0
 34 81  1  0  0  0  0
 35 82  1  0  0  0  0
 36 83  1  0  0  0  0
 36 84  1  0  0  0  0
 37 85  1  0  0  0  0
 37 86  1  0  0  0  0
 38 87  1  0  0  0  0
 38 88  1  0  0  0  0
 39 89  1  0  0  0  0
 40 90  1  0  0  0  0
 41 91  1  0  0  0  0
 41 92  1  0  0  0  0
 41 93  1  0  0  0  0
M  END
>  <energy>
302.24279431122386

$$$$
