N=C(N)c1ccc2c(CCNC(=O)CC3CCC4(CC3)CCN(CC35CCC6(CC(C6)C3)C5CN)C(=O)C4)[nH]nc2c1
                    3D

 89 95  0  0  0  0  0  0  0  0999 V2000
   -2.8843    4.5475    1.6503 N   0  0  0  0  0  0  0  0  0  0  0  0
   -1.8931    5.0217    2.3378 C   0  0  0  0  0  0  0  0  0  0  0  0
   -2.1623    5.8947    3.3457 N   0  0  0  0  0  0  0  0  0  0  0  0
   -0.4997    4.5706    2.0145 C   0  0  0  0  0  0  0  0  0  0  0  0
   -0.3120    3.7531    0.8452 C   0  0  0  0  0  0  0  0  0  0  0  0
    0.9309    3.2429    0.4086 C   0  0  0  0  0  0  0  0  0  0  0  0
    1.9609    3.6424    1.2511 C   0  0  0  0  0  0  0  0  0  0  0  0
    3.2974    3.3667    1.1014 C   0  0  0  0  0  0  0  0  0  0  0  0
    4.0770    2.6201    0.0621 C   0  0  0  0  0  0  0  0  0  0  0  0
    5.2406    1.7890    0.6144 C   0  0  0  0  0  0  0  0  0  0  0  0
    4.7986    0.8139    1.5891 N   0  0  0  0  0  0  0  0  0  0  0  0
    5.4025   -0.4150    1.7409 C   0  0  0  0  0  0  0  0  0  0  0  0
    6.4244   -0.7468    1.1527 O   0  0  0  0  0  0  0  0  0  0  0  0
    4.6629   -1.3418    2.6944 C   0  0  0  0  0  0  0  0  0  0  0  0
    3.2297   -1.6085    2.1972 C   0  0  0  0  0  0  0  0  0  0  0  0
    3.0112   -3.0716    1.7745 C   0  0  0  0  0  0  0  0  0  0  0  0
    1.5302   -3.4777    1.7362 C   0  0  0  0  0  0  0  0  0  0  0  0
    0.5565   -2.3039    1.4810 C   0  0  0  0  0  0  0  0  0  0  0  0
    0.7600   -1.2155    2.5772 C   0  0  0  0  0  0  0  0  0  0  0  0
    2.1611   -1.2006    3.2081 C   0  0  0  0  0  0  0  0  0  0  0  0
   -0.8916   -2.8346    1.5012 C   0  0  0  0  0  0  0  0  0  0  0  0
   -1.9071   -1.7786    1.0842 C   0  0  0  0  0  0  0  0  0  0  0  0
   -1.5472   -1.0406   -0.1205 N   0  0  0  0  0  0  0  0  0  0  0  0
   -2.6244   -0.3531   -0.8422 C   0  0  0  0  0  0  0  0  0  0  0  0
   -3.1053   -1.1074   -2.1159 C   0  0  0  0  0  0  0  0  0  0  0  0
   -4.6782   -0.9268   -2.2544 C   0  0  0  0  0  0  0  0  0  0  0  0
   -4.9860   -0.9382   -3.7936 C   0  0  0  0  0  0  0  0  0  0  0  0
   -3.6502   -1.4552   -4.3856 C   0  0  0  0  0  0  0  0  0  0  0  0
   -2.5386   -2.5576   -4.8806 C   0  0  0  0  0  0  0  0  0  0  0  0
   -2.8572   -3.3002   -3.5524 C   0  0  0  0  0  0  0  0  0  0  0  0
   -4.2716   -3.0261   -3.9918 C   0  0  0  0  0  0  0  0  0  0  0  0
   -2.6255   -2.6188   -2.1751 C   0  0  0  0  0  0  0  0  0  0  0  0
   -2.7289   -0.4893   -3.4731 C   0  0  0  0  0  0  0  0  0  0  0  0
   -1.2700   -0.2661   -3.8968 C   0  0  0  0  0  0  0  0  0  0  0  0
   -0.7628    1.0312   -3.4536 N   0  0  0  0  0  0  0  0  0  0  0  0
   -0.2266   -0.7153   -0.3747 C   0  0  0  0  0  0  0  0  0  0  0  0
    0.1395    0.2626   -1.0225 O   0  0  0  0  0  0  0  0  0  0  0  0
    0.7797   -1.7590    0.0547 C   0  0  0  0  0  0  0  0  0  0  0  0
    3.8904    4.0076    2.1575 N   0  0  0  0  0  0  0  0  0  0  0  0
    3.0379    4.6378    2.9853 N   0  0  0  0  0  0  0  0  0  0  0  0
    1.8288    4.4650    2.4293 C   0  0  0  0  0  0  0  0  0  0  0  0
    0.5778    4.9562    2.8446 C   0  0  0  0  0  0  0  0  0  0  0  0
   -3.7563    4.9647    1.9729 H   0  0  0  0  0  0  0  0  0  0  0  0
   -1.4775    6.0033    4.0834 H   0  0  0  0  0  0  0  0  0  0  0  0
   -3.1103    5.8954    3.7029 H   0  0  0  0  0  0  0  0  0  0  0  0
   -1.1904    3.5199    0.2361 H   0  0  0  0  0  0  0  0  0  0  0  0
    1.0351    2.6433   -0.4894 H   0  0  0  0  0  0  0  0  0  0  0  0
    3.4037    1.9420   -0.4760 H   0  0  0  0  0  0  0  0  0  0  0  0
    4.4582    3.3404   -0.6726 H   0  0  0  0  0  0  0  0  0  0  0  0
    5.9961    2.4175    1.0967 H   0  0  0  0  0  0  0  0  0  0  0  0
    5.7366    1.2707   -0.2123 H   0  0  0  0  0  0  0  0  0  0  0  0
    3.9979    1.0411    2.1672 H   0  0  0  0  0  0  0  0  0  0  0  0
    4.6685   -0.8708    3.6834 H   0  0  0  0  0  0  0  0  0  0  0  0
    5.2413   -2.2688    2.7740 H   0  0  0  0  0  0  0  0  0  0  0  0
    3.0757   -0.9873    1.3130 H   0  0  0  0  0  0  0  0  0  0  0  0
    3.4631   -3.2274    0.7869 H   0  0  0  0  0  0  0  0  0  0  0  0
    3.5317   -3.7529    2.4583 H   0  0  0  0  0  0  0  0  0  0  0  0
    1.2741   -3.9415    2.6980 H   0  0  0  0  0  0  0  0  0  0  0  0
    1.3972   -4.2642    0.9840 H   0  0  0  0  0  0  0  0  0  0  0  0
    0.0436   -1.3628    3.3967 H   0  0  0  0  0  0  0  0  0  0  0  0
    0.5434   -0.2178    2.1733 H   0  0  0  0  0  0  0  0  0  0  0  0
    2.3607   -0.2023    3.6161 H   0  0  0  0  0  0  0  0  0  0  0  0
    2.1853   -1.8906    4.0603 H   0  0  0  0  0  0  0  0  0  0  0  0
   -0.9735   -3.6883    0.8154 H   0  0  0  0  0  0  0  0  0  0  0  0
   -1.1486   -3.2136    2.4979 H   0  0  0  0  0  0  0  0  0  0  0  0
   -2.0415   -1.0396    1.8825 H   0  0  0  0  0  0  0  0  0  0  0  0
   -2.8711   -2.2687    0.9157 H   0  0  0  0  0  0  0  0  0  0  0  0
   -3.4563   -0.2528   -0.1334 H   0  0  0  0  0  0  0  0  0  0  0  0
   -2.3190    0.6693   -1.0867 H   0  0  0  0  0  0  0  0  0  0  0  0
   -5.0064    0.0419   -1.8542 H   0  0  0  0  0  0  0  0  0  0  0  0
   -5.2240   -1.6984   -1.7058 H   0  0  0  0  0  0  0  0  0  0  0  0
   -5.1691    0.0909   -4.1334 H   0  0  0  0  0  0  0  0  0  0  0  0
   -5.9039   -1.4753   -4.0597 H   0  0  0  0  0  0  0  0  0  0  0  0
   -2.7988   -3.0853   -5.8105 H   0  0  0  0  0  0  0  0  0  0  0  0
   -1.4831   -2.3148   -5.0090 H   0  0  0  0  0  0  0  0  0  0  0  0
   -2.5545   -4.3514   -3.5462 H   0  0  0  0  0  0  0  0  0  0  0  0
   -4.6521   -3.5893   -4.8578 H   0  0  0  0  0  0  0  0  0  0  0  0
   -4.9934   -3.2267   -3.1908 H   0  0  0  0  0  0  0  0  0  0  0  0
   -3.1306   -3.1988   -1.3936 H   0  0  0  0  0  0  0  0  0  0  0  0
   -1.5479   -2.6813   -1.9840 H   0  0  0  0  0  0  0  0  0  0  0  0
   -3.1605    0.5261   -3.5251 H   0  0  0  0  0  0  0  0  0  0  0  0
   -1.2134   -0.2439   -4.9890 H   0  0  0  0  0  0  0  0  0  0  0  0
   -0.6018   -1.0490   -3.5321 H   0  0  0  0  0  0  0  0  0  0  0  0
    0.0746    1.2629   -3.9874 H   0  0  0  0  0  0  0  0  0  0  0  0
   -0.4178    0.9307   -2.4855 H   0  0  0  0  0  0  0  0  0  0  0  0
    0.6874   -2.5822   -0.6705 H   0  0  0  0  0  0  0  0  0  0  0  0
    1.7755   -1.3364   -0.1047 H   0  0  0  0  0  0  0  0  0  0  0  0
    4.8809    4.0682    2.3700 H   0  0  0  0  0  0  0  0  0  0  0  0
    0.4960    5.5792    3.7191 H   0  0  0  0  0  0  0  0  0  0  0  0
  2  1  2  0  0  0  0
  3  2  1  0  0  0  0
  4  2  1  0  0  0  0
  5  4  1  0  0  0  0
  6  5  2  0  0  0  0
  7  6  1  0  0  0  0
  8  7  2  0  0  0  0
  9  8  1  0  0  0  0
 10  9  1  0  0  0  0
 11 10  1  0  0  0  0
 12 11  1  0  0  0  0
 13 12  2  0  0  0  0
 14 12  1  0  0  0  0
 15 14  1  0  0  0  0
 16 15  1  0  0  0  0
 17 16  1  0  0  0  0
 18 17  1  0  0  0  0
 19 18  1  0  0  0  0
 20 19  1  0  0  0  0
 20 15  1  0  0  0  0
 21 18  1  0  0  0  0
 22 21  1  0  0  0  0
 23 22  1  0  0  0  0
 24 23  1  0  0  0  0
 25 24  1  0  0  0  0
 26 25  1  0  0  0  0
 27 26  1  0  0  0  0
 28 27  1  0  0  0  0
 29 28  1  0  0  0  0
 30 29  1  0  0  0  0
 31 30  1  0  0  0  0
 31 28  1  0  0  0  0
 32 30  1  0  0  0  0
 32 25  1  0  0  0  0
 33 28  1  0  0  0  0
 33 25  1  0  0  0  0
 34 33  1  0  0  0  0
 35 34  1  0  0  0  0
 36 23  1  0  0  0  0
 37 36  2  0  0  0  0
 38 36  1  0  0  0  0
 38 18  1  0  0  0  0
 39  8  1  0  0  0  0
 40 39  1  0  0  0  0
 41 40  2  0  0  0  0
 41  7  1  0  0  0  0
 42 41  1  0  0  0  0
 42  4  2  0  0  0  0
  1 43  1  0  0  0  0
  3 44  1  0  0  0  0
  3 45  1  0  0  0  0
  5 46  1  0  0  0  0
  6 47  1  0  0  0  0
  9 48  1  0  0  0  0
  9 49  1  0  0  0  0
 10 50  1  0  0  0  0
 10 51  1  0  0  0  0
 11 52  1  0  0  0  0
 14 53  1  0  0  0  0
 14 54  1  0  0  0  0
 15 55  1  0  0  0  0
 16 56  1  0  0  0  0
 16 57  1  0  0  0  0
 17 58  1  0  0  0  0
 17 59  1  0  0  0  0
 19 60  1  0  0  0  0
 19 61  1  0  0  0  0
 20 62  1  0  0  0  0
 20 63  1  0  0  0  0
 21 64  1  0  0  0  0
 21 65  1  0  0  0  0
 22 66  1  0  0  0  0
 22 67  1  0  0  0  0
 24 68  1  0  0  0  0
 24 69  1  0  0  0  0
 26 70  1  0  0  0  0
 26 71  1  0  0  0  0
 27 72  1  0  0  0  0
 27 73  1  0  0  0  0
 29 74  1  0  0  0  0
 29 75  1  0  0  0  0
 30 76  1  0  0  0  0
 31 77  1  0  0  0  0
 31 78  1  0  0  0  0
 32 79  1  0  0  0  0
 32 80  1  0  0  0  0
 33 81  1  0  0  0  0
 34 82  1  0  0  0  0
 34 83  1  0  0  0  0
 35 84  1  0  0  0  0
 35 85  1  0  0  0  0
 38 86  1  0  0  0  0
 38 87  1  0  0  0  0
 39 88  1  0  0  0  0
 42 89  1  0  0  0  0
M  END
>  <energy>
122.11977227901542

$$$$
