CCC1(O)C2C3CCC(C=O)C4(C)C1CC4(COC(=O)CCCN(C)C)C1(C2O)C(OC(=O)CN(C)C)C(C)CC31C
                    3D

 96100  0  0  0  0  0  0  0  0999 V2000
    5.0703   -0.0111    2.5981 C   0  0  0  0  0  0  0  0  0  0  0  0
    3.5658   -0.2203    2.7397 C   0  0  0  0  0  0  0  0  0  0  0  0
    2.9050   -1.2043    1.7028 C   0  0  0  0  0  0  0  0  0  0  0  0
    3.4471   -2.4786    2.0366 O   0  0  0  0  0  0  0  0  0  0  0  0
    3.2290   -0.8409    0.2298 C   0  0  0  0  0  0  0  0  0  0  0  0
    2.8526   -1.6934   -1.0332 C   0  0  0  0  0  0  0  0  0  0  0  0
    2.8477   -3.1998   -0.8969 C   0  0  0  0  0  0  0  0  0  0  0  0
    1.9915   -3.9221    0.1174 C   0  0  0  0  0  0  0  0  0  0  0  0
    0.6254   -3.4758    0.6304 C   0  0  0  0  0  0  0  0  0  0  0  0
    0.3726   -4.5757    1.6804 C   0  0  0  0  0  0  0  0  0  0  0  0
   -0.5356   -5.3971    1.6023 O   0  0  0  0  0  0  0  0  0  0  0  0
    0.3363   -2.0378    1.2023 C   0  0  0  0  0  0  0  0  0  0  0  0
   -0.9181   -2.2914    2.1711 C   0  0  0  0  0  0  0  0  0  0  0  0
    1.3925   -1.2263    2.0417 C   0  0  0  0  0  0  0  0  0  0  0  0
    0.5278    0.0685    1.7415 C   0  0  0  0  0  0  0  0  0  0  0  0
    0.1684   -0.5338    0.3256 C   0  0  0  0  0  0  0  0  0  0  0  0
   -1.3447   -0.2812    0.0257 C   0  0  0  0  0  0  0  0  0  0  0  0
   -1.7265   -0.9033   -1.2078 O   0  0  0  0  0  0  0  0  0  0  0  0
   -2.7976   -1.6986   -1.4250 C   0  0  0  0  0  0  0  0  0  0  0  0
   -2.8860   -2.3205   -2.4838 O   0  0  0  0  0  0  0  0  0  0  0  0
   -3.8968   -1.8050   -0.4000 C   0  0  0  0  0  0  0  0  0  0  0  0
   -5.1566   -1.0709   -0.8587 C   0  0  0  0  0  0  0  0  0  0  0  0
   -5.5485    0.0687    0.0902 C   0  0  0  0  0  0  0  0  0  0  0  0
   -4.5335    1.1315    0.2013 N   0  0  0  0  0  0  0  0  0  0  0  0
   -4.8345    1.9822    1.3578 C   0  0  0  0  0  0  0  0  0  0  0  0
   -4.5023    1.9508   -1.0163 C   0  0  0  0  0  0  0  0  0  0  0  0
    1.2025    0.0773   -0.7748 C   0  0  0  0  0  0  0  0  0  0  0  0
    2.5979    0.4856   -0.1109 C   0  0  0  0  0  0  0  0  0  0  0  0
    3.5035    1.1678   -0.9894 O   0  0  0  0  0  0  0  0  0  0  0  0
    0.8216    1.3536   -1.6198 C   0  0  0  0  0  0  0  0  0  0  0  0
   -0.4818    1.8834   -1.4329 O   0  0  0  0  0  0  0  0  0  0  0  0
   -0.5184    3.2496   -1.4628 C   0  0  0  0  0  0  0  0  0  0  0  0
   -0.1030    3.9396   -2.3866 O   0  0  0  0  0  0  0  0  0  0  0  0
   -1.0123    3.8006   -0.1308 C   0  0  0  0  0  0  0  0  0  0  0  0
    0.0942    3.8593    0.8582 N   0  0  0  0  0  0  0  0  0  0  0  0
    1.0566    4.9071    0.4941 C   0  0  0  0  0  0  0  0  0  0  0  0
   -0.4381    4.1197    2.1965 C   0  0  0  0  0  0  0  0  0  0  0  0
    1.1827    1.0563   -3.0926 C   0  0  0  0  0  0  0  0  0  0  0  0
   -0.0116    0.9427   -4.0384 C   0  0  0  0  0  0  0  0  0  0  0  0
    2.0957   -0.1828   -3.0427 C   0  0  0  0  0  0  0  0  0  0  0  0
    1.6544   -1.0088   -1.7905 C   0  0  0  0  0  0  0  0  0  0  0  0
    0.6308   -1.9864   -2.3700 C   0  0  0  0  0  0  0  0  0  0  0  0
    5.6171   -0.9498    2.7226 H   0  0  0  0  0  0  0  0  0  0  0  0
    5.3312    0.4297    1.6326 H   0  0  0  0  0  0  0  0  0  0  0  0
    5.4224    0.6814    3.3681 H   0  0  0  0  0  0  0  0  0  0  0  0
    3.3966   -0.6161    3.7524 H   0  0  0  0  0  0  0  0  0  0  0  0
    3.0823    0.7621    2.7221 H   0  0  0  0  0  0  0  0  0  0  0  0
    4.3744   -2.5052    1.7365 H   0  0  0  0  0  0  0  0  0  0  0  0
    4.3233   -0.7681    0.1690 H   0  0  0  0  0  0  0  0  0  0  0  0
    3.7070   -1.5395   -1.7132 H   0  0  0  0  0  0  0  0  0  0  0  0
    2.6568   -3.6402   -1.8820 H   0  0  0  0  0  0  0  0  0  0  0  0
    3.8843   -3.5034   -0.6848 H   0  0  0  0  0  0  0  0  0  0  0  0
    1.8225   -4.9171   -0.3332 H   0  0  0  0  0  0  0  0  0  0  0  0
    2.6335   -4.1948    0.9612 H   0  0  0  0  0  0  0  0  0  0  0  0
   -0.1320   -3.6902   -0.1291 H   0  0  0  0  0  0  0  0  0  0  0  0
    1.0581   -4.5732    2.5475 H   0  0  0  0  0  0  0  0  0  0  0  0
   -1.3542   -1.4008    2.6202 H   0  0  0  0  0  0  0  0  0  0  0  0
   -0.6372   -2.9041    3.0338 H   0  0  0  0  0  0  0  0  0  0  0  0
   -1.7215   -2.8013    1.6276 H   0  0  0  0  0  0  0  0  0  0  0  0
    1.3271   -1.4921    3.1101 H   0  0  0  0  0  0  0  0  0  0  0  0
   -0.3237    0.2145    2.4175 H   0  0  0  0  0  0  0  0  0  0  0  0
    0.9966    1.0509    1.7999 H   0  0  0  0  0  0  0  0  0  0  0  0
   -1.9638   -0.6271    0.8426 H   0  0  0  0  0  0  0  0  0  0  0  0
   -1.5834    0.7790   -0.0130 H   0  0  0  0  0  0  0  0  0  0  0  0
   -3.6046   -1.5152    0.6060 H   0  0  0  0  0  0  0  0  0  0  0  0
   -4.1180   -2.8776   -0.3047 H   0  0  0  0  0  0  0  0  0  0  0  0
   -5.0693   -0.7108   -1.8903 H   0  0  0  0  0  0  0  0  0  0  0  0
   -5.9903   -1.7847   -0.8638 H   0  0  0  0  0  0  0  0  0  0  0  0
   -5.7048   -0.3854    1.0789 H   0  0  0  0  0  0  0  0  0  0  0  0
   -6.5173    0.4839   -0.2165 H   0  0  0  0  0  0  0  0  0  0  0  0
   -5.8114    2.4732    1.2747 H   0  0  0  0  0  0  0  0  0  0  0  0
   -4.0680    2.7562    1.4790 H   0  0  0  0  0  0  0  0  0  0  0  0
   -4.8224    1.3918    2.2813 H   0  0  0  0  0  0  0  0  0  0  0  0
   -3.8109    2.7926   -0.9044 H   0  0  0  0  0  0  0  0  0  0  0  0
   -5.4870    2.3622   -1.2668 H   0  0  0  0  0  0  0  0  0  0  0  0
   -4.1388    1.3714   -1.8696 H   0  0  0  0  0  0  0  0  0  0  0  0
    2.4948    1.1833    0.7154 H   0  0  0  0  0  0  0  0  0  0  0  0
    4.2305    1.5320   -0.4561 H   0  0  0  0  0  0  0  0  0  0  0  0
    1.4979    2.1609   -1.3091 H   0  0  0  0  0  0  0  0  0  0  0  0
   -1.4725    4.7802   -0.3012 H   0  0  0  0  0  0  0  0  0  0  0  0
   -1.8062    3.1367    0.2265 H   0  0  0  0  0  0  0  0  0  0  0  0
    0.5859    5.8936    0.4175 H   0  0  0  0  0  0  0  0  0  0  0  0
    1.8583    4.9674    1.2382 H   0  0  0  0  0  0  0  0  0  0  0  0
    1.5475    4.6836   -0.4582 H   0  0  0  0  0  0  0  0  0  0  0  0
    0.3725    4.1246    2.9348 H   0  0  0  0  0  0  0  0  0  0  0  0
   -1.1257    3.3222    2.4991 H   0  0  0  0  0  0  0  0  0  0  0  0
   -0.9675    5.0771    2.2566 H   0  0  0  0  0  0  0  0  0  0  0  0
    1.7878    1.8899   -3.4797 H   0  0  0  0  0  0  0  0  0  0  0  0
   -0.8169    0.3257   -3.6389 H   0  0  0  0  0  0  0  0  0  0  0  0
   -0.4385    1.9328   -4.2309 H   0  0  0  0  0  0  0  0  0  0  0  0
    0.2899    0.5326   -5.0079 H   0  0  0  0  0  0  0  0  0  0  0  0
    2.0405   -0.7632   -3.9721 H   0  0  0  0  0  0  0  0  0  0  0  0
    3.1422    0.1348   -2.9857 H   0  0  0  0  0  0  0  0  0  0  0  0
    1.1101   -2.7031   -3.0460 H   0  0  0  0  0  0  0  0  0  0  0  0
   -0.1294   -1.4910   -2.9708 H   0  0  0  0  0  0  0  0  0  0  0  0
    0.0980   -2.5507   -1.6232 H   0  0  0  0  0  0  0  0  0  0  0  0
  2  1  1  0  0  0  0
  3  2  1  0  0  0  0
  4  3  1  0  0  0  0
  5  3  1  0  0  0  0
  6  5  1  0  0  0  0
  7  6  1  0  0  0  0
  8  7  1  0  0  0  0
  9  8  1  0  0  0  0
 10  9  1  0  0  0  0
 11 10  2  0  0  0  0
 12  9  1  0  0  0  0
 13 12  1  0  0  0  0
 14 12  1  0  0  0  0
 14  3  1  0  0  0  0
 15 14  1  0  0  0  0
 16 15  1  0  0  0  0
 16 12  1  0  0  0  0
 17 16  1  0  0  0  0
 18 17  1  0  0  0  0
 19 18  1  0  0  0  0
 20 19  2  0  0  0  0
 21 19  1  0  0  0  0
 22 21  1  0  0  0  0
 23 22  1  0  0  0  0
 24 23  1  0  0  0  0
 25 24  1  0  0  0  0
 26 24  1  0  0  0  0
 27 16  1  0  0  0  0
 28 27  1  0  0  0  0
 28  5  1  0  0  0  0
 29 28  1  0  0  0  0
 30 27  1  0  0  0  0
 31 30  1  0  0  0  0
 32 31  1  0  0  0  0
 33 32  2  0  0  0  0
 34 32  1  0  0  0  0
 35 34  1  0  0  0  0
 36 35  1  0  0  0  0
 37 35  1  0  0  0  0
 38 30  1  0  0  0  0
 39 38  1  0  0  0  0
 40 38  1  0  0  0  0
 41 40  1  0  0  0  0
 41  6  1  0  0  0  0
 41 27  1  0  0  0  0
 42 41  1  0  0  0  0
  1 43  1  0  0  0  0
  1 44  1  0  0  0  0
  1 45  1  0  0  0  0
  2 46  1  0  0  0  0
  2 47  1  0  0  0  0
  4 48  1  0  0  0  0
  5 49  1  0  0  0  0
  6 50  1  0  0  0  0
  7 51  1  0  0  0  0
  7 52  1  0  0  0  0
  8 53  1  0  0  0  0
  8 54  1  0  0  0  0
  9 55  1  0  0  0  0
 10 56  1  0  0  0  0
 13 57  1  0  0  0  0
 13 58  1  0  0  0  0
 13 59  1  0  0  0  0
 14 60  1  0  0  0  0
 15 61  1  0  0  0  0
 15 62  1  0  0  0  0
 17 63  1  0  0  0  0
 17 64  1  0  0  0  0
 21 65  1  0  0  0  0
 21 66  1  0  0  0  0
 22 67  1  0  0  0  0
 22 68  1  0  0  0  0
 23 69  1  0  0  0  0
 23 70  1  0  0  0  0
 25 71  1  0  0  0  0
 25 72  1  0  0  0  0
 25 73  1  0  0  0  0
 26 74  1  0  0  0  0
 26 75  1  0  0  0  0
 26 76  1  0  0  0  0
 28 77  1  0  0  0  0
 29 78  1  0  0  0  0
 30 79  1  0  0  0  0
 34 80  1  0  0  0  0
 34 81  1  0  0  0  0
 36 82  1  0  0  0  0
 36 83  1  0  0  0  0
 36 84  1  0  0  0  0
 37 85  1  0  0  0  0
 37 86  1  0  0  0  0
 37 87  1  0  0  0  0
 38 88  1  0  0  0  0
 39 89  1  0  0  0  0
 39 90  1  0  0  0  0
 39 91  1  0  0  0  0
 40 92  1  0  0  0  0
 40 93  1  0  0  0  0
 42 94  1  0  0  0  0
 42 95  1  0  0  0  0
 42 96  1  0  0  0  0
M  END
>  <energy>
262.95956489883622

$$$$
