CCCCOc1c2c(c3[n+](c1OCCOCn1cnc(C(N)=O)c1)CC3)CCc1cc3c(cc1N(C)S3(=O)=O)N2
                    3D

 73 78  0  0  0  0  0  0  0  0999 V2000
   -4.1036    0.7615   -3.6692 C   0  0  0  0  0  0  0  0  0  0  0  0
   -4.0727    0.0299   -2.3356 C   0  0  0  0  0  0  0  0  0  0  0  0
   -3.6549    0.8853   -1.1306 C   0  0  0  0  0  0  0  0  0  0  0  0
   -2.3131    1.6003   -1.3269 C   0  0  0  0  0  0  0  0  0  0  0  0
   -1.6543    2.0290   -0.1244 O   0  0  0  0  0  0  0  0  0  0  0  0
   -1.3335    1.1660    0.8978 C   0  0  0  0  0  0  0  0  0  0  0  0
   -1.0425   -0.2310    0.7710 C   0  0  0  0  0  0  0  0  0  0  0  0
   -1.0450   -1.0361    1.9549 C   0  0  0  0  0  0  0  0  0  0  0  0
   -0.9827   -0.3542    3.1448 C   0  0  0  0  0  0  0  0  0  0  0  0
   -1.0623    0.9551    3.1996 N   0  3  0  0  0  0  0  0  0  0  0  0
   -1.2615    1.7645    2.1717 C   0  0  0  0  0  0  0  0  0  0  0  0
   -1.5299    3.0952    2.3404 O   0  0  0  0  0  0  0  0  0  0  0  0
   -0.3421    3.8490    2.6399 C   0  0  0  0  0  0  0  0  0  0  0  0
    0.3001    4.4040    1.3669 C   0  0  0  0  0  0  0  0  0  0  0  0
    1.2420    3.4655    0.8423 O   0  0  0  0  0  0  0  0  0  0  0  0
    1.8876    3.9993   -0.3229 C   0  0  0  0  0  0  0  0  0  0  0  0
    2.3331    2.8886   -1.1386 N   0  0  0  0  0  0  0  0  0  0  0  0
    1.7224    2.4561   -2.2771 C   0  0  0  0  0  0  0  0  0  0  0  0
    2.3747    1.4558   -2.8160 N   0  0  0  0  0  0  0  0  0  0  0  0
    3.5062    1.2693   -2.0364 C   0  0  0  0  0  0  0  0  0  0  0  0
    4.5504    0.2912   -2.3588 C   0  0  0  0  0  0  0  0  0  0  0  0
    5.3283   -0.1092   -1.3052 N   0  0  0  0  0  0  0  0  0  0  0  0
    4.7314   -0.1891   -3.4729 O   0  0  0  0  0  0  0  0  0  0  0  0
    3.4701    2.1473   -0.9642 C   0  0  0  0  0  0  0  0  0  0  0  0
   -1.0767    1.0359    4.6091 C   0  0  0  0  0  0  0  0  0  0  0  0
   -0.9077   -0.5045    4.6294 C   0  0  0  0  0  0  0  0  0  0  0  0
   -1.1959   -2.5387    2.0780 C   0  0  0  0  0  0  0  0  0  0  0  0
    0.0938   -3.3842    2.2130 C   0  0  0  0  0  0  0  0  0  0  0  0
    0.8996   -3.3955    0.9319 C   0  0  0  0  0  0  0  0  0  0  0  0
    1.6880   -2.2681    0.6827 C   0  0  0  0  0  0  0  0  0  0  0  0
    1.4412   -1.7728   -0.5884 C   0  0  0  0  0  0  0  0  0  0  0  0
    0.0569   -1.8310   -0.8832 C   0  0  0  0  0  0  0  0  0  0  0  0
   -0.4843   -3.1116   -0.8602 C   0  0  0  0  0  0  0  0  0  0  0  0
    0.3586   -4.0081   -0.2250 C   0  0  0  0  0  0  0  0  0  0  0  0
    1.4381   -4.4561   -1.1339 N   0  0  0  0  0  0  0  0  0  0  0  0
    1.0094   -5.3972   -2.1943 C   0  0  0  0  0  0  0  0  0  0  0  0
    2.2766   -3.0424   -1.7667 S   0  0  0  0  0  0  0  0  0  0  0  0
    1.8040   -2.7457   -3.0992 O   0  0  0  0  0  0  0  0  0  0  0  0
    3.6708   -3.0899   -1.3823 O   0  0  0  0  0  0  0  0  0  0  0  0
   -0.7992   -0.7307   -0.5565 N   0  0  0  0  0  0  0  0  0  0  0  0
   -4.8317    1.5745   -3.6558 H   0  0  0  0  0  0  0  0  0  0  0  0
   -4.3873    0.0653   -4.4644 H   0  0  0  0  0  0  0  0  0  0  0  0
   -3.1264    1.1729   -3.9318 H   0  0  0  0  0  0  0  0  0  0  0  0
   -5.0694   -0.3818   -2.1424 H   0  0  0  0  0  0  0  0  0  0  0  0
   -3.3942   -0.8262   -2.4183 H   0  0  0  0  0  0  0  0  0  0  0  0
   -3.6408    0.2376   -0.2489 H   0  0  0  0  0  0  0  0  0  0  0  0
   -4.4293    1.6362   -0.9285 H   0  0  0  0  0  0  0  0  0  0  0  0
   -2.5090    2.5264   -1.8821 H   0  0  0  0  0  0  0  0  0  0  0  0
   -1.6210    1.0480   -1.9648 H   0  0  0  0  0  0  0  0  0  0  0  0
   -0.6957    4.6930    3.2406 H   0  0  0  0  0  0  0  0  0  0  0  0
    0.3719    3.2723    3.2448 H   0  0  0  0  0  0  0  0  0  0  0  0
   -0.4705    4.5917    0.6155 H   0  0  0  0  0  0  0  0  0  0  0  0
    0.8275    5.3362    1.5991 H   0  0  0  0  0  0  0  0  0  0  0  0
    2.7619    4.5970   -0.0400 H   0  0  0  0  0  0  0  0  0  0  0  0
    1.2046    4.6119   -0.9259 H   0  0  0  0  0  0  0  0  0  0  0  0
    0.8156    2.9002   -2.6691 H   0  0  0  0  0  0  0  0  0  0  0  0
    4.9939    0.0042   -0.3595 H   0  0  0  0  0  0  0  0  0  0  0  0
    5.8829   -0.9325   -1.5071 H   0  0  0  0  0  0  0  0  0  0  0  0
    4.1650    2.3323   -0.1558 H   0  0  0  0  0  0  0  0  0  0  0  0
   -2.0183    1.3962    5.0339 H   0  0  0  0  0  0  0  0  0  0  0  0
   -0.2343    1.5883    5.0393 H   0  0  0  0  0  0  0  0  0  0  0  0
   -1.7193   -1.0561    5.1135 H   0  0  0  0  0  0  0  0  0  0  0  0
    0.0505   -0.8558    5.0283 H   0  0  0  0  0  0  0  0  0  0  0  0
   -1.8504   -2.8973    1.2801 H   0  0  0  0  0  0  0  0  0  0  0  0
   -1.7922   -2.7297    2.9844 H   0  0  0  0  0  0  0  0  0  0  0  0
   -0.1878   -4.4147    2.4619 H   0  0  0  0  0  0  0  0  0  0  0  0
    0.7112   -3.0184    3.0467 H   0  0  0  0  0  0  0  0  0  0  0  0
    2.0447   -1.6125    1.4676 H   0  0  0  0  0  0  0  0  0  0  0  0
   -1.5494   -3.2916   -0.9585 H   0  0  0  0  0  0  0  0  0  0  0  0
    0.6256   -6.3122   -1.7310 H   0  0  0  0  0  0  0  0  0  0  0  0
    0.2232   -4.9762   -2.8257 H   0  0  0  0  0  0  0  0  0  0  0  0
    1.8602   -5.6824   -2.8143 H   0  0  0  0  0  0  0  0  0  0  0  0
   -0.3330    0.0507   -1.0370 H   0  0  0  0  0  0  0  0  0  0  0  0
  2  1  1  0  0  0  0
  3  2  1  0  0  0  0
  4  3  1  0  0  0  0
  5  4  1  0  0  0  0
  6  5  1  0  0  0  0
  7  6  2  0  0  0  0
  8  7  1  0  0  0  0
  9  8  2  0  0  0  0
 10  9  1  0  0  0  0
 11 10  2  0  0  0  0
 11  6  1  0  0  0  0
 12 11  1  0  0  0  0
 13 12  1  0  0  0  0
 14 13  1  0  0  0  0
 15 14  1  0  0  0  0
 16 15  1  0  0  0  0
 17 16  1  0  0  0  0
 18 17  1  0  0  0  0
 19 18  2  0  0  0  0
 20 19  1  0  0  0  0
 21 20  1  0  0  0  0
 22 21  1  0  0  0  0
 23 21  2  0  0  0  0
 24 20  2  0  0  0  0
 24 17  1  0  0  0  0
 25 10  1  0  0  0  0
 26 25  1  0  0  0  0
 26  9  1  0  0  0  0
 27  8  1  0  0  0  0
 28 27  1  0  0  0  0
 29 28  1  0  0  0  0
 30 29  2  0  0  0  0
 31 30  1  0  0  0  0
 32 31  2  0  0  0  0
 33 32  1  0  0  0  0
 34 33  2  0  0  0  0
 34 29  1  0  0  0  0
 35 34  1  0  0  0  0
 36 35  1  0  0  0  0
 37 35  1  0  0  0  0
 37 31  1  0  0  0  0
 38 37  2  0  0  0  0
 39 37  2  0  0  0  0
 40 32  1  0  0  0  0
 40  7  1  0  0  0  0
  1 41  1  0  0  0  0
  1 42  1  0  0  0  0
  1 43  1  0  0  0  0
  2 44  1  0  0  0  0
  2 45  1  0  0  0  0
  3 46  1  0  0  0  0
  3 47  1  0  0  0  0
  4 48  1  0  0  0  0
  4 49  1  0  0  0  0
 13 50  1  0  0  0  0
 13 51  1  0  0  0  0
 14 52  1  0  0  0  0
 14 53  1  0  0  0  0
 16 54  1  0  0  0  0
 16 55  1  0  0  0  0
 18 56  1  0  0  0  0
 22 57  1  0  0  0  0
 22 58  1  0  0  0  0
 24 59  1  0  0  0  0
 25 60  1  0  0  0  0
 25 61  1  0  0  0  0
 26 62  1  0  0  0  0
 26 63  1  0  0  0  0
 27 64  1  0  0  0  0
 27 65  1  0  0  0  0
 28 66  1  0  0  0  0
 28 67  1  0  0  0  0
 30 68  1  0  0  0  0
 33 69  1  0  0  0  0
 36 70  1  0  0  0  0
 36 71  1  0  0  0  0
 36 72  1  0  0  0  0
 40 73  1  0  0  0  0
M  CHG  1  10   1
M  END
>  <energy>
280.1134980064312

$$$$
