COC(=O)CCCC(C)C=CC=CC12OC(=O)C3(OC(C)(C)C13)C(O)C2O
                    3D

 55 57  0  0  0  0  0  0  0  0999 V2000
   -2.9919   -1.3267   -3.3816 C   0  0  0  0  0  0  0  0  0  0  0  0
   -3.7069   -1.5310   -2.1589 O   0  0  0  0  0  0  0  0  0  0  0  0
   -2.9621   -2.1101   -1.1757 C   0  0  0  0  0  0  0  0  0  0  0  0
   -1.7958   -2.4478   -1.2831 O   0  0  0  0  0  0  0  0  0  0  0  0
   -3.7332   -2.2188    0.1181 C   0  0  0  0  0  0  0  0  0  0  0  0
   -3.2249   -1.1619    1.0974 C   0  0  0  0  0  0  0  0  0  0  0  0
   -3.7957    0.2401    0.8430 C   0  0  0  0  0  0  0  0  0  0  0  0
   -2.8406    1.3446    1.3255 C   0  0  0  0  0  0  0  0  0  0  0  0
   -3.6288    2.5881    1.7486 C   0  0  0  0  0  0  0  0  0  0  0  0
   -1.9176    1.7524    0.2017 C   0  0  0  0  0  0  0  0  0  0  0  0
   -0.5841    1.5659    0.0999 C   0  0  0  0  0  0  0  0  0  0  0  0
    0.1138    2.1718   -1.0135 C   0  0  0  0  0  0  0  0  0  0  0  0
    1.3683    2.0005   -1.4503 C   0  0  0  0  0  0  0  0  0  0  0  0
    2.5130    1.1079   -1.0662 C   0  0  0  0  0  0  0  0  0  0  0  0
    3.1511    0.7291   -2.3517 O   0  0  0  0  0  0  0  0  0  0  0  0
    3.8934   -0.3923   -2.0717 C   0  0  0  0  0  0  0  0  0  0  0  0
    4.5547   -1.0067   -2.8817 O   0  0  0  0  0  0  0  0  0  0  0  0
    3.7003   -0.4996   -0.5381 C   0  0  0  0  0  0  0  0  0  0  0  0
    3.6713   -1.6765    0.2731 O   0  0  0  0  0  0  0  0  0  0  0  0
    2.3285   -1.3421    0.7359 C   0  0  0  0  0  0  0  0  0  0  0  0
    1.4515   -2.5966    0.5741 C   0  0  0  0  0  0  0  0  0  0  0  0
    2.2911   -0.8874    2.1905 C   0  0  0  0  0  0  0  0  0  0  0  0
    2.1612   -0.2535   -0.4147 C   0  0  0  0  0  0  0  0  0  0  0  0
    4.5427    0.6416    0.0521 C   0  0  0  0  0  0  0  0  0  0  0  0
    4.8916    0.4718    1.4277 O   0  0  0  0  0  0  0  0  0  0  0  0
    3.5701    1.8000   -0.1646 C   0  0  0  0  0  0  0  0  0  0  0  0
    2.9917    2.2422    1.0590 O   0  0  0  0  0  0  0  0  0  0  0  0
   -2.2758   -2.1347   -3.5778 H   0  0  0  0  0  0  0  0  0  0  0  0
   -2.4711   -0.3615   -3.3302 H   0  0  0  0  0  0  0  0  0  0  0  0
   -3.7170   -1.3060   -4.2030 H   0  0  0  0  0  0  0  0  0  0  0  0
   -3.5200   -3.2179    0.5161 H   0  0  0  0  0  0  0  0  0  0  0  0
   -4.8180   -2.1653   -0.0445 H   0  0  0  0  0  0  0  0  0  0  0  0
   -3.4947   -1.4610    2.1191 H   0  0  0  0  0  0  0  0  0  0  0  0
   -2.1280   -1.1370    1.0600 H   0  0  0  0  0  0  0  0  0  0  0  0
   -4.7578    0.3037    1.3604 H   0  0  0  0  0  0  0  0  0  0  0  0
   -4.0294    0.3843   -0.2178 H   0  0  0  0  0  0  0  0  0  0  0  0
   -2.2535    0.9982    2.1838 H   0  0  0  0  0  0  0  0  0  0  0  0
   -2.9601    3.4296    1.9590 H   0  0  0  0  0  0  0  0  0  0  0  0
   -4.2103    2.3954    2.6540 H   0  0  0  0  0  0  0  0  0  0  0  0
   -4.3380    2.9152    0.9781 H   0  0  0  0  0  0  0  0  0  0  0  0
   -2.4328    2.2735   -0.6071 H   0  0  0  0  0  0  0  0  0  0  0  0
   -0.0181    1.0359    0.8610 H   0  0  0  0  0  0  0  0  0  0  0  0
   -0.4625    2.9384   -1.5411 H   0  0  0  0  0  0  0  0  0  0  0  0
    1.6375    2.6669   -2.2739 H   0  0  0  0  0  0  0  0  0  0  0  0
    1.5404   -3.0311   -0.4255 H   0  0  0  0  0  0  0  0  0  0  0  0
    0.3972   -2.3554    0.7458 H   0  0  0  0  0  0  0  0  0  0  0  0
    1.7405   -3.3707    1.2976 H   0  0  0  0  0  0  0  0  0  0  0  0
    2.6848   -1.6580    2.8656 H   0  0  0  0  0  0  0  0  0  0  0  0
    1.2595   -0.6734    2.4928 H   0  0  0  0  0  0  0  0  0  0  0  0
    2.8440    0.0300    2.3835 H   0  0  0  0  0  0  0  0  0  0  0  0
    1.5251   -0.7373   -1.1760 H   0  0  0  0  0  0  0  0  0  0  0  0
    5.4693    0.7628   -0.5236 H   0  0  0  0  0  0  0  0  0  0  0  0
    5.0198   -0.4895    1.5506 H   0  0  0  0  0  0  0  0  0  0  0  0
    4.0752    2.6442   -0.6465 H   0  0  0  0  0  0  0  0  0  0  0  0
    3.6809    2.1157    1.7451 H   0  0  0  0  0  0  0  0  0  0  0  0
  2  1  1  0  0  0  0
  3  2  1  0  0  0  0
  4  3  2  0  0  0  0
  5  3  1  0  0  0  0
  6  5  1  0  0  0  0
  7  6  1  0  0  0  0
  8  7  1  0  0  0  0
  9  8  1  0  0  0  0
 10  8  1  0  0  0  0
 11 10  2  0  0  0  0
 12 11  1  0  0  0  0
 13 12  2  0  0  0  0
 14 13  1  0  0  0  0
 15 14  1  0  0  0  0
 16 15  1  0  0  0  0
 17 16  2  0  0  0  0
 18 16  1  0  0  0  0
 19 18  1  0  0  0  0
 20 19  1  0  0  0  0
 21 20  1  0  0  0  0
 22 20  1  0  0  0  0
 23 20  1  0  0  0  0
 23 14  1  0  0  0  0
 23 18  1  0  0  0  0
 24 18  1  0  0  0  0
 25 24  1  0  0  0  0
 26 24  1  0  0  0  0
 26 14  1  0  0  0  0
 27 26  1  0  0  0  0
  1 28  1  0  0  0  0
  1 29  1  0  0  0  0
  1 30  1  0  0  0  0
  5 31  1  0  0  0  0
  5 32  1  0  0  0  0
  6 33  1  0  0  0  0
  6 34  1  0  0  0  0
  7 35  1  0  0  0  0
  7 36  1  0  0  0  0
  8 37  1  0  0  0  0
  9 38  1  0  0  0  0
  9 39  1  0  0  0  0
  9 40  1  0  0  0  0
 10 41  1  0  0  0  0
 11 42  1  0  0  0  0
 12 43  1  0  0  0  0
 13 44  1  0  0  0  0
 21 45  1  0  0  0  0
 21 46  1  0  0  0  0
 21 47  1  0  0  0  0
 22 48  1  0  0  0  0
 22 49  1  0  0  0  0
 22 50  1  0  0  0  0
 23 51  1  0  0  0  0
 24 52  1  0  0  0  0
 25 53  1  0  0  0  0
 26 54  1  0  0  0  0
 27 55  1  0  0  0  0
M  END
>  <energy>
129.02547611465468

$$$$
