CC(C)=CCC12CCOC1(C)OOC13COC2OCC(C1)C3O
                    3D

 49 52  0  0  0  0  0  0  0  0999 V2000
   -4.5759   -0.2845   -2.0888 C   0  0  0  0  0  0  0  0  0  0  0  0
   -3.5703    0.0699   -1.0258 C   0  0  0  0  0  0  0  0  0  0  0  0
   -3.5947    1.5027   -0.5777 C   0  0  0  0  0  0  0  0  0  0  0  0
   -2.7260   -0.8605   -0.5330 C   0  0  0  0  0  0  0  0  0  0  0  0
   -1.6893   -0.6739    0.5550 C   0  0  0  0  0  0  0  0  0  0  0  0
   -0.2296   -1.1184    0.2016 C   0  0  0  0  0  0  0  0  0  0  0  0
   -0.2491   -2.5815   -0.2966 C   0  0  0  0  0  0  0  0  0  0  0  0
    1.1057   -3.1269    0.0577 C   0  0  0  0  0  0  0  0  0  0  0  0
    1.4911   -2.4790    1.2617 O   0  0  0  0  0  0  0  0  0  0  0  0
    0.6929   -1.2820    1.4519 C   0  0  0  0  0  0  0  0  0  0  0  0
   -0.0038   -1.5237    2.7950 C   0  0  0  0  0  0  0  0  0  0  0  0
    1.5985   -0.1958    1.6427 O   0  0  0  0  0  0  0  0  0  0  0  0
    0.8308    1.0054    1.5265 O   0  0  0  0  0  0  0  0  0  0  0  0
    1.4648    1.9829    0.6386 C   0  0  0  0  0  0  0  0  0  0  0  0
    0.2120    2.2831   -0.1709 C   0  0  0  0  0  0  0  0  0  0  0  0
   -0.1577    1.1778   -1.0462 O   0  0  0  0  0  0  0  0  0  0  0  0
    0.3751   -0.1761   -0.9152 C   0  0  0  0  0  0  0  0  0  0  0  0
    1.7201   -0.4072   -1.3883 O   0  0  0  0  0  0  0  0  0  0  0  0
    2.9395   -0.2419   -0.6365 C   0  0  0  0  0  0  0  0  0  0  0  0
    3.3275    1.1979   -0.2673 C   0  0  0  0  0  0  0  0  0  0  0  0
    2.2633    2.1032   -0.7864 C   0  0  0  0  0  0  0  0  0  0  0  0
    3.0551    1.9826    1.0679 C   0  0  0  0  0  0  0  0  0  0  0  0
    3.6809    3.2840    1.2054 O   0  0  0  0  0  0  0  0  0  0  0  0
   -4.4075    0.3243   -2.9850 H   0  0  0  0  0  0  0  0  0  0  0  0
   -4.5169   -1.3380   -2.3843 H   0  0  0  0  0  0  0  0  0  0  0  0
   -5.5939   -0.1015   -1.7249 H   0  0  0  0  0  0  0  0  0  0  0  0
   -3.5975    1.5808    0.5140 H   0  0  0  0  0  0  0  0  0  0  0  0
   -2.7319    2.0405   -0.9817 H   0  0  0  0  0  0  0  0  0  0  0  0
   -4.4964    2.0145   -0.9363 H   0  0  0  0  0  0  0  0  0  0  0  0
   -2.8203   -1.8758   -0.9160 H   0  0  0  0  0  0  0  0  0  0  0  0
   -2.0679   -1.2779    1.3885 H   0  0  0  0  0  0  0  0  0  0  0  0
   -1.6833    0.3552    0.9239 H   0  0  0  0  0  0  0  0  0  0  0  0
   -0.4600   -2.6983   -1.3646 H   0  0  0  0  0  0  0  0  0  0  0  0
   -1.0068   -3.1593    0.2487 H   0  0  0  0  0  0  0  0  0  0  0  0
    1.8505   -2.9215   -0.7159 H   0  0  0  0  0  0  0  0  0  0  0  0
    1.0868   -4.2078    0.2220 H   0  0  0  0  0  0  0  0  0  0  0  0
   -0.5997   -0.6634    3.1175 H   0  0  0  0  0  0  0  0  0  0  0  0
    0.7447   -1.6950    3.5793 H   0  0  0  0  0  0  0  0  0  0  0  0
   -0.6298   -2.4211    2.7663 H   0  0  0  0  0  0  0  0  0  0  0  0
    0.2492    3.2078   -0.7671 H   0  0  0  0  0  0  0  0  0  0  0  0
   -0.6489    2.4443    0.4936 H   0  0  0  0  0  0  0  0  0  0  0  0
   -0.1444   -0.5771   -1.7953 H   0  0  0  0  0  0  0  0  0  0  0  0
    3.0478   -0.9463    0.1839 H   0  0  0  0  0  0  0  0  0  0  0  0
    3.7065   -0.5911   -1.3405 H   0  0  0  0  0  0  0  0  0  0  0  0
    4.3265    1.4140   -0.6654 H   0  0  0  0  0  0  0  0  0  0  0  0
    1.8778    1.8338   -1.7787 H   0  0  0  0  0  0  0  0  0  0  0  0
    2.6157    3.1355   -0.9815 H   0  0  0  0  0  0  0  0  0  0  0  0
    3.3037    1.3955    1.9597 H   0  0  0  0  0  0  0  0  0  0  0  0
    4.6349    3.0898    1.2688 H   0  0  0  0  0  0  0  0  0  0  0  0
  2  1  1  0  0  0  0
  3  2  1  0  0  0  0
  4  2  2  0  0  0  0
  5  4  1  0  0  0  0
  6  5  1  0  0  0  0
  7  6  1  0  0  0  0
  8  7  1  0  0  0  0
  9  8  1  0  0  0  0
 10  9  1  0  0  0  0
 10  6  1  0  0  0  0
 11 10  1  0  0  0  0
 12 10  1  0  0  0  0
 13 12  1  0  0  0  0
 14 13  1  0  0  0  0
 15 14  1  0  0  0  0
 16 15  1  0  0  0  0
 17 16  1  0  0  0  0
 17  6  1  0  0  0  0
 18 17  1  0  0  0  0
 19 18  1  0  0  0  0
 20 19  1  0  0  0  0
 21 20  1  0  0  0  0
 21 14  1  0  0  0  0
 22 20  1  0  0  0  0
 22 14  1  0  0  0  0
 23 22  1  0  0  0  0
  1 24  1  0  0  0  0
  1 25  1  0  0  0  0
  1 26  1  0  0  0  0
  3 27  1  0  0  0  0
  3 28  1  0  0  0  0
  3 29  1  0  0  0  0
  4 30  1  0  0  0  0
  5 31  1  0  0  0  0
  5 32  1  0  0  0  0
  7 33  1  0  0  0  0
  7 34  1  0  0  0  0
  8 35  1  0  0  0  0
  8 36  1  0  0  0  0
 11 37  1  0  0  0  0
 11 38  1  0  0  0  0
 11 39  1  0  0  0  0
 15 40  1  0  0  0  0
 15 41  1  0  0  0  0
 17 42  1  0  0  0  0
 19 43  1  0  0  0  0
 19 44  1  0  0  0  0
 20 45  1  0  0  0  0
 21 46  1  0  0  0  0
 21 47  1  0  0  0  0
 22 48  1  0  0  0  0
 23 49  1  0  0  0  0
M  END
>  <energy>
191.29067342883084

$$$$
