CC1=CCC2C(C)C(NC(=O)CCCCCCCC(O)=NOCC(=O)C3OC45COC34C(C)CCC5C)C(O)C(O)C12
                    3D

 92 96  0  0  0  0  0  0  0  0999 V2000
   -0.0288    0.8917    2.6772 C   0  0  0  0  0  0  0  0  0  0  0  0
    1.4157    1.1114    2.9473 C   0  0  0  0  0  0  0  0  0  0  0  0
    2.1676    0.3378    3.7414 C   0  0  0  0  0  0  0  0  0  0  0  0
    3.5555    0.8625    3.8820 C   0  0  0  0  0  0  0  0  0  0  0  0
    3.6815    1.8431    2.6998 C   0  0  0  0  0  0  0  0  0  0  0  0
    4.3808    1.1731    1.4616 C   0  0  0  0  0  0  0  0  0  0  0  0
    5.3884    2.1331    0.8123 C   0  0  0  0  0  0  0  0  0  0  0  0
    3.3437    0.6152    0.4631 C   0  0  0  0  0  0  0  0  0  0  0  0
    3.9207   -0.1093   -0.6550 N   0  0  0  0  0  0  0  0  0  0  0  0
    4.1791   -1.4553   -0.5971 C   0  0  0  0  0  0  0  0  0  0  0  0
    4.1974   -2.0945    0.4467 O   0  0  0  0  0  0  0  0  0  0  0  0
    4.3174   -2.1087   -1.9525 C   0  0  0  0  0  0  0  0  0  0  0  0
    2.9531   -2.6007   -2.4557 C   0  0  0  0  0  0  0  0  0  0  0  0
    2.5968   -3.9907   -1.9018 C   0  0  0  0  0  0  0  0  0  0  0  0
    1.2606   -4.5304   -2.4402 C   0  0  0  0  0  0  0  0  0  0  0  0
    0.0827   -4.3731   -1.4645 C   0  0  0  0  0  0  0  0  0  0  0  0
    0.0806   -5.4643   -0.3824 C   0  0  0  0  0  0  0  0  0  0  0  0
   -1.1291   -5.3811    0.5545 C   0  0  0  0  0  0  0  0  0  0  0  0
   -0.9938   -4.2206    1.5054 C   0  0  0  0  0  0  0  0  0  0  0  0
   -0.0787   -4.4179    2.4635 O   0  0  0  0  0  0  0  0  0  0  0  0
   -1.5817   -3.0734    1.4927 N   0  0  0  0  0  0  0  0  0  0  0  0
   -2.5637   -3.0145    0.4987 O   0  0  0  0  0  0  0  0  0  0  0  0
   -2.7629   -1.6721    0.0969 C   0  0  0  0  0  0  0  0  0  0  0  0
   -3.8233   -0.8786    0.8651 C   0  0  0  0  0  0  0  0  0  0  0  0
   -4.1659   -1.1988    2.0120 O   0  0  0  0  0  0  0  0  0  0  0  0
   -4.4458    0.3205    0.0843 C   0  0  0  0  0  0  0  0  0  0  0  0
   -4.8869    1.4421    0.9169 O   0  0  0  0  0  0  0  0  0  0  0  0
   -4.1250    2.3761    0.1206 C   0  0  0  0  0  0  0  0  0  0  0  0
   -2.6848    2.6815    0.5439 C   0  0  0  0  0  0  0  0  0  0  0  0
   -2.1809    1.5652   -0.2402 O   0  0  0  0  0  0  0  0  0  0  0  0
   -3.5220    1.2652   -0.7240 C   0  0  0  0  0  0  0  0  0  0  0  0
   -3.6946    1.4407   -2.2288 C   0  0  0  0  0  0  0  0  0  0  0  0
   -2.7696    0.4966   -2.9879 C   0  0  0  0  0  0  0  0  0  0  0  0
   -3.4299    2.8968   -2.6306 C   0  0  0  0  0  0  0  0  0  0  0  0
   -4.2968    3.9136   -1.8764 C   0  0  0  0  0  0  0  0  0  0  0  0
   -5.0023    3.3608   -0.6255 C   0  0  0  0  0  0  0  0  0  0  0  0
   -5.4130    4.4935    0.3101 C   0  0  0  0  0  0  0  0  0  0  0  0
    2.3426    1.6669   -0.0506 C   0  0  0  0  0  0  0  0  0  0  0  0
    2.8528    2.2897   -1.2500 O   0  0  0  0  0  0  0  0  0  0  0  0
    2.0382    2.7547    0.9855 C   0  0  0  0  0  0  0  0  0  0  0  0
    0.7502    3.3278    0.7283 O   0  0  0  0  0  0  0  0  0  0  0  0
    2.2113    2.2989    2.4387 C   0  0  0  0  0  0  0  0  0  0  0  0
   -0.6109    1.7646    2.9877 H   0  0  0  0  0  0  0  0  0  0  0  0
   -0.1948    0.7056    1.6135 H   0  0  0  0  0  0  0  0  0  0  0  0
   -0.4140    0.0252    3.2251 H   0  0  0  0  0  0  0  0  0  0  0  0
    1.8187   -0.5448    4.2642 H   0  0  0  0  0  0  0  0  0  0  0  0
    3.6509    1.3924    4.8371 H   0  0  0  0  0  0  0  0  0  0  0  0
    4.2975    0.0604    3.8628 H   0  0  0  0  0  0  0  0  0  0  0  0
    4.2867    2.7018    3.0190 H   0  0  0  0  0  0  0  0  0  0  0  0
    4.9902    0.3303    1.8136 H   0  0  0  0  0  0  0  0  0  0  0  0
    6.1550    2.4302    1.5384 H   0  0  0  0  0  0  0  0  0  0  0  0
    5.9096    1.6555   -0.0230 H   0  0  0  0  0  0  0  0  0  0  0  0
    4.9198    3.0442    0.4364 H   0  0  0  0  0  0  0  0  0  0  0  0
    2.7613   -0.1315    1.0137 H   0  0  0  0  0  0  0  0  0  0  0  0
    3.9476    0.3981   -1.5354 H   0  0  0  0  0  0  0  0  0  0  0  0
    5.0496   -2.9193   -1.8836 H   0  0  0  0  0  0  0  0  0  0  0  0
    4.7202   -1.3688   -2.6534 H   0  0  0  0  0  0  0  0  0  0  0  0
    2.1594   -1.8878   -2.2024 H   0  0  0  0  0  0  0  0  0  0  0  0
    2.9873   -2.6625   -3.5508 H   0  0  0  0  0  0  0  0  0  0  0  0
    3.3877   -4.6837   -2.2114 H   0  0  0  0  0  0  0  0  0  0  0  0
    2.6067   -3.9778   -0.8067 H   0  0  0  0  0  0  0  0  0  0  0  0
    1.0137   -4.0328   -3.3849 H   0  0  0  0  0  0  0  0  0  0  0  0
    1.3799   -5.5957   -2.6808 H   0  0  0  0  0  0  0  0  0  0  0  0
    0.1031   -3.3776   -1.0083 H   0  0  0  0  0  0  0  0  0  0  0  0
   -0.8514   -4.4428   -2.0353 H   0  0  0  0  0  0  0  0  0  0  0  0
    1.0087   -5.3981    0.1949 H   0  0  0  0  0  0  0  0  0  0  0  0
    0.0860   -6.4484   -0.8696 H   0  0  0  0  0  0  0  0  0  0  0  0
   -1.1986   -6.3026    1.1469 H   0  0  0  0  0  0  0  0  0  0  0  0
   -2.0611   -5.3174   -0.0132 H   0  0  0  0  0  0  0  0  0  0  0  0
   -0.0540   -3.6070    3.0056 H   0  0  0  0  0  0  0  0  0  0  0  0
   -3.1057   -1.7460   -0.9376 H   0  0  0  0  0  0  0  0  0  0  0  0
   -1.8183   -1.1165    0.1063 H   0  0  0  0  0  0  0  0  0  0  0  0
   -5.3061   -0.0290   -0.5010 H   0  0  0  0  0  0  0  0  0  0  0  0
   -2.4676    2.5539    1.6071 H   0  0  0  0  0  0  0  0  0  0  0  0
   -2.2625    3.6312    0.1999 H   0  0  0  0  0  0  0  0  0  0  0  0
   -4.7260    1.1990   -2.5190 H   0  0  0  0  0  0  0  0  0  0  0  0
   -3.0485   -0.5459   -2.8155 H   0  0  0  0  0  0  0  0  0  0  0  0
   -2.8290    0.6790   -4.0657 H   0  0  0  0  0  0  0  0  0  0  0  0
   -1.7247    0.6160   -2.6801 H   0  0  0  0  0  0  0  0  0  0  0  0
   -3.5868    3.0207   -3.7076 H   0  0  0  0  0  0  0  0  0  0  0  0
   -2.3747    3.1386   -2.4560 H   0  0  0  0  0  0  0  0  0  0  0  0
   -5.0641    4.3102   -2.5554 H   0  0  0  0  0  0  0  0  0  0  0  0
   -3.6684    4.7723   -1.6123 H   0  0  0  0  0  0  0  0  0  0  0  0
   -5.9176    2.8483   -0.9557 H   0  0  0  0  0  0  0  0  0  0  0  0
   -4.5363    5.0508    0.6585 H   0  0  0  0  0  0  0  0  0  0  0  0
   -5.9271    4.0983    1.1927 H   0  0  0  0  0  0  0  0  0  0  0  0
   -6.0879    5.1934   -0.1942 H   0  0  0  0  0  0  0  0  0  0  0  0
    1.4212    1.1612   -0.3662 H   0  0  0  0  0  0  0  0  0  0  0  0
    2.2545    3.0377   -1.4467 H   0  0  0  0  0  0  0  0  0  0  0  0
    2.7235    3.5959    0.8240 H   0  0  0  0  0  0  0  0  0  0  0  0
    0.0970    2.6046    0.7415 H   0  0  0  0  0  0  0  0  0  0  0  0
    1.9634    3.1425    3.0976 H   0  0  0  0  0  0  0  0  0  0  0  0
  2  1  1  0  0  0  0
  3  2  2  0  0  0  0
  4  3  1  0  0  0  0
  5  4  1  0  0  0  0
  6  5  1  0  0  0  0
  7  6  1  0  0  0  0
  8  6  1  0  0  0  0
  9  8  1  0  0  0  0
 10  9  1  0  0  0  0
 11 10  2  0  0  0  0
 12 10  1  0  0  0  0
 13 12  1  0  0  0  0
 14 13  1  0  0  0  0
 15 14  1  0  0  0  0
 16 15  1  0  0  0  0
 17 16  1  0  0  0  0
 18 17  1  0  0  0  0
 19 18  1  0  0  0  0
 20 19  1  0  0  0  0
 21 19  2  0  0  0  0
 22 21  1  0  0  0  0
 23 22  1  0  0  0  0
 24 23  1  0  0  0  0
 25 24  2  0  0  0  0
 26 24  1  0  0  0  0
 27 26  1  0  0  0  0
 28 27  1  0  0  0  0
 29 28  1  0  0  0  0
 30 29  1  0  0  0  0
 31 30  1  0  0  0  0
 31 26  1  0  0  0  0
 31 28  1  0  0  0  0
 32 31  1  0  0  0  0
 33 32  1  0  0  0  0
 34 32  1  0  0  0  0
 35 34  1  0  0  0  0
 36 35  1  0  0  0  0
 36 28  1  0  0  0  0
 37 36  1  0  0  0  0
 38  8  1  0  0  0  0
 39 38  1  0  0  0  0
 40 38  1  0  0  0  0
 41 40  1  0  0  0  0
 42 40  1  0  0  0  0
 42  2  1  0  0  0  0
 42  5  1  0  0  0  0
  1 43  1  0  0  0  0
  1 44  1  0  0  0  0
  1 45  1  0  0  0  0
  3 46  1  0  0  0  0
  4 47  1  0  0  0  0
  4 48  1  0  0  0  0
  5 49  1  0  0  0  0
  6 50  1  0  0  0  0
  7 51  1  0  0  0  0
  7 52  1  0  0  0  0
  7 53  1  0  0  0  0
  8 54  1  0  0  0  0
  9 55  1  0  0  0  0
 12 56  1  0  0  0  0
 12 57  1  0  0  0  0
 13 58  1  0  0  0  0
 13 59  1  0  0  0  0
 14 60  1  0  0  0  0
 14 61  1  0  0  0  0
 15 62  1  0  0  0  0
 15 63  1  0  0  0  0
 16 64  1  0  0  0  0
 16 65  1  0  0  0  0
 17 66  1  0  0  0  0
 17 67  1  0  0  0  0
 18 68  1  0  0  0  0
 18 69  1  0  0  0  0
 20 70  1  0  0  0  0
 23 71  1  0  0  0  0
 23 72  1  0  0  0  0
 26 73  1  0  0  0  0
 29 74  1  0  0  0  0
 29 75  1  0  0  0  0
 32 76  1  0  0  0  0
 33 77  1  0  0  0  0
 33 78  1  0  0  0  0
 33 79  1  0  0  0  0
 34 80  1  0  0  0  0
 34 81  1  0  0  0  0
 35 82  1  0  0  0  0
 35 83  1  0  0  0  0
 36 84  1  0  0  0  0
 37 85  1  0  0  0  0
 37 86  1  0  0  0  0
 37 87  1  0  0  0  0
 38 88  1  0  0  0  0
 39 89  1  0  0  0  0
 40 90  1  0  0  0  0
 41 91  1  0  0  0  0
 42 92  1  0  0  0  0
M  END
>  <energy>
140.64605599399482

$$$$
