CCNC(=O)OC1OC2(C)CCC(C)C(CCC=C(C)C)C3OC2(O)CC2(C)CC13O2
                    3D

 70 73  0  0  0  0  0  0  0  0999 V2000
   -5.0462    0.1237    2.3802 C   0  0  0  0  0  0  0  0  0  0  0  0
   -5.1191   -0.0760    0.8763 C   0  0  0  0  0  0  0  0  0  0  0  0
   -3.8130   -0.3848    0.3336 N   0  0  0  0  0  0  0  0  0  0  0  0
   -2.8930    0.5702   -0.0015 C   0  0  0  0  0  0  0  0  0  0  0  0
   -3.1308    1.7578   -0.0983 O   0  0  0  0  0  0  0  0  0  0  0  0
   -1.7142   -0.0600   -0.1583 O   0  0  0  0  0  0  0  0  0  0  0  0
   -0.4662    0.6199   -0.4245 C   0  0  0  0  0  0  0  0  0  0  0  0
   -0.5023    1.9513   -0.9516 O   0  0  0  0  0  0  0  0  0  0  0  0
    0.7298    2.7532   -1.0005 C   0  0  0  0  0  0  0  0  0  0  0  0
    0.1619    4.1901   -1.1416 C   0  0  0  0  0  0  0  0  0  0  0  0
    1.3918    2.3837   -2.3848 C   0  0  0  0  0  0  0  0  0  0  0  0
    2.4904    1.3020   -2.5205 C   0  0  0  0  0  0  0  0  0  0  0  0
    2.1878   -0.1852   -2.1576 C   0  0  0  0  0  0  0  0  0  0  0  0
    3.1703   -1.0700   -2.9657 C   0  0  0  0  0  0  0  0  0  0  0  0
    2.3072   -0.5750   -0.6398 C   0  0  0  0  0  0  0  0  0  0  0  0
    1.8695   -2.0017   -0.1927 C   0  0  0  0  0  0  0  0  0  0  0  0
    0.7608   -2.7578   -0.9474 C   0  0  0  0  0  0  0  0  0  0  0  0
    0.0168   -3.6849   -0.0134 C   0  0  0  0  0  0  0  0  0  0  0  0
   -1.0010   -4.5216   -0.3250 C   0  0  0  0  0  0  0  0  0  0  0  0
   -1.5675   -4.7067   -1.7033 C   0  0  0  0  0  0  0  0  0  0  0  0
   -1.6632   -5.3462    0.7516 C   0  0  0  0  0  0  0  0  0  0  0  0
    1.9107    0.4854    0.4386 C   0  0  0  0  0  0  0  0  0  0  0  0
    2.6318    1.6553    0.1253 O   0  0  0  0  0  0  0  0  0  0  0  0
    1.8529    2.8138    0.2020 C   0  0  0  0  0  0  0  0  0  0  0  0
    2.7937    3.8437   -0.1626 O   0  0  0  0  0  0  0  0  0  0  0  0
    1.6394    3.0099    1.7468 C   0  0  0  0  0  0  0  0  0  0  0  0
    0.6703    2.0109    2.4184 C   0  0  0  0  0  0  0  0  0  0  0  0
    0.1503    2.5745    3.7416 C   0  0  0  0  0  0  0  0  0  0  0  0
    0.4543    0.4032    2.4034 C   0  0  0  0  0  0  0  0  0  0  0  0
    0.3676    0.6534    0.8321 C   0  0  0  0  0  0  0  0  0  0  0  0
   -0.3190    1.9709    1.4111 O   0  0  0  0  0  0  0  0  0  0  0  0
   -4.6056   -0.7515    2.8680 H   0  0  0  0  0  0  0  0  0  0  0  0
   -4.4330    0.9936    2.6293 H   0  0  0  0  0  0  0  0  0  0  0  0
   -6.0415    0.2808    2.7989 H   0  0  0  0  0  0  0  0  0  0  0  0
   -5.5208    0.8201    0.3939 H   0  0  0  0  0  0  0  0  0  0  0  0
   -5.7727   -0.9239    0.6442 H   0  0  0  0  0  0  0  0  0  0  0  0
   -3.4241   -1.3041    0.4813 H   0  0  0  0  0  0  0  0  0  0  0  0
   -0.0499    0.0174   -1.2041 H   0  0  0  0  0  0  0  0  0  0  0  0
   -0.3558    4.4868   -0.2221 H   0  0  0  0  0  0  0  0  0  0  0  0
    0.9428    4.9322   -1.3468 H   0  0  0  0  0  0  0  0  0  0  0  0
   -0.5725    4.2502   -1.9565 H   0  0  0  0  0  0  0  0  0  0  0  0
    0.5937    2.1212   -3.0924 H   0  0  0  0  0  0  0  0  0  0  0  0
    1.8454    3.2988   -2.7925 H   0  0  0  0  0  0  0  0  0  0  0  0
    2.7468    1.3213   -3.5908 H   0  0  0  0  0  0  0  0  0  0  0  0
    3.4170    1.6365   -2.0381 H   0  0  0  0  0  0  0  0  0  0  0  0
    1.2008   -0.4311   -2.5543 H   0  0  0  0  0  0  0  0  0  0  0  0
    4.2111   -0.8484   -2.7058 H   0  0  0  0  0  0  0  0  0  0  0  0
    2.9957   -2.1323   -2.7771 H   0  0  0  0  0  0  0  0  0  0  0  0
    3.0518   -0.9043   -4.0428 H   0  0  0  0  0  0  0  0  0  0  0  0
    3.4048   -0.6005   -0.5126 H   0  0  0  0  0  0  0  0  0  0  0  0
    2.7625   -2.6428   -0.2150 H   0  0  0  0  0  0  0  0  0  0  0  0
    1.6064   -1.9475    0.8715 H   0  0  0  0  0  0  0  0  0  0  0  0
    1.2139   -3.3518   -1.7520 H   0  0  0  0  0  0  0  0  0  0  0  0
    0.0459   -2.0631   -1.3885 H   0  0  0  0  0  0  0  0  0  0  0  0
    0.3220   -3.6638    1.0279 H   0  0  0  0  0  0  0  0  0  0  0  0
   -2.6531   -4.5695   -1.6793 H   0  0  0  0  0  0  0  0  0  0  0  0
   -1.3684   -5.7207   -2.0656 H   0  0  0  0  0  0  0  0  0  0  0  0
   -1.1613   -3.9999   -2.4305 H   0  0  0  0  0  0  0  0  0  0  0  0
   -1.5357   -6.4159    0.5625 H   0  0  0  0  0  0  0  0  0  0  0  0
   -2.7368   -5.1369    0.7799 H   0  0  0  0  0  0  0  0  0  0  0  0
   -1.2662   -5.1388    1.7519 H   0  0  0  0  0  0  0  0  0  0  0  0
    2.4552    0.1258    1.3187 H   0  0  0  0  0  0  0  0  0  0  0  0
    3.6214    3.5494    0.2497 H   0  0  0  0  0  0  0  0  0  0  0  0
    2.6058    2.9495    2.2661 H   0  0  0  0  0  0  0  0  0  0  0  0
    1.2944    4.0399    1.9047 H   0  0  0  0  0  0  0  0  0  0  0  0
   -0.6861    1.9878    4.1401 H   0  0  0  0  0  0  0  0  0  0  0  0
   -0.2006    3.6065    3.6310 H   0  0  0  0  0  0  0  0  0  0  0  0
    0.9481    2.5648    4.4912 H   0  0  0  0  0  0  0  0  0  0  0  0
    1.2642   -0.1873    2.8374 H   0  0  0  0  0  0  0  0  0  0  0  0
   -0.4868    0.0486    2.8470 H   0  0  0  0  0  0  0  0  0  0  0  0
  2  1  1  0  0  0  0
  3  2  1  0  0  0  0
  4  3  1  0  0  0  0
  5  4  2  0  0  0  0
  6  4  1  0  0  0  0
  7  6  1  0  0  0  0
  8  7  1  0  0  0  0
  9  8  1  0  0  0  0
 10  9  1  0  0  0  0
 11  9  1  0  0  0  0
 12 11  1  0  0  0  0
 13 12  1  0  0  0  0
 14 13  1  0  0  0  0
 15 13  1  0  0  0  0
 16 15  1  0  0  0  0
 17 16  1  0  0  0  0
 18 17  1  0  0  0  0
 19 18  2  0  0  0  0
 20 19  1  0  0  0  0
 21 19  1  0  0  0  0
 22 15  1  0  0  0  0
 23 22  1  0  0  0  0
 24 23  1  0  0  0  0
 24  9  1  0  0  0  0
 25 24  1  0  0  0  0
 26 24  1  0  0  0  0
 27 26  1  0  0  0  0
 28 27  1  0  0  0  0
 29 27  1  0  0  0  0
 30 29  1  0  0  0  0
 30  7  1  0  0  0  0
 30 22  1  0  0  0  0
 31 30  1  0  0  0  0
 31 27  1  0  0  0  0
  1 32  1  0  0  0  0
  1 33  1  0  0  0  0
  1 34  1  0  0  0  0
  2 35  1  0  0  0  0
  2 36  1  0  0  0  0
  3 37  1  0  0  0  0
  7 38  1  0  0  0  0
 10 39  1  0  0  0  0
 10 40  1  0  0  0  0
 10 41  1  0  0  0  0
 11 42  1  0  0  0  0
 11 43  1  0  0  0  0
 12 44  1  0  0  0  0
 12 45  1  0  0  0  0
 13 46  1  0  0  0  0
 14 47  1  0  0  0  0
 14 48  1  0  0  0  0
 14 49  1  0  0  0  0
 15 50  1  0  0  0  0
 16 51  1  0  0  0  0
 16 52  1  0  0  0  0
 17 53  1  0  0  0  0
 17 54  1  0  0  0  0
 18 55  1  0  0  0  0
 20 56  1  0  0  0  0
 20 57  1  0  0  0  0
 20 58  1  0  0  0  0
 21 59  1  0  0  0  0
 21 60  1  0  0  0  0
 21 61  1  0  0  0  0
 22 62  1  0  0  0  0
 25 63  1  0  0  0  0
 26 64  1  0  0  0  0
 26 65  1  0  0  0  0
 28 66  1  0  0  0  0
 28 67  1  0  0  0  0
 28 68  1  0  0  0  0
 29 69  1  0  0  0  0
 29 70  1  0  0  0  0
M  END
>  <energy>
165.2751063425946

$$$$
