COC(=O)C1C(COCC(C)C)C2(O)C(O)C3(O)C4CC2(C(C)O)C3(O)C14O
                    3D

 58 61  0  0  0  0  0  0  0  0999 V2000
    0.0698    4.4941    0.4231 C   0  0  0  0  0  0  0  0  0  0  0  0
    0.3669    3.1448    0.7750 O   0  0  0  0  0  0  0  0  0  0  0  0
   -0.0967    2.2086   -0.1078 C   0  0  0  0  0  0  0  0  0  0  0  0
   -0.6756    2.4626   -1.1521 O   0  0  0  0  0  0  0  0  0  0  0  0
    0.1378    0.8203    0.4509 C   0  0  0  0  0  0  0  0  0  0  0  0
    0.0999   -0.5601   -0.7563 C   0  0  0  0  0  0  0  0  0  0  0  0
   -1.2157   -1.3448   -0.8200 C   0  0  0  0  0  0  0  0  0  0  0  0
   -2.3022   -0.4284   -0.7556 O   0  0  0  0  0  0  0  0  0  0  0  0
   -3.5601   -1.0711   -0.9307 C   0  0  0  0  0  0  0  0  0  0  0  0
   -4.6815   -0.0981   -0.5597 C   0  0  0  0  0  0  0  0  0  0  0  0
   -4.5557    0.3619    0.8941 C   0  0  0  0  0  0  0  0  0  0  0  0
   -6.0447   -0.7417   -0.8010 C   0  0  0  0  0  0  0  0  0  0  0  0
    1.4500   -1.5452   -0.6691 C   0  0  0  0  0  0  0  0  0  0  0  0
    1.8281   -2.1156   -1.8978 O   0  0  0  0  0  0  0  0  0  0  0  0
    1.8933   -2.4733    0.6037 C   0  0  0  0  0  0  0  0  0  0  0  0
    3.0285   -3.3029    0.3075 O   0  0  0  0  0  0  0  0  0  0  0  0
    2.3076   -1.4386    1.8379 C   0  0  0  0  0  0  0  0  0  0  0  0
    2.1277   -2.0498    3.1245 O   0  0  0  0  0  0  0  0  0  0  0  0
    3.0625   -0.0771    1.7650 C   0  0  0  0  0  0  0  0  0  0  0  0
    3.6480   -0.3922    0.4330 C   0  0  0  0  0  0  0  0  0  0  0  0
    2.2603   -0.4098   -0.2322 C   0  0  0  0  0  0  0  0  0  0  0  0
    2.3646    0.8352   -1.2141 C   0  0  0  0  0  0  0  0  0  0  0  0
    3.3017    0.5407   -2.4017 C   0  0  0  0  0  0  0  0  0  0  0  0
    2.8600    1.9825   -0.5046 O   0  0  0  0  0  0  0  0  0  0  0  0
    1.2731   -0.6040    1.2840 C   0  0  0  0  0  0  0  0  0  0  0  0
   -0.0180   -1.2373    1.5738 O   0  0  0  0  0  0  0  0  0  0  0  0
    1.4890    0.7555    1.5985 C   0  0  0  0  0  0  0  0  0  0  0  0
    1.0220    1.2848    2.8604 O   0  0  0  0  0  0  0  0  0  0  0  0
    0.5851    5.1509    1.1300 H   0  0  0  0  0  0  0  0  0  0  0  0
   -1.0060    4.6735    0.5189 H   0  0  0  0  0  0  0  0  0  0  0  0
    0.4215    4.7264   -0.5865 H   0  0  0  0  0  0  0  0  0  0  0  0
   -0.7824    0.7016    1.0568 H   0  0  0  0  0  0  0  0  0  0  0  0
    0.0882   -0.0792   -1.7409 H   0  0  0  0  0  0  0  0  0  0  0  0
   -1.2586   -1.8905   -1.7717 H   0  0  0  0  0  0  0  0  0  0  0  0
   -1.3198   -2.0911   -0.0303 H   0  0  0  0  0  0  0  0  0  0  0  0
   -3.6148   -1.9706   -0.3045 H   0  0  0  0  0  0  0  0  0  0  0  0
   -3.6549   -1.3699   -1.9812 H   0  0  0  0  0  0  0  0  0  0  0  0
   -4.5961    0.7924   -1.1915 H   0  0  0  0  0  0  0  0  0  0  0  0
   -3.6275    0.9180    1.0537 H   0  0  0  0  0  0  0  0  0  0  0  0
   -4.5656   -0.4902    1.5799 H   0  0  0  0  0  0  0  0  0  0  0  0
   -5.3850    1.0199    1.1710 H   0  0  0  0  0  0  0  0  0  0  0  0
   -6.1579   -1.0337   -1.8498 H   0  0  0  0  0  0  0  0  0  0  0  0
   -6.8551   -0.0482   -0.5609 H   0  0  0  0  0  0  0  0  0  0  0  0
   -6.1750   -1.6360   -0.1834 H   0  0  0  0  0  0  0  0  0  0  0  0
    1.1245   -2.7334   -2.1669 H   0  0  0  0  0  0  0  0  0  0  0  0
    1.0826   -3.1504    0.9000 H   0  0  0  0  0  0  0  0  0  0  0  0
    3.0710   -3.3630   -0.6655 H   0  0  0  0  0  0  0  0  0  0  0  0
    2.7974   -2.7564    3.1286 H   0  0  0  0  0  0  0  0  0  0  0  0
    3.6872    0.2019    2.6128 H   0  0  0  0  0  0  0  0  0  0  0  0
    4.3372    0.3971    0.1299 H   0  0  0  0  0  0  0  0  0  0  0  0
    4.2303   -1.3108    0.3537 H   0  0  0  0  0  0  0  0  0  0  0  0
    1.4495    1.1786   -1.6822 H   0  0  0  0  0  0  0  0  0  0  0  0
    4.2232    0.0342   -2.0981 H   0  0  0  0  0  0  0  0  0  0  0  0
    3.6124    1.4679   -2.8934 H   0  0  0  0  0  0  0  0  0  0  0  0
    2.8004   -0.0904   -3.1426 H   0  0  0  0  0  0  0  0  0  0  0  0
    3.1454    2.6505   -1.1538 H   0  0  0  0  0  0  0  0  0  0  0  0
   -0.0847   -1.1484    2.5494 H   0  0  0  0  0  0  0  0  0  0  0  0
    0.9869    2.2484    2.6897 H   0  0  0  0  0  0  0  0  0  0  0  0
  2  1  1  0  0  0  0
  3  2  1  0  0  0  0
  4  3  2  0  0  0  0
  5  3  1  0  0  0  0
  6  5  1  0  0  0  0
  7  6  1  0  0  0  0
  8  7  1  0  0  0  0
  9  8  1  0  0  0  0
 10  9  1  0  0  0  0
 11 10  1  0  0  0  0
 12 10  1  0  0  0  0
 13  6  1  0  0  0  0
 14 13  1  0  0  0  0
 15 13  1  0  0  0  0
 16 15  1  0  0  0  0
 17 15  1  0  0  0  0
 18 17  1  0  0  0  0
 19 17  1  0  0  0  0
 20 19  1  0  0  0  0
 21 20  1  0  0  0  0
 21 13  1  0  0  0  0
 22 21  1  0  0  0  0
 23 22  1  0  0  0  0
 24 22  1  0  0  0  0
 25 21  1  0  0  0  0
 25 17  1  0  0  0  0
 26 25  1  0  0  0  0
 27 25  1  0  0  0  0
 27  5  1  0  0  0  0
 27 19  1  0  0  0  0
 28 27  1  0  0  0  0
  1 29  1  0  0  0  0
  1 30  1  0  0  0  0
  1 31  1  0  0  0  0
  5 32  1  0  0  0  0
  6 33  1  0  0  0  0
  7 34  1  0  0  0  0
  7 35  1  0  0  0  0
  9 36  1  0  0  0  0
  9 37  1  0  0  0  0
 10 38  1  0  0  0  0
 11 39  1  0  0  0  0
 11 40  1  0  0  0  0
 11 41  1  0  0  0  0
 12 42  1  0  0  0  0
 12 43  1  0  0  0  0
 12 44  1  0  0  0  0
 14 45  1  0  0  0  0
 15 46  1  0  0  0  0
 16 47  1  0  0  0  0
 18 48  1  0  0  0  0
 19 49  1  0  0  0  0
 20 50  1  0  0  0  0
 20 51  1  0  0  0  0
 22 52  1  0  0  0  0
 23 53  1  0  0  0  0
 23 54  1  0  0  0  0
 23 55  1  0  0  0  0
 24 56  1  0  0  0  0
 26 57  1  0  0  0  0
 28 58  1  0  0  0  0
M  END
>  <energy>
382.80283291423387

$$$$
