CC(CO)CC1CCC23Cc4c(O)oc(c4O1)OC2OO3
                    3D

 39 42  0  0  0  0  0  0  0  0999 V2000
   -3.5221   -0.1582   -0.9361 C   0  0  0  0  0  0  0  0  0  0  0  0
   -2.5639    0.1362    0.2212 C   0  0  0  0  0  0  0  0  0  0  0  0
   -3.3237    0.2003    1.5545 C   0  0  0  0  0  0  0  0  0  0  0  0
   -3.9354   -1.0433    1.8676 O   0  0  0  0  0  0  0  0  0  0  0  0
   -1.4116   -0.8907    0.3149 C   0  0  0  0  0  0  0  0  0  0  0  0
   -0.5300   -0.9947   -0.9400 C   0  0  0  0  0  0  0  0  0  0  0  0
    0.7101   -1.8874   -0.8464 C   0  0  0  0  0  0  0  0  0  0  0  0
    1.6246   -1.7318    0.3578 C   0  0  0  0  0  0  0  0  0  0  0  0
    2.4354   -0.4276    0.4451 C   0  0  0  0  0  0  0  0  0  0  0  0
    1.6851    0.7119    1.1705 C   0  0  0  0  0  0  0  0  0  0  0  0
    1.0430    1.5787    0.0874 C   0  0  0  0  0  0  0  0  0  0  0  0
    1.6584    2.7642   -0.3131 C   0  0  0  0  0  0  0  0  0  0  0  0
    2.1208    3.8328    0.3122 O   0  0  0  0  0  0  0  0  0  0  0  0
    2.2910    2.5040   -1.5115 O   0  0  0  0  0  0  0  0  0  0  0  0
    1.8421    1.2440   -1.8804 C   0  0  0  0  0  0  0  0  0  0  0  0
    0.6482    1.0802   -1.1894 C   0  0  0  0  0  0  0  0  0  0  0  0
   -0.3003    0.2321   -1.6149 O   0  0  0  0  0  0  0  0  0  0  0  0
    2.8250    0.3288   -2.0533 O   0  0  0  0  0  0  0  0  0  0  0  0
    3.3814    0.1675   -0.7095 C   0  0  0  0  0  0  0  0  0  0  0  0
    4.2564   -0.9448   -0.3711 O   0  0  0  0  0  0  0  0  0  0  0  0
    3.7352   -0.8106    1.0385 O   0  0  0  0  0  0  0  0  0  0  0  0
   -3.0183   -0.0740   -1.9049 H   0  0  0  0  0  0  0  0  0  0  0  0
   -3.9477   -1.1648   -0.8642 H   0  0  0  0  0  0  0  0  0  0  0  0
   -4.3482    0.5637   -0.9372 H   0  0  0  0  0  0  0  0  0  0  0  0
   -2.1307    1.1296    0.0533 H   0  0  0  0  0  0  0  0  0  0  0  0
   -4.0968    0.9753    1.5296 H   0  0  0  0  0  0  0  0  0  0  0  0
   -2.6387    0.4490    2.3717 H   0  0  0  0  0  0  0  0  0  0  0  0
   -4.7174   -1.1345    1.2963 H   0  0  0  0  0  0  0  0  0  0  0  0
   -1.8142   -1.8893    0.5379 H   0  0  0  0  0  0  0  0  0  0  0  0
   -0.8079   -0.6224    1.1839 H   0  0  0  0  0  0  0  0  0  0  0  0
   -1.1645   -1.5274   -1.6637 H   0  0  0  0  0  0  0  0  0  0  0  0
    0.3524   -2.9257   -0.8259 H   0  0  0  0  0  0  0  0  0  0  0  0
    1.2967   -1.7981   -1.7663 H   0  0  0  0  0  0  0  0  0  0  0  0
    2.3227   -2.5800    0.3095 H   0  0  0  0  0  0  0  0  0  0  0  0
    1.0669   -1.8984    1.2880 H   0  0  0  0  0  0  0  0  0  0  0  0
    0.9418    0.3524    1.8860 H   0  0  0  0  0  0  0  0  0  0  0  0
    2.3999    1.3203    1.7417 H   0  0  0  0  0  0  0  0  0  0  0  0
    1.7002    3.8544    1.1847 H   0  0  0  0  0  0  0  0  0  0  0  0
    3.9341    1.0782   -0.4244 H   0  0  0  0  0  0  0  0  0  0  0  0
  2  1  1  0  0  0  0
  3  2  1  0  0  0  0
  4  3  1  0  0  0  0
  5  2  1  0  0  0  0
  6  5  1  0  0  0  0
  7  6  1  0  0  0  0
  8  7  1  0  0  0  0
  9  8  1  0  0  0  0
 10  9  1  0  0  0  0
 11 10  1  0  0  0  0
 12 11  2  0  0  0  0
 13 12  1  0  0  0  0
 14 12  1  0  0  0  0
 15 14  1  0  0  0  0
 16 15  2  0  0  0  0
 16 11  1  0  0  0  0
 17 16  1  0  0  0  0
 17  6  1  0  0  0  0
 18 15  1  0  0  0  0
 19 18  1  0  0  0  0
 19  9  1  0  0  0  0
 20 19  1  0  0  0  0
 21 20  1  0  0  0  0
 21  9  1  0  0  0  0
  1 22  1  0  0  0  0
  1 23  1  0  0  0  0
  1 24  1  0  0  0  0
  2 25  1  0  0  0  0
  3 26  1  0  0  0  0
  3 27  1  0  0  0  0
  4 28  1  0  0  0  0
  5 29  1  0  0  0  0
  5 30  1  0  0  0  0
  6 31  1  0  0  0  0
  7 32  1  0  0  0  0
  7 33  1  0  0  0  0
  8 34  1  0  0  0  0
  8 35  1  0  0  0  0
 10 36  1  0  0  0  0
 10 37  1  0  0  0  0
 13 38  1  0  0  0  0
 19 39  1  0  0  0  0
M  END
>  <energy>
126.54170673367184

$$$$
