OCC1CC23CNCC(C2)C13
                    3D

 26 28  0  0  0  0  0  0  0  0999 V2000
    3.1905    1.2816    0.5351 O   0  0  0  0  0  0  0  0  0  0  0  0
    2.8060    0.1388   -0.2180 C   0  0  0  0  0  0  0  0  0  0  0  0
    1.4933   -0.3883    0.3381 C   0  0  0  0  0  0  0  0  0  0  0  0
    0.8154   -1.5027   -0.5222 C   0  0  0  0  0  0  0  0  0  0  0  0
   -0.5424   -0.8166   -0.2802 C   0  0  0  0  0  0  0  0  0  0  0  0
   -1.6405   -0.4653   -1.2687 C   0  0  0  0  0  0  0  0  0  0  0  0
   -2.6530    0.3702   -0.5969 N   0  0  0  0  0  0  0  0  0  0  0  0
   -2.0856    1.2911    0.4129 C   0  0  0  0  0  0  0  0  0  0  0  0
   -0.8612    0.6708    1.1283 C   0  0  0  0  0  0  0  0  0  0  0  0
   -0.9957   -0.8717    1.2166 C   0  0  0  0  0  0  0  0  0  0  0  0
    0.2460    0.4809    0.0692 C   0  0  0  0  0  0  0  0  0  0  0  0
    4.0503    1.5752    0.1886 H   0  0  0  0  0  0  0  0  0  0  0  0
    2.7160    0.4283   -1.2702 H   0  0  0  0  0  0  0  0  0  0  0  0
    3.5920   -0.6175   -0.1267 H   0  0  0  0  0  0  0  0  0  0  0  0
    1.6299   -0.6679    1.3914 H   0  0  0  0  0  0  0  0  0  0  0  0
    0.9108   -2.5175   -0.1246 H   0  0  0  0  0  0  0  0  0  0  0  0
    1.1129   -1.5128   -1.5772 H   0  0  0  0  0  0  0  0  0  0  0  0
   -2.1264   -1.3745   -1.6359 H   0  0  0  0  0  0  0  0  0  0  0  0
   -1.2341    0.0644   -2.1379 H   0  0  0  0  0  0  0  0  0  0  0  0
   -3.2131    0.8815   -1.2762 H   0  0  0  0  0  0  0  0  0  0  0  0
   -1.8044    2.2399   -0.0595 H   0  0  0  0  0  0  0  0  0  0  0  0
   -2.8670    1.5110    1.1484 H   0  0  0  0  0  0  0  0  0  0  0  0
   -0.5629    1.1898    2.0424 H   0  0  0  0  0  0  0  0  0  0  0  0
   -2.0013   -1.2610    1.4093 H   0  0  0  0  0  0  0  0  0  0  0  0
   -0.3255   -1.3647    1.9291 H   0  0  0  0  0  0  0  0  0  0  0  0
    0.3502    1.2373   -0.7151 H   0  0  0  0  0  0  0  0  0  0  0  0
  2  1  1  0  0  0  0
  3  2  1  0  0  0  0
  4  3  1  0  0  0  0
  5  4  1  0  0  0  0
  6  5  1  0  0  0  0
  7  6  1  0  0  0  0
  8  7  1  0  0  0  0
  9  8  1  0  0  0  0
 10  9  1  0  0  0  0
 10  5  1  0  0  0  0
 11  9  1  0  0  0  0
 11  3  1  0  0  0  0
 11  5  1  0  0  0  0
  1 12  1  0  0  0  0
  2 13  1  0  0  0  0
  2 14  1  0  0  0  0
  3 15  1  0  0  0  0
  4 16  1  0  0  0  0
  4 17  1  0  0  0  0
  6 18  1  0  0  0  0
  6 19  1  0  0  0  0
  7 20  1  0  0  0  0
  8 21  1  0  0  0  0
  8 22  1  0  0  0  0
  9 23  1  0  0  0  0
 10 24  1  0  0  0  0
 10 25  1  0  0  0  0
 11 26  1  0  0  0  0
M  END
>  <energy>
46.199128358244536

$$$$
