N=c1[nH]c2c3cnc4cc(S(=O)(=O)O)ccc4c(c4cc(O)c(N=Nc5ccc(S(N)(=O)=O)cc5)c(O)c34)c2[
                    3D

 57 62  0  0  0  0  0  0  0  0999 V2000
    3.6459   -3.7009   -1.6183 N   0  0  0  0  0  0  0  0  0  0  0  0
    3.2616   -2.5843   -1.1271 C   0  0  0  0  0  0  0  0  0  0  0  0
    2.3745   -2.3631   -0.0807 N   0  0  0  0  0  0  0  0  0  0  0  0
    2.1220   -0.9621    0.0025 C   0  0  0  0  0  0  0  0  0  0  0  0
    0.9716   -0.3173    0.4007 C   0  0  0  0  0  0  0  0  0  0  0  0
    0.9810    0.7159    1.4646 C   0  0  0  0  0  0  0  0  0  0  0  0
    1.7584    1.7381    1.6506 N   0  0  0  0  0  0  0  0  0  0  0  0
    3.0080    1.9971    1.0632 C   0  0  0  0  0  0  0  0  0  0  0  0
    3.9467    2.3695    2.0482 C   0  0  0  0  0  0  0  0  0  0  0  0
    5.3172    2.3045    1.8046 C   0  0  0  0  0  0  0  0  0  0  0  0
    6.4215    2.0805    3.2087 S   0  0  0  0  0  0  0  0  0  0  0  0
    6.4922    3.3370    3.9133 O   0  0  0  0  0  0  0  0  0  0  0  0
    7.5727    1.3425    2.7431 O   0  0  0  0  0  0  0  0  0  0  0  0
    5.6319    1.0370    4.1624 O   0  0  0  0  0  0  0  0  0  0  0  0
    5.7807    2.1070    0.5105 C   0  0  0  0  0  0  0  0  0  0  0  0
    4.8501    1.9003   -0.5205 C   0  0  0  0  0  0  0  0  0  0  0  0
    3.4517    1.7697   -0.2716 C   0  0  0  0  0  0  0  0  0  0  0  0
    2.6899    0.9416   -1.2889 C   0  0  0  0  0  0  0  0  0  0  0  0
    1.2967    1.0676   -1.5302 C   0  0  0  0  0  0  0  0  0  0  0  0
    0.7362    1.6124   -2.6992 C   0  0  0  0  0  0  0  0  0  0  0  0
   -0.6349    1.4341   -2.9810 C   0  0  0  0  0  0  0  0  0  0  0  0
   -1.1329    1.8449   -4.1892 O   0  0  0  0  0  0  0  0  0  0  0  0
   -1.5078    0.8193   -2.0660 C   0  0  0  0  0  0  0  0  0  0  0  0
   -2.8933    0.6593   -2.3042 N   0  0  0  0  0  0  0  0  0  0  0  0
   -3.1937   -0.5603   -2.4212 N   0  0  0  0  0  0  0  0  0  0  0  0
   -4.2681   -0.8850   -1.5542 C   0  0  0  0  0  0  0  0  0  0  0  0
   -4.0995   -1.9511   -0.6519 C   0  0  0  0  0  0  0  0  0  0  0  0
   -4.9705   -2.1213    0.4322 C   0  0  0  0  0  0  0  0  0  0  0  0
   -6.0164   -1.2112    0.6152 C   0  0  0  0  0  0  0  0  0  0  0  0
   -6.9868   -1.2457    2.1102 S   0  0  0  0  0  0  0  0  0  0  0  0
   -8.0040   -2.5388    1.8166 N   0  0  0  0  0  0  0  0  0  0  0  0
   -7.7324   -0.0167    2.2019 O   0  0  0  0  0  0  0  0  0  0  0  0
   -6.1783   -1.7331    3.2018 O   0  0  0  0  0  0  0  0  0  0  0  0
   -6.2602   -0.2140   -0.3354 C   0  0  0  0  0  0  0  0  0  0  0  0
   -5.3874   -0.0600   -1.4138 C   0  0  0  0  0  0  0  0  0  0  0  0
   -0.9664    0.3822   -0.8528 C   0  0  0  0  0  0  0  0  0  0  0  0
   -1.7456   -0.0931    0.1767 O   0  0  0  0  0  0  0  0  0  0  0  0
    0.4129    0.3886   -0.6546 C   0  0  0  0  0  0  0  0  0  0  0  0
    2.9668   -0.3584   -0.9382 C   0  0  0  0  0  0  0  0  0  0  0  0
    3.6313   -1.3585   -1.6340 N   0  0  0  0  0  0  0  0  0  0  0  0
    3.2685   -4.5177   -1.1375 H   0  0  0  0  0  0  0  0  0  0  0  0
    1.6031   -3.0013    0.0326 H   0  0  0  0  0  0  0  0  0  0  0  0
    0.0811    0.6833    2.1013 H   0  0  0  0  0  0  0  0  0  0  0  0
    3.5898    2.5630    3.0601 H   0  0  0  0  0  0  0  0  0  0  0  0
    5.4702    0.1759    3.7141 H   0  0  0  0  0  0  0  0  0  0  0  0
    6.8440    1.9791    0.3159 H   0  0  0  0  0  0  0  0  0  0  0  0
    5.2411    1.6280   -1.4998 H   0  0  0  0  0  0  0  0  0  0  0  0
    1.3913    2.0785   -3.4300 H   0  0  0  0  0  0  0  0  0  0  0  0
   -0.4096    2.1881   -4.7379 H   0  0  0  0  0  0  0  0  0  0  0  0
   -3.2395   -2.6097   -0.7538 H   0  0  0  0  0  0  0  0  0  0  0  0
   -4.8068   -2.9364    1.1338 H   0  0  0  0  0  0  0  0  0  0  0  0
   -7.9076   -2.8936    0.8670 H   0  0  0  0  0  0  0  0  0  0  0  0
   -7.6609   -3.2423    2.4785 H   0  0  0  0  0  0  0  0  0  0  0  0
   -7.0708    0.5000   -0.2213 H   0  0  0  0  0  0  0  0  0  0  0  0
   -5.4945    0.7850   -2.0866 H   0  0  0  0  0  0  0  0  0  0  0  0
   -2.6373    0.2815    0.0505 H   0  0  0  0  0  0  0  0  0  0  0  0
    4.3944   -1.2356   -2.2813 H   0  0  0  0  0  0  0  0  0  0  0  0
  2  1  2  0  0  0  0
  3  2  1  0  0  0  0
  4  3  1  0  0  0  0
  5  4  2  0  0  0  0
  6  5  1  0  0  0  0
  7  6  2  0  0  0  0
  8  7  1  0  0  0  0
  9  8  1  0  0  0  0
 10  9  2  0  0  0  0
 11 10  1  0  0  0  0
 12 11  2  0  0  0  0
 13 11  2  0  0  0  0
 14 11  1  0  0  0  0
 15 10  1  0  0  0  0
 16 15  2  0  0  0  0
 17 16  1  0  0  0  0
 17  8  2  0  0  0  0
 18 17  1  0  0  0  0
 19 18  1  0  0  0  0
 20 19  2  0  0  0  0
 21 20  1  0  0  0  0
 22 21  1  0  0  0  0
 23 21  2  0  0  0  0
 24 23  1  0  0  0  0
 25 24  2  0  0  0  0
 26 25  1  0  0  0  0
 27 26  2  0  0  0  0
 28 27  1  0  0  0  0
 29 28  2  0  0  0  0
 30 29  1  0  0  0  0
 31 30  1  0  0  0  0
 32 30  2  0  0  0  0
 33 30  2  0  0  0  0
 34 29  1  0  0  0  0
 35 34  2  0  0  0  0
 35 26  1  0  0  0  0
 36 23  1  0  0  0  0
 37 36  1  0  0  0  0
 38 36  2  0  0  0  0
 38  5  1  0  0  0  0
 38 19  1  0  0  0  0
 39 18  2  0  0  0  0
 39  4  1  0  0  0  0
 40 39  1  0  0  0  0
 40  2  1  0  0  0  0
  1 41  1  0  0  0  0
  3 42  1  0  0  0  0
  6 43  1  0  0  0  0
  9 44  1  0  0  0  0
 14 45  1  0  0  0  0
 15 46  1  0  0  0  0
 16 47  1  0  0  0  0
 20 48  1  0  0  0  0
 22 49  1  0  0  0  0
 27 50  1  0  0  0  0
 28 51  1  0  0  0  0
 31 52  1  0  0  0  0
 31 53  1  0  0  0  0
 34 54  1  0  0  0  0
 35 55  1  0  0  0  0
 37 56  1  0  0  0  0
 40 57  1  0  0  0  0
M  END
>  <energy>
126.66127265417302

$$$$
