Cc1ccc(C#CCN2C(=O)C3=C4c5c(cccc5C5C6=CC=CC=C(N6)N2N35)-c2ccccc2N4C)cc1
                    3D

 64 71  0  0  0  0  0  0  0  0999 V2000
    5.8273    1.4533   -2.3618 C   0  0  0  0  0  0  0  0  0  0  0  0
    5.2402    0.8673   -1.1123 C   0  0  0  0  0  0  0  0  0  0  0  0
    5.6282   -0.3992   -0.6560 C   0  0  0  0  0  0  0  0  0  0  0  0
    5.0206   -0.9606    0.4727 C   0  0  0  0  0  0  0  0  0  0  0  0
    4.0353   -0.2520    1.1568 C   0  0  0  0  0  0  0  0  0  0  0  0
    3.2863   -0.8665    2.2088 C   0  0  0  0  0  0  0  0  0  0  0  0
    2.4479   -1.3254    2.9342 C   0  0  0  0  0  0  0  0  0  0  0  0
    1.1924   -1.7725    3.5610 C   0  0  0  0  0  0  0  0  0  0  0  0
    0.0761   -1.4910    2.6750 N   0  0  0  0  0  0  0  0  0  0  0  0
   -0.3418   -0.1471    2.5371 C   0  0  0  0  0  0  0  0  0  0  0  0
   -0.3476    0.6962    3.4186 O   0  0  0  0  0  0  0  0  0  0  0  0
   -0.6819    0.0329    1.0823 C   0  0  0  0  0  0  0  0  0  0  0  0
   -1.3952    1.0197    0.5090 C   0  0  0  0  0  0  0  0  0  0  0  0
   -1.8496    0.7421   -0.8954 C   0  0  0  0  0  0  0  0  0  0  0  0
   -2.7878    1.6103   -1.5020 C   0  0  0  0  0  0  0  0  0  0  0  0
   -3.1029    1.4119   -2.8623 C   0  0  0  0  0  0  0  0  0  0  0  0
   -2.5421    0.3720   -3.5999 C   0  0  0  0  0  0  0  0  0  0  0  0
   -1.6955   -0.5307   -2.9779 C   0  0  0  0  0  0  0  0  0  0  0  0
   -1.3753   -0.3842   -1.6161 C   0  0  0  0  0  0  0  0  0  0  0  0
   -0.5248   -1.4470   -0.9503 C   0  0  0  0  0  0  0  0  0  0  0  0
   -1.1881   -2.8668   -0.9272 C   0  0  0  0  0  0  0  0  0  0  0  0
   -0.6755   -3.8694   -1.6928 C   0  0  0  0  0  0  0  0  0  0  0  0
   -0.5558   -5.2400   -1.1558 C   0  0  0  0  0  0  0  0  0  0  0  0
   -0.2153   -5.5282    0.1280 C   0  0  0  0  0  0  0  0  0  0  0  0
    0.0815   -4.5055    1.1550 C   0  0  0  0  0  0  0  0  0  0  0  0
   -0.5978   -3.3245    1.1870 C   0  0  0  0  0  0  0  0  0  0  0  0
   -1.7203   -3.2120    0.3348 N   0  0  0  0  0  0  0  0  0  0  0  0
    0.1239   -2.1155    1.3833 N   0  0  0  0  0  0  0  0  0  0  0  0
   -0.1822   -1.0875    0.4566 N   0  0  0  0  0  0  0  0  0  0  0  0
   -3.4412    2.6589   -0.6801 C   0  0  0  0  0  0  0  0  0  0  0  0
   -4.5958    3.3520   -1.1006 C   0  0  0  0  0  0  0  0  0  0  0  0
   -5.2170    4.2973   -0.2844 C   0  0  0  0  0  0  0  0  0  0  0  0
   -4.7029    4.5664    0.9746 C   0  0  0  0  0  0  0  0  0  0  0  0
   -3.5613    3.8998    1.4134 C   0  0  0  0  0  0  0  0  0  0  0  0
   -2.9133    2.9481    0.6013 C   0  0  0  0  0  0  0  0  0  0  0  0
   -1.7807    2.2360    1.0754 N   0  0  0  0  0  0  0  0  0  0  0  0
   -0.8571    3.0291    1.8978 C   0  0  0  0  0  0  0  0  0  0  0  0
    3.6818    1.0335    0.7379 C   0  0  0  0  0  0  0  0  0  0  0  0
    4.2859    1.5918   -0.3897 C   0  0  0  0  0  0  0  0  0  0  0  0
    5.0346    1.8789   -2.9863 H   0  0  0  0  0  0  0  0  0  0  0  0
    6.3342    0.6888   -2.9584 H   0  0  0  0  0  0  0  0  0  0  0  0
    6.5468    2.2364   -2.1094 H   0  0  0  0  0  0  0  0  0  0  0  0
    6.3830   -0.9701   -1.1917 H   0  0  0  0  0  0  0  0  0  0  0  0
    5.2932   -1.9641    0.7894 H   0  0  0  0  0  0  0  0  0  0  0  0
    1.0317   -1.2517    4.5101 H   0  0  0  0  0  0  0  0  0  0  0  0
    1.2023   -2.8468    3.7643 H   0  0  0  0  0  0  0  0  0  0  0  0
   -3.7933    2.0689   -3.3819 H   0  0  0  0  0  0  0  0  0  0  0  0
   -2.7889    0.2572   -4.6509 H   0  0  0  0  0  0  0  0  0  0  0  0
   -1.2895   -1.3566   -3.5576 H   0  0  0  0  0  0  0  0  0  0  0  0
    0.4294   -1.5004   -1.4931 H   0  0  0  0  0  0  0  0  0  0  0  0
   -0.0816   -3.6600   -2.5781 H   0  0  0  0  0  0  0  0  0  0  0  0
   -0.6945   -6.0435   -1.8749 H   0  0  0  0  0  0  0  0  0  0  0  0
   -0.0787   -6.5614    0.4307 H   0  0  0  0  0  0  0  0  0  0  0  0
    1.0460   -4.5950    1.6440 H   0  0  0  0  0  0  0  0  0  0  0  0
   -2.1866   -4.1160    0.2775 H   0  0  0  0  0  0  0  0  0  0  0  0
   -5.0552    3.1442   -2.0621 H   0  0  0  0  0  0  0  0  0  0  0  0
   -6.1127    4.8036   -0.6318 H   0  0  0  0  0  0  0  0  0  0  0  0
   -5.1950    5.2783    1.6295 H   0  0  0  0  0  0  0  0  0  0  0  0
   -3.2063    4.0970    2.4214 H   0  0  0  0  0  0  0  0  0  0  0  0
    0.1710    2.6601    1.8111 H   0  0  0  0  0  0  0  0  0  0  0  0
   -0.8126    4.0731    1.5620 H   0  0  0  0  0  0  0  0  0  0  0  0
   -1.1508    3.0100    2.9517 H   0  0  0  0  0  0  0  0  0  0  0  0
    2.9092    1.5909    1.2640 H   0  0  0  0  0  0  0  0  0  0  0  0
    3.9854    2.5850   -0.7155 H   0  0  0  0  0  0  0  0  0  0  0  0
  2  1  1  0  0  0  0
  3  2  2  0  0  0  0
  4  3  1  0  0  0  0
  5  4  2  0  0  0  0
  6  5  1  0  0  0  0
  7  6  3  0  0  0  0
  8  7  1  0  0  0  0
  9  8  1  0  0  0  0
 10  9  1  0  0  0  0
 11 10  2  0  0  0  0
 12 10  1  0  0  0  0
 13 12  2  0  0  0  0
 14 13  1  0  0  0  0
 15 14  2  0  0  0  0
 16 15  1  0  0  0  0
 17 16  2  0  0  0  0
 18 17  1  0  0  0  0
 19 18  2  0  0  0  0
 19 14  1  0  0  0  0
 20 19  1  0  0  0  0
 21 20  1  0  0  0  0
 22 21  2  0  0  0  0
 23 22  1  0  0  0  0
 24 23  2  0  0  0  0
 25 24  1  0  0  0  0
 26 25  2  0  0  0  0
 27 26  1  0  0  0  0
 27 21  1  0  0  0  0
 28 26  1  0  0  0  0
 28  9  1  0  0  0  0
 29 28  1  0  0  0  0
 29 12  1  0  0  0  0
 29 20  1  0  0  0  0
 30 15  1  0  0  0  0
 31 30  2  0  0  0  0
 32 31  1  0  0  0  0
 33 32  2  0  0  0  0
 34 33  1  0  0  0  0
 35 34  2  0  0  0  0
 35 30  1  0  0  0  0
 36 35  1  0  0  0  0
 36 13  1  0  0  0  0
 37 36  1  0  0  0  0
 38  5  1  0  0  0  0
 39 38  2  0  0  0  0
 39  2  1  0  0  0  0
  1 40  1  0  0  0  0
  1 41  1  0  0  0  0
  1 42  1  0  0  0  0
  3 43  1  0  0  0  0
  4 44  1  0  0  0  0
  8 45  1  0  0  0  0
  8 46  1  0  0  0  0
 16 47  1  0  0  0  0
 17 48  1  0  0  0  0
 18 49  1  0  0  0  0
 20 50  1  0  0  0  0
 22 51  1  0  0  0  0
 23 52  1  0  0  0  0
 24 53  1  0  0  0  0
 25 54  1  0  0  0  0
 27 55  1  0  0  0  0
 31 56  1  0  0  0  0
 32 57  1  0  0  0  0
 33 58  1  0  0  0  0
 34 59  1  0  0  0  0
 37 60  1  0  0  0  0
 37 61  1  0  0  0  0
 37 62  1  0  0  0  0
 38 63  1  0  0  0  0
 39 64  1  0  0  0  0
M  END
>  <energy>
251.27157725679538

$$$$
