CCC1C2C(C(C)(C)CC)OC3(C4=CNN=C3CC=C4)C3OC123
                    3D

 49 53  0  0  0  0  0  0  0  0999 V2000
    4.3297   -1.3146    0.4473 C   0  0  0  0  0  0  0  0  0  0  0  0
    2.8676   -1.7189    0.3548 C   0  0  0  0  0  0  0  0  0  0  0  0
    2.2870   -1.2942   -0.9547 C   0  0  0  0  0  0  0  0  0  0  0  0
    0.7552   -1.0832   -1.1232 C   0  0  0  0  0  0  0  0  0  0  0  0
   -0.2751   -0.7370   -0.0845 C   0  0  0  0  0  0  0  0  0  0  0  0
   -1.4435   -1.7728    0.0142 C   0  0  0  0  0  0  0  0  0  0  0  0
   -2.2182   -1.4653    1.3174 C   0  0  0  0  0  0  0  0  0  0  0  0
   -0.8581   -3.1948    0.1340 C   0  0  0  0  0  0  0  0  0  0  0  0
   -2.4101   -1.6658   -1.2018 C   0  0  0  0  0  0  0  0  0  0  0  0
   -3.5518   -2.6799   -1.2432 C   0  0  0  0  0  0  0  0  0  0  0  0
   -0.7820    0.5586   -0.4424 O   0  0  0  0  0  0  0  0  0  0  0  0
    0.1189    1.6679   -0.2046 C   0  0  0  0  0  0  0  0  0  0  0  0
   -0.5168    2.9736   -0.7291 C   0  0  0  0  0  0  0  0  0  0  0  0
   -1.7951    3.1679   -0.2970 C   0  0  0  0  0  0  0  0  0  0  0  0
   -2.1601    2.4982    0.8989 N   0  0  0  0  0  0  0  0  0  0  0  0
   -1.1304    2.3478    1.8510 N   0  0  0  0  0  0  0  0  0  0  0  0
    0.0309    2.2122    1.2443 C   0  0  0  0  0  0  0  0  0  0  0  0
    1.1412    3.1858    1.6356 C   0  0  0  0  0  0  0  0  0  0  0  0
    1.1492    4.2380    0.5017 C   0  0  0  0  0  0  0  0  0  0  0  0
    0.3886    4.1350   -0.6206 C   0  0  0  0  0  0  0  0  0  0  0  0
    1.5292    1.3558   -0.7045 C   0  0  0  0  0  0  0  0  0  0  0  0
    1.6885    0.9456   -2.1527 O   0  0  0  0  0  0  0  0  0  0  0  0
    1.7260    0.0100   -1.1339 C   0  0  0  0  0  0  0  0  0  0  0  0
    4.8858   -1.6332   -0.4420 H   0  0  0  0  0  0  0  0  0  0  0  0
    4.7981   -1.7651    1.3257 H   0  0  0  0  0  0  0  0  0  0  0  0
    4.4252   -0.2265    0.5263 H   0  0  0  0  0  0  0  0  0  0  0  0
    2.7798   -2.8074    0.4382 H   0  0  0  0  0  0  0  0  0  0  0  0
    2.3256   -1.2914    1.2054 H   0  0  0  0  0  0  0  0  0  0  0  0
    2.8049   -1.7428   -1.7962 H   0  0  0  0  0  0  0  0  0  0  0  0
    0.3224   -1.3574   -2.0763 H   0  0  0  0  0  0  0  0  0  0  0  0
    0.1930   -0.6704    0.9064 H   0  0  0  0  0  0  0  0  0  0  0  0
   -1.5453   -1.4694    2.1833 H   0  0  0  0  0  0  0  0  0  0  0  0
   -2.9924   -2.2108    1.5163 H   0  0  0  0  0  0  0  0  0  0  0  0
   -2.6974   -0.4824    1.2788 H   0  0  0  0  0  0  0  0  0  0  0  0
   -1.6245   -3.9248    0.4157 H   0  0  0  0  0  0  0  0  0  0  0  0
   -0.4170   -3.5259   -0.8126 H   0  0  0  0  0  0  0  0  0  0  0  0
   -0.0766   -3.2326    0.9016 H   0  0  0  0  0  0  0  0  0  0  0  0
   -1.8442   -1.7762   -2.1333 H   0  0  0  0  0  0  0  0  0  0  0  0
   -2.8553   -0.6631   -1.2345 H   0  0  0  0  0  0  0  0  0  0  0  0
   -3.1828   -3.7089   -1.2525 H   0  0  0  0  0  0  0  0  0  0  0  0
   -4.2338   -2.5588   -0.3963 H   0  0  0  0  0  0  0  0  0  0  0  0
   -4.1388   -2.5381   -2.1588 H   0  0  0  0  0  0  0  0  0  0  0  0
   -2.3346    4.1022   -0.4165 H   0  0  0  0  0  0  0  0  0  0  0  0
   -3.0230    2.8690    1.3049 H   0  0  0  0  0  0  0  0  0  0  0  0
    2.1072    2.6797    1.7074 H   0  0  0  0  0  0  0  0  0  0  0  0
    0.9145    3.6605    2.5939 H   0  0  0  0  0  0  0  0  0  0  0  0
    1.8023    5.0954    0.6296 H   0  0  0  0  0  0  0  0  0  0  0  0
    0.3854    4.8819   -1.4093 H   0  0  0  0  0  0  0  0  0  0  0  0
    2.3508    1.9267   -0.3124 H   0  0  0  0  0  0  0  0  0  0  0  0
  2  1  1  0  0  0  0
  3  2  1  0  0  0  0
  4  3  1  0  0  0  0
  5  4  1  0  0  0  0
  6  5  1  0  0  0  0
  7  6  1  0  0  0  0
  8  6  1  0  0  0  0
  9  6  1  0  0  0  0
 10  9  1  0  0  0  0
 11  5  1  0  0  0  0
 12 11  1  0  0  0  0
 13 12  1  0  0  0  0
 14 13  2  0  0  0  0
 15 14  1  0  0  0  0
 16 15  1  0  0  0  0
 17 16  2  0  0  0  0
 17 12  1  0  0  0  0
 18 17  1  0  0  0  0
 19 18  1  0  0  0  0
 20 19  2  0  0  0  0
 20 13  1  0  0  0  0
 21 12  1  0  0  0  0
 22 21  1  0  0  0  0
 23 22  1  0  0  0  0
 23  3  1  0  0  0  0
 23  4  1  0  0  0  0
 23 21  1  0  0  0  0
  1 24  1  0  0  0  0
  1 25  1  0  0  0  0
  1 26  1  0  0  0  0
  2 27  1  0  0  0  0
  2 28  1  0  0  0  0
  3 29  1  0  0  0  0
  4 30  1  0  0  0  0
  5 31  1  0  0  0  0
  7 32  1  0  0  0  0
  7 33  1  0  0  0  0
  7 34  1  0  0  0  0
  8 35  1  0  0  0  0
  8 36  1  0  0  0  0
  8 37  1  0  0  0  0
  9 38  1  0  0  0  0
  9 39  1  0  0  0  0
 10 40  1  0  0  0  0
 10 41  1  0  0  0  0
 10 42  1  0  0  0  0
 14 43  1  0  0  0  0
 15 44  1  0  0  0  0
 18 45  1  0  0  0  0
 18 46  1  0  0  0  0
 19 47  1  0  0  0  0
 20 48  1  0  0  0  0
 21 49  1  0  0  0  0
M  END
>  <energy>
197.04772505108005

$$$$
