COCC12OCC(C)C34CCC56OC(CCN(C)C)C3C5C4C3(C(CNC(=O)CBr)NC13)C62
                    3D

 71 77  0  0  0  0  0  0  0  0999 V2000
    1.2783   -0.6156   -4.9358 C   0  0  0  0  0  0  0  0  0  0  0  0
    0.8667   -0.0702   -3.6898 O   0  0  0  0  0  0  0  0  0  0  0  0
    1.9709    0.4926   -2.9778 C   0  0  0  0  0  0  0  0  0  0  0  0
    1.4860    1.1014   -1.6585 C   0  0  0  0  0  0  0  0  0  0  0  0
    0.5087    2.1904   -1.9472 O   0  0  0  0  0  0  0  0  0  0  0  0
    0.5060    3.4853   -1.2835 C   0  0  0  0  0  0  0  0  0  0  0  0
   -0.4818    3.6153   -0.0556 C   0  0  0  0  0  0  0  0  0  0  0  0
   -0.0237    4.6496    0.9665 C   0  0  0  0  0  0  0  0  0  0  0  0
   -0.7130    2.2093    0.4936 C   0  0  0  0  0  0  0  0  0  0  0  0
   -1.7115    1.5997   -0.5296 C   0  0  0  0  0  0  0  0  0  0  0  0
   -1.3132    0.1877   -0.7920 C   0  0  0  0  0  0  0  0  0  0  0  0
   -0.2507   -0.2079    0.2208 C   0  0  0  0  0  0  0  0  0  0  0  0
   -0.8423   -1.2217    1.0026 O   0  0  0  0  0  0  0  0  0  0  0  0
   -1.6996   -0.3498    1.9309 C   0  0  0  0  0  0  0  0  0  0  0  0
   -3.1976   -0.5680    1.7130 C   0  0  0  0  0  0  0  0  0  0  0  0
   -3.5510   -2.0650    1.7492 C   0  0  0  0  0  0  0  0  0  0  0  0
   -4.3060   -2.4382    0.5435 N   0  0  0  0  0  0  0  0  0  0  0  0
   -3.8853   -3.7473    0.0454 C   0  0  0  0  0  0  0  0  0  0  0  0
   -5.7454   -2.4176    0.7810 C   0  0  0  0  0  0  0  0  0  0  0  0
   -1.2192    1.2135    1.8199 C   0  0  0  0  0  0  0  0  0  0  0  0
    0.0852    0.6055    1.4958 C   0  0  0  0  0  0  0  0  0  0  0  0
    0.7876    1.8242    1.0954 C   0  0  0  0  0  0  0  0  0  0  0  0
    1.8329    1.0008    0.3797 C   0  0  0  0  0  0  0  0  0  0  0  0
    3.1589    0.5967    1.0211 C   0  0  0  0  0  0  0  0  0  0  0  0
    3.4252   -0.6543    1.8670 C   0  0  0  0  0  0  0  0  0  0  0  0
    2.6202   -1.7894    1.4653 N   0  0  0  0  0  0  0  0  0  0  0  0
    3.0498   -2.9581    0.9031 C   0  0  0  0  0  0  0  0  0  0  0  0
    2.3914   -3.9788    1.1104 O   0  0  0  0  0  0  0  0  0  0  0  0
    4.3054   -2.9590    0.0606 C   0  0  0  0  0  0  0  0  0  0  0  0
    3.8414   -3.6470   -1.7015 Br  0  0  0  0  0  0  0  0  0  0  0  0
    3.7002    0.5443   -0.3866 N   0  0  0  0  0  0  0  0  0  0  0  0
    2.6561    1.5527   -0.7467 C   0  0  0  0  0  0  0  0  0  0  0  0
    1.1048   -0.0459   -0.4714 C   0  0  0  0  0  0  0  0  0  0  0  0
    1.6707    0.1728   -5.5853 H   0  0  0  0  0  0  0  0  0  0  0  0
    2.0366   -1.3899   -4.7844 H   0  0  0  0  0  0  0  0  0  0  0  0
    0.4092   -1.0661   -5.4212 H   0  0  0  0  0  0  0  0  0  0  0  0
    2.7067   -0.2980   -2.7928 H   0  0  0  0  0  0  0  0  0  0  0  0
    2.4403    1.2695   -3.5918 H   0  0  0  0  0  0  0  0  0  0  0  0
    0.1779    4.2077   -2.0401 H   0  0  0  0  0  0  0  0  0  0  0  0
    1.5132    3.8094   -1.0255 H   0  0  0  0  0  0  0  0  0  0  0  0
   -1.4312    4.0108   -0.4406 H   0  0  0  0  0  0  0  0  0  0  0  0
    1.0286    4.5384    1.2474 H   0  0  0  0  0  0  0  0  0  0  0  0
   -0.6274    4.5936    1.8760 H   0  0  0  0  0  0  0  0  0  0  0  0
   -0.1341    5.6619    0.5572 H   0  0  0  0  0  0  0  0  0  0  0  0
   -1.7870    2.1322   -1.4857 H   0  0  0  0  0  0  0  0  0  0  0  0
   -2.7319    1.6675   -0.1309 H   0  0  0  0  0  0  0  0  0  0  0  0
   -2.1841   -0.4743   -0.7869 H   0  0  0  0  0  0  0  0  0  0  0  0
   -0.9547    0.0739   -1.8210 H   0  0  0  0  0  0  0  0  0  0  0  0
   -1.4609   -0.7107    2.9438 H   0  0  0  0  0  0  0  0  0  0  0  0
   -3.7670   -0.0329    2.4818 H   0  0  0  0  0  0  0  0  0  0  0  0
   -3.5280   -0.1354    0.7665 H   0  0  0  0  0  0  0  0  0  0  0  0
   -4.1149   -2.2910    2.6632 H   0  0  0  0  0  0  0  0  0  0  0  0
   -2.6373   -2.6661    1.8307 H   0  0  0  0  0  0  0  0  0  0  0  0
   -2.8119   -3.7486   -0.1811 H   0  0  0  0  0  0  0  0  0  0  0  0
   -4.0888   -4.5458    0.7680 H   0  0  0  0  0  0  0  0  0  0  0  0
   -4.3980   -3.9866   -0.8931 H   0  0  0  0  0  0  0  0  0  0  0  0
   -6.0663   -1.4356    1.1458 H   0  0  0  0  0  0  0  0  0  0  0  0
   -6.0494   -3.1756    1.5123 H   0  0  0  0  0  0  0  0  0  0  0  0
   -6.2881   -2.6022   -0.1530 H   0  0  0  0  0  0  0  0  0  0  0  0
   -1.2776    1.7373    2.7800 H   0  0  0  0  0  0  0  0  0  0  0  0
    0.6002    0.0810    2.3196 H   0  0  0  0  0  0  0  0  0  0  0  0
    1.1524    2.4371    1.9258 H   0  0  0  0  0  0  0  0  0  0  0  0
    3.5994    1.4404    1.5808 H   0  0  0  0  0  0  0  0  0  0  0  0
    3.1437   -0.4435    2.9037 H   0  0  0  0  0  0  0  0  0  0  0  0
    4.4865   -0.9205    1.8782 H   0  0  0  0  0  0  0  0  0  0  0  0
    1.7212   -1.9178    1.9286 H   0  0  0  0  0  0  0  0  0  0  0  0
    5.0509   -3.6257    0.4983 H   0  0  0  0  0  0  0  0  0  0  0  0
    4.7311   -1.9710   -0.1010 H   0  0  0  0  0  0  0  0  0  0  0  0
    4.6552    0.8919   -0.4716 H   0  0  0  0  0  0  0  0  0  0  0  0
    3.0017    2.5842   -0.7065 H   0  0  0  0  0  0  0  0  0  0  0  0
    1.5779   -1.0076   -0.6837 H   0  0  0  0  0  0  0  0  0  0  0  0
  2  1  1  0  0  0  0
  3  2  1  0  0  0  0
  4  3  1  0  0  0  0
  5  4  1  0  0  0  0
  6  5  1  0  0  0  0
  7  6  1  0  0  0  0
  8  7  1  0  0  0  0
  9  7  1  0  0  0  0
 10  9  1  0  0  0  0
 11 10  1  0  0  0  0
 12 11  1  0  0  0  0
 13 12  1  0  0  0  0
 14 13  1  0  0  0  0
 15 14  1  0  0  0  0
 16 15  1  0  0  0  0
 17 16  1  0  0  0  0
 18 17  1  0  0  0  0
 19 17  1  0  0  0  0
 20 14  1  0  0  0  0
 20  9  1  0  0  0  0
 21 20  1  0  0  0  0
 21 12  1  0  0  0  0
 22 21  1  0  0  0  0
 22  9  1  0  0  0  0
 23 22  1  0  0  0  0
 24 23  1  0  0  0  0
 25 24  1  0  0  0  0
 26 25  1  0  0  0  0
 27 26  1  0  0  0  0
 28 27  2  0  0  0  0
 29 27  1  0  0  0  0
 30 29  1  0  0  0  0
 31 24  1  0  0  0  0
 32 31  1  0  0  0  0
 32  4  1  0  0  0  0
 32 23  1  0  0  0  0
 33 23  1  0  0  0  0
 33 12  1  0  0  0  0
 33  4  1  0  0  0  0
  1 34  1  0  0  0  0
  1 35  1  0  0  0  0
  1 36  1  0  0  0  0
  3 37  1  0  0  0  0
  3 38  1  0  0  0  0
  6 39  1  0  0  0  0
  6 40  1  0  0  0  0
  7 41  1  0  0  0  0
  8 42  1  0  0  0  0
  8 43  1  0  0  0  0
  8 44  1  0  0  0  0
 10 45  1  0  0  0  0
 10 46  1  0  0  0  0
 11 47  1  0  0  0  0
 11 48  1  0  0  0  0
 14 49  1  0  0  0  0
 15 50  1  0  0  0  0
 15 51  1  0  0  0  0
 16 52  1  0  0  0  0
 16 53  1  0  0  0  0
 18 54  1  0  0  0  0
 18 55  1  0  0  0  0
 18 56  1  0  0  0  0
 19 57  1  0  0  0  0
 19 58  1  0  0  0  0
 19 59  1  0  0  0  0
 20 60  1  0  0  0  0
 21 61  1  0  0  0  0
 22 62  1  0  0  0  0
 24 63  1  0  0  0  0
 25 64  1  0  0  0  0
 25 65  1  0  0  0  0
 26 66  1  0  0  0  0
 29 67  1  0  0  0  0
 29 68  1  0  0  0  0
 31 69  1  0  0  0  0
 32 70  1  0  0  0  0
 33 71  1  0  0  0  0
M  END
>  <energy>
314.79834318838084

$$$$
