COCC1(COC)C=CC(C(=O)OCCCCC(=O)OC2C(C)C(O)C(C)C34C5CC6C3CC4C5C2C6(C)C)C1O
                    3D

 91 96  0  0  0  0  0  0  0  0999 V2000
    1.9098    2.5948   -1.7488 C   0  0  0  0  0  0  0  0  0  0  0  0
    2.7159    1.5124   -1.2953 O   0  0  0  0  0  0  0  0  0  0  0  0
    3.4597    1.8429   -0.1117 C   0  0  0  0  0  0  0  0  0  0  0  0
    4.4483    0.6919    0.1784 C   0  0  0  0  0  0  0  0  0  0  0  0
    5.5244    0.6327   -0.9415 C   0  0  0  0  0  0  0  0  0  0  0  0
    6.2207    1.8848   -1.0263 O   0  0  0  0  0  0  0  0  0  0  0  0
    7.2138    1.8866   -2.0456 C   0  0  0  0  0  0  0  0  0  0  0  0
    5.1245    0.8593    1.5180 C   0  0  0  0  0  0  0  0  0  0  0  0
    5.0790   -0.2500    2.2571 C   0  0  0  0  0  0  0  0  0  0  0  0
    4.3279   -1.3775    1.5866 C   0  0  0  0  0  0  0  0  0  0  0  0
    3.3262   -1.9961    2.5743 C   0  0  0  0  0  0  0  0  0  0  0  0
    2.9556   -1.4326    3.6073 O   0  0  0  0  0  0  0  0  0  0  0  0
    2.9477   -3.2818    2.3556 O   0  0  0  0  0  0  0  0  0  0  0  0
    2.8615   -3.8626    1.0462 C   0  0  0  0  0  0  0  0  0  0  0  0
    1.5972   -4.7198    0.9674 C   0  0  0  0  0  0  0  0  0  0  0  0
    0.3338   -3.9706    1.4172 C   0  0  0  0  0  0  0  0  0  0  0  0
   -0.8212   -4.1107    0.4238 C   0  0  0  0  0  0  0  0  0  0  0  0
   -0.7233   -2.9998   -0.6017 C   0  0  0  0  0  0  0  0  0  0  0  0
    0.3148   -2.5820   -1.0875 O   0  0  0  0  0  0  0  0  0  0  0  0
   -1.9586   -2.4796   -0.8454 O   0  0  0  0  0  0  0  0  0  0  0  0
   -2.0145   -1.0370   -0.7108 C   0  0  0  0  0  0  0  0  0  0  0  0
   -2.3184   -0.3201   -2.2757 C   0  0  0  0  0  0  0  0  0  0  0  0
   -1.2649   -0.7967   -3.2884 C   0  0  0  0  0  0  0  0  0  0  0  0
   -2.7678    1.3563   -2.6480 C   0  0  0  0  0  0  0  0  0  0  0  0
   -1.7584    1.8401   -3.5638 O   0  0  0  0  0  0  0  0  0  0  0  0
   -3.0572    2.7098   -1.6173 C   0  0  0  0  0  0  0  0  0  0  0  0
   -4.0427    3.6924   -2.2511 C   0  0  0  0  0  0  0  0  0  0  0  0
   -3.5475    2.3942   -0.1864 C   0  0  0  0  0  0  0  0  0  0  0  0
   -2.5052    1.3392   -0.1158 C   0  0  0  0  0  0  0  0  0  0  0  0
   -1.6251    1.5648    1.1237 C   0  0  0  0  0  0  0  0  0  0  0  0
   -2.7028    1.3162    2.1115 C   0  0  0  0  0  0  0  0  0  0  0  0
   -3.6722    2.4208    1.4962 C   0  0  0  0  0  0  0  0  0  0  0  0
   -5.1349    2.0703    1.2881 C   0  0  0  0  0  0  0  0  0  0  0  0
   -4.7794    1.4874   -0.0696 C   0  0  0  0  0  0  0  0  0  0  0  0
   -3.8213    0.3400   -0.2330 C   0  0  0  0  0  0  0  0  0  0  0  0
   -3.1819   -0.7983    0.4281 C   0  0  0  0  0  0  0  0  0  0  0  0
   -2.9880   -0.2857    1.9471 C   0  0  0  0  0  0  0  0  0  0  0  0
   -1.8412   -1.0826    2.6183 C   0  0  0  0  0  0  0  0  0  0  0  0
   -4.2446   -0.6660    2.7666 C   0  0  0  0  0  0  0  0  0  0  0  0
    3.7288   -0.6913    0.3373 C   0  0  0  0  0  0  0  0  0  0  0  0
    2.3131   -0.5616    0.4653 O   0  0  0  0  0  0  0  0  0  0  0  0
    1.1208    2.8076   -1.0231 H   0  0  0  0  0  0  0  0  0  0  0  0
    1.4508    2.2991   -2.6968 H   0  0  0  0  0  0  0  0  0  0  0  0
    2.5227    3.4843   -1.9218 H   0  0  0  0  0  0  0  0  0  0  0  0
    2.7549    1.9767    0.7201 H   0  0  0  0  0  0  0  0  0  0  0  0
    3.9852    2.7955   -0.2542 H   0  0  0  0  0  0  0  0  0  0  0  0
    5.0535    0.4290   -1.9113 H   0  0  0  0  0  0  0  0  0  0  0  0
    6.2514   -0.1635   -0.7450 H   0  0  0  0  0  0  0  0  0  0  0  0
    7.9851    1.1374   -1.8336 H   0  0  0  0  0  0  0  0  0  0  0  0
    6.7631    1.7002   -3.0261 H   0  0  0  0  0  0  0  0  0  0  0  0
    7.6832    2.8761   -2.0627 H   0  0  0  0  0  0  0  0  0  0  0  0
    5.6318    1.7737    1.8068 H   0  0  0  0  0  0  0  0  0  0  0  0
    5.5157   -0.3395    3.2490 H   0  0  0  0  0  0  0  0  0  0  0  0
    5.0736   -2.1374    1.3206 H   0  0  0  0  0  0  0  0  0  0  0  0
    2.8246   -3.1128    0.2585 H   0  0  0  0  0  0  0  0  0  0  0  0
    3.7430   -4.4938    0.8909 H   0  0  0  0  0  0  0  0  0  0  0  0
    1.7212   -5.5968    1.6174 H   0  0  0  0  0  0  0  0  0  0  0  0
    1.4914   -5.0951   -0.0565 H   0  0  0  0  0  0  0  0  0  0  0  0
    0.5460   -2.9055    1.5767 H   0  0  0  0  0  0  0  0  0  0  0  0
    0.0227   -4.3793    2.3863 H   0  0  0  0  0  0  0  0  0  0  0  0
   -1.7636   -3.9932    0.9767 H   0  0  0  0  0  0  0  0  0  0  0  0
   -0.8472   -5.0839   -0.0750 H   0  0  0  0  0  0  0  0  0  0  0  0
   -1.0427   -0.6721   -0.3560 H   0  0  0  0  0  0  0  0  0  0  0  0
   -3.2143   -0.8734   -2.6074 H   0  0  0  0  0  0  0  0  0  0  0  0
   -0.2864   -0.3512   -3.0885 H   0  0  0  0  0  0  0  0  0  0  0  0
   -1.1628   -1.8870   -3.2783 H   0  0  0  0  0  0  0  0  0  0  0  0
   -1.5671   -0.5324   -4.3125 H   0  0  0  0  0  0  0  0  0  0  0  0
   -3.6800    1.2415   -3.2486 H   0  0  0  0  0  0  0  0  0  0  0  0
   -2.1678    2.5165   -4.1311 H   0  0  0  0  0  0  0  0  0  0  0  0
   -2.1045    3.2671   -1.5568 H   0  0  0  0  0  0  0  0  0  0  0  0
   -4.2196    4.5417   -1.5777 H   0  0  0  0  0  0  0  0  0  0  0  0
   -5.0095    3.2183   -2.4435 H   0  0  0  0  0  0  0  0  0  0  0  0
   -3.6655    4.0950   -3.1953 H   0  0  0  0  0  0  0  0  0  0  0  0
   -1.6605    1.3011   -0.8130 H   0  0  0  0  0  0  0  0  0  0  0  0
   -0.7674    0.8958    1.1779 H   0  0  0  0  0  0  0  0  0  0  0  0
   -1.2256    2.5832    1.1386 H   0  0  0  0  0  0  0  0  0  0  0  0
   -2.4254    1.5609    3.1414 H   0  0  0  0  0  0  0  0  0  0  0  0
   -3.5134    3.4044    1.9508 H   0  0  0  0  0  0  0  0  0  0  0  0
   -5.6141    1.4420    2.0304 H   0  0  0  0  0  0  0  0  0  0  0  0
   -5.7758    2.9583    1.2002 H   0  0  0  0  0  0  0  0  0  0  0  0
   -5.5570    1.5826   -0.8322 H   0  0  0  0  0  0  0  0  0  0  0  0
   -4.2184   -0.0526   -1.1715 H   0  0  0  0  0  0  0  0  0  0  0  0
   -3.8275   -1.6884    0.4526 H   0  0  0  0  0  0  0  0  0  0  0  0
   -2.0095   -2.1598    2.5221 H   0  0  0  0  0  0  0  0  0  0  0  0
   -0.8571   -0.8783    2.1969 H   0  0  0  0  0  0  0  0  0  0  0  0
   -1.7874   -0.8662    3.6920 H   0  0  0  0  0  0  0  0  0  0  0  0
   -4.2556   -0.1492    3.7307 H   0  0  0  0  0  0  0  0  0  0  0  0
   -4.2777   -1.7411    2.9751 H   0  0  0  0  0  0  0  0  0  0  0  0
   -5.1734   -0.4540    2.2413 H   0  0  0  0  0  0  0  0  0  0  0  0
    3.9072   -1.3177   -0.5437 H   0  0  0  0  0  0  0  0  0  0  0  0
    1.9974   -0.0983   -0.3409 H   0  0  0  0  0  0  0  0  0  0  0  0
  2  1  1  0  0  0  0
  3  2  1  0  0  0  0
  4  3  1  0  0  0  0
  5  4  1  0  0  0  0
  6  5  1  0  0  0  0
  7  6  1  0  0  0  0
  8  4  1  0  0  0  0
  9  8  2  0  0  0  0
 10  9  1  0  0  0  0
 11 10  1  0  0  0  0
 12 11  2  0  0  0  0
 13 11  1  0  0  0  0
 14 13  1  0  0  0  0
 15 14  1  0  0  0  0
 16 15  1  0  0  0  0
 17 16  1  0  0  0  0
 18 17  1  0  0  0  0
 19 18  2  0  0  0  0
 20 18  1  0  0  0  0
 21 20  1  0  0  0  0
 22 21  1  0  0  0  0
 23 22  1  0  0  0  0
 24 22  1  0  0  0  0
 25 24  1  0  0  0  0
 26 24  1  0  0  0  0
 27 26  1  0  0  0  0
 28 26  1  0  0  0  0
 29 28  1  0  0  0  0
 30 29  1  0  0  0  0
 31 30  1  0  0  0  0
 32 31  1  0  0  0  0
 32 28  1  0  0  0  0
 33 32  1  0  0  0  0
 34 33  1  0  0  0  0
 34 28  1  0  0  0  0
 35 34  1  0  0  0  0
 35 29  1  0  0  0  0
 36 35  1  0  0  0  0
 36 21  1  0  0  0  0
 37 36  1  0  0  0  0
 37 31  1  0  0  0  0
 38 37  1  0  0  0  0
 39 37  1  0  0  0  0
 40 10  1  0  0  0  0
 40  4  1  0  0  0  0
 41 40  1  0  0  0  0
  1 42  1  0  0  0  0
  1 43  1  0  0  0  0
  1 44  1  0  0  0  0
  3 45  1  0  0  0  0
  3 46  1  0  0  0  0
  5 47  1  0  0  0  0
  5 48  1  0  0  0  0
  7 49  1  0  0  0  0
  7 50  1  0  0  0  0
  7 51  1  0  0  0  0
  8 52  1  0  0  0  0
  9 53  1  0  0  0  0
 10 54  1  0  0  0  0
 14 55  1  0  0  0  0
 14 56  1  0  0  0  0
 15 57  1  0  0  0  0
 15 58  1  0  0  0  0
 16 59  1  0  0  0  0
 16 60  1  0  0  0  0
 17 61  1  0  0  0  0
 17 62  1  0  0  0  0
 21 63  1  0  0  0  0
 22 64  1  0  0  0  0
 23 65  1  0  0  0  0
 23 66  1  0  0  0  0
 23 67  1  0  0  0  0
 24 68  1  0  0  0  0
 25 69  1  0  0  0  0
 26 70  1  0  0  0  0
 27 71  1  0  0  0  0
 27 72  1  0  0  0  0
 27 73  1  0  0  0  0
 29 74  1  0  0  0  0
 30 75  1  0  0  0  0
 30 76  1  0  0  0  0
 31 77  1  0  0  0  0
 32 78  1  0  0  0  0
 33 79  1  0  0  0  0
 33 80  1  0  0  0  0
 34 81  1  0  0  0  0
 35 82  1  0  0  0  0
 36 83  1  0  0  0  0
 38 84  1  0  0  0  0
 38 85  1  0  0  0  0
 38 86  1  0  0  0  0
 39 87  1  0  0  0  0
 39 88  1  0  0  0  0
 39 89  1  0  0  0  0
 40 90  1  0  0  0  0
 41 91  1  0  0  0  0
M  END
>  <energy>
377.48098014578471

$$$$
