[C-]#CNCC12C(C(=O)NC=O)C3CC4C5C6CC7C(CC=C)C1C6C7C4C2C35
                    3D

 55 61  0  0  0  0  0  0  0  0999 V2000
    2.7509   -3.2793   -3.9973 C   0  5  0  0  0  0  0  0  0  0  0  0
    2.6559   -2.5424   -3.0540 C   0  0  0  0  0  0  0  0  0  0  0  0
    2.5453   -1.6829   -1.9814 N   0  0  0  0  0  0  0  0  0  0  0  0
    1.4852   -2.0002   -1.0290 C   0  0  0  0  0  0  0  0  0  0  0  0
    0.9647   -0.7538   -0.2616 C   0  0  0  0  0  0  0  0  0  0  0  0
    2.0561    0.1682    0.4555 C   0  0  0  0  0  0  0  0  0  0  0  0
    3.3523   -0.5686    0.7821 C   0  0  0  0  0  0  0  0  0  0  0  0
    4.2270   -0.7977   -0.0438 O   0  0  0  0  0  0  0  0  0  0  0  0
    3.4587   -0.9328    2.1068 N   0  0  0  0  0  0  0  0  0  0  0  0
    3.2528   -2.2428    2.4506 C   0  0  0  0  0  0  0  0  0  0  0  0
    3.2747   -3.2188    1.7192 O   0  0  0  0  0  0  0  0  0  0  0  0
    2.3332    1.5016   -0.5269 C   0  0  0  0  0  0  0  0  0  0  0  0
    1.7317    2.7973    0.0107 C   0  0  0  0  0  0  0  0  0  0  0  0
    0.2474    2.6999   -0.4028 C   0  0  0  0  0  0  0  0  0  0  0  0
    0.1267    2.3313   -1.8395 C   0  0  0  0  0  0  0  0  0  0  0  0
   -1.5005    1.5843   -1.8052 C   0  0  0  0  0  0  0  0  0  0  0  0
   -2.4306    2.3685   -0.3435 C   0  0  0  0  0  0  0  0  0  0  0  0
   -2.3283    1.1638    1.0334 C   0  0  0  0  0  0  0  0  0  0  0  0
   -1.4933   -0.2921    1.4145 C   0  0  0  0  0  0  0  0  0  0  0  0
   -2.4268   -1.3268    2.0835 C   0  0  0  0  0  0  0  0  0  0  0  0
   -3.5887   -1.8008    1.2591 C   0  0  0  0  0  0  0  0  0  0  0  0
   -4.8720   -1.6585    1.6150 C   0  0  0  0  0  0  0  0  0  0  0  0
   -0.7047   -0.9757    0.0400 C   0  0  0  0  0  0  0  0  0  0  0  0
   -1.5440   -0.2029   -1.2336 C   0  0  0  0  0  0  0  0  0  0  0  0
   -1.8439    0.7109   -0.2048 C   0  0  0  0  0  0  0  0  0  0  0  0
   -0.2498    1.3133   -0.0597 C   0  0  0  0  0  0  0  0  0  0  0  0
    0.6166    0.3383   -1.1668 C   0  0  0  0  0  0  0  0  0  0  0  0
    1.4269    1.3678   -1.7647 C   0  0  0  0  0  0  0  0  0  0  0  0
    3.4441   -1.5417   -1.4960 H   0  0  0  0  0  0  0  0  0  0  0  0
    1.8254   -2.7621   -0.3200 H   0  0  0  0  0  0  0  0  0  0  0  0
    0.6456   -2.4520   -1.5745 H   0  0  0  0  0  0  0  0  0  0  0  0
    1.6984    0.5185    1.4299 H   0  0  0  0  0  0  0  0  0  0  0  0
    3.0648   -0.2921    2.7811 H   0  0  0  0  0  0  0  0  0  0  0  0
    3.0458   -2.3402    3.5308 H   0  0  0  0  0  0  0  0  0  0  0  0
    3.3954    1.6113   -0.7659 H   0  0  0  0  0  0  0  0  0  0  0  0
    2.1961    3.6661   -0.4675 H   0  0  0  0  0  0  0  0  0  0  0  0
    1.8560    2.8895    1.0936 H   0  0  0  0  0  0  0  0  0  0  0  0
   -0.2878    3.5767   -0.0546 H   0  0  0  0  0  0  0  0  0  0  0  0
    0.2003    3.1780   -2.5235 H   0  0  0  0  0  0  0  0  0  0  0  0
   -2.0388    1.7247   -2.7483 H   0  0  0  0  0  0  0  0  0  0  0  0
   -2.1229    3.3757   -0.0640 H   0  0  0  0  0  0  0  0  0  0  0  0
   -3.4895    2.4427   -0.6584 H   0  0  0  0  0  0  0  0  0  0  0  0
   -3.3817    1.0070    1.2973 H   0  0  0  0  0  0  0  0  0  0  0  0
   -0.7300   -0.0753    2.1748 H   0  0  0  0  0  0  0  0  0  0  0  0
   -2.7845   -0.9092    3.0331 H   0  0  0  0  0  0  0  0  0  0  0  0
   -1.8263   -2.2076    2.3434 H   0  0  0  0  0  0  0  0  0  0  0  0
   -3.3659   -2.3257    0.3319 H   0  0  0  0  0  0  0  0  0  0  0  0
   -5.1656   -1.1618    2.5352 H   0  0  0  0  0  0  0  0  0  0  0  0
   -5.6687   -2.0391    0.9832 H   0  0  0  0  0  0  0  0  0  0  0  0
   -0.9185   -2.0523    0.0133 H   0  0  0  0  0  0  0  0  0  0  0  0
   -2.3735   -0.7866   -1.6551 H   0  0  0  0  0  0  0  0  0  0  0  0
   -2.8933    0.6201   -0.6564 H   0  0  0  0  0  0  0  0  0  0  0  0
    0.0465    1.2442    0.9873 H   0  0  0  0  0  0  0  0  0  0  0  0
    0.1995   -0.0917   -2.0951 H   0  0  0  0  0  0  0  0  0  0  0  0
    1.9057    1.1136   -2.7114 H   0  0  0  0  0  0  0  0  0  0  0  0
  2  1  3  0  0  0  0
  3  2  1  0  0  0  0
  4  3  1  0  0  0  0
  5  4  1  0  0  0  0
  6  5  1  0  0  0  0
  7  6  1  0  0  0  0
  8  7  2  0  0  0  0
  9  7  1  0  0  0  0
 10  9  1  0  0  0  0
 11 10  2  0  0  0  0
 12  6  1  0  0  0  0
 13 12  1  0  0  0  0
 14 13  1  0  0  0  0
 15 14  1  0  0  0  0
 16 15  1  0  0  0  0
 17 16  1  0  0  0  0
 18 17  1  0  0  0  0
 19 18  1  0  0  0  0
 20 19  1  0  0  0  0
 21 20  1  0  0  0  0
 22 21  2  0  0  0  0
 23 19  1  0  0  0  0
 23  5  1  0  0  0  0
 24 23  1  0  0  0  0
 24 16  1  0  0  0  0
 25 24  1  0  0  0  0
 25 18  1  0  0  0  0
 26 25  1  0  0  0  0
 26 14  1  0  0  0  0
 27 26  1  0  0  0  0
 27  5  1  0  0  0  0
 28 27  1  0  0  0  0
 28 12  1  0  0  0  0
 28 15  1  0  0  0  0
  3 29  1  0  0  0  0
  4 30  1  0  0  0  0
  4 31  1  0  0  0  0
  6 32  1  0  0  0  0
  9 33  1  0  0  0  0
 10 34  1  0  0  0  0
 12 35  1  0  0  0  0
 13 36  1  0  0  0  0
 13 37  1  0  0  0  0
 14 38  1  0  0  0  0
 15 39  1  0  0  0  0
 16 40  1  0  0  0  0
 17 41  1  0  0  0  0
 17 42  1  0  0  0  0
 18 43  1  0  0  0  0
 19 44  1  0  0  0  0
 20 45  1  0  0  0  0
 20 46  1  0  0  0  0
 21 47  1  0  0  0  0
 22 48  1  0  0  0  0
 22 49  1  0  0  0  0
 23 50  1  0  0  0  0
 24 51  1  0  0  0  0
 25 52  1  0  0  0  0
 26 53  1  0  0  0  0
 27 54  1  0  0  0  0
 28 55  1  0  0  0  0
M  CHG  1   1  -1
M  END
>  <energy>
674.18021826225117

$$$$
