CCCC1=[N+](C)c2[nH]c(c3c2cc(CC[N+]24CC[N+](CCO)(CC2)CC4)n[n+]3C)N1
                    3D

 67 71  0  0  0  0  0  0  0  0999 V2000
    2.6731    1.3947    1.5153 C   0  0  0  0  0  0  0  0  0  0  0  0
    3.7076    2.0460    0.6052 C   0  0  0  0  0  0  0  0  0  0  0  0
    4.9541    1.1816    0.3861 C   0  0  0  0  0  0  0  0  0  0  0  0
    4.6085   -0.1496   -0.1769 C   0  0  0  0  0  0  0  0  0  0  0  0
    4.2725   -0.3227   -1.4836 N   0  3  0  0  0  0  0  0  0  0  0  0
    4.3998    0.7066   -2.5428 C   0  0  0  0  0  0  0  0  0  0  0  0
    3.9518   -1.6602   -1.8430 C   0  0  0  0  0  0  0  0  0  0  0  0
    4.7402   -2.6700   -1.2251 N   0  0  0  0  0  0  0  0  0  0  0  0
    4.2664   -2.4714    0.1043 C   0  0  0  0  0  0  0  0  0  0  0  0
    2.9296   -2.7653   -0.1996 C   0  0  0  0  0  0  0  0  0  0  0  0
    2.6987   -2.1909   -1.4942 C   0  0  0  0  0  0  0  0  0  0  0  0
    1.4438   -1.8739   -2.0054 C   0  0  0  0  0  0  0  0  0  0  0  0
    0.4330   -2.2794   -1.0962 C   0  0  0  0  0  0  0  0  0  0  0  0
   -1.0399   -2.2085   -1.5310 C   0  0  0  0  0  0  0  0  0  0  0  0
   -1.6195   -0.8765   -2.0653 C   0  0  0  0  0  0  0  0  0  0  0  0
   -2.4547   -0.0311   -1.0678 N   0  3  0  0  0  0  0  0  0  0  0  0
   -2.9900    1.2512   -1.8422 C   0  0  0  0  0  0  0  0  0  0  0  0
   -3.7542    2.2057   -0.8811 C   0  0  0  0  0  0  0  0  0  0  0  0
   -3.9120    1.5582    0.5274 N   0  3  0  0  0  0  0  0  0  0  0  0
   -4.7411    2.5501    1.4147 C   0  0  0  0  0  0  0  0  0  0  0  0
   -4.8657    2.1657    2.9017 C   0  0  0  0  0  0  0  0  0  0  0  0
   -3.5823    2.0645    3.5112 O   0  0  0  0  0  0  0  0  0  0  0  0
   -4.6249    0.1940    0.3503 C   0  0  0  0  0  0  0  0  0  0  0  0
   -3.7489   -0.7698   -0.5295 C   0  0  0  0  0  0  0  0  0  0  0  0
   -2.5035    1.3040    1.1181 C   0  0  0  0  0  0  0  0  0  0  0  0
   -1.6244    0.4812    0.1324 C   0  0  0  0  0  0  0  0  0  0  0  0
    0.6250   -2.8528    0.1637 N   0  0  0  0  0  0  0  0  0  0  0  0
    1.8793   -3.0857    0.6407 N   0  3  0  0  0  0  0  0  0  0  0  0
    2.0455   -3.6765    1.9757 C   0  0  0  0  0  0  0  0  0  0  0  0
    4.5895   -1.2100    0.6721 N   0  0  0  0  0  0  0  0  0  0  0  0
    1.8737    2.1071    1.7459 H   0  0  0  0  0  0  0  0  0  0  0  0
    2.2122    0.5249    1.0359 H   0  0  0  0  0  0  0  0  0  0  0  0
    3.1242    1.0738    2.4589 H   0  0  0  0  0  0  0  0  0  0  0  0
    4.0171    3.0011    1.0471 H   0  0  0  0  0  0  0  0  0  0  0  0
    3.2344    2.2803   -0.3559 H   0  0  0  0  0  0  0  0  0  0  0  0
    5.4766    1.0577    1.3424 H   0  0  0  0  0  0  0  0  0  0  0  0
    5.6574    1.7051   -0.2673 H   0  0  0  0  0  0  0  0  0  0  0  0
    3.5157    1.3500   -2.5245 H   0  0  0  0  0  0  0  0  0  0  0  0
    4.4741    0.2232   -3.5227 H   0  0  0  0  0  0  0  0  0  0  0  0
    5.3065    1.2957   -2.3863 H   0  0  0  0  0  0  0  0  0  0  0  0
    4.8357   -3.5930   -1.6389 H   0  0  0  0  0  0  0  0  0  0  0  0
    1.2714   -1.4152   -2.9713 H   0  0  0  0  0  0  0  0  0  0  0  0
   -1.1239   -2.9420   -2.3452 H   0  0  0  0  0  0  0  0  0  0  0  0
   -1.6632   -2.6050   -0.7244 H   0  0  0  0  0  0  0  0  0  0  0  0
   -0.8370   -0.2142   -2.4507 H   0  0  0  0  0  0  0  0  0  0  0  0
   -2.3094   -1.0972   -2.8879 H   0  0  0  0  0  0  0  0  0  0  0  0
   -3.6397    0.8842   -2.6435 H   0  0  0  0  0  0  0  0  0  0  0  0
   -2.1193    1.7510   -2.2791 H   0  0  0  0  0  0  0  0  0  0  0  0
   -4.7569    2.4295   -1.2598 H   0  0  0  0  0  0  0  0  0  0  0  0
   -3.2015    3.1426   -0.7493 H   0  0  0  0  0  0  0  0  0  0  0  0
   -5.7290    2.6349    0.9507 H   0  0  0  0  0  0  0  0  0  0  0  0
   -4.2224    3.5109    1.3327 H   0  0  0  0  0  0  0  0  0  0  0  0
   -5.4053    1.2245    3.0356 H   0  0  0  0  0  0  0  0  0  0  0  0
   -5.4165    2.9532    3.4240 H   0  0  0  0  0  0  0  0  0  0  0  0
   -3.7186    2.1843    4.4767 H   0  0  0  0  0  0  0  0  0  0  0  0
   -4.7812   -0.2347    1.3441 H   0  0  0  0  0  0  0  0  0  0  0  0
   -5.5948    0.3874   -0.1177 H   0  0  0  0  0  0  0  0  0  0  0  0
   -4.3015   -1.1309   -1.4011 H   0  0  0  0  0  0  0  0  0  0  0  0
   -3.4110   -1.6178    0.0699 H   0  0  0  0  0  0  0  0  0  0  0  0
   -2.0459    2.2708    1.3500 H   0  0  0  0  0  0  0  0  0  0  0  0
   -2.6245    0.7010    2.0206 H   0  0  0  0  0  0  0  0  0  0  0  0
   -0.8108    1.0892   -0.2760 H   0  0  0  0  0  0  0  0  0  0  0  0
   -1.1964   -0.3892    0.6381 H   0  0  0  0  0  0  0  0  0  0  0  0
    1.0856   -4.0944    2.2896 H   0  0  0  0  0  0  0  0  0  0  0  0
    2.7953   -4.4673    1.9151 H   0  0  0  0  0  0  0  0  0  0  0  0
    2.3580   -2.8819    2.6550 H   0  0  0  0  0  0  0  0  0  0  0  0
    4.9139   -1.1090    1.6341 H   0  0  0  0  0  0  0  0  0  0  0  0
  2  1  1  0  0  0  0
  3  2  1  0  0  0  0
  4  3  1  0  0  0  0
  5  4  2  0  0  0  0
  6  5  1  0  0  0  0
  7  5  1  0  0  0  0
  8  7  1  0  0  0  0
  9  8  1  0  0  0  0
 10  9  2  0  0  0  0
 11 10  1  0  0  0  0
 11  7  2  0  0  0  0
 12 11  1  0  0  0  0
 13 12  2  0  0  0  0
 14 13  1  0  0  0  0
 15 14  1  0  0  0  0
 16 15  1  0  0  0  0
 17 16  1  0  0  0  0
 18 17  1  0  0  0  0
 19 18  1  0  0  0  0
 20 19  1  0  0  0  0
 21 20  1  0  0  0  0
 22 21  1  0  0  0  0
 23 19  1  0  0  0  0
 24 23  1  0  0  0  0
 24 16  1  0  0  0  0
 25 19  1  0  0  0  0
 26 25  1  0  0  0  0
 26 16  1  0  0  0  0
 27 13  1  0  0  0  0
 28 27  2  0  0  0  0
 28 10  1  0  0  0  0
 29 28  1  0  0  0  0
 30  9  1  0  0  0  0
 30  4  1  0  0  0  0
  1 31  1  0  0  0  0
  1 32  1  0  0  0  0
  1 33  1  0  0  0  0
  2 34  1  0  0  0  0
  2 35  1  0  0  0  0
  3 36  1  0  0  0  0
  3 37  1  0  0  0  0
  6 38  1  0  0  0  0
  6 39  1  0  0  0  0
  6 40  1  0  0  0  0
  8 41  1  0  0  0  0
 12 42  1  0  0  0  0
 14 43  1  0  0  0  0
 14 44  1  0  0  0  0
 15 45  1  0  0  0  0
 15 46  1  0  0  0  0
 17 47  1  0  0  0  0
 17 48  1  0  0  0  0
 18 49  1  0  0  0  0
 18 50  1  0  0  0  0
 20 51  1  0  0  0  0
 20 52  1  0  0  0  0
 21 53  1  0  0  0  0
 21 54  1  0  0  0  0
 22 55  1  0  0  0  0
 23 56  1  0  0  0  0
 23 57  1  0  0  0  0
 24 58  1  0  0  0  0
 24 59  1  0  0  0  0
 25 60  1  0  0  0  0
 25 61  1  0  0  0  0
 26 62  1  0  0  0  0
 26 63  1  0  0  0  0
 29 64  1  0  0  0  0
 29 65  1  0  0  0  0
 29 66  1  0  0  0  0
 30 67  1  0  0  0  0
M  CHG  4   5   1  16   1  19   1  28   1
M  END
>  <energy>
744.10900680175359

$$$$
