CCCN(CC)C(=O)n1c(C)nsc1=NC(=O)C12CCC3(O)CC(C1)C32
                    3D

 52 55  0  0  0  0  0  0  0  0999 V2000
   -3.5987    2.3046   -0.1698 C   0  0  0  0  0  0  0  0  0  0  0  0
   -3.3759    1.0386    0.6499 C   0  0  0  0  0  0  0  0  0  0  0  0
   -2.0785    0.2990    0.3060 C   0  0  0  0  0  0  0  0  0  0  0  0
   -2.2520   -0.7962   -0.6594 N   0  0  0  0  0  0  0  0  0  0  0  0
   -2.6532   -0.4646   -2.0262 C   0  0  0  0  0  0  0  0  0  0  0  0
   -4.1322   -0.6783   -2.2978 C   0  0  0  0  0  0  0  0  0  0  0  0
   -1.9852   -2.1386   -0.3771 C   0  0  0  0  0  0  0  0  0  0  0  0
   -2.4045   -3.0548   -1.0907 O   0  0  0  0  0  0  0  0  0  0  0  0
   -1.1066   -2.3960    0.6578 N   0  0  0  0  0  0  0  0  0  0  0  0
   -1.3512   -3.2641    1.6840 C   0  0  0  0  0  0  0  0  0  0  0  0
   -2.7396   -3.7774    1.9351 C   0  0  0  0  0  0  0  0  0  0  0  0
   -0.3722   -3.6206    2.4582 N   0  0  0  0  0  0  0  0  0  0  0  0
    1.0356   -2.8929    1.8904 S   0  0  0  0  0  0  0  0  0  0  0  0
    0.2246   -2.0897    0.5601 C   0  0  0  0  0  0  0  0  0  0  0  0
    0.7260   -1.3257   -0.3496 N   0  0  0  0  0  0  0  0  0  0  0  0
    2.0834   -1.1506   -0.3792 C   0  0  0  0  0  0  0  0  0  0  0  0
    2.8587   -2.0465   -0.6927 O   0  0  0  0  0  0  0  0  0  0  0  0
    2.5160    0.3073   -0.0135 C   0  0  0  0  0  0  0  0  0  0  0  0
    2.9988    0.4470    1.4413 C   0  0  0  0  0  0  0  0  0  0  0  0
    4.4682    0.8434    1.3511 C   0  0  0  0  0  0  0  0  0  0  0  0
    4.6034    1.6347    0.0573 C   0  0  0  0  0  0  0  0  0  0  0  0
    5.9821    1.7245   -0.3346 O   0  0  0  0  0  0  0  0  0  0  0  0
    3.7593    2.9278   -0.1057 C   0  0  0  0  0  0  0  0  0  0  0  0
    2.8357    2.1970   -1.0905 C   0  0  0  0  0  0  0  0  0  0  0  0
    1.6184    1.4970   -0.4807 C   0  0  0  0  0  0  0  0  0  0  0  0
    3.6436    0.9206   -0.8966 C   0  0  0  0  0  0  0  0  0  0  0  0
   -3.7681    2.0910   -1.2271 H   0  0  0  0  0  0  0  0  0  0  0  0
   -4.4797    2.8386    0.2033 H   0  0  0  0  0  0  0  0  0  0  0  0
   -2.7412    2.9800   -0.0890 H   0  0  0  0  0  0  0  0  0  0  0  0
   -4.2431    0.3745    0.5619 H   0  0  0  0  0  0  0  0  0  0  0  0
   -3.3265    1.3504    1.7011 H   0  0  0  0  0  0  0  0  0  0  0  0
   -1.3122    0.9802   -0.0786 H   0  0  0  0  0  0  0  0  0  0  0  0
   -1.6982   -0.1129    1.2451 H   0  0  0  0  0  0  0  0  0  0  0  0
   -2.3638    0.5686   -2.2400 H   0  0  0  0  0  0  0  0  0  0  0  0
   -2.0765   -1.0941   -2.7155 H   0  0  0  0  0  0  0  0  0  0  0  0
   -4.7594   -0.0649   -1.6472 H   0  0  0  0  0  0  0  0  0  0  0  0
   -4.3623   -0.4177   -3.3352 H   0  0  0  0  0  0  0  0  0  0  0  0
   -4.4222   -1.7207   -2.1407 H   0  0  0  0  0  0  0  0  0  0  0  0
   -2.9157   -4.6783    1.3435 H   0  0  0  0  0  0  0  0  0  0  0  0
   -3.4909   -3.0250    1.6885 H   0  0  0  0  0  0  0  0  0  0  0  0
   -2.8414   -4.0334    2.9931 H   0  0  0  0  0  0  0  0  0  0  0  0
    2.8934   -0.4770    2.0174 H   0  0  0  0  0  0  0  0  0  0  0  0
    2.4316    1.2192    1.9724 H   0  0  0  0  0  0  0  0  0  0  0  0
    5.0836   -0.0668    1.3040 H   0  0  0  0  0  0  0  0  0  0  0  0
    4.7853    1.4177    2.2286 H   0  0  0  0  0  0  0  0  0  0  0  0
    5.9762    2.0941   -1.2347 H   0  0  0  0  0  0  0  0  0  0  0  0
    3.2845    3.3073    0.8039 H   0  0  0  0  0  0  0  0  0  0  0  0
    4.3147    3.7539   -0.5640 H   0  0  0  0  0  0  0  0  0  0  0  0
    2.7519    2.5927   -2.1022 H   0  0  0  0  0  0  0  0  0  0  0  0
    1.0973    2.0513    0.3069 H   0  0  0  0  0  0  0  0  0  0  0  0
    0.8730    1.2218   -1.2366 H   0  0  0  0  0  0  0  0  0  0  0  0
    4.0056    0.4039   -1.7859 H   0  0  0  0  0  0  0  0  0  0  0  0
  2  1  1  0  0  0  0
  3  2  1  0  0  0  0
  4  3  1  0  0  0  0
  5  4  1  0  0  0  0
  6  5  1  0  0  0  0
  7  4  1  0  0  0  0
  8  7  2  0  0  0  0
  9  7  1  0  0  0  0
 10  9  1  0  0  0  0
 11 10  1  0  0  0  0
 12 10  2  0  0  0  0
 13 12  1  0  0  0  0
 14 13  1  0  0  0  0
 14  9  1  0  0  0  0
 15 14  2  0  0  0  0
 16 15  1  0  0  0  0
 17 16  2  0  0  0  0
 18 16  1  0  0  0  0
 19 18  1  0  0  0  0
 20 19  1  0  0  0  0
 21 20  1  0  0  0  0
 22 21  1  0  0  0  0
 23 21  1  0  0  0  0
 24 23  1  0  0  0  0
 25 24  1  0  0  0  0
 25 18  1  0  0  0  0
 26 24  1  0  0  0  0
 26 21  1  0  0  0  0
 26 18  1  0  0  0  0
  1 27  1  0  0  0  0
  1 28  1  0  0  0  0
  1 29  1  0  0  0  0
  2 30  1  0  0  0  0
  2 31  1  0  0  0  0
  3 32  1  0  0  0  0
  3 33  1  0  0  0  0
  5 34  1  0  0  0  0
  5 35  1  0  0  0  0
  6 36  1  0  0  0  0
  6 37  1  0  0  0  0
  6 38  1  0  0  0  0
 11 39  1  0  0  0  0
 11 40  1  0  0  0  0
 11 41  1  0  0  0  0
 19 42  1  0  0  0  0
 19 43  1  0  0  0  0
 20 44  1  0  0  0  0
 20 45  1  0  0  0  0
 22 46  1  0  0  0  0
 23 47  1  0  0  0  0
 23 48  1  0  0  0  0
 24 49  1  0  0  0  0
 25 50  1  0  0  0  0
 25 51  1  0  0  0  0
 26 52  1  0  0  0  0
M  END
>  <energy>
-31.447227834537102

$$$$
