CC(=NO)OCC12CCC3CC(C1)C32
                    3D

 31 33  0  0  0  0  0  0  0  0999 V2000
   -3.5749    1.6255    0.3992 C   0  0  0  0  0  0  0  0  0  0  0  0
   -2.7758    0.5293    1.0332 C   0  0  0  0  0  0  0  0  0  0  0  0
   -3.2365   -0.4003    1.8100 N   0  0  0  0  0  0  0  0  0  0  0  0
   -4.6162   -0.2472    2.0078 O   0  0  0  0  0  0  0  0  0  0  0  0
   -1.4676    0.5992    0.6705 O   0  0  0  0  0  0  0  0  0  0  0  0
   -0.6241   -0.5046    1.0499 C   0  0  0  0  0  0  0  0  0  0  0  0
    0.7130   -0.3933    0.3238 C   0  0  0  0  0  0  0  0  0  0  0  0
    1.5734   -1.6540    0.4428 C   0  0  0  0  0  0  0  0  0  0  0  0
    2.5921   -1.5996   -0.6929 C   0  0  0  0  0  0  0  0  0  0  0  0
    1.9782   -0.7179   -1.7747 C   0  0  0  0  0  0  0  0  0  0  0  0
    2.5140    0.7323   -1.8637 C   0  0  0  0  0  0  0  0  0  0  0  0
    1.3286    1.2177   -1.0183 C   0  0  0  0  0  0  0  0  0  0  0  0
    1.4666    0.9641    0.4922 C   0  0  0  0  0  0  0  0  0  0  0  0
    0.6727   -0.1483   -1.1922 C   0  0  0  0  0  0  0  0  0  0  0  0
   -4.0880    2.2079    1.1672 H   0  0  0  0  0  0  0  0  0  0  0  0
   -2.9266    2.2969   -0.1687 H   0  0  0  0  0  0  0  0  0  0  0  0
   -4.3057    1.1851   -0.2847 H   0  0  0  0  0  0  0  0  0  0  0  0
   -4.8337   -1.0073    2.5799 H   0  0  0  0  0  0  0  0  0  0  0  0
   -0.4711   -0.4761    2.1350 H   0  0  0  0  0  0  0  0  0  0  0  0
   -1.1215   -1.4428    0.7740 H   0  0  0  0  0  0  0  0  0  0  0  0
    2.0632   -1.7316    1.4181 H   0  0  0  0  0  0  0  0  0  0  0  0
    0.9476   -2.5458    0.3127 H   0  0  0  0  0  0  0  0  0  0  0  0
    3.5417   -1.1881   -0.3345 H   0  0  0  0  0  0  0  0  0  0  0  0
    2.7953   -2.6070   -1.0675 H   0  0  0  0  0  0  0  0  0  0  0  0
    1.8763   -1.2103   -2.7463 H   0  0  0  0  0  0  0  0  0  0  0  0
    2.5036    1.1349   -2.8853 H   0  0  0  0  0  0  0  0  0  0  0  0
    3.5094    0.9143   -1.4487 H   0  0  0  0  0  0  0  0  0  0  0  0
    0.7700    2.0942   -1.3468 H   0  0  0  0  0  0  0  0  0  0  0  0
    0.9531    1.7097    1.1084 H   0  0  0  0  0  0  0  0  0  0  0  0
    2.4932    0.8820    0.8661 H   0  0  0  0  0  0  0  0  0  0  0  0
   -0.2503   -0.2190   -1.7667 H   0  0  0  0  0  0  0  0  0  0  0  0
  2  1  1  0  0  0  0
  3  2  2  0  0  0  0
  4  3  1  0  0  0  0
  5  2  1  0  0  0  0
  6  5  1  0  0  0  0
  7  6  1  0  0  0  0
  8  7  1  0  0  0  0
  9  8  1  0  0  0  0
 10  9  1  0  0  0  0
 11 10  1  0  0  0  0
 12 11  1  0  0  0  0
 13 12  1  0  0  0  0
 13  7  1  0  0  0  0
 14 12  1  0  0  0  0
 14 10  1  0  0  0  0
 14  7  1  0  0  0  0
  1 15  1  0  0  0  0
  1 16  1  0  0  0  0
  1 17  1  0  0  0  0
  4 18  1  0  0  0  0
  6 19  1  0  0  0  0
  6 20  1  0  0  0  0
  8 21  1  0  0  0  0
  8 22  1  0  0  0  0
  9 23  1  0  0  0  0
  9 24  1  0  0  0  0
 10 25  1  0  0  0  0
 11 26  1  0  0  0  0
 11 27  1  0  0  0  0
 12 28  1  0  0  0  0
 13 29  1  0  0  0  0
 13 30  1  0  0  0  0
 14 31  1  0  0  0  0
M  END
>  <energy>
50.328311127431292

$$$$
