C=CC=CC(C)CCC(C)C1(O)CCC23C4OC2N2C(=O)CCC5CC6(CCC5C2CC4O6)CC13C
                    3D

 81 87  0  0  0  0  0  0  0  0999 V2000
    2.6791   -3.7419   -1.5558 C   0  0  0  0  0  0  0  0  0  0  0  0
    3.9023   -4.2281   -1.3184 C   0  0  0  0  0  0  0  0  0  0  0  0
    5.0829   -3.4258   -1.1026 C   0  0  0  0  0  0  0  0  0  0  0  0
    5.2627   -2.4174   -0.2329 C   0  0  0  0  0  0  0  0  0  0  0  0
    4.2955   -1.8490    0.7918 C   0  0  0  0  0  0  0  0  0  0  0  0
    4.9145   -2.0153    2.1828 C   0  0  0  0  0  0  0  0  0  0  0  0
    3.9886   -0.3691    0.4636 C   0  0  0  0  0  0  0  0  0  0  0  0
    2.9405    0.2907    1.3818 C   0  0  0  0  0  0  0  0  0  0  0  0
    2.4846    1.6888    0.8598 C   0  0  0  0  0  0  0  0  0  0  0  0
    2.9128    2.7244    1.9326 C   0  0  0  0  0  0  0  0  0  0  0  0
    0.9553    1.8733    0.4892 C   0  0  0  0  0  0  0  0  0  0  0  0
    0.1744    1.6368    1.6647 O   0  0  0  0  0  0  0  0  0  0  0  0
    0.7062    3.3441    0.0455 C   0  0  0  0  0  0  0  0  0  0  0  0
   -0.3294    3.3456   -1.0730 C   0  0  0  0  0  0  0  0  0  0  0  0
   -0.9876    1.9210   -1.0457 C   0  0  0  0  0  0  0  0  0  0  0  0
   -1.7305    1.6010   -2.3705 C   0  0  0  0  0  0  0  0  0  0  0  0
   -2.7624    2.5873   -2.0470 O   0  0  0  0  0  0  0  0  0  0  0  0
   -2.5404    2.2734   -0.6312 C   0  0  0  0  0  0  0  0  0  0  0  0
   -3.5544    1.3149   -0.0625 N   0  0  0  0  0  0  0  0  0  0  0  0
   -4.3632    1.8494    0.9458 C   0  0  0  0  0  0  0  0  0  0  0  0
   -5.1325    2.7899    0.7887 O   0  0  0  0  0  0  0  0  0  0  0  0
   -4.0510    1.2723    2.3020 C   0  0  0  0  0  0  0  0  0  0  0  0
   -4.0894   -0.2455    2.3637 C   0  0  0  0  0  0  0  0  0  0  0  0
   -3.3008   -1.0393    1.3095 C   0  0  0  0  0  0  0  0  0  0  0  0
   -1.9034   -0.5146    0.9526 C   0  0  0  0  0  0  0  0  0  0  0  0
   -1.3208   -0.9726   -0.4484 C   0  0  0  0  0  0  0  0  0  0  0  0
   -1.7040   -2.4540   -0.4522 C   0  0  0  0  0  0  0  0  0  0  0  0
   -3.2623   -2.4643   -0.6842 C   0  0  0  0  0  0  0  0  0  0  0  0
   -4.0158   -1.2392   -0.0189 C   0  0  0  0  0  0  0  0  0  0  0  0
   -4.1537    0.1595   -0.7840 C   0  0  0  0  0  0  0  0  0  0  0  0
   -3.8233    0.1243   -2.2603 C   0  0  0  0  0  0  0  0  0  0  0  0
   -2.3355    0.2137   -2.5172 C   0  0  0  0  0  0  0  0  0  0  0  0
   -1.6100   -0.7631   -1.8313 O   0  0  0  0  0  0  0  0  0  0  0  0
    0.1159   -0.5106   -0.3843 C   0  0  0  0  0  0  0  0  0  0  0  0
    0.3126    1.0266   -0.6866 C   0  0  0  0  0  0  0  0  0  0  0  0
    1.2678    1.0590   -1.9308 C   0  0  0  0  0  0  0  0  0  0  0  0
    2.4819   -2.6757   -1.5770 H   0  0  0  0  0  0  0  0  0  0  0  0
    1.8441   -4.4082   -1.7504 H   0  0  0  0  0  0  0  0  0  0  0  0
    4.0662   -5.3044   -1.3682 H   0  0  0  0  0  0  0  0  0  0  0  0
    5.9420   -3.7347   -1.7034 H   0  0  0  0  0  0  0  0  0  0  0  0
    6.2523   -1.9571   -0.2276 H   0  0  0  0  0  0  0  0  0  0  0  0
    3.3547   -2.4116    0.7817 H   0  0  0  0  0  0  0  0  0  0  0  0
    5.8226   -1.4119    2.2915 H   0  0  0  0  0  0  0  0  0  0  0  0
    5.1846   -3.0615    2.3667 H   0  0  0  0  0  0  0  0  0  0  0  0
    4.2119   -1.7188    2.9667 H   0  0  0  0  0  0  0  0  0  0  0  0
    3.6475   -0.3199   -0.5731 H   0  0  0  0  0  0  0  0  0  0  0  0
    4.9145    0.2200    0.5099 H   0  0  0  0  0  0  0  0  0  0  0  0
    3.3970    0.3964    2.3741 H   0  0  0  0  0  0  0  0  0  0  0  0
    2.1034   -0.3802    1.5481 H   0  0  0  0  0  0  0  0  0  0  0  0
    3.0709    1.9289   -0.0371 H   0  0  0  0  0  0  0  0  0  0  0  0
    3.9784    2.6237    2.1643 H   0  0  0  0  0  0  0  0  0  0  0  0
    2.7642    3.7535    1.5949 H   0  0  0  0  0  0  0  0  0  0  0  0
    2.3559    2.5917    2.8660 H   0  0  0  0  0  0  0  0  0  0  0  0
    0.2945    2.3839    2.2773 H   0  0  0  0  0  0  0  0  0  0  0  0
    1.6131    3.8206   -0.3466 H   0  0  0  0  0  0  0  0  0  0  0  0
    0.3452    3.9608    0.8772 H   0  0  0  0  0  0  0  0  0  0  0  0
   -1.0234    4.1838   -0.9475 H   0  0  0  0  0  0  0  0  0  0  0  0
    0.1555    3.5270   -2.0403 H   0  0  0  0  0  0  0  0  0  0  0  0
   -1.1842    1.9068   -3.2710 H   0  0  0  0  0  0  0  0  0  0  0  0
   -2.5928    3.1958   -0.0362 H   0  0  0  0  0  0  0  0  0  0  0  0
   -4.7812    1.6732    3.0150 H   0  0  0  0  0  0  0  0  0  0  0  0
   -3.0713    1.6500    2.6168 H   0  0  0  0  0  0  0  0  0  0  0  0
   -5.1369   -0.5742    2.3398 H   0  0  0  0  0  0  0  0  0  0  0  0
   -3.7120   -0.5333    3.3545 H   0  0  0  0  0  0  0  0  0  0  0  0
   -3.1833   -2.0336    1.7681 H   0  0  0  0  0  0  0  0  0  0  0  0
   -1.8117    0.5545    1.0933 H   0  0  0  0  0  0  0  0  0  0  0  0
   -1.2491   -0.9127    1.7453 H   0  0  0  0  0  0  0  0  0  0  0  0
   -1.4426   -2.9576    0.4864 H   0  0  0  0  0  0  0  0  0  0  0  0
   -1.2201   -3.0225   -1.2568 H   0  0  0  0  0  0  0  0  0  0  0  0
   -3.4910   -2.5382   -1.7513 H   0  0  0  0  0  0  0  0  0  0  0  0
   -3.6458   -3.3951   -0.2443 H   0  0  0  0  0  0  0  0  0  0  0  0
   -5.0407   -1.5933    0.1619 H   0  0  0  0  0  0  0  0  0  0  0  0
   -5.2375    0.3532   -0.7500 H   0  0  0  0  0  0  0  0  0  0  0  0
   -4.2295   -0.7920   -2.7025 H   0  0  0  0  0  0  0  0  0  0  0  0
   -4.3440    0.9387   -2.7794 H   0  0  0  0  0  0  0  0  0  0  0  0
   -2.2203   -0.0472   -3.5784 H   0  0  0  0  0  0  0  0  0  0  0  0
    0.5356   -0.7825    0.5797 H   0  0  0  0  0  0  0  0  0  0  0  0
    0.6960   -1.1052   -1.1024 H   0  0  0  0  0  0  0  0  0  0  0  0
    2.1392    0.4209   -1.7819 H   0  0  0  0  0  0  0  0  0  0  0  0
    0.7617    0.6897   -2.8285 H   0  0  0  0  0  0  0  0  0  0  0  0
    1.6594    2.0521   -2.1617 H   0  0  0  0  0  0  0  0  0  0  0  0
  2  1  2  0  0  0  0
  3  2  1  0  0  0  0
  4  3  2  0  0  0  0
  5  4  1  0  0  0  0
  6  5  1  0  0  0  0
  7  5  1  0  0  0  0
  8  7  1  0  0  0  0
  9  8  1  0  0  0  0
 10  9  1  0  0  0  0
 11  9  1  0  0  0  0
 12 11  1  0  0  0  0
 13 11  1  0  0  0  0
 14 13  1  0  0  0  0
 15 14  1  0  0  0  0
 16 15  1  0  0  0  0
 17 16  1  0  0  0  0
 18 17  1  0  0  0  0
 18 15  1  0  0  0  0
 19 18  1  0  0  0  0
 20 19  1  0  0  0  0
 21 20  2  0  0  0  0
 22 20  1  0  0  0  0
 23 22  1  0  0  0  0
 24 23  1  0  0  0  0
 25 24  1  0  0  0  0
 26 25  1  0  0  0  0
 27 26  1  0  0  0  0
 28 27  1  0  0  0  0
 29 28  1  0  0  0  0
 29 24  1  0  0  0  0
 30 29  1  0  0  0  0
 30 19  1  0  0  0  0
 31 30  1  0  0  0  0
 32 31  1  0  0  0  0
 32 16  1  0  0  0  0
 33 32  1  0  0  0  0
 33 26  1  0  0  0  0
 34 26  1  0  0  0  0
 35 34  1  0  0  0  0
 35 11  1  0  0  0  0
 35 15  1  0  0  0  0
 36 35  1  0  0  0  0
  1 37  1  0  0  0  0
  1 38  1  0  0  0  0
  2 39  1  0  0  0  0
  3 40  1  0  0  0  0
  4 41  1  0  0  0  0
  5 42  1  0  0  0  0
  6 43  1  0  0  0  0
  6 44  1  0  0  0  0
  6 45  1  0  0  0  0
  7 46  1  0  0  0  0
  7 47  1  0  0  0  0
  8 48  1  0  0  0  0
  8 49  1  0  0  0  0
  9 50  1  0  0  0  0
 10 51  1  0  0  0  0
 10 52  1  0  0  0  0
 10 53  1  0  0  0  0
 12 54  1  0  0  0  0
 13 55  1  0  0  0  0
 13 56  1  0  0  0  0
 14 57  1  0  0  0  0
 14 58  1  0  0  0  0
 16 59  1  0  0  0  0
 18 60  1  0  0  0  0
 22 61  1  0  0  0  0
 22 62  1  0  0  0  0
 23 63  1  0  0  0  0
 23 64  1  0  0  0  0
 24 65  1  0  0  0  0
 25 66  1  0  0  0  0
 25 67  1  0  0  0  0
 27 68  1  0  0  0  0
 27 69  1  0  0  0  0
 28 70  1  0  0  0  0
 28 71  1  0  0  0  0
 29 72  1  0  0  0  0
 30 73  1  0  0  0  0
 31 74  1  0  0  0  0
 31 75  1  0  0  0  0
 32 76  1  0  0  0  0
 34 77  1  0  0  0  0
 34 78  1  0  0  0  0
 36 79  1  0  0  0  0
 36 80  1  0  0  0  0
 36 81  1  0  0  0  0
M  END
>  <energy>
233.54314558468195

$$$$
