C=CCCCC1C(O)C23CCC2C(C(N)=O)C3[N+]1CCCN
                    3D

 51 53  0  0  0  0  0  0  0  0999 V2000
   -3.1750   -2.1760   -2.1240 C   0  0  0  0  0  0  0  0  0  0  0  0
   -3.6670   -1.2360   -1.3139 C   0  0  0  0  0  0  0  0  0  0  0  0
   -3.1337   -0.9406    0.0597 C   0  0  0  0  0  0  0  0  0  0  0  0
   -2.5774    0.4792    0.1325 C   0  0  0  0  0  0  0  0  0  0  0  0
   -2.1456    0.9102    1.5340 C   0  0  0  0  0  0  0  0  0  0  0  0
   -0.6894    0.6063    1.8944 C   0  0  0  0  0  0  0  0  0  0  0  0
   -0.4205   -0.8527    2.2953 C   0  0  0  0  0  0  0  0  0  0  0  0
   -0.0384   -0.8785    3.6683 O   0  0  0  0  0  0  0  0  0  0  0  0
    0.7611   -1.3028    1.4652 C   0  0  0  0  0  0  0  0  0  0  0  0
    1.8599   -2.2569    1.9624 C   0  0  0  0  0  0  0  0  0  0  0  0
    1.7884   -3.0321    0.6403 C   0  0  0  0  0  0  0  0  0  0  0  0
    0.6034   -2.1610    0.2030 C   0  0  0  0  0  0  0  0  0  0  0  0
    0.9818   -0.9611   -0.6831 C   0  0  0  0  0  0  0  0  0  0  0  0
    2.0651   -1.1675   -1.7685 C   0  0  0  0  0  0  0  0  0  0  0  0
    3.3225   -0.6883   -1.5192 N   0  0  0  0  0  0  0  0  0  0  0  0
    1.8694   -1.7485   -2.8382 O   0  0  0  0  0  0  0  0  0  0  0  0
    1.2467   -0.1360    0.5946 C   0  0  0  0  0  0  0  0  0  0  0  0
    0.2337    0.9131    0.7855 N   0  3  0  0  0  0  0  0  0  0  0  0
    0.5725    2.3198    0.4649 C   0  0  0  0  0  0  0  0  0  0  0  0
    0.6476    2.5371   -1.0427 C   0  0  0  0  0  0  0  0  0  0  0  0
    1.4673    3.7818   -1.3895 C   0  0  0  0  0  0  0  0  0  0  0  0
    1.5295    3.9760   -2.8341 N   0  0  0  0  0  0  0  0  0  0  0  0
   -3.6030   -2.3503   -3.1073 H   0  0  0  0  0  0  0  0  0  0  0  0
   -2.3410   -2.8115   -1.8385 H   0  0  0  0  0  0  0  0  0  0  0  0
   -4.5089   -0.6372   -1.6581 H   0  0  0  0  0  0  0  0  0  0  0  0
   -3.9461   -1.0665    0.7831 H   0  0  0  0  0  0  0  0  0  0  0  0
   -2.3600   -1.6603    0.3243 H   0  0  0  0  0  0  0  0  0  0  0  0
   -3.3682    1.1674   -0.1964 H   0  0  0  0  0  0  0  0  0  0  0  0
   -1.7531    0.6089   -0.5763 H   0  0  0  0  0  0  0  0  0  0  0  0
   -2.2554    2.0024    1.5797 H   0  0  0  0  0  0  0  0  0  0  0  0
   -2.8184    0.5020    2.2969 H   0  0  0  0  0  0  0  0  0  0  0  0
   -0.4171    1.2560    2.7393 H   0  0  0  0  0  0  0  0  0  0  0  0
   -1.2782   -1.5154    2.1859 H   0  0  0  0  0  0  0  0  0  0  0  0
   -0.8472   -0.7700    4.1970 H   0  0  0  0  0  0  0  0  0  0  0  0
    2.8280   -1.7971    2.1765 H   0  0  0  0  0  0  0  0  0  0  0  0
    1.5624   -2.8620    2.8253 H   0  0  0  0  0  0  0  0  0  0  0  0
    2.6978   -2.9684    0.0346 H   0  0  0  0  0  0  0  0  0  0  0  0
    1.5409   -4.0923    0.7511 H   0  0  0  0  0  0  0  0  0  0  0  0
   -0.3517   -2.6556    0.0392 H   0  0  0  0  0  0  0  0  0  0  0  0
    0.0827   -0.5776   -1.1888 H   0  0  0  0  0  0  0  0  0  0  0  0
    4.0190   -0.9387   -2.2126 H   0  0  0  0  0  0  0  0  0  0  0  0
    3.6467   -0.4667   -0.5892 H   0  0  0  0  0  0  0  0  0  0  0  0
    2.2558    0.2322    0.8049 H   0  0  0  0  0  0  0  0  0  0  0  0
    1.5305    2.5577    0.9418 H   0  0  0  0  0  0  0  0  0  0  0  0
   -0.1769    2.9997    0.8884 H   0  0  0  0  0  0  0  0  0  0  0  0
    1.0934    1.6603   -1.5244 H   0  0  0  0  0  0  0  0  0  0  0  0
   -0.3763    2.6253   -1.4353 H   0  0  0  0  0  0  0  0  0  0  0  0
    2.4923    3.6837   -1.0059 H   0  0  0  0  0  0  0  0  0  0  0  0
    1.0251    4.6767   -0.9291 H   0  0  0  0  0  0  0  0  0  0  0  0
    0.5850    4.0567   -3.2118 H   0  0  0  0  0  0  0  0  0  0  0  0
    1.9401    3.1552   -3.2818 H   0  0  0  0  0  0  0  0  0  0  0  0
  2  1  2  0  0  0  0
  3  2  1  0  0  0  0
  4  3  1  0  0  0  0
  5  4  1  0  0  0  0
  6  5  1  0  0  0  0
  7  6  1  0  0  0  0
  8  7  1  0  0  0  0
  9  7  1  0  0  0  0
 10  9  1  0  0  0  0
 11 10  1  0  0  0  0
 12 11  1  0  0  0  0
 12  9  1  0  0  0  0
 13 12  1  0  0  0  0
 14 13  1  0  0  0  0
 15 14  1  0  0  0  0
 16 14  2  0  0  0  0
 17 13  1  0  0  0  0
 17  9  1  0  0  0  0
 18 17  1  0  0  0  0
 18  6  1  0  0  0  0
 19 18  1  0  0  0  0
 20 19  1  0  0  0  0
 21 20  1  0  0  0  0
 22 21  1  0  0  0  0
  1 23  1  0  0  0  0
  1 24  1  0  0  0  0
  2 25  1  0  0  0  0
  3 26  1  0  0  0  0
  3 27  1  0  0  0  0
  4 28  1  0  0  0  0
  4 29  1  0  0  0  0
  5 30  1  0  0  0  0
  5 31  1  0  0  0  0
  6 32  1  0  0  0  0
  7 33  1  0  0  0  0
  8 34  1  0  0  0  0
 10 35  1  0  0  0  0
 10 36  1  0  0  0  0
 11 37  1  0  0  0  0
 11 38  1  0  0  0  0
 12 39  1  0  0  0  0
 13 40  1  0  0  0  0
 15 41  1  0  0  0  0
 15 42  1  0  0  0  0
 17 43  1  0  0  0  0
 19 44  1  0  0  0  0
 19 45  1  0  0  0  0
 20 46  1  0  0  0  0
 20 47  1  0  0  0  0
 21 48  1  0  0  0  0
 21 49  1  0  0  0  0
 22 50  1  0  0  0  0
 22 51  1  0  0  0  0
M  CHG  1  18   1
M  RAD  1  18   2
M  END
>  <energy>
18.016511397573161

$$$$
