CC1(O)OC(C(N)C(O)C2OC3(C=NC(O)C(O)C(O)C(O)CO)NC(=N)OC2=CC3O)SC1=O
                    3D

 63 65  0  0  0  0  0  0  0  0999 V2000
   -6.0825   -0.9278   -0.4606 C   0  0  0  0  0  0  0  0  0  0  0  0
   -5.1533    0.2712   -0.3174 C   0  0  0  0  0  0  0  0  0  0  0  0
   -5.9040    1.4547   -0.1206 O   0  0  0  0  0  0  0  0  0  0  0  0
   -4.3520    0.0394    0.8404 O   0  0  0  0  0  0  0  0  0  0  0  0
   -3.1493    0.8325    0.7072 C   0  0  0  0  0  0  0  0  0  0  0  0
   -2.2069    0.4118    1.8909 C   0  0  0  0  0  0  0  0  0  0  0  0
   -1.4320   -0.8367    1.6620 N   0  0  0  0  0  0  0  0  0  0  0  0
   -1.3802    1.5963    2.4857 C   0  0  0  0  0  0  0  0  0  0  0  0
   -2.3073    2.6407    2.8313 O   0  0  0  0  0  0  0  0  0  0  0  0
   -0.1200    2.0821    1.6997 C   0  0  0  0  0  0  0  0  0  0  0  0
   -0.0213    1.4770    0.4192 O   0  0  0  0  0  0  0  0  0  0  0  0
    0.7799    2.2513   -0.4954 C   0  0  0  0  0  0  0  0  0  0  0  0
    1.1954    1.0627   -1.3284 C   0  0  0  0  0  0  0  0  0  0  0  0
    2.2709    0.3832   -1.0659 N   0  0  0  0  0  0  0  0  0  0  0  0
    2.1009   -0.9937   -1.5917 C   0  0  0  0  0  0  0  0  0  0  0  0
    2.1588   -1.1173   -3.0046 O   0  0  0  0  0  0  0  0  0  0  0  0
    3.1597   -1.9108   -0.8999 C   0  0  0  0  0  0  0  0  0  0  0  0
    3.4972   -1.3618    0.3882 O   0  0  0  0  0  0  0  0  0  0  0  0
    2.5870   -3.3190   -0.6846 C   0  0  0  0  0  0  0  0  0  0  0  0
    1.8096   -3.7398   -1.8229 O   0  0  0  0  0  0  0  0  0  0  0  0
    3.6167   -4.4255   -0.4040 C   0  0  0  0  0  0  0  0  0  0  0  0
    2.8765   -5.5932    0.0161 O   0  0  0  0  0  0  0  0  0  0  0  0
    4.7072   -4.1057    0.6187 C   0  0  0  0  0  0  0  0  0  0  0  0
    5.7525   -3.3562    0.0099 O   0  0  0  0  0  0  0  0  0  0  0  0
   -0.1218    3.1670   -1.1999 N   0  0  0  0  0  0  0  0  0  0  0  0
   -1.0189    3.9927   -0.5613 C   0  0  0  0  0  0  0  0  0  0  0  0
   -1.9742    4.5879   -1.1885 N   0  0  0  0  0  0  0  0  0  0  0  0
   -0.9558    4.2171    0.8074 O   0  0  0  0  0  0  0  0  0  0  0  0
    0.0981    3.5808    1.5175 C   0  0  0  0  0  0  0  0  0  0  0  0
    1.3380    3.9930    1.1589 C   0  0  0  0  0  0  0  0  0  0  0  0
    1.9818    2.9957    0.2144 C   0  0  0  0  0  0  0  0  0  0  0  0
    2.7953    3.7255   -0.7018 O   0  0  0  0  0  0  0  0  0  0  0  0
   -2.5614    0.5645   -1.0118 S   0  0  0  0  0  0  0  0  0  0  0  0
   -4.2246    0.3784   -1.5458 C   0  0  0  0  0  0  0  0  0  0  0  0
   -4.5558    0.3774   -2.7207 O   0  0  0  0  0  0  0  0  0  0  0  0
   -5.5144   -1.8494   -0.6197 H   0  0  0  0  0  0  0  0  0  0  0  0
   -6.7876   -0.8021   -1.2878 H   0  0  0  0  0  0  0  0  0  0  0  0
   -6.6671   -1.0638    0.4549 H   0  0  0  0  0  0  0  0  0  0  0  0
   -6.8379    1.2791   -0.3274 H   0  0  0  0  0  0  0  0  0  0  0  0
   -3.4449    1.8816    0.8059 H   0  0  0  0  0  0  0  0  0  0  0  0
   -2.9007    0.1384    2.7036 H   0  0  0  0  0  0  0  0  0  0  0  0
   -1.1949   -1.2545    2.5606 H   0  0  0  0  0  0  0  0  0  0  0  0
   -2.0474   -1.5060    1.1951 H   0  0  0  0  0  0  0  0  0  0  0  0
   -1.0068    1.2507    3.4603 H   0  0  0  0  0  0  0  0  0  0  0  0
   -1.8105    3.4216    3.1367 H   0  0  0  0  0  0  0  0  0  0  0  0
    0.7369    1.6804    2.2636 H   0  0  0  0  0  0  0  0  0  0  0  0
    0.4404    0.6987   -2.0555 H   0  0  0  0  0  0  0  0  0  0  0  0
    1.1030   -1.3328   -1.2736 H   0  0  0  0  0  0  0  0  0  0  0  0
    2.0042   -2.0686   -3.1721 H   0  0  0  0  0  0  0  0  0  0  0  0
    4.0587   -1.9432   -1.5262 H   0  0  0  0  0  0  0  0  0  0  0  0
    3.4098   -0.3930    0.2624 H   0  0  0  0  0  0  0  0  0  0  0  0
    1.8823   -3.2815    0.1555 H   0  0  0  0  0  0  0  0  0  0  0  0
    1.6180   -4.6871   -1.6606 H   0  0  0  0  0  0  0  0  0  0  0  0
    4.0908   -4.7056   -1.3491 H   0  0  0  0  0  0  0  0  0  0  0  0
    2.5664   -5.4234    0.9242 H   0  0  0  0  0  0  0  0  0  0  0  0
    4.3121   -3.5666    1.4867 H   0  0  0  0  0  0  0  0  0  0  0  0
    5.1457   -5.0398    0.9951 H   0  0  0  0  0  0  0  0  0  0  0  0
    6.5532   -3.4672    0.5527 H   0  0  0  0  0  0  0  0  0  0  0  0
   -0.4233    2.8397   -2.1056 H   0  0  0  0  0  0  0  0  0  0  0  0
   -1.9146    4.3836   -2.1845 H   0  0  0  0  0  0  0  0  0  0  0  0
    1.4671    5.0284    0.8651 H   0  0  0  0  0  0  0  0  0  0  0  0
    2.6293    2.3211    0.7841 H   0  0  0  0  0  0  0  0  0  0  0  0
    3.3282    3.0660   -1.1860 H   0  0  0  0  0  0  0  0  0  0  0  0
  2  1  1  0  0  0  0
  3  2  1  0  0  0  0
  4  2  1  0  0  0  0
  5  4  1  0  0  0  0
  6  5  1  0  0  0  0
  7  6  1  0  0  0  0
  8  6  1  0  0  0  0
  9  8  1  0  0  0  0
 10  8  1  0  0  0  0
 11 10  1  0  0  0  0
 12 11  1  0  0  0  0
 13 12  1  0  0  0  0
 14 13  2  0  0  0  0
 15 14  1  0  0  0  0
 16 15  1  0  0  0  0
 17 15  1  0  0  0  0
 18 17  1  0  0  0  0
 19 17  1  0  0  0  0
 20 19  1  0  0  0  0
 21 19  1  0  0  0  0
 22 21  1  0  0  0  0
 23 21  1  0  0  0  0
 24 23  1  0  0  0  0
 25 12  1  0  0  0  0
 26 25  1  0  0  0  0
 27 26  2  0  0  0  0
 28 26  1  0  0  0  0
 29 28  1  0  0  0  0
 29 10  1  0  0  0  0
 30 29  2  0  0  0  0
 31 30  1  0  0  0  0
 31 12  1  0  0  0  0
 32 31  1  0  0  0  0
 33  5  1  0  0  0  0
 34 33  1  0  0  0  0
 34  2  1  0  0  0  0
 35 34  2  0  0  0  0
  1 36  1  0  0  0  0
  1 37  1  0  0  0  0
  1 38  1  0  0  0  0
  3 39  1  0  0  0  0
  5 40  1  0  0  0  0
  6 41  1  0  0  0  0
  7 42  1  0  0  0  0
  7 43  1  0  0  0  0
  8 44  1  0  0  0  0
  9 45  1  0  0  0  0
 10 46  1  0  0  0  0
 13 47  1  0  0  0  0
 15 48  1  0  0  0  0
 16 49  1  0  0  0  0
 17 50  1  0  0  0  0
 18 51  1  0  0  0  0
 19 52  1  0  0  0  0
 20 53  1  0  0  0  0
 21 54  1  0  0  0  0
 22 55  1  0  0  0  0
 23 56  1  0  0  0  0
 23 57  1  0  0  0  0
 24 58  1  0  0  0  0
 25 59  1  0  0  0  0
 27 60  1  0  0  0  0
 30 61  1  0  0  0  0
 31 62  1  0  0  0  0
 32 63  1  0  0  0  0
M  END
>  <energy>
254.22649888188568

$$$$
