CCCCCNC(=O)C12CC(C3CC1C3)C1C3C(O)C(C)(C)C4CCC(C)C5OC1(O)C54C32
                    3D

 76 82  0  0  0  0  0  0  0  0999 V2000
   -0.9138    4.3450   -3.9038 C   0  0  0  0  0  0  0  0  0  0  0  0
   -0.0564    4.9165   -2.7877 C   0  0  0  0  0  0  0  0  0  0  0  0
   -0.3575    4.2473   -1.4476 C   0  0  0  0  0  0  0  0  0  0  0  0
    0.5392    4.8062   -0.3363 C   0  0  0  0  0  0  0  0  0  0  0  0
    0.4169    4.0133    0.9655 C   0  0  0  0  0  0  0  0  0  0  0  0
    0.8516    2.6407    0.7966 N   0  0  0  0  0  0  0  0  0  0  0  0
    0.7055    1.6937    1.7876 C   0  0  0  0  0  0  0  0  0  0  0  0
    0.1650    1.9564    2.8583 O   0  0  0  0  0  0  0  0  0  0  0  0
    1.2228    0.2694    1.4293 C   0  0  0  0  0  0  0  0  0  0  0  0
    2.6406    0.3864    0.8142 C   0  0  0  0  0  0  0  0  0  0  0  0
    3.0551   -1.0906    0.8198 C   0  0  0  0  0  0  0  0  0  0  0  0
    3.3650   -1.3522    2.3265 C   0  0  0  0  0  0  0  0  0  0  0  0
    2.2151   -2.0686    2.9938 C   0  0  0  0  0  0  0  0  0  0  0  0
    1.4711   -0.5911    2.7945 C   0  0  0  0  0  0  0  0  0  0  0  0
    2.9075   -0.1909    3.3600 C   0  0  0  0  0  0  0  0  0  0  0  0
    1.9505   -1.9678    0.0109 C   0  0  0  0  0  0  0  0  0  0  0  0
    1.2365   -0.9438   -0.9391 C   0  0  0  0  0  0  0  0  0  0  0  0
    0.4588   -1.6210   -2.1353 C   0  0  0  0  0  0  0  0  0  0  0  0
    0.9342   -0.9880   -3.3353 O   0  0  0  0  0  0  0  0  0  0  0  0
   -1.1265   -1.6444   -2.1121 C   0  0  0  0  0  0  0  0  0  0  0  0
   -1.7151   -0.5965   -3.0929 C   0  0  0  0  0  0  0  0  0  0  0  0
   -1.5995   -3.0165   -2.6346 C   0  0  0  0  0  0  0  0  0  0  0  0
   -1.6855   -1.3391   -0.6947 C   0  0  0  0  0  0  0  0  0  0  0  0
   -3.0722   -1.8892   -0.2605 C   0  0  0  0  0  0  0  0  0  0  0  0
   -3.3862   -1.4829    1.2107 C   0  0  0  0  0  0  0  0  0  0  0  0
   -2.3505   -2.0324    2.2338 C   0  0  0  0  0  0  0  0  0  0  0  0
   -1.9944   -1.0268    3.3043 C   0  0  0  0  0  0  0  0  0  0  0  0
   -1.1813   -2.5027    1.4081 C   0  0  0  0  0  0  0  0  0  0  0  0
    0.1402   -2.7379    1.9176 O   0  0  0  0  0  0  0  0  0  0  0  0
    0.6001   -2.6246    0.5104 C   0  0  0  0  0  0  0  0  0  0  0  0
    0.4415   -3.8892   -0.1643 O   0  0  0  0  0  0  0  0  0  0  0  0
   -0.5804   -1.5321    0.3659 C   0  0  0  0  0  0  0  0  0  0  0  0
    0.3458   -0.3148    0.2079 C   0  0  0  0  0  0  0  0  0  0  0  0
   -0.7246    3.2748   -4.0323 H   0  0  0  0  0  0  0  0  0  0  0  0
   -0.6848    4.8450   -4.8492 H   0  0  0  0  0  0  0  0  0  0  0  0
   -1.9786    4.4831   -3.6954 H   0  0  0  0  0  0  0  0  0  0  0  0
    0.9997    4.7722   -3.0457 H   0  0  0  0  0  0  0  0  0  0  0  0
   -0.2266    5.9964   -2.7147 H   0  0  0  0  0  0  0  0  0  0  0  0
   -1.4090    4.4040   -1.1765 H   0  0  0  0  0  0  0  0  0  0  0  0
   -0.2113    3.1652   -1.5476 H   0  0  0  0  0  0  0  0  0  0  0  0
    0.2717    5.8538   -0.1484 H   0  0  0  0  0  0  0  0  0  0  0  0
    1.5859    4.7988   -0.6681 H   0  0  0  0  0  0  0  0  0  0  0  0
   -0.6148    4.0119    1.3343 H   0  0  0  0  0  0  0  0  0  0  0  0
    1.0483    4.4668    1.7389 H   0  0  0  0  0  0  0  0  0  0  0  0
    1.4464    2.4390    0.0056 H   0  0  0  0  0  0  0  0  0  0  0  0
    3.3328    1.0292    1.3638 H   0  0  0  0  0  0  0  0  0  0  0  0
    2.6766    0.8603   -0.1697 H   0  0  0  0  0  0  0  0  0  0  0  0
    3.9972   -1.1650    0.2598 H   0  0  0  0  0  0  0  0  0  0  0  0
    4.3564   -1.7798    2.5085 H   0  0  0  0  0  0  0  0  0  0  0  0
    2.3543   -2.3624    4.0469 H   0  0  0  0  0  0  0  0  0  0  0  0
    2.0488   -3.0194    2.4957 H   0  0  0  0  0  0  0  0  0  0  0  0
    0.6630   -0.4373    3.5123 H   0  0  0  0  0  0  0  0  0  0  0  0
    3.2612    0.8355    3.2405 H   0  0  0  0  0  0  0  0  0  0  0  0
    3.0874   -0.4165    4.4233 H   0  0  0  0  0  0  0  0  0  0  0  0
    2.5202   -2.7094   -0.5656 H   0  0  0  0  0  0  0  0  0  0  0  0
    1.9414   -0.2555   -1.4063 H   0  0  0  0  0  0  0  0  0  0  0  0
    0.8345   -2.6473   -2.2277 H   0  0  0  0  0  0  0  0  0  0  0  0
    0.6943   -1.5694   -4.0788 H   0  0  0  0  0  0  0  0  0  0  0  0
   -2.8083   -0.5698   -3.0320 H   0  0  0  0  0  0  0  0  0  0  0  0
   -1.4653   -0.8245   -4.1345 H   0  0  0  0  0  0  0  0  0  0  0  0
   -1.3447    0.4092   -2.8688 H   0  0  0  0  0  0  0  0  0  0  0  0
   -1.1461   -3.2438   -3.6063 H   0  0  0  0  0  0  0  0  0  0  0  0
   -2.6854   -3.0406   -2.7780 H   0  0  0  0  0  0  0  0  0  0  0  0
   -1.3392   -3.8279   -1.9509 H   0  0  0  0  0  0  0  0  0  0  0  0
   -1.9131   -0.2612   -0.6980 H   0  0  0  0  0  0  0  0  0  0  0  0
   -3.8495   -1.4756   -0.9138 H   0  0  0  0  0  0  0  0  0  0  0  0
   -3.1310   -2.9787   -0.3632 H   0  0  0  0  0  0  0  0  0  0  0  0
   -3.4303   -0.3875    1.2677 H   0  0  0  0  0  0  0  0  0  0  0  0
   -4.3885   -1.8386    1.4800 H   0  0  0  0  0  0  0  0  0  0  0  0
   -2.7973   -2.9010    2.7342 H   0  0  0  0  0  0  0  0  0  0  0  0
   -2.8819   -0.7301    3.8715 H   0  0  0  0  0  0  0  0  0  0  0  0
   -1.2818   -1.4628    4.0112 H   0  0  0  0  0  0  0  0  0  0  0  0
   -1.5540   -0.1281    2.8742 H   0  0  0  0  0  0  0  0  0  0  0  0
   -1.5426   -3.4643    0.9949 H   0  0  0  0  0  0  0  0  0  0  0  0
    0.8236   -4.5197    0.4726 H   0  0  0  0  0  0  0  0  0  0  0  0
   -0.1785    0.5390   -0.2359 H   0  0  0  0  0  0  0  0  0  0  0  0
  2  1  1  0  0  0  0
  3  2  1  0  0  0  0
  4  3  1  0  0  0  0
  5  4  1  0  0  0  0
  6  5  1  0  0  0  0
  7  6  1  0  0  0  0
  8  7  2  0  0  0  0
  9  7  1  0  0  0  0
 10  9  1  0  0  0  0
 11 10  1  0  0  0  0
 12 11  1  0  0  0  0
 13 12  1  0  0  0  0
 14 13  1  0  0  0  0
 14  9  1  0  0  0  0
 15 14  1  0  0  0  0
 15 12  1  0  0  0  0
 16 11  1  0  0  0  0
 17 16  1  0  0  0  0
 18 17  1  0  0  0  0
 19 18  1  0  0  0  0
 20 18  1  0  0  0  0
 21 20  1  0  0  0  0
 22 20  1  0  0  0  0
 23 20  1  0  0  0  0
 24 23  1  0  0  0  0
 25 24  1  0  0  0  0
 26 25  1  0  0  0  0
 27 26  1  0  0  0  0
 28 26  1  0  0  0  0
 29 28  1  0  0  0  0
 30 29  1  0  0  0  0
 30 16  1  0  0  0  0
 31 30  1  0  0  0  0
 32 30  1  0  0  0  0
 32 28  1  0  0  0  0
 32 23  1  0  0  0  0
 33 32  1  0  0  0  0
 33 17  1  0  0  0  0
 33  9  1  0  0  0  0
  1 34  1  0  0  0  0
  1 35  1  0  0  0  0
  1 36  1  0  0  0  0
  2 37  1  0  0  0  0
  2 38  1  0  0  0  0
  3 39  1  0  0  0  0
  3 40  1  0  0  0  0
  4 41  1  0  0  0  0
  4 42  1  0  0  0  0
  5 43  1  0  0  0  0
  5 44  1  0  0  0  0
  6 45  1  0  0  0  0
 10 46  1  0  0  0  0
 10 47  1  0  0  0  0
 11 48  1  0  0  0  0
 12 49  1  0  0  0  0
 13 50  1  0  0  0  0
 13 51  1  0  0  0  0
 14 52  1  0  0  0  0
 15 53  1  0  0  0  0
 15 54  1  0  0  0  0
 16 55  1  0  0  0  0
 17 56  1  0  0  0  0
 18 57  1  0  0  0  0
 19 58  1  0  0  0  0
 21 59  1  0  0  0  0
 21 60  1  0  0  0  0
 21 61  1  0  0  0  0
 22 62  1  0  0  0  0
 22 63  1  0  0  0  0
 22 64  1  0  0  0  0
 23 65  1  0  0  0  0
 24 66  1  0  0  0  0
 24 67  1  0  0  0  0
 25 68  1  0  0  0  0
 25 69  1  0  0  0  0
 26 70  1  0  0  0  0
 27 71  1  0  0  0  0
 27 72  1  0  0  0  0
 27 73  1  0  0  0  0
 28 74  1  0  0  0  0
 31 75  1  0  0  0  0
 33 76  1  0  0  0  0
M  END
>  <energy>
210.05513921878878

$$$$
