CCC=CC=CC(=O)OC1CC2(OC3C(OC4CC(O)C(O)C4O)C(C)(O)C32O)C(O)C1(O)CCC=C(C)CCC=C(C)C
                    3D

 94 97  0  0  0  0  0  0  0  0999 V2000
   -2.7282   -0.1744    1.9900 C   0  0  0  0  0  0  0  0  0  0  0  0
   -4.1168   -0.4435    1.4311 C   0  0  0  0  0  0  0  0  0  0  0  0
   -4.3105    0.2462    0.1126 C   0  0  0  0  0  0  0  0  0  0  0  0
   -4.4354   -0.4118   -1.0471 C   0  0  0  0  0  0  0  0  0  0  0  0
   -4.7788    0.2291   -2.2865 C   0  0  0  0  0  0  0  0  0  0  0  0
   -4.1826    1.2558   -2.9039 C   0  0  0  0  0  0  0  0  0  0  0  0
   -2.9323    1.9698   -2.5893 C   0  0  0  0  0  0  0  0  0  0  0  0
   -2.7596    3.1324   -2.9504 O   0  0  0  0  0  0  0  0  0  0  0  0
   -1.9395    1.1503   -2.1611 O   0  0  0  0  0  0  0  0  0  0  0  0
   -0.9443    0.9588   -3.1752 C   0  0  0  0  0  0  0  0  0  0  0  0
   -0.5028   -0.5043   -3.1479 C   0  0  0  0  0  0  0  0  0  0  0  0
    0.8545   -0.5094   -2.4638 C   0  0  0  0  0  0  0  0  0  0  0  0
    0.7020   -0.5664   -1.0178 O   0  0  0  0  0  0  0  0  0  0  0  0
    1.5082   -1.7614   -0.9366 C   0  0  0  0  0  0  0  0  0  0  0  0
    0.7824   -3.1215   -1.0607 C   0  0  0  0  0  0  0  0  0  0  0  0
    1.2535   -4.2653   -0.2843 O   0  0  0  0  0  0  0  0  0  0  0  0
    1.4804   -4.1015    1.1142 C   0  0  0  0  0  0  0  0  0  0  0  0
    1.8983   -5.4622    1.6983 C   0  0  0  0  0  0  0  0  0  0  0  0
    1.1567   -5.6168    3.0303 C   0  0  0  0  0  0  0  0  0  0  0  0
    2.0461   -6.0072    4.0674 O   0  0  0  0  0  0  0  0  0  0  0  0
    0.5580   -4.2438    3.3184 C   0  0  0  0  0  0  0  0  0  0  0  0
    1.5096   -3.4074    3.9926 O   0  0  0  0  0  0  0  0  0  0  0  0
    0.2472   -3.6925    1.9338 C   0  0  0  0  0  0  0  0  0  0  0  0
    0.0912   -2.2777    1.9751 O   0  0  0  0  0  0  0  0  0  0  0  0
    1.2624   -3.1882   -2.5593 C   0  0  0  0  0  0  0  0  0  0  0  0
    0.2087   -3.5148   -3.6070 C   0  0  0  0  0  0  0  0  0  0  0  0
    2.3115   -4.1888   -2.7635 O   0  0  0  0  0  0  0  0  0  0  0  0
    1.8189   -1.7340   -2.4360 C   0  0  0  0  0  0  0  0  0  0  0  0
    3.2051   -1.5348   -2.8075 O   0  0  0  0  0  0  0  0  0  0  0  0
    1.5076    0.8125   -2.9003 C   0  0  0  0  0  0  0  0  0  0  0  0
    2.1325    0.5952   -4.1864 O   0  0  0  0  0  0  0  0  0  0  0  0
    0.3386    1.8285   -3.0625 C   0  0  0  0  0  0  0  0  0  0  0  0
    0.5259    2.4728   -4.3645 O   0  0  0  0  0  0  0  0  0  0  0  0
    0.3335    2.9894   -2.0469 C   0  0  0  0  0  0  0  0  0  0  0  0
    0.5417    2.6808   -0.5638 C   0  0  0  0  0  0  0  0  0  0  0  0
    1.9924    2.7897   -0.1623 C   0  0  0  0  0  0  0  0  0  0  0  0
    2.5104    2.5199    1.0517 C   0  0  0  0  0  0  0  0  0  0  0  0
    3.9830    2.6971    1.3156 C   0  0  0  0  0  0  0  0  0  0  0  0
    1.7120    2.0022    2.2258 C   0  0  0  0  0  0  0  0  0  0  0  0
    1.2748    3.1186    3.1903 C   0  0  0  0  0  0  0  0  0  0  0  0
   -0.2182    3.3207    3.1392 C   0  0  0  0  0  0  0  0  0  0  0  0
   -0.8954    4.4310    2.7862 C   0  0  0  0  0  0  0  0  0  0  0  0
   -0.2478    5.7323    2.4101 C   0  0  0  0  0  0  0  0  0  0  0  0
   -2.4005    4.4162    2.7003 C   0  0  0  0  0  0  0  0  0  0  0  0
   -2.5617    0.8995    2.1218 H   0  0  0  0  0  0  0  0  0  0  0  0
   -1.9587   -0.5653    1.3114 H   0  0  0  0  0  0  0  0  0  0  0  0
   -2.6041   -0.6592    2.9683 H   0  0  0  0  0  0  0  0  0  0  0  0
   -4.8793   -0.0842    2.1346 H   0  0  0  0  0  0  0  0  0  0  0  0
   -4.2621   -1.5249    1.3384 H   0  0  0  0  0  0  0  0  0  0  0  0
   -4.3704    1.3302    0.1496 H   0  0  0  0  0  0  0  0  0  0  0  0
   -4.4123   -1.4992   -1.0556 H   0  0  0  0  0  0  0  0  0  0  0  0
   -5.6733   -0.1774   -2.7596 H   0  0  0  0  0  0  0  0  0  0  0  0
   -4.6661    1.6767   -3.7835 H   0  0  0  0  0  0  0  0  0  0  0  0
   -1.4297    1.1161   -4.1488 H   0  0  0  0  0  0  0  0  0  0  0  0
   -0.3876   -0.8616   -4.1792 H   0  0  0  0  0  0  0  0  0  0  0  0
   -1.2406   -1.1334   -2.6396 H   0  0  0  0  0  0  0  0  0  0  0  0
    2.3577   -1.6744   -0.2556 H   0  0  0  0  0  0  0  0  0  0  0  0
   -0.3102   -3.0347   -0.9580 H   0  0  0  0  0  0  0  0  0  0  0  0
    2.2954   -3.3808    1.2423 H   0  0  0  0  0  0  0  0  0  0  0  0
    2.9839   -5.5075    1.8292 H   0  0  0  0  0  0  0  0  0  0  0  0
    1.6246   -6.2837    1.0190 H   0  0  0  0  0  0  0  0  0  0  0  0
    0.3677   -6.3664    2.9376 H   0  0  0  0  0  0  0  0  0  0  0  0
    1.9666   -5.3353    4.7788 H   0  0  0  0  0  0  0  0  0  0  0  0
   -0.3297   -4.2933    3.9563 H   0  0  0  0  0  0  0  0  0  0  0  0
    2.3942   -3.5550    3.6074 H   0  0  0  0  0  0  0  0  0  0  0  0
   -0.6609   -4.1295    1.5159 H   0  0  0  0  0  0  0  0  0  0  0  0
    0.4711   -1.9717    2.8256 H   0  0  0  0  0  0  0  0  0  0  0  0
   -0.7575   -3.0454   -3.4133 H   0  0  0  0  0  0  0  0  0  0  0  0
    0.5461   -3.2119   -4.6078 H   0  0  0  0  0  0  0  0  0  0  0  0
    0.0256   -4.5982   -3.6518 H   0  0  0  0  0  0  0  0  0  0  0  0
    2.3518   -4.6578   -1.9078 H   0  0  0  0  0  0  0  0  0  0  0  0
    3.1508   -1.1276   -3.6970 H   0  0  0  0  0  0  0  0  0  0  0  0
    2.2965    1.1387   -2.2171 H   0  0  0  0  0  0  0  0  0  0  0  0
    2.0363    1.4632   -4.6478 H   0  0  0  0  0  0  0  0  0  0  0  0
   -0.1870    3.1393   -4.4601 H   0  0  0  0  0  0  0  0  0  0  0  0
   -0.6086    3.5373   -2.1516 H   0  0  0  0  0  0  0  0  0  0  0  0
    1.0798    3.7255   -2.3768 H   0  0  0  0  0  0  0  0  0  0  0  0
    0.1150    1.7113   -0.2985 H   0  0  0  0  0  0  0  0  0  0  0  0
   -0.0166    3.4378    0.0012 H   0  0  0  0  0  0  0  0  0  0  0  0
    2.6709    3.1697   -0.9275 H   0  0  0  0  0  0  0  0  0  0  0  0
    4.5175    3.0851    0.4426 H   0  0  0  0  0  0  0  0  0  0  0  0
    4.4399    1.7335    1.5744 H   0  0  0  0  0  0  0  0  0  0  0  0
    4.1456    3.4041    2.1386 H   0  0  0  0  0  0  0  0  0  0  0  0
    0.8534    1.4066    1.8835 H   0  0  0  0  0  0  0  0  0  0  0  0
    2.3440    1.2931    2.7805 H   0  0  0  0  0  0  0  0  0  0  0  0
    1.5302    2.8256    4.2171 H   0  0  0  0  0  0  0  0  0  0  0  0
    1.8217    4.0445    2.9985 H   0  0  0  0  0  0  0  0  0  0  0  0
   -0.7914    2.4275    3.4000 H   0  0  0  0  0  0  0  0  0  0  0  0
   -0.0676    5.7761    1.3295 H   0  0  0  0  0  0  0  0  0  0  0  0
    0.7025    5.8886    2.9308 H   0  0  0  0  0  0  0  0  0  0  0  0
   -0.8880    6.5800    2.6801 H   0  0  0  0  0  0  0  0  0  0  0  0
   -2.8295    5.2020    3.3349 H   0  0  0  0  0  0  0  0  0  0  0  0
   -2.8259    3.4582    3.0277 H   0  0  0  0  0  0  0  0  0  0  0  0
   -2.7242    4.5867    1.6632 H   0  0  0  0  0  0  0  0  0  0  0  0
  2  1  1  0  0  0  0
  3  2  1  0  0  0  0
  4  3  2  0  0  0  0
  5  4  1  0  0  0  0
  6  5  2  0  0  0  0
  7  6  1  0  0  0  0
  8  7  2  0  0  0  0
  9  7  1  0  0  0  0
 10  9  1  0  0  0  0
 11 10  1  0  0  0  0
 12 11  1  0  0  0  0
 13 12  1  0  0  0  0
 14 13  1  0  0  0  0
 15 14  1  0  0  0  0
 16 15  1  0  0  0  0
 17 16  1  0  0  0  0
 18 17  1  0  0  0  0
 19 18  1  0  0  0  0
 20 19  1  0  0  0  0
 21 19  1  0  0  0  0
 22 21  1  0  0  0  0
 23 21  1  0  0  0  0
 23 17  1  0  0  0  0
 24 23  1  0  0  0  0
 25 15  1  0  0  0  0
 26 25  1  0  0  0  0
 27 25  1  0  0  0  0
 28 25  1  0  0  0  0
 28 14  1  0  0  0  0
 28 12  1  0  0  0  0
 29 28  1  0  0  0  0
 30 12  1  0  0  0  0
 31 30  1  0  0  0  0
 32 30  1  0  0  0  0
 32 10  1  0  0  0  0
 33 32  1  0  0  0  0
 34 32  1  0  0  0  0
 35 34  1  0  0  0  0
 36 35  1  0  0  0  0
 37 36  2  0  0  0  0
 38 37  1  0  0  0  0
 39 37  1  0  0  0  0
 40 39  1  0  0  0  0
 41 40  1  0  0  0  0
 42 41  2  0  0  0  0
 43 42  1  0  0  0  0
 44 42  1  0  0  0  0
  1 45  1  0  0  0  0
  1 46  1  0  0  0  0
  1 47  1  0  0  0  0
  2 48  1  0  0  0  0
  2 49  1  0  0  0  0
  3 50  1  0  0  0  0
  4 51  1  0  0  0  0
  5 52  1  0  0  0  0
  6 53  1  0  0  0  0
 10 54  1  0  0  0  0
 11 55  1  0  0  0  0
 11 56  1  0  0  0  0
 14 57  1  0  0  0  0
 15 58  1  0  0  0  0
 17 59  1  0  0  0  0
 18 60  1  0  0  0  0
 18 61  1  0  0  0  0
 19 62  1  0  0  0  0
 20 63  1  0  0  0  0
 21 64  1  0  0  0  0
 22 65  1  0  0  0  0
 23 66  1  0  0  0  0
 24 67  1  0  0  0  0
 26 68  1  0  0  0  0
 26 69  1  0  0  0  0
 26 70  1  0  0  0  0
 27 71  1  0  0  0  0
 29 72  1  0  0  0  0
 30 73  1  0  0  0  0
 31 74  1  0  0  0  0
 33 75  1  0  0  0  0
 34 76  1  0  0  0  0
 34 77  1  0  0  0  0
 35 78  1  0  0  0  0
 35 79  1  0  0  0  0
 36 80  1  0  0  0  0
 38 81  1  0  0  0  0
 38 82  1  0  0  0  0
 38 83  1  0  0  0  0
 39 84  1  0  0  0  0
 39 85  1  0  0  0  0
 40 86  1  0  0  0  0
 40 87  1  0  0  0  0
 41 88  1  0  0  0  0
 43 89  1  0  0  0  0
 43 90  1  0  0  0  0
 43 91  1  0  0  0  0
 44 92  1  0  0  0  0
 44 93  1  0  0  0  0
 44 94  1  0  0  0  0
M  END
>  <energy>
265.12531348487749

$$$$
