C#CC12CC34CC5C3C1C5(C(=O)O)C2(C(=O)NCC)C4
                    3D

 37 41  0  0  0  0  0  0  0  0999 V2000
    2.4219   -0.2062    3.3167 C   0  0  0  0  0  0  0  0  0  0  0  0
    2.1267   -0.0254    2.1672 C   0  0  0  0  0  0  0  0  0  0  0  0
    1.8051    0.1165    0.7712 C   0  0  0  0  0  0  0  0  0  0  0  0
    2.6470    1.1510   -0.0206 C   0  0  0  0  0  0  0  0  0  0  0  0
    1.8073    1.0006   -1.2950 C   0  0  0  0  0  0  0  0  0  0  0  0
    1.3405    0.4371   -2.7083 C   0  0  0  0  0  0  0  0  0  0  0  0
    1.0942   -0.9403   -2.0268 C   0  0  0  0  0  0  0  0  0  0  0  0
    2.3817   -0.5787   -1.3395 C   0  0  0  0  0  0  0  0  0  0  0  0
    1.9107   -1.1698   -0.0371 C   0  0  0  0  0  0  0  0  0  0  0  0
    0.4670   -1.0727   -0.5547 C   0  0  0  0  0  0  0  0  0  0  0  0
   -0.5685   -2.1792   -0.3806 C   0  0  0  0  0  0  0  0  0  0  0  0
   -1.7493   -2.1178   -0.7099 O   0  0  0  0  0  0  0  0  0  0  0  0
   -0.0973   -3.3198    0.1663 O   0  0  0  0  0  0  0  0  0  0  0  0
    0.3283    0.2597    0.2639 C   0  0  0  0  0  0  0  0  0  0  0  0
   -0.8322    0.5069    1.2899 C   0  0  0  0  0  0  0  0  0  0  0  0
   -0.6929    1.0650    2.3802 O   0  0  0  0  0  0  0  0  0  0  0  0
   -2.0937    0.1700    0.8283 N   0  0  0  0  0  0  0  0  0  0  0  0
   -3.3103    0.6461    1.4576 C   0  0  0  0  0  0  0  0  0  0  0  0
   -4.2742    1.1207    0.3822 C   0  0  0  0  0  0  0  0  0  0  0  0
    0.4057    1.3998   -0.7340 C   0  0  0  0  0  0  0  0  0  0  0  0
    2.6824   -0.3864    4.3339 H   0  0  0  0  0  0  0  0  0  0  0  0
    3.7136    0.9104   -0.1168 H   0  0  0  0  0  0  0  0  0  0  0  0
    2.5646    2.1568    0.4099 H   0  0  0  0  0  0  0  0  0  0  0  0
    2.1317    0.4284   -3.4748 H   0  0  0  0  0  0  0  0  0  0  0  0
    0.4674    0.8826   -3.1965 H   0  0  0  0  0  0  0  0  0  0  0  0
    1.1167   -1.8348   -2.6508 H   0  0  0  0  0  0  0  0  0  0  0  0
    3.3500   -0.8175   -1.7769 H   0  0  0  0  0  0  0  0  0  0  0  0
    2.3379   -2.0951    0.3356 H   0  0  0  0  0  0  0  0  0  0  0  0
   -0.8773   -3.9140    0.1736 H   0  0  0  0  0  0  0  0  0  0  0  0
   -2.1975   -0.3606   -0.0335 H   0  0  0  0  0  0  0  0  0  0  0  0
   -3.0885    1.4565    2.1595 H   0  0  0  0  0  0  0  0  0  0  0  0
   -3.7574   -0.1756    2.0200 H   0  0  0  0  0  0  0  0  0  0  0  0
   -3.7890    1.8271   -0.2983 H   0  0  0  0  0  0  0  0  0  0  0  0
   -4.6168    0.2783   -0.2283 H   0  0  0  0  0  0  0  0  0  0  0  0
   -5.1442    1.6115    0.8259 H   0  0  0  0  0  0  0  0  0  0  0  0
    0.4190    2.3894   -0.2611 H   0  0  0  0  0  0  0  0  0  0  0  0
   -0.4303    1.3794   -1.4385 H   0  0  0  0  0  0  0  0  0  0  0  0
  2  1  3  0  0  0  0
  3  2  1  0  0  0  0
  4  3  1  0  0  0  0
  5  4  1  0  0  0  0
  6  5  1  0  0  0  0
  7  6  1  0  0  0  0
  8  7  1  0  0  0  0
  8  5  1  0  0  0  0
  9  8  1  0  0  0  0
  9  3  1  0  0  0  0
 10  9  1  0  0  0  0
 10  7  1  0  0  0  0
 11 10  1  0  0  0  0
 12 11  2  0  0  0  0
 13 11  1  0  0  0  0
 14 10  1  0  0  0  0
 14  3  1  0  0  0  0
 15 14  1  0  0  0  0
 16 15  2  0  0  0  0
 17 15  1  0  0  0  0
 18 17  1  0  0  0  0
 19 18  1  0  0  0  0
 20 14  1  0  0  0  0
 20  5  1  0  0  0  0
  1 21  1  0  0  0  0
  4 22  1  0  0  0  0
  4 23  1  0  0  0  0
  6 24  1  0  0  0  0
  6 25  1  0  0  0  0
  7 26  1  0  0  0  0
  8 27  1  0  0  0  0
  9 28  1  0  0  0  0
 13 29  1  0  0  0  0
 17 30  1  0  0  0  0
 18 31  1  0  0  0  0
 18 32  1  0  0  0  0
 19 33  1  0  0  0  0
 19 34  1  0  0  0  0
 19 35  1  0  0  0  0
 20 36  1  0  0  0  0
 20 37  1  0  0  0  0
M  END
>  <energy>
40.416176424267505

$$$$
