CC(C)CC(CCl)C(=O)OC12CC3CCC4(C)OOC45NC46CC4(C)C(C(C)(C)OC1C6(C)CCCC3(C)C)C2(O)C5
                    3D

 99105  0  0  0  0  0  0  0  0999 V2000
   -6.2551   -0.6561    0.9235 C   0  0  0  0  0  0  0  0  0  0  0  0
   -5.0720    0.0439    1.6027 C   0  0  0  0  0  0  0  0  0  0  0  0
   -5.4539    0.4485    3.0236 C   0  0  0  0  0  0  0  0  0  0  0  0
   -4.5221    1.2077    0.7431 C   0  0  0  0  0  0  0  0  0  0  0  0
   -3.2705    1.9797    1.2403 C   0  0  0  0  0  0  0  0  0  0  0  0
   -3.3336    2.7681    2.5487 C   0  0  0  0  0  0  0  0  0  0  0  0
   -4.6440    3.9782    2.5652 Cl  0  0  0  0  0  0  0  0  0  0  0  0
   -2.1158    0.9983    1.3339 C   0  0  0  0  0  0  0  0  0  0  0  0
   -2.1482   -0.0368    1.9709 O   0  0  0  0  0  0  0  0  0  0  0  0
   -1.0736    1.4127    0.5716 O   0  0  0  0  0  0  0  0  0  0  0  0
    0.1186    0.5251    0.1664 C   0  0  0  0  0  0  0  0  0  0  0  0
   -0.6046   -0.3321   -1.0389 C   0  0  0  0  0  0  0  0  0  0  0  0
   -0.2540   -1.7828   -1.6384 C   0  0  0  0  0  0  0  0  0  0  0  0
   -0.1458   -1.8005   -3.1796 C   0  0  0  0  0  0  0  0  0  0  0  0
    0.4601   -0.6760   -3.9734 C   0  0  0  0  0  0  0  0  0  0  0  0
    1.8414   -0.1003   -3.6658 C   0  0  0  0  0  0  0  0  0  0  0  0
    2.1257    0.7725   -4.9412 C   0  0  0  0  0  0  0  0  0  0  0  0
    3.0292   -0.9549   -3.6162 O   0  0  0  0  0  0  0  0  0  0  0  0
    3.6830    0.2155   -2.8573 O   0  0  0  0  0  0  0  0  0  0  0  0
    2.3907    0.3751   -2.1684 C   0  0  0  0  0  0  0  0  0  0  0  0
    2.4787   -0.6841   -1.1438 N   0  0  0  0  0  0  0  0  0  0  0  0
    2.8998   -0.4352    0.2714 C   0  0  0  0  0  0  0  0  0  0  0  0
    4.2507   -0.3572    0.7654 C   0  0  0  0  0  0  0  0  0  0  0  0
    3.5837    1.0156    0.5441 C   0  0  0  0  0  0  0  0  0  0  0  0
    4.7449    1.8665   -0.0151 C   0  0  0  0  0  0  0  0  0  0  0  0
    2.3266    1.9071    0.8258 C   0  0  0  0  0  0  0  0  0  0  0  0
    1.7995    1.9244    2.2641 C   0  0  0  0  0  0  0  0  0  0  0  0
    2.9943    2.0573    3.2357 C   0  0  0  0  0  0  0  0  0  0  0  0
    0.9158    3.1590    2.5811 C   0  0  0  0  0  0  0  0  0  0  0  0
    0.9734    0.7983    2.5496 O   0  0  0  0  0  0  0  0  0  0  0  0
    0.6794   -0.1623    1.4815 C   0  0  0  0  0  0  0  0  0  0  0  0
    1.8962   -1.1284    1.3259 C   0  0  0  0  0  0  0  0  0  0  0  0
    2.4917   -1.4195    2.7489 C   0  0  0  0  0  0  0  0  0  0  0  0
    1.5742   -2.6068    0.8764 C   0  0  0  0  0  0  0  0  0  0  0  0
    0.1425   -3.1182    1.0622 C   0  0  0  0  0  0  0  0  0  0  0  0
   -0.2963   -3.9423   -0.1365 C   0  0  0  0  0  0  0  0  0  0  0  0
   -1.1058   -3.1142   -1.1737 C   0  0  0  0  0  0  0  0  0  0  0  0
   -1.3917   -4.1631   -2.3072 C   0  0  0  0  0  0  0  0  0  0  0  0
   -2.4874   -2.7792   -0.5881 C   0  0  0  0  0  0  0  0  0  0  0  0
    1.2048    1.7165   -0.2761 C   0  0  0  0  0  0  0  0  0  0  0  0
    0.5105    3.0032   -0.2531 O   0  0  0  0  0  0  0  0  0  0  0  0
    1.9603    1.7440   -1.6702 C   0  0  0  0  0  0  0  0  0  0  0  0
    1.2580    2.6332   -2.7049 C   0  0  0  0  0  0  0  0  0  0  0  0
   -6.0225   -0.9471   -0.1074 H   0  0  0  0  0  0  0  0  0  0  0  0
   -7.1542   -0.0315    0.9166 H   0  0  0  0  0  0  0  0  0  0  0  0
   -6.5001   -1.5772    1.4699 H   0  0  0  0  0  0  0  0  0  0  0  0
   -4.3049   -0.7321    1.6756 H   0  0  0  0  0  0  0  0  0  0  0  0
   -6.3719   -0.0430    3.3593 H   0  0  0  0  0  0  0  0  0  0  0  0
   -5.6311    1.5190    3.1153 H   0  0  0  0  0  0  0  0  0  0  0  0
   -4.6509    0.1747    3.7190 H   0  0  0  0  0  0  0  0  0  0  0  0
   -5.3246    1.9173    0.5121 H   0  0  0  0  0  0  0  0  0  0  0  0
   -4.2488    0.7759   -0.2309 H   0  0  0  0  0  0  0  0  0  0  0  0
   -3.0317    2.7147    0.4545 H   0  0  0  0  0  0  0  0  0  0  0  0
   -2.4133    3.3484    2.6734 H   0  0  0  0  0  0  0  0  0  0  0  0
   -3.4091    2.1382    3.4417 H   0  0  0  0  0  0  0  0  0  0  0  0
   -0.5612    0.3808   -1.8720 H   0  0  0  0  0  0  0  0  0  0  0  0
   -1.6869   -0.3436   -0.8504 H   0  0  0  0  0  0  0  0  0  0  0  0
    0.7512   -2.0028   -1.3739 H   0  0  0  0  0  0  0  0  0  0  0  0
    0.4037   -2.6985   -3.4869 H   0  0  0  0  0  0  0  0  0  0  0  0
   -1.1594   -1.9069   -3.5834 H   0  0  0  0  0  0  0  0  0  0  0  0
    0.4472   -1.0216   -5.0221 H   0  0  0  0  0  0  0  0  0  0  0  0
   -0.2647    0.1528   -3.9724 H   0  0  0  0  0  0  0  0  0  0  0  0
    3.0677    1.3234   -4.8892 H   0  0  0  0  0  0  0  0  0  0  0  0
    2.1938    0.1223   -5.8256 H   0  0  0  0  0  0  0  0  0  0  0  0
    1.3155    1.4799   -5.1499 H   0  0  0  0  0  0  0  0  0  0  0  0
    3.0366   -1.4625   -1.5257 H   0  0  0  0  0  0  0  0  0  0  0  0
    5.0299   -0.7029    0.0758 H   0  0  0  0  0  0  0  0  0  0  0  0
    4.5740   -0.5805    1.7799 H   0  0  0  0  0  0  0  0  0  0  0  0
    5.6983    1.6501    0.4853 H   0  0  0  0  0  0  0  0  0  0  0  0
    4.6169    2.9451    0.1669 H   0  0  0  0  0  0  0  0  0  0  0  0
    4.8996    1.7418   -1.0898 H   0  0  0  0  0  0  0  0  0  0  0  0
    2.6683    2.9434    0.6855 H   0  0  0  0  0  0  0  0  0  0  0  0
    3.7371    1.2743    3.1023 H   0  0  0  0  0  0  0  0  0  0  0  0
    3.5242    3.0011    3.0557 H   0  0  0  0  0  0  0  0  0  0  0  0
    2.6754    2.0332    4.2827 H   0  0  0  0  0  0  0  0  0  0  0  0
   -0.1137    3.0304    2.2584 H   0  0  0  0  0  0  0  0  0  0  0  0
    0.8503    3.3186    3.6602 H   0  0  0  0  0  0  0  0  0  0  0  0
    1.3119    4.0836    2.1521 H   0  0  0  0  0  0  0  0  0  0  0  0
   -0.1040   -0.7183    1.9774 H   0  0  0  0  0  0  0  0  0  0  0  0
    3.4036   -2.0232    2.6954 H   0  0  0  0  0  0  0  0  0  0  0  0
    2.7238   -0.5369    3.3376 H   0  0  0  0  0  0  0  0  0  0  0  0
    1.7832   -2.0042    3.3533 H   0  0  0  0  0  0  0  0  0  0  0  0
    2.1889   -3.3154    1.4516 H   0  0  0  0  0  0  0  0  0  0  0  0
    1.9510   -2.8197   -0.1258 H   0  0  0  0  0  0  0  0  0  0  0  0
   -0.5865   -2.3346    1.2140 H   0  0  0  0  0  0  0  0  0  0  0  0
    0.0851   -3.7362    1.9684 H   0  0  0  0  0  0  0  0  0  0  0  0
    0.5769   -4.4080   -0.6161 H   0  0  0  0  0  0  0  0  0  0  0  0
   -0.9019   -4.7871    0.2252 H   0  0  0  0  0  0  0  0  0  0  0  0
   -0.4806   -4.4925   -2.8180 H   0  0  0  0  0  0  0  0  0  0  0  0
   -1.8554   -5.0723   -1.8971 H   0  0  0  0  0  0  0  0  0  0  0  0
   -2.0976   -3.7833   -3.0527 H   0  0  0  0  0  0  0  0  0  0  0  0
   -2.4306   -2.2382    0.3573 H   0  0  0  0  0  0  0  0  0  0  0  0
   -3.0568   -3.6944   -0.3756 H   0  0  0  0  0  0  0  0  0  0  0  0
   -3.0839   -2.1845   -1.2846 H   0  0  0  0  0  0  0  0  0  0  0  0
   -0.3902    2.8237    0.0898 H   0  0  0  0  0  0  0  0  0  0  0  0
    2.8718    2.3282   -1.5116 H   0  0  0  0  0  0  0  0  0  0  0  0
    1.9028    2.7957   -3.5654 H   0  0  0  0  0  0  0  0  0  0  0  0
    1.0892    3.6543   -2.3391 H   0  0  0  0  0  0  0  0  0  0  0  0
    0.2993    2.2276   -3.0206 H   0  0  0  0  0  0  0  0  0  0  0  0
  2  1  1  0  0  0  0
  3  2  1  0  0  0  0
  4  2  1  0  0  0  0
  5  4  1  0  0  0  0
  6  5  1  0  0  0  0
  7  6  1  0  0  0  0
  8  5  1  0  0  0  0
  9  8  2  0  0  0  0
 10  8  1  0  0  0  0
 11 10  1  0  0  0  0
 12 11  1  0  0  0  0
 13 12  1  0  0  0  0
 14 13  1  0  0  0  0
 15 14  1  0  0  0  0
 16 15  1  0  0  0  0
 17 16  1  0  0  0  0
 18 16  1  0  0  0  0
 19 18  1  0  0  0  0
 20 19  1  0  0  0  0
 20 16  1  0  0  0  0
 21 20  1  0  0  0  0
 22 21  1  0  0  0  0
 23 22  1  0  0  0  0
 24 23  1  0  0  0  0
 24 22  1  0  0  0  0
 25 24  1  0  0  0  0
 26 24  1  0  0  0  0
 27 26  1  0  0  0  0
 28 27  1  0  0  0  0
 29 27  1  0  0  0  0
 30 27  1  0  0  0  0
 31 30  1  0  0  0  0
 31 11  1  0  0  0  0
 32 31  1  0  0  0  0
 32 22  1  0  0  0  0
 33 32  1  0  0  0  0
 34 32  1  0  0  0  0
 35 34  1  0  0  0  0
 36 35  1  0  0  0  0
 37 36  1  0  0  0  0
 37 13  1  0  0  0  0
 38 37  1  0  0  0  0
 39 37  1  0  0  0  0
 40 26  1  0  0  0  0
 40 11  1  0  0  0  0
 41 40  1  0  0  0  0
 42 40  1  0  0  0  0
 42 20  1  0  0  0  0
 43 42  1  0  0  0  0
  1 44  1  0  0  0  0
  1 45  1  0  0  0  0
  1 46  1  0  0  0  0
  2 47  1  0  0  0  0
  3 48  1  0  0  0  0
  3 49  1  0  0  0  0
  3 50  1  0  0  0  0
  4 51  1  0  0  0  0
  4 52  1  0  0  0  0
  5 53  1  0  0  0  0
  6 54  1  0  0  0  0
  6 55  1  0  0  0  0
 12 56  1  0  0  0  0
 12 57  1  0  0  0  0
 13 58  1  0  0  0  0
 14 59  1  0  0  0  0
 14 60  1  0  0  0  0
 15 61  1  0  0  0  0
 15 62  1  0  0  0  0
 17 63  1  0  0  0  0
 17 64  1  0  0  0  0
 17 65  1  0  0  0  0
 21 66  1  0  0  0  0
 23 67  1  0  0  0  0
 23 68  1  0  0  0  0
 25 69  1  0  0  0  0
 25 70  1  0  0  0  0
 25 71  1  0  0  0  0
 26 72  1  0  0  0  0
 28 73  1  0  0  0  0
 28 74  1  0  0  0  0
 28 75  1  0  0  0  0
 29 76  1  0  0  0  0
 29 77  1  0  0  0  0
 29 78  1  0  0  0  0
 31 79  1  0  0  0  0
 33 80  1  0  0  0  0
 33 81  1  0  0  0  0
 33 82  1  0  0  0  0
 34 83  1  0  0  0  0
 34 84  1  0  0  0  0
 35 85  1  0  0  0  0
 35 86  1  0  0  0  0
 36 87  1  0  0  0  0
 36 88  1  0  0  0  0
 38 89  1  0  0  0  0
 38 90  1  0  0  0  0
 38 91  1  0  0  0  0
 39 92  1  0  0  0  0
 39 93  1  0  0  0  0
 39 94  1  0  0  0  0
 41 95  1  0  0  0  0
 42 96  1  0  0  0  0
 43 97  1  0  0  0  0
 43 98  1  0  0  0  0
 43 99  1  0  0  0  0
M  END
>  <energy>
367.29649370118847

$$$$
