C1CC1CN1CCC23C4CC5COC4C2C5C3C1
                    3D

 41 46  0  0  0  0  0  0  0  0999 V2000
    4.8849   -0.6717   -0.2815 C   0  0  0  0  0  0  0  0  0  0  0  0
    3.6898   -1.4642    0.1625 C   0  0  0  0  0  0  0  0  0  0  0  0
    3.4975   -0.1106   -0.4755 C   0  0  0  0  0  0  0  0  0  0  0  0
    3.0657    1.0836    0.3269 C   0  0  0  0  0  0  0  0  0  0  0  0
    1.6188    1.3244    0.3293 N   0  0  0  0  0  0  0  0  0  0  0  0
    1.0607    1.7040   -0.9773 C   0  0  0  0  0  0  0  0  0  0  0  0
    0.0866    0.6896   -1.5932 C   0  0  0  0  0  0  0  0  0  0  0  0
   -1.0151    0.3982   -0.6011 C   0  0  0  0  0  0  0  0  0  0  0  0
   -2.5439    0.5939   -0.9088 C   0  0  0  0  0  0  0  0  0  0  0  0
   -3.3667    0.9461    0.3338 C   0  0  0  0  0  0  0  0  0  0  0  0
   -3.1202   -0.2216    1.3149 C   0  0  0  0  0  0  0  0  0  0  0  0
   -3.9552   -1.4262    0.8422 C   0  0  0  0  0  0  0  0  0  0  0  0
   -3.7896   -1.6130   -0.5765 O   0  0  0  0  0  0  0  0  0  0  0  0
   -2.6287   -0.9540   -1.1431 C   0  0  0  0  0  0  0  0  0  0  0  0
   -1.3548   -1.0803   -0.2848 C   0  0  0  0  0  0  0  0  0  0  0  0
   -1.6283   -0.6294    1.1861 C   0  0  0  0  0  0  0  0  0  0  0  0
   -0.6432    0.5502    0.9022 C   0  0  0  0  0  0  0  0  0  0  0  0
    0.8608    0.3194    1.0822 C   0  0  0  0  0  0  0  0  0  0  0  0
    5.4213   -1.0067   -1.1625 H   0  0  0  0  0  0  0  0  0  0  0  0
    5.5205   -0.2439    0.4858 H   0  0  0  0  0  0  0  0  0  0  0  0
    3.5193   -1.5683    1.2285 H   0  0  0  0  0  0  0  0  0  0  0  0
    3.4095   -2.3369   -0.4165 H   0  0  0  0  0  0  0  0  0  0  0  0
    3.1408   -0.0744   -1.4985 H   0  0  0  0  0  0  0  0  0  0  0  0
    3.4130    0.9934    1.3646 H   0  0  0  0  0  0  0  0  0  0  0  0
    3.5736    1.9727   -0.0678 H   0  0  0  0  0  0  0  0  0  0  0  0
    0.5156    2.6445   -0.8235 H   0  0  0  0  0  0  0  0  0  0  0  0
    1.8473    1.9419   -1.7035 H   0  0  0  0  0  0  0  0  0  0  0  0
    0.6309   -0.2254   -1.8568 H   0  0  0  0  0  0  0  0  0  0  0  0
   -0.3269    1.0959   -2.5234 H   0  0  0  0  0  0  0  0  0  0  0  0
   -2.7685    1.2142   -1.7809 H   0  0  0  0  0  0  0  0  0  0  0  0
   -4.4313    1.0446    0.0930 H   0  0  0  0  0  0  0  0  0  0  0  0
   -3.0411    1.9043    0.7518 H   0  0  0  0  0  0  0  0  0  0  0  0
   -3.3720    0.0538    2.3433 H   0  0  0  0  0  0  0  0  0  0  0  0
   -3.6546   -2.3503    1.3470 H   0  0  0  0  0  0  0  0  0  0  0  0
   -5.0203   -1.2569    1.0271 H   0  0  0  0  0  0  0  0  0  0  0  0
   -2.4825   -1.2488   -2.1884 H   0  0  0  0  0  0  0  0  0  0  0  0
   -0.6144   -1.8539   -0.4849 H   0  0  0  0  0  0  0  0  0  0  0  0
   -1.3041   -1.3360    1.9562 H   0  0  0  0  0  0  0  0  0  0  0  0
   -0.9288    1.5024    1.3670 H   0  0  0  0  0  0  0  0  0  0  0  0
    1.1113    0.3887    2.1473 H   0  0  0  0  0  0  0  0  0  0  0  0
    1.1225   -0.6934    0.7568 H   0  0  0  0  0  0  0  0  0  0  0  0
  2  1  1  0  0  0  0
  3  2  1  0  0  0  0
  3  1  1  0  0  0  0
  4  3  1  0  0  0  0
  5  4  1  0  0  0  0
  6  5  1  0  0  0  0
  7  6  1  0  0  0  0
  8  7  1  0  0  0  0
  9  8  1  0  0  0  0
 10  9  1  0  0  0  0
 11 10  1  0  0  0  0
 12 11  1  0  0  0  0
 13 12  1  0  0  0  0
 14 13  1  0  0  0  0
 14  9  1  0  0  0  0
 15 14  1  0  0  0  0
 15  8  1  0  0  0  0
 16 15  1  0  0  0  0
 16 11  1  0  0  0  0
 17 16  1  0  0  0  0
 17  8  1  0  0  0  0
 18 17  1  0  0  0  0
 18  5  1  0  0  0  0
  1 19  1  0  0  0  0
  1 20  1  0  0  0  0
  2 21  1  0  0  0  0
  2 22  1  0  0  0  0
  3 23  1  0  0  0  0
  4 24  1  0  0  0  0
  4 25  1  0  0  0  0
  6 26  1  0  0  0  0
  6 27  1  0  0  0  0
  7 28  1  0  0  0  0
  7 29  1  0  0  0  0
  9 30  1  0  0  0  0
 10 31  1  0  0  0  0
 10 32  1  0  0  0  0
 11 33  1  0  0  0  0
 12 34  1  0  0  0  0
 12 35  1  0  0  0  0
 14 36  1  0  0  0  0
 15 37  1  0  0  0  0
 16 38  1  0  0  0  0
 17 39  1  0  0  0  0
 18 40  1  0  0  0  0
 18 41  1  0  0  0  0
M  END
>  <energy>
72.129047879431582

$$$$
