C=C(C)CC(COC(=N)C12COC13CC3C2)CC(C)C1C(O)CC2C(=C)C(=O)CC21
                    3D

 65 69  0  0  0  0  0  0  0  0999 V2000
   -3.4528    3.6191   -0.8986 C   0  0  0  0  0  0  0  0  0  0  0  0
   -2.2750    3.0607   -1.2293 C   0  0  0  0  0  0  0  0  0  0  0  0
   -2.1206    2.2657   -2.4968 C   0  0  0  0  0  0  0  0  0  0  0  0
   -1.0437    3.2482   -0.3702 C   0  0  0  0  0  0  0  0  0  0  0  0
   -0.5849    1.9717    0.3636 C   0  0  0  0  0  0  0  0  0  0  0  0
   -1.6279    1.4768    1.3846 C   0  0  0  0  0  0  0  0  0  0  0  0
   -2.0769    0.2104    0.8586 O   0  0  0  0  0  0  0  0  0  0  0  0
   -2.4013   -0.7874    1.7039 C   0  0  0  0  0  0  0  0  0  0  0  0
   -2.7591   -0.5531    2.9202 N   0  0  0  0  0  0  0  0  0  0  0  0
   -2.2689   -2.1716    1.0656 C   0  0  0  0  0  0  0  0  0  0  0  0
   -1.3649   -3.2067    1.7491 C   0  0  0  0  0  0  0  0  0  0  0  0
   -2.4949   -4.0830    1.9771 O   0  0  0  0  0  0  0  0  0  0  0  0
   -3.3313   -3.1530    1.2879 C   0  0  0  0  0  0  0  0  0  0  0  0
   -4.6297   -3.4403    0.6614 C   0  0  0  0  0  0  0  0  0  0  0  0
   -3.4114   -3.4598   -0.1937 C   0  0  0  0  0  0  0  0  0  0  0  0
   -2.4310   -2.3790   -0.4529 C   0  0  0  0  0  0  0  0  0  0  0  0
    0.8154    2.1855    0.9904 C   0  0  0  0  0  0  0  0  0  0  0  0
    1.5234    0.8497    1.3482 C   0  0  0  0  0  0  0  0  0  0  0  0
    1.7710    0.8430    2.8713 C   0  0  0  0  0  0  0  0  0  0  0  0
    2.8759    0.6358    0.6033 C   0  0  0  0  0  0  0  0  0  0  0  0
    3.4917   -0.7764    0.9390 C   0  0  0  0  0  0  0  0  0  0  0  0
    4.7753   -0.6383    1.5283 O   0  0  0  0  0  0  0  0  0  0  0  0
    3.6300   -1.5569   -0.3857 C   0  0  0  0  0  0  0  0  0  0  0  0
    2.6378   -0.8542   -1.2876 C   0  0  0  0  0  0  0  0  0  0  0  0
    2.7553   -0.8223   -2.7759 C   0  0  0  0  0  0  0  0  0  0  0  0
    3.1284   -1.7705   -3.6369 C   0  0  0  0  0  0  0  0  0  0  0  0
    2.3762    0.5803   -3.1721 C   0  0  0  0  0  0  0  0  0  0  0  0
    2.2734    0.9736   -4.3214 O   0  0  0  0  0  0  0  0  0  0  0  0
    2.0995    1.4037   -1.9260 C   0  0  0  0  0  0  0  0  0  0  0  0
    2.9165    0.6049   -0.9280 C   0  0  0  0  0  0  0  0  0  0  0  0
   -3.5679    4.2128    0.0033 H   0  0  0  0  0  0  0  0  0  0  0  0
   -4.3356    3.4867   -1.5164 H   0  0  0  0  0  0  0  0  0  0  0  0
   -1.9880    1.2011   -2.2796 H   0  0  0  0  0  0  0  0  0  0  0  0
   -2.9966    2.3590   -3.1499 H   0  0  0  0  0  0  0  0  0  0  0  0
   -1.2525    2.6164   -3.0661 H   0  0  0  0  0  0  0  0  0  0  0  0
   -0.2395    3.6012   -1.0293 H   0  0  0  0  0  0  0  0  0  0  0  0
   -1.1932    4.0574    0.3575 H   0  0  0  0  0  0  0  0  0  0  0  0
   -0.4720    1.1920   -0.3968 H   0  0  0  0  0  0  0  0  0  0  0  0
   -2.4956    2.1377    1.4763 H   0  0  0  0  0  0  0  0  0  0  0  0
   -1.1956    1.3507    2.3807 H   0  0  0  0  0  0  0  0  0  0  0  0
   -2.9811   -1.4319    3.4011 H   0  0  0  0  0  0  0  0  0  0  0  0
   -0.5942   -3.6650    1.1201 H   0  0  0  0  0  0  0  0  0  0  0  0
   -0.9212   -2.8872    2.6970 H   0  0  0  0  0  0  0  0  0  0  0  0
   -5.3296   -2.6237    0.5327 H   0  0  0  0  0  0  0  0  0  0  0  0
   -5.1026   -4.3876    0.8846 H   0  0  0  0  0  0  0  0  0  0  0  0
   -3.0543   -4.4158   -0.5566 H   0  0  0  0  0  0  0  0  0  0  0  0
   -2.8566   -1.5315   -1.0053 H   0  0  0  0  0  0  0  0  0  0  0  0
   -1.5178   -2.6868   -0.9704 H   0  0  0  0  0  0  0  0  0  0  0  0
    0.7073    2.8308    1.8723 H   0  0  0  0  0  0  0  0  0  0  0  0
    1.4477    2.7548    0.3011 H   0  0  0  0  0  0  0  0  0  0  0  0
    0.8645    0.0044    1.1136 H   0  0  0  0  0  0  0  0  0  0  0  0
    2.4508    1.6519    3.1625 H   0  0  0  0  0  0  0  0  0  0  0  0
    0.8350    0.9771    3.4218 H   0  0  0  0  0  0  0  0  0  0  0  0
    2.2057   -0.0948    3.2235 H   0  0  0  0  0  0  0  0  0  0  0  0
    3.5602    1.4268    0.9376 H   0  0  0  0  0  0  0  0  0  0  0  0
    2.8668   -1.3599    1.6209 H   0  0  0  0  0  0  0  0  0  0  0  0
    4.6839   -0.0924    2.3223 H   0  0  0  0  0  0  0  0  0  0  0  0
    4.6540   -1.5063   -0.7736 H   0  0  0  0  0  0  0  0  0  0  0  0
    3.3892   -2.6159   -0.2533 H   0  0  0  0  0  0  0  0  0  0  0  0
    1.6090   -1.1416   -1.0175 H   0  0  0  0  0  0  0  0  0  0  0  0
    3.3984   -2.7688   -3.3071 H   0  0  0  0  0  0  0  0  0  0  0  0
    3.1683   -1.5612   -4.7037 H   0  0  0  0  0  0  0  0  0  0  0  0
    2.4626    2.4281   -2.0367 H   0  0  0  0  0  0  0  0  0  0  0  0
    1.0260    1.3802   -1.7600 H   0  0  0  0  0  0  0  0  0  0  0  0
    3.9687    0.8248   -1.1841 H   0  0  0  0  0  0  0  0  0  0  0  0
  2  1  2  0  0  0  0
  3  2  1  0  0  0  0
  4  2  1  0  0  0  0
  5  4  1  0  0  0  0
  6  5  1  0  0  0  0
  7  6  1  0  0  0  0
  8  7  1  0  0  0  0
  9  8  2  0  0  0  0
 10  8  1  0  0  0  0
 11 10  1  0  0  0  0
 12 11  1  0  0  0  0
 13 12  1  0  0  0  0
 13 10  1  0  0  0  0
 14 13  1  0  0  0  0
 15 14  1  0  0  0  0
 15 13  1  0  0  0  0
 16 15  1  0  0  0  0
 16 10  1  0  0  0  0
 17  5  1  0  0  0  0
 18 17  1  0  0  0  0
 19 18  1  0  0  0  0
 20 18  1  0  0  0  0
 21 20  1  0  0  0  0
 22 21  1  0  0  0  0
 23 21  1  0  0  0  0
 24 23  1  0  0  0  0
 25 24  1  0  0  0  0
 26 25  2  0  0  0  0
 27 25  1  0  0  0  0
 28 27  2  0  0  0  0
 29 27  1  0  0  0  0
 30 29  1  0  0  0  0
 30 24  1  0  0  0  0
 30 20  1  0  0  0  0
  1 31  1  0  0  0  0
  1 32  1  0  0  0  0
  3 33  1  0  0  0  0
  3 34  1  0  0  0  0
  3 35  1  0  0  0  0
  4 36  1  0  0  0  0
  4 37  1  0  0  0  0
  5 38  1  0  0  0  0
  6 39  1  0  0  0  0
  6 40  1  0  0  0  0
  9 41  1  0  0  0  0
 11 42  1  0  0  0  0
 11 43  1  0  0  0  0
 14 44  1  0  0  0  0
 14 45  1  0  0  0  0
 15 46  1  0  0  0  0
 16 47  1  0  0  0  0
 16 48  1  0  0  0  0
 17 49  1  0  0  0  0
 17 50  1  0  0  0  0
 18 51  1  0  0  0  0
 19 52  1  0  0  0  0
 19 53  1  0  0  0  0
 19 54  1  0  0  0  0
 20 55  1  0  0  0  0
 21 56  1  0  0  0  0
 22 57  1  0  0  0  0
 23 58  1  0  0  0  0
 23 59  1  0  0  0  0
 24 60  1  0  0  0  0
 26 61  1  0  0  0  0
 26 62  1  0  0  0  0
 29 63  1  0  0  0  0
 29 64  1  0  0  0  0
 30 65  1  0  0  0  0
M  END
>  <energy>
89.103667533629832

$$$$
