CCC(C)(O)C1(C)CC2C(C)CC(C)C3(CCCC2(C)OO3)C1
                    3D

 59 61  0  0  0  0  0  0  0  0999 V2000
    4.6830   -0.5320   -0.2902 C   0  0  0  0  0  0  0  0  0  0  0  0
    3.6554   -1.2384    0.5812 C   0  0  0  0  0  0  0  0  0  0  0  0
    2.5601   -0.3933    1.3235 C   0  0  0  0  0  0  0  0  0  0  0  0
    1.9714   -1.3732    2.3663 C   0  0  0  0  0  0  0  0  0  0  0  0
    3.2608    0.6071    2.0832 O   0  0  0  0  0  0  0  0  0  0  0  0
    1.4144    0.3332    0.4036 C   0  0  0  0  0  0  0  0  0  0  0  0
    2.1256    1.5089   -0.3382 C   0  0  0  0  0  0  0  0  0  0  0  0
    0.9564   -0.7335   -0.7159 C   0  0  0  0  0  0  0  0  0  0  0  0
   -0.3609   -0.7300   -1.6067 C   0  0  0  0  0  0  0  0  0  0  0  0
   -0.7234    0.8156   -2.2077 C   0  0  0  0  0  0  0  0  0  0  0  0
   -1.7833    0.6754   -3.3133 C   0  0  0  0  0  0  0  0  0  0  0  0
   -1.1356    2.1920   -1.3117 C   0  0  0  0  0  0  0  0  0  0  0  0
   -1.6637    2.2735    0.2467 C   0  0  0  0  0  0  0  0  0  0  0  0
   -3.1806    2.5109    0.2639 C   0  0  0  0  0  0  0  0  0  0  0  0
   -1.2190    1.0621    1.0831 C   0  0  0  0  0  0  0  0  0  0  0  0
   -2.0371    0.1875    2.0447 C   0  0  0  0  0  0  0  0  0  0  0  0
   -1.6512   -1.3603    1.9616 C   0  0  0  0  0  0  0  0  0  0  0  0
   -1.4791   -2.1882    0.5843 C   0  0  0  0  0  0  0  0  0  0  0  0
   -1.6782   -1.4756   -0.8193 C   0  0  0  0  0  0  0  0  0  0  0  0
   -2.4822   -2.3472   -1.7741 C   0  0  0  0  0  0  0  0  0  0  0  0
   -2.4084   -0.3527   -0.4025 O   0  0  0  0  0  0  0  0  0  0  0  0
   -1.2079    0.2655    0.0146 O   0  0  0  0  0  0  0  0  0  0  0  0
    0.3155    1.0629    1.3896 C   0  0  0  0  0  0  0  0  0  0  0  0
    5.5565   -1.1800   -0.4205 H   0  0  0  0  0  0  0  0  0  0  0  0
    5.0337    0.4019    0.1587 H   0  0  0  0  0  0  0  0  0  0  0  0
    4.3029   -0.3367   -1.2946 H   0  0  0  0  0  0  0  0  0  0  0  0
    4.2592   -1.7350    1.3532 H   0  0  0  0  0  0  0  0  0  0  0  0
    3.2006   -2.0543    0.0069 H   0  0  0  0  0  0  0  0  0  0  0  0
    2.7755   -1.8511    2.9416 H   0  0  0  0  0  0  0  0  0  0  0  0
    1.3905   -2.1701    1.8972 H   0  0  0  0  0  0  0  0  0  0  0  0
    1.3708   -0.8766    3.1304 H   0  0  0  0  0  0  0  0  0  0  0  0
    2.6181    1.0677    2.6479 H   0  0  0  0  0  0  0  0  0  0  0  0
    1.4673    2.0380   -1.0161 H   0  0  0  0  0  0  0  0  0  0  0  0
    2.5261    2.2523    0.3583 H   0  0  0  0  0  0  0  0  0  0  0  0
    2.9531    1.1749   -0.9588 H   0  0  0  0  0  0  0  0  0  0  0  0
    1.7692   -0.7476   -1.4571 H   0  0  0  0  0  0  0  0  0  0  0  0
    1.0043   -1.7278   -0.2698 H   0  0  0  0  0  0  0  0  0  0  0  0
   -0.1398   -1.3701   -2.4727 H   0  0  0  0  0  0  0  0  0  0  0  0
    0.2008    1.1079   -2.7271 H   0  0  0  0  0  0  0  0  0  0  0  0
   -1.5415   -0.1503   -3.9877 H   0  0  0  0  0  0  0  0  0  0  0  0
   -1.8344    1.5854   -3.9199 H   0  0  0  0  0  0  0  0  0  0  0  0
   -2.7772    0.5066   -2.8885 H   0  0  0  0  0  0  0  0  0  0  0  0
   -1.8670    2.7507   -1.9140 H   0  0  0  0  0  0  0  0  0  0  0  0
   -0.2600    2.8522   -1.3483 H   0  0  0  0  0  0  0  0  0  0  0  0
   -1.2319    3.1807    0.6915 H   0  0  0  0  0  0  0  0  0  0  0  0
   -3.7197    1.7516   -0.3103 H   0  0  0  0  0  0  0  0  0  0  0  0
   -3.4147    3.4846   -0.1834 H   0  0  0  0  0  0  0  0  0  0  0  0
   -3.5686    2.5164    1.2883 H   0  0  0  0  0  0  0  0  0  0  0  0
   -1.9276    0.5400    3.0771 H   0  0  0  0  0  0  0  0  0  0  0  0
   -3.1098    0.2558    1.8216 H   0  0  0  0  0  0  0  0  0  0  0  0
   -2.4024   -1.9017    2.5556 H   0  0  0  0  0  0  0  0  0  0  0  0
   -0.7265   -1.4926    2.5264 H   0  0  0  0  0  0  0  0  0  0  0  0
   -2.2408   -2.9786    0.6560 H   0  0  0  0  0  0  0  0  0  0  0  0
   -0.5392   -2.7496    0.6098 H   0  0  0  0  0  0  0  0  0  0  0  0
   -3.4343   -2.6405   -1.3189 H   0  0  0  0  0  0  0  0  0  0  0  0
   -1.9273   -3.2571   -2.0339 H   0  0  0  0  0  0  0  0  0  0  0  0
   -2.7405   -1.8207   -2.6938 H   0  0  0  0  0  0  0  0  0  0  0  0
    0.6191    2.1116    1.5184 H   0  0  0  0  0  0  0  0  0  0  0  0
    0.4236    0.6920    2.4098 H   0  0  0  0  0  0  0  0  0  0  0  0
  2  1  1  0  0  0  0
  3  2  1  0  0  0  0
  4  3  1  0  0  0  0
  5  3  1  0  0  0  0
  6  3  1  0  0  0  0
  7  6  1  0  0  0  0
  8  6  1  0  0  0  0
  9  8  1  0  0  0  0
 10  9  1  0  0  0  0
 11 10  1  0  0  0  0
 12 10  1  0  0  0  0
 13 12  1  0  0  0  0
 14 13  1  0  0  0  0
 15 13  1  0  0  0  0
 16 15  1  0  0  0  0
 17 16  1  0  0  0  0
 18 17  1  0  0  0  0
 19 18  1  0  0  0  0
 19  9  1  0  0  0  0
 20 19  1  0  0  0  0
 21 19  1  0  0  0  0
 22 21  1  0  0  0  0
 22 15  1  0  0  0  0
 23 15  1  0  0  0  0
 23  6  1  0  0  0  0
  1 24  1  0  0  0  0
  1 25  1  0  0  0  0
  1 26  1  0  0  0  0
  2 27  1  0  0  0  0
  2 28  1  0  0  0  0
  4 29  1  0  0  0  0
  4 30  1  0  0  0  0
  4 31  1  0  0  0  0
  5 32  1  0  0  0  0
  7 33  1  0  0  0  0
  7 34  1  0  0  0  0
  7 35  1  0  0  0  0
  8 36  1  0  0  0  0
  8 37  1  0  0  0  0
  9 38  1  0  0  0  0
 10 39  1  0  0  0  0
 11 40  1  0  0  0  0
 11 41  1  0  0  0  0
 11 42  1  0  0  0  0
 12 43  1  0  0  0  0
 12 44  1  0  0  0  0
 13 45  1  0  0  0  0
 14 46  1  0  0  0  0
 14 47  1  0  0  0  0
 14 48  1  0  0  0  0
 16 49  1  0  0  0  0
 16 50  1  0  0  0  0
 17 51  1  0  0  0  0
 17 52  1  0  0  0  0
 18 53  1  0  0  0  0
 18 54  1  0  0  0  0
 20 55  1  0  0  0  0
 20 56  1  0  0  0  0
 20 57  1  0  0  0  0
 23 58  1  0  0  0  0
 23 59  1  0  0  0  0
M  END
>  <energy>
280.14468910907749

$$$$
