CC(C)OC(C)(NC(=O)C(O)C1=NNC2=C(C(C)C)N=C([NH+]([O-])O)C(=NN)N(O)C1=N2)C(C)O
                    3D

 65 66  0  0  0  0  0  0  0  0999 V2000
    4.9084   -3.3955    1.5654 C   0  0  0  0  0  0  0  0  0  0  0  0
    3.9766   -2.1905    1.6496 C   0  0  0  0  0  0  0  0  0  0  0  0
    2.7087   -2.5809    2.4050 C   0  0  0  0  0  0  0  0  0  0  0  0
    3.6430   -1.8403    0.3107 O   0  0  0  0  0  0  0  0  0  0  0  0
    3.5568   -0.4577   -0.0991 C   0  0  0  0  0  0  0  0  0  0  0  0
    3.0568   -0.6144   -1.5417 C   0  0  0  0  0  0  0  0  0  0  0  0
    2.6412    0.2165    0.8362 N   0  0  0  0  0  0  0  0  0  0  0  0
    2.0823    1.4581    0.6715 C   0  0  0  0  0  0  0  0  0  0  0  0
    2.4747    2.3929    1.3775 O   0  0  0  0  0  0  0  0  0  0  0  0
    0.8721    1.6238   -0.2605 C   0  0  0  0  0  0  0  0  0  0  0  0
    0.5904    0.4985   -1.0907 O   0  0  0  0  0  0  0  0  0  0  0  0
   -0.4281    1.7968    0.4829 C   0  0  0  0  0  0  0  0  0  0  0  0
   -0.5988    1.2317    1.6572 N   0  0  0  0  0  0  0  0  0  0  0  0
   -1.9041    1.2167    2.1273 N   0  0  0  0  0  0  0  0  0  0  0  0
   -2.8974    1.6150    1.2438 C   0  0  0  0  0  0  0  0  0  0  0  0
   -3.8269    0.7399    0.7486 C   0  0  0  0  0  0  0  0  0  0  0  0
   -4.0099   -0.6586    1.3598 C   0  0  0  0  0  0  0  0  0  0  0  0
   -4.7037   -1.6840    0.4484 C   0  0  0  0  0  0  0  0  0  0  0  0
   -4.7529   -0.5906    2.6968 C   0  0  0  0  0  0  0  0  0  0  0  0
   -4.6575    1.0664   -0.3172 N   0  0  0  0  0  0  0  0  0  0  0  0
   -4.1740    1.3347   -1.5050 C   0  0  0  0  0  0  0  0  0  0  0  0
   -5.1396    1.7750   -2.4869 N   0  3  0  0  0  0  0  0  0  0  0  0
   -4.6291    2.7146   -3.3150 O   0  5  0  0  0  0  0  0  0  0  0  0
   -5.5751    0.7155   -3.3212 O   0  0  0  0  0  0  0  0  0  0  0  0
   -2.7204    1.2814   -2.0023 C   0  0  0  0  0  0  0  0  0  0  0  0
   -2.2804    0.3149   -2.7829 N   0  0  0  0  0  0  0  0  0  0  0  0
   -3.1275   -0.6966   -3.0627 N   0  0  0  0  0  0  0  0  0  0  0  0
   -1.8626    2.3137   -1.5945 N   0  0  0  0  0  0  0  0  0  0  0  0
   -0.7205    2.4114   -2.4055 O   0  0  0  0  0  0  0  0  0  0  0  0
   -1.6306    2.4738   -0.2341 C   0  0  0  0  0  0  0  0  0  0  0  0
   -2.6801    2.7540    0.5016 N   0  0  0  0  0  0  0  0  0  0  0  0
    4.9804    0.2148   -0.1082 C   0  0  0  0  0  0  0  0  0  0  0  0
    5.0872    1.4620   -0.9844 C   0  0  0  0  0  0  0  0  0  0  0  0
    5.3684    0.5792    1.2294 O   0  0  0  0  0  0  0  0  0  0  0  0
    5.8316   -3.1225    1.0467 H   0  0  0  0  0  0  0  0  0  0  0  0
    5.1637   -3.7754    2.5578 H   0  0  0  0  0  0  0  0  0  0  0  0
    4.4517   -4.2063    0.9905 H   0  0  0  0  0  0  0  0  0  0  0  0
    4.4894   -1.3906    2.1871 H   0  0  0  0  0  0  0  0  0  0  0  0
    2.0178   -1.7389    2.4939 H   0  0  0  0  0  0  0  0  0  0  0  0
    2.9417   -2.9341    3.4139 H   0  0  0  0  0  0  0  0  0  0  0  0
    2.1660   -3.3717    1.8804 H   0  0  0  0  0  0  0  0  0  0  0  0
    2.8442    0.3436   -2.0194 H   0  0  0  0  0  0  0  0  0  0  0  0
    2.1662   -1.2525   -1.5900 H   0  0  0  0  0  0  0  0  0  0  0  0
    3.8113   -1.1343   -2.1448 H   0  0  0  0  0  0  0  0  0  0  0  0
    3.1904    0.3087    1.6879 H   0  0  0  0  0  0  0  0  0  0  0  0
    1.0842    2.4992   -0.8860 H   0  0  0  0  0  0  0  0  0  0  0  0
    0.4907   -0.2533   -0.4715 H   0  0  0  0  0  0  0  0  0  0  0  0
   -1.9836    1.7756    2.9815 H   0  0  0  0  0  0  0  0  0  0  0  0
   -3.0102   -1.0692    1.5483 H   0  0  0  0  0  0  0  0  0  0  0  0
   -4.7483   -2.6619    0.9428 H   0  0  0  0  0  0  0  0  0  0  0  0
   -4.1583   -1.8222   -0.4894 H   0  0  0  0  0  0  0  0  0  0  0  0
   -5.7335   -1.3975    0.2112 H   0  0  0  0  0  0  0  0  0  0  0  0
   -4.1883   -0.0153    3.4361 H   0  0  0  0  0  0  0  0  0  0  0  0
   -4.8933   -1.5943    3.1094 H   0  0  0  0  0  0  0  0  0  0  0  0
   -5.7413   -0.1350    2.5879 H   0  0  0  0  0  0  0  0  0  0  0  0
   -5.9292    2.1149   -1.9035 H   0  0  0  0  0  0  0  0  0  0  0  0
   -4.7522    0.6720   -3.8546 H   0  0  0  0  0  0  0  0  0  0  0  0
   -2.7966   -1.2044   -3.8918 H   0  0  0  0  0  0  0  0  0  0  0  0
   -3.0687   -1.4090   -2.3253 H   0  0  0  0  0  0  0  0  0  0  0  0
   -0.6577    1.5156   -2.8070 H   0  0  0  0  0  0  0  0  0  0  0  0
    5.7155   -0.5220   -0.4529 H   0  0  0  0  0  0  0  0  0  0  0  0
    4.3832    2.2379   -0.6745 H   0  0  0  0  0  0  0  0  0  0  0  0
    4.9184    1.2357   -2.0412 H   0  0  0  0  0  0  0  0  0  0  0  0
    6.0865    1.8999   -0.9040 H   0  0  0  0  0  0  0  0  0  0  0  0
    6.2809    0.9155    1.1808 H   0  0  0  0  0  0  0  0  0  0  0  0
  2  1  1  0  0  0  0
  3  2  1  0  0  0  0
  4  2  1  0  0  0  0
  5  4  1  0  0  0  0
  6  5  1  0  0  0  0
  7  5  1  0  0  0  0
  8  7  1  0  0  0  0
  9  8  2  0  0  0  0
 10  8  1  0  0  0  0
 11 10  1  0  0  0  0
 12 10  1  0  0  0  0
 13 12  2  0  0  0  0
 14 13  1  0  0  0  0
 15 14  1  0  0  0  0
 16 15  2  0  0  0  0
 17 16  1  0  0  0  0
 18 17  1  0  0  0  0
 19 17  1  0  0  0  0
 20 16  1  0  0  0  0
 21 20  2  0  0  0  0
 22 21  1  0  0  0  0
 23 22  1  0  0  0  0
 24 22  1  0  0  0  0
 25 21  1  0  0  0  0
 26 25  2  0  0  0  0
 27 26  1  0  0  0  0
 28 25  1  0  0  0  0
 29 28  1  0  0  0  0
 30 28  1  0  0  0  0
 30 12  1  0  0  0  0
 31 30  2  0  0  0  0
 31 15  1  0  0  0  0
 32  5  1  0  0  0  0
 33 32  1  0  0  0  0
 34 32  1  0  0  0  0
  1 35  1  0  0  0  0
  1 36  1  0  0  0  0
  1 37  1  0  0  0  0
  2 38  1  0  0  0  0
  3 39  1  0  0  0  0
  3 40  1  0  0  0  0
  3 41  1  0  0  0  0
  6 42  1  0  0  0  0
  6 43  1  0  0  0  0
  6 44  1  0  0  0  0
  7 45  1  0  0  0  0
 10 46  1  0  0  0  0
 11 47  1  0  0  0  0
 14 48  1  0  0  0  0
 17 49  1  0  0  0  0
 18 50  1  0  0  0  0
 18 51  1  0  0  0  0
 18 52  1  0  0  0  0
 19 53  1  0  0  0  0
 19 54  1  0  0  0  0
 19 55  1  0  0  0  0
 22 56  1  0  0  0  0
 24 57  1  0  0  0  0
 27 58  1  0  0  0  0
 27 59  1  0  0  0  0
 29 60  1  0  0  0  0
 32 61  1  0  0  0  0
 33 62  1  0  0  0  0
 33 63  1  0  0  0  0
 33 64  1  0  0  0  0
 34 65  1  0  0  0  0
M  CHG  2  22   1  23  -1
M  END
>  <energy>
297.65687930089905

$$$$
