CC1=CC2OC34CCN(CCC5(NS(C)(=O)=O)CCCCC5)C3C2(C)C4(O)CC1
                    3D

 65 69  0  0  0  0  0  0  0  0999 V2000
    6.7276   -0.7518   -0.9168 C   0  0  0  0  0  0  0  0  0  0  0  0
    5.3147   -1.0844   -0.5242 C   0  0  0  0  0  0  0  0  0  0  0  0
    4.8617   -0.8727    0.7210 C   0  0  0  0  0  0  0  0  0  0  0  0
    3.5167   -1.2515    1.2466 C   0  0  0  0  0  0  0  0  0  0  0  0
    3.0733   -2.5508    0.7618 O   0  0  0  0  0  0  0  0  0  0  0  0
    1.8244   -2.1637    0.1434 C   0  0  0  0  0  0  0  0  0  0  0  0
    0.7610   -3.1788   -0.1333 C   0  0  0  0  0  0  0  0  0  0  0  0
   -0.5349   -2.5009    0.3677 C   0  0  0  0  0  0  0  0  0  0  0  0
   -0.2112   -1.0776    0.6781 N   0  0  0  0  0  0  0  0  0  0  0  0
   -1.0769   -0.5203    1.7391 C   0  0  0  0  0  0  0  0  0  0  0  0
   -2.6014   -0.4850    1.4698 C   0  0  0  0  0  0  0  0  0  0  0  0
   -3.1610    0.6853    0.5793 C   0  0  0  0  0  0  0  0  0  0  0  0
   -2.8517    1.9157    1.3561 N   0  0  0  0  0  0  0  0  0  0  0  0
   -2.7368    3.4953    0.8542 S   0  0  0  0  0  0  0  0  0  0  0  0
   -1.0470    3.6428    0.3219 C   0  0  0  0  0  0  0  0  0  0  0  0
   -2.8605    4.2592    2.0781 O   0  0  0  0  0  0  0  0  0  0  0  0
   -3.6244    3.7413   -0.2538 O   0  0  0  0  0  0  0  0  0  0  0  0
   -4.7023    0.5004    0.5413 C   0  0  0  0  0  0  0  0  0  0  0  0
   -5.4226    1.1284   -0.6482 C   0  0  0  0  0  0  0  0  0  0  0  0
   -4.7598    0.7623   -1.9671 C   0  0  0  0  0  0  0  0  0  0  0  0
   -3.2945    1.1653   -1.9904 C   0  0  0  0  0  0  0  0  0  0  0  0
   -2.5142    0.5914   -0.8116 C   0  0  0  0  0  0  0  0  0  0  0  0
    1.1676   -1.2057    1.1972 C   0  0  0  0  0  0  0  0  0  0  0  0
    2.3610   -0.3260    0.7003 C   0  0  0  0  0  0  0  0  0  0  0  0
    2.4094    1.1265    1.0686 C   0  0  0  0  0  0  0  0  0  0  0  0
    2.0770   -0.8515   -0.7697 C   0  0  0  0  0  0  0  0  0  0  0  0
    0.9360   -0.2389   -1.4398 O   0  0  0  0  0  0  0  0  0  0  0  0
    3.1572   -0.8847   -1.8613 C   0  0  0  0  0  0  0  0  0  0  0  0
    4.4420   -1.6681   -1.6040 C   0  0  0  0  0  0  0  0  0  0  0  0
    7.2465   -1.6513   -1.2622 H   0  0  0  0  0  0  0  0  0  0  0  0
    7.3020   -0.3325   -0.0840 H   0  0  0  0  0  0  0  0  0  0  0  0
    6.7342   -0.0170   -1.7276 H   0  0  0  0  0  0  0  0  0  0  0  0
    5.5300   -0.4312    1.4588 H   0  0  0  0  0  0  0  0  0  0  0  0
    3.5368   -1.2821    2.3434 H   0  0  0  0  0  0  0  0  0  0  0  0
    0.7029   -3.4042   -1.2026 H   0  0  0  0  0  0  0  0  0  0  0  0
    0.9293   -4.1137    0.4113 H   0  0  0  0  0  0  0  0  0  0  0  0
   -0.8847   -3.0332    1.2615 H   0  0  0  0  0  0  0  0  0  0  0  0
   -1.3194   -2.5669   -0.3928 H   0  0  0  0  0  0  0  0  0  0  0  0
   -0.9374   -1.1022    2.6623 H   0  0  0  0  0  0  0  0  0  0  0  0
   -0.7307    0.4950    1.9663 H   0  0  0  0  0  0  0  0  0  0  0  0
   -2.9263   -1.4508    1.0618 H   0  0  0  0  0  0  0  0  0  0  0  0
   -3.0876   -0.4166    2.4551 H   0  0  0  0  0  0  0  0  0  0  0  0
   -3.1552    1.8992    2.3325 H   0  0  0  0  0  0  0  0  0  0  0  0
   -0.8951    3.0823   -0.5975 H   0  0  0  0  0  0  0  0  0  0  0  0
   -0.3951    3.2836    1.1204 H   0  0  0  0  0  0  0  0  0  0  0  0
   -0.8481    4.7012    0.1364 H   0  0  0  0  0  0  0  0  0  0  0  0
   -4.9392   -0.5724    0.5165 H   0  0  0  0  0  0  0  0  0  0  0  0
   -5.1566    0.8804    1.4669 H   0  0  0  0  0  0  0  0  0  0  0  0
   -6.4625    0.7753   -0.6600 H   0  0  0  0  0  0  0  0  0  0  0  0
   -5.4767    2.2154   -0.5368 H   0  0  0  0  0  0  0  0  0  0  0  0
   -5.2884    1.2510   -2.7934 H   0  0  0  0  0  0  0  0  0  0  0  0
   -4.8440   -0.3200   -2.1326 H   0  0  0  0  0  0  0  0  0  0  0  0
   -3.2013    2.2518   -2.0255 H   0  0  0  0  0  0  0  0  0  0  0  0
   -2.8415    0.8033   -2.9221 H   0  0  0  0  0  0  0  0  0  0  0  0
   -1.5117    1.0234   -0.8051 H   0  0  0  0  0  0  0  0  0  0  0  0
   -2.3824   -0.4728   -1.0513 H   0  0  0  0  0  0  0  0  0  0  0  0
    1.2302   -1.5474    2.2386 H   0  0  0  0  0  0  0  0  0  0  0  0
    3.2476    1.6296    0.5767 H   0  0  0  0  0  0  0  0  0  0  0  0
    1.4907    1.6389    0.7676 H   0  0  0  0  0  0  0  0  0  0  0  0
    2.5177    1.2576    2.1503 H   0  0  0  0  0  0  0  0  0  0  0  0
    0.2085   -0.3082   -0.7891 H   0  0  0  0  0  0  0  0  0  0  0  0
    3.4185    0.1453   -2.1349 H   0  0  0  0  0  0  0  0  0  0  0  0
    2.7071   -1.3257   -2.7616 H   0  0  0  0  0  0  0  0  0  0  0  0
    5.0107   -1.6600   -2.5437 H   0  0  0  0  0  0  0  0  0  0  0  0
    4.2405   -2.7270   -1.4078 H   0  0  0  0  0  0  0  0  0  0  0  0
  2  1  1  0  0  0  0
  3  2  2  0  0  0  0
  4  3  1  0  0  0  0
  5  4  1  0  0  0  0
  6  5  1  0  0  0  0
  7  6  1  0  0  0  0
  8  7  1  0  0  0  0
  9  8  1  0  0  0  0
 10  9  1  0  0  0  0
 11 10  1  0  0  0  0
 12 11  1  0  0  0  0
 13 12  1  0  0  0  0
 14 13  1  0  0  0  0
 15 14  1  0  0  0  0
 16 14  2  0  0  0  0
 17 14  2  0  0  0  0
 18 12  1  0  0  0  0
 19 18  1  0  0  0  0
 20 19  1  0  0  0  0
 21 20  1  0  0  0  0
 22 21  1  0  0  0  0
 22 12  1  0  0  0  0
 23  9  1  0  0  0  0
 23  6  1  0  0  0  0
 24 23  1  0  0  0  0
 24  4  1  0  0  0  0
 25 24  1  0  0  0  0
 26 24  1  0  0  0  0
 26  6  1  0  0  0  0
 27 26  1  0  0  0  0
 28 26  1  0  0  0  0
 29 28  1  0  0  0  0
 29  2  1  0  0  0  0
  1 30  1  0  0  0  0
  1 31  1  0  0  0  0
  1 32  1  0  0  0  0
  3 33  1  0  0  0  0
  4 34  1  0  0  0  0
  7 35  1  0  0  0  0
  7 36  1  0  0  0  0
  8 37  1  0  0  0  0
  8 38  1  0  0  0  0
 10 39  1  0  0  0  0
 10 40  1  0  0  0  0
 11 41  1  0  0  0  0
 11 42  1  0  0  0  0
 13 43  1  0  0  0  0
 15 44  1  0  0  0  0
 15 45  1  0  0  0  0
 15 46  1  0  0  0  0
 18 47  1  0  0  0  0
 18 48  1  0  0  0  0
 19 49  1  0  0  0  0
 19 50  1  0  0  0  0
 20 51  1  0  0  0  0
 20 52  1  0  0  0  0
 21 53  1  0  0  0  0
 21 54  1  0  0  0  0
 22 55  1  0  0  0  0
 22 56  1  0  0  0  0
 23 57  1  0  0  0  0
 25 58  1  0  0  0  0
 25 59  1  0  0  0  0
 25 60  1  0  0  0  0
 27 61  1  0  0  0  0
 28 62  1  0  0  0  0
 28 63  1  0  0  0  0
 29 64  1  0  0  0  0
 29 65  1  0  0  0  0
M  END
>  <energy>
53.748246734536785

$$$$
