CCCCCCCCCCC=c1c2c(C)cc[n+]1C(=O)NC1C(=[NH+][N])CC(O)C1c1ccc([nH]1)CC=2
                    3D

 77 80  0  0  0  0  0  0  0  0999 V2000
    2.5660   -1.3241    3.6837 C   0  0  0  0  0  0  0  0  0  0  0  0
    1.4483   -2.3547    3.6732 C   0  0  0  0  0  0  0  0  0  0  0  0
    0.1542   -1.7825    4.2572 C   0  0  0  0  0  0  0  0  0  0  0  0
   -0.9739   -2.8193    4.3115 C   0  0  0  0  0  0  0  0  0  0  0  0
   -1.7216   -3.0214    2.9888 C   0  0  0  0  0  0  0  0  0  0  0  0
   -2.7049   -1.8859    2.6807 C   0  0  0  0  0  0  0  0  0  0  0  0
   -3.5034   -2.1722    1.4040 C   0  0  0  0  0  0  0  0  0  0  0  0
   -4.6743   -1.2034    1.1936 C   0  0  0  0  0  0  0  0  0  0  0  0
   -4.2649    0.2265    0.8398 C   0  0  0  0  0  0  0  0  0  0  0  0
   -3.7094    0.3741   -0.5828 C   0  0  0  0  0  0  0  0  0  0  0  0
   -2.8094    1.5822   -0.6585 C   0  0  0  0  0  0  0  0  0  0  0  0
   -1.4927    1.5763   -0.3861 C   0  0  0  0  0  0  0  0  0  0  0  0
   -0.6899    2.8011   -0.2096 C   0  0  0  0  0  0  0  0  0  0  0  0
    0.0044    2.8925    1.0876 C   0  0  0  0  0  0  0  0  0  0  0  0
    0.1969    4.2268    1.7520 C   0  0  0  0  0  0  0  0  0  0  0  0
    0.3158    1.7377    1.7105 C   0  0  0  0  0  0  0  0  0  0  0  0
    0.0589    0.4817    0.9558 C   0  0  0  0  0  0  0  0  0  0  0  0
   -0.7302    0.4196   -0.0670 N   0  3  0  0  0  0  0  0  0  0  0  0
   -0.3253   -0.6487   -1.1543 C   0  0  0  0  0  0  0  0  0  0  0  0
   -0.2533   -1.8103   -0.7786 O   0  0  0  0  0  0  0  0  0  0  0  0
    0.0956   -0.2403   -2.4078 N   0  0  0  0  0  0  0  0  0  0  0  0
    1.4019   -0.7490   -2.8328 C   0  0  0  0  0  0  0  0  0  0  0  0
    1.4878   -1.9405   -3.7487 C   0  0  0  0  0  0  0  0  0  0  0  0
    0.7868   -2.9997   -3.5886 N   0  3  0  0  0  0  0  0  0  0  0  0
    0.9988   -4.1370   -4.4245 N   0  0  0  0  0  0  0  0  0  0  0  0
    2.5257   -1.8417   -4.8241 C   0  0  0  0  0  0  0  0  0  0  0  0
    3.3081   -0.6115   -4.3082 C   0  0  0  0  0  0  0  0  0  0  0  0
    4.1832   -1.0822   -3.2855 O   0  0  0  0  0  0  0  0  0  0  0  0
    2.1920    0.2646   -3.7138 C   0  0  0  0  0  0  0  0  0  0  0  0
    2.5582    1.4678   -2.8980 C   0  0  0  0  0  0  0  0  0  0  0  0
    3.3826    1.6509   -1.7999 C   0  0  0  0  0  0  0  0  0  0  0  0
    2.9694    2.8505   -1.1645 C   0  0  0  0  0  0  0  0  0  0  0  0
    1.9161    3.3539   -1.9017 C   0  0  0  0  0  0  0  0  0  0  0  0
    1.9177    2.6747   -3.1002 N   0  0  0  0  0  0  0  0  0  0  0  0
    0.8414    4.3434   -1.5519 C   0  0  0  0  0  0  0  0  0  0  0  0
   -0.4358    3.5636   -1.2964 C   0  0  0  0  0  0  0  0  0  0  0  0
    2.3230   -0.4754    3.0404 H   0  0  0  0  0  0  0  0  0  0  0  0
    2.7474   -0.9449    4.6926 H   0  0  0  0  0  0  0  0  0  0  0  0
    3.4964   -1.7679    3.3185 H   0  0  0  0  0  0  0  0  0  0  0  0
    1.7641   -3.2277    4.2588 H   0  0  0  0  0  0  0  0  0  0  0  0
    1.2842   -2.6959    2.6456 H   0  0  0  0  0  0  0  0  0  0  0  0
    0.3583   -1.4459    5.2827 H   0  0  0  0  0  0  0  0  0  0  0  0
   -0.1550   -0.8962    3.6935 H   0  0  0  0  0  0  0  0  0  0  0  0
   -1.6936   -2.5186    5.0830 H   0  0  0  0  0  0  0  0  0  0  0  0
   -0.5581   -3.7832    4.6356 H   0  0  0  0  0  0  0  0  0  0  0  0
   -1.0168   -3.1468    2.1600 H   0  0  0  0  0  0  0  0  0  0  0  0
   -2.2902   -3.9561    3.0685 H   0  0  0  0  0  0  0  0  0  0  0  0
   -3.3940   -1.7665    3.5268 H   0  0  0  0  0  0  0  0  0  0  0  0
   -2.1630   -0.9424    2.5711 H   0  0  0  0  0  0  0  0  0  0  0  0
   -3.9157   -3.1862    1.4600 H   0  0  0  0  0  0  0  0  0  0  0  0
   -2.8311   -2.1609    0.5400 H   0  0  0  0  0  0  0  0  0  0  0  0
   -5.2782   -1.1739    2.1103 H   0  0  0  0  0  0  0  0  0  0  0  0
   -5.3289   -1.5931    0.4054 H   0  0  0  0  0  0  0  0  0  0  0  0
   -3.5597    0.6030    1.5905 H   0  0  0  0  0  0  0  0  0  0  0  0
   -5.1519    0.8670    0.9173 H   0  0  0  0  0  0  0  0  0  0  0  0
   -3.1760   -0.5246   -0.9077 H   0  0  0  0  0  0  0  0  0  0  0  0
   -4.5382    0.4964   -1.2925 H   0  0  0  0  0  0  0  0  0  0  0  0
   -3.3231    2.5303   -0.8169 H   0  0  0  0  0  0  0  0  0  0  0  0
   -0.6207    4.9132    1.5029 H   0  0  0  0  0  0  0  0  0  0  0  0
    0.2068    4.1266    2.8433 H   0  0  0  0  0  0  0  0  0  0  0  0
    1.1458    4.6824    1.4547 H   0  0  0  0  0  0  0  0  0  0  0  0
    0.8024    1.6880    2.6772 H   0  0  0  0  0  0  0  0  0  0  0  0
    0.6801   -0.3886    1.2229 H   0  0  0  0  0  0  0  0  0  0  0  0
    0.0150    0.7664   -2.5309 H   0  0  0  0  0  0  0  0  0  0  0  0
    1.9809   -0.9895   -1.9279 H   0  0  0  0  0  0  0  0  0  0  0  0
    0.1263   -3.0748   -2.8074 H   0  0  0  0  0  0  0  0  0  0  0  0
    3.1341   -2.7453   -4.8891 H   0  0  0  0  0  0  0  0  0  0  0  0
    2.0346   -1.6228   -5.7768 H   0  0  0  0  0  0  0  0  0  0  0  0
    3.8910   -0.1254   -5.0983 H   0  0  0  0  0  0  0  0  0  0  0  0
    4.9232   -0.4460   -3.2019 H   0  0  0  0  0  0  0  0  0  0  0  0
    1.5533    0.5959   -4.5492 H   0  0  0  0  0  0  0  0  0  0  0  0
    4.0897    0.9398   -1.3892 H   0  0  0  0  0  0  0  0  0  0  0  0
    3.3062    3.2208   -0.2016 H   0  0  0  0  0  0  0  0  0  0  0  0
    1.3123    2.9032   -3.8831 H   0  0  0  0  0  0  0  0  0  0  0  0
    0.6833    5.0377   -2.3871 H   0  0  0  0  0  0  0  0  0  0  0  0
    1.1355    4.9517   -0.6953 H   0  0  0  0  0  0  0  0  0  0  0  0
   -1.0205    3.4127   -2.2016 H   0  0  0  0  0  0  0  0  0  0  0  0
  2  1  1  0  0  0  0
  3  2  1  0  0  0  0
  4  3  1  0  0  0  0
  5  4  1  0  0  0  0
  6  5  1  0  0  0  0
  7  6  1  0  0  0  0
  8  7  1  0  0  0  0
  9  8  1  0  0  0  0
 10  9  1  0  0  0  0
 11 10  1  0  0  0  0
 12 11  2  0  0  0  0
 13 12  1  0  0  0  0
 14 13  1  0  0  0  0
 15 14  1  0  0  0  0
 16 14  2  0  0  0  0
 17 16  1  0  0  0  0
 18 17  2  0  0  0  0
 18 12  1  0  0  0  0
 19 18  1  0  0  0  0
 20 19  2  0  0  0  0
 21 19  1  0  0  0  0
 22 21  1  0  0  0  0
 23 22  1  0  0  0  0
 24 23  2  0  0  0  0
 25 24  1  0  0  0  0
 26 23  1  0  0  0  0
 27 26  1  0  0  0  0
 28 27  1  0  0  0  0
 29 27  1  0  0  0  0
 29 22  1  0  0  0  0
 30 29  1  0  0  0  0
 31 30  2  0  0  0  0
 32 31  1  0  0  0  0
 33 32  2  0  0  0  0
 34 33  1  0  0  0  0
 34 30  1  0  0  0  0
 35 33  1  0  0  0  0
 36 35  1  0  0  0  0
 36 13  2  0  0  0  0
  1 37  1  0  0  0  0
  1 38  1  0  0  0  0
  1 39  1  0  0  0  0
  2 40  1  0  0  0  0
  2 41  1  0  0  0  0
  3 42  1  0  0  0  0
  3 43  1  0  0  0  0
  4 44  1  0  0  0  0
  4 45  1  0  0  0  0
  5 46  1  0  0  0  0
  5 47  1  0  0  0  0
  6 48  1  0  0  0  0
  6 49  1  0  0  0  0
  7 50  1  0  0  0  0
  7 51  1  0  0  0  0
  8 52  1  0  0  0  0
  8 53  1  0  0  0  0
  9 54  1  0  0  0  0
  9 55  1  0  0  0  0
 10 56  1  0  0  0  0
 10 57  1  0  0  0  0
 11 58  1  0  0  0  0
 15 59  1  0  0  0  0
 15 60  1  0  0  0  0
 15 61  1  0  0  0  0
 16 62  1  0  0  0  0
 17 63  1  0  0  0  0
 21 64  1  0  0  0  0
 22 65  1  0  0  0  0
 24 66  1  0  0  0  0
 26 67  1  0  0  0  0
 26 68  1  0  0  0  0
 27 69  1  0  0  0  0
 28 70  1  0  0  0  0
 29 71  1  0  0  0  0
 31 72  1  0  0  0  0
 32 73  1  0  0  0  0
 34 74  1  0  0  0  0
 35 75  1  0  0  0  0
 35 76  1  0  0  0  0
 36 77  1  0  0  0  0
M  CHG  2  18   1  24   1
M  RAD  1  25   3
M  END
>  <energy>
137.97026020699508

$$$$
