O=C(O)C1OC2C3CC2C1O3
                    3D

 19 21  0  0  0  0  0  0  0  0999 V2000
    2.9805    0.8464    1.1997 O   0  0  0  0  0  0  0  0  0  0  0  0
    2.4464    0.5133    0.1513 C   0  0  0  0  0  0  0  0  0  0  0  0
    3.1416   -0.1847   -0.7692 O   0  0  0  0  0  0  0  0  0  0  0  0
    1.0288    0.8635   -0.2704 C   0  0  0  0  0  0  0  0  0  0  0  0
    0.5075    0.1892   -1.4377 O   0  0  0  0  0  0  0  0  0  0  0  0
   -0.8381   -0.2474   -1.1064 C   0  0  0  0  0  0  0  0  0  0  0  0
   -0.9342   -1.3587    0.0375 C   0  0  0  0  0  0  0  0  0  0  0  0
   -2.2590   -0.6238    0.4076 C   0  0  0  0  0  0  0  0  0  0  0  0
   -1.3425    0.6026    0.1038 C   0  0  0  0  0  0  0  0  0  0  0  0
    0.0226    0.4710    0.8275 C   0  0  0  0  0  0  0  0  0  0  0  0
    0.0595   -0.9661    1.0173 O   0  0  0  0  0  0  0  0  0  0  0  0
    4.0088   -0.3490   -0.3469 H   0  0  0  0  0  0  0  0  0  0  0  0
    0.9914    1.9384   -0.4799 H   0  0  0  0  0  0  0  0  0  0  0  0
   -1.4899   -0.3553   -1.9776 H   0  0  0  0  0  0  0  0  0  0  0  0
   -0.9507   -2.4163   -0.2201 H   0  0  0  0  0  0  0  0  0  0  0  0
   -2.5860   -0.7250    1.4455 H   0  0  0  0  0  0  0  0  0  0  0  0
   -3.1096   -0.7747   -0.2649 H   0  0  0  0  0  0  0  0  0  0  0  0
   -1.7784    1.5795   -0.0982 H   0  0  0  0  0  0  0  0  0  0  0  0
    0.1014    0.9970    1.7811 H   0  0  0  0  0  0  0  0  0  0  0  0
  2  1  2  0  0  0  0
  3  2  1  0  0  0  0
  4  2  1  0  0  0  0
  5  4  1  0  0  0  0
  6  5  1  0  0  0  0
  7  6  1  0  0  0  0
  8  7  1  0  0  0  0
  9  8  1  0  0  0  0
  9  6  1  0  0  0  0
 10  9  1  0  0  0  0
 10  4  1  0  0  0  0
 11 10  1  0  0  0  0
 11  7  1  0  0  0  0
  3 12  1  0  0  0  0
  4 13  1  0  0  0  0
  6 14  1  0  0  0  0
  7 15  1  0  0  0  0
  8 16  1  0  0  0  0
  8 17  1  0  0  0  0
  9 18  1  0  0  0  0
 10 19  1  0  0  0  0
M  END
>  <energy>
84.976764288493953

$$$$
