CSCCC1(C)CC23C=CC(C(CC2)C2(C)CCCCC2(O)C3)C1(C)C
                    3D

 66 69  0  0  0  0  0  0  0  0999 V2000
    3.8368   -3.4212    1.9395 C   0  0  0  0  0  0  0  0  0  0  0  0
    4.4592   -2.3974    0.5836 S   0  0  0  0  0  0  0  0  0  0  0  0
    3.7170   -0.7884    1.0358 C   0  0  0  0  0  0  0  0  0  0  0  0
    2.1869   -0.7960    0.9117 C   0  0  0  0  0  0  0  0  0  0  0  0
    1.4531    0.6129    0.8647 C   0  0  0  0  0  0  0  0  0  0  0  0
    2.0559    1.3898    2.0900 C   0  0  0  0  0  0  0  0  0  0  0  0
   -0.1091    0.3468    1.1957 C   0  0  0  0  0  0  0  0  0  0  0  0
   -1.4622    1.3092    1.0455 C   0  0  0  0  0  0  0  0  0  0  0  0
   -0.7963    2.5653    1.4369 C   0  0  0  0  0  0  0  0  0  0  0  0
   -0.0273    3.0015    0.4076 C   0  0  0  0  0  0  0  0  0  0  0  0
    0.2678    2.0629   -0.8522 C   0  0  0  0  0  0  0  0  0  0  0  0
   -0.9944    1.1572   -1.5699 C   0  0  0  0  0  0  0  0  0  0  0  0
   -2.1289    2.1446   -1.4497 C   0  0  0  0  0  0  0  0  0  0  0  0
   -2.4618    2.1513    0.0194 C   0  0  0  0  0  0  0  0  0  0  0  0
   -1.7050   -0.3835   -1.2925 C   0  0  0  0  0  0  0  0  0  0  0  0
   -2.5940   -0.6540   -2.5818 C   0  0  0  0  0  0  0  0  0  0  0  0
   -0.6413   -1.5139   -1.4382 C   0  0  0  0  0  0  0  0  0  0  0  0
   -1.0559   -2.9282   -1.0501 C   0  0  0  0  0  0  0  0  0  0  0  0
   -1.6631   -2.9797    0.3368 C   0  0  0  0  0  0  0  0  0  0  0  0
   -2.9120   -2.1263    0.3894 C   0  0  0  0  0  0  0  0  0  0  0  0
   -2.7305   -0.6253    0.0350 C   0  0  0  0  0  0  0  0  0  0  0  0
   -4.1039   -0.3048   -0.3285 O   0  0  0  0  0  0  0  0  0  0  0  0
   -2.4757    0.2149    1.3912 C   0  0  0  0  0  0  0  0  0  0  0  0
    1.6254    1.3682   -0.5346 C   0  0  0  0  0  0  0  0  0  0  0  0
    2.7483    2.4635   -0.4610 C   0  0  0  0  0  0  0  0  0  0  0  0
    2.0789    0.5331   -1.7537 C   0  0  0  0  0  0  0  0  0  0  0  0
    4.1051   -2.9859    2.9055 H   0  0  0  0  0  0  0  0  0  0  0  0
    4.2917   -4.4133    1.8712 H   0  0  0  0  0  0  0  0  0  0  0  0
    2.7526   -3.5387    1.8713 H   0  0  0  0  0  0  0  0  0  0  0  0
    4.0323   -0.5429    2.0549 H   0  0  0  0  0  0  0  0  0  0  0  0
    4.1646   -0.0513    0.3686 H   0  0  0  0  0  0  0  0  0  0  0  0
    1.7906   -1.3517    1.7731 H   0  0  0  0  0  0  0  0  0  0  0  0
    1.9210   -1.3885    0.0367 H   0  0  0  0  0  0  0  0  0  0  0  0
    1.6007    2.3619    2.2776 H   0  0  0  0  0  0  0  0  0  0  0  0
    3.1286    1.5734    1.9770 H   0  0  0  0  0  0  0  0  0  0  0  0
    1.9345    0.8092    3.0134 H   0  0  0  0  0  0  0  0  0  0  0  0
   -0.3324   -0.6397    0.8227 H   0  0  0  0  0  0  0  0  0  0  0  0
   -0.0858    0.1481    2.2846 H   0  0  0  0  0  0  0  0  0  0  0  0
   -1.0034    3.1261    2.3388 H   0  0  0  0  0  0  0  0  0  0  0  0
    0.4708    3.9657    0.4603 H   0  0  0  0  0  0  0  0  0  0  0  0
    0.4717    2.7995   -1.6491 H   0  0  0  0  0  0  0  0  0  0  0  0
   -0.6781    1.1093   -2.6224 H   0  0  0  0  0  0  0  0  0  0  0  0
   -3.0041    1.9144   -2.0572 H   0  0  0  0  0  0  0  0  0  0  0  0
   -1.8259    3.1451   -1.7844 H   0  0  0  0  0  0  0  0  0  0  0  0
   -3.5160    1.8927    0.1620 H   0  0  0  0  0  0  0  0  0  0  0  0
   -2.5761    3.2123    0.3160 H   0  0  0  0  0  0  0  0  0  0  0  0
   -3.4007    0.0648   -2.7303 H   0  0  0  0  0  0  0  0  0  0  0  0
   -1.9853   -0.6175   -3.4938 H   0  0  0  0  0  0  0  0  0  0  0  0
   -3.0642   -1.6426   -2.5447 H   0  0  0  0  0  0  0  0  0  0  0  0
    0.2230   -1.2857   -0.8451 H   0  0  0  0  0  0  0  0  0  0  0  0
   -0.2693   -1.5513   -2.4708 H   0  0  0  0  0  0  0  0  0  0  0  0
   -1.7592   -3.3340   -1.7861 H   0  0  0  0  0  0  0  0  0  0  0  0
   -0.1736   -3.5793   -1.0808 H   0  0  0  0  0  0  0  0  0  0  0  0
   -0.9397   -2.6699    1.0971 H   0  0  0  0  0  0  0  0  0  0  0  0
   -1.9289   -4.0174    0.5715 H   0  0  0  0  0  0  0  0  0  0  0  0
   -3.3746   -2.2208    1.3809 H   0  0  0  0  0  0  0  0  0  0  0  0
   -3.6479   -2.5750   -0.2940 H   0  0  0  0  0  0  0  0  0  0  0  0
   -4.1261    0.4574   -0.9229 H   0  0  0  0  0  0  0  0  0  0  0  0
   -2.1233   -0.4458    2.1934 H   0  0  0  0  0  0  0  0  0  0  0  0
   -3.4125    0.6282    1.7890 H   0  0  0  0  0  0  0  0  0  0  0  0
    3.7341    2.0169   -0.2980 H   0  0  0  0  0  0  0  0  0  0  0  0
    2.8071    3.0257   -1.4018 H   0  0  0  0  0  0  0  0  0  0  0  0
    2.5960    3.2055    0.3265 H   0  0  0  0  0  0  0  0  0  0  0  0
    3.0698    0.0940   -1.6053 H   0  0  0  0  0  0  0  0  0  0  0  0
    1.4114   -0.2692   -2.0294 H   0  0  0  0  0  0  0  0  0  0  0  0
    2.1534    1.1679   -2.6466 H   0  0  0  0  0  0  0  0  0  0  0  0
  2  1  1  0  0  0  0
  3  2  1  0  0  0  0
  4  3  1  0  0  0  0
  5  4  1  0  0  0  0
  6  5  1  0  0  0  0
  7  5  1  0  0  0  0
  8  7  1  0  0  0  0
  9  8  1  0  0  0  0
 10  9  2  0  0  0  0
 11 10  1  0  0  0  0
 12 11  1  0  0  0  0
 13 12  1  0  0  0  0
 14 13  1  0  0  0  0
 14  8  1  0  0  0  0
 15 12  1  0  0  0  0
 16 15  1  0  0  0  0
 17 15  1  0  0  0  0
 18 17  1  0  0  0  0
 19 18  1  0  0  0  0
 20 19  1  0  0  0  0
 21 20  1  0  0  0  0
 21 15  1  0  0  0  0
 22 21  1  0  0  0  0
 23 21  1  0  0  0  0
 23  8  1  0  0  0  0
 24 11  1  0  0  0  0
 24  5  1  0  0  0  0
 25 24  1  0  0  0  0
 26 24  1  0  0  0  0
  1 27  1  0  0  0  0
  1 28  1  0  0  0  0
  1 29  1  0  0  0  0
  3 30  1  0  0  0  0
  3 31  1  0  0  0  0
  4 32  1  0  0  0  0
  4 33  1  0  0  0  0
  6 34  1  0  0  0  0
  6 35  1  0  0  0  0
  6 36  1  0  0  0  0
  7 37  1  0  0  0  0
  7 38  1  0  0  0  0
  9 39  1  0  0  0  0
 10 40  1  0  0  0  0
 11 41  1  0  0  0  0
 12 42  1  0  0  0  0
 13 43  1  0  0  0  0
 13 44  1  0  0  0  0
 14 45  1  0  0  0  0
 14 46  1  0  0  0  0
 16 47  1  0  0  0  0
 16 48  1  0  0  0  0
 16 49  1  0  0  0  0
 17 50  1  0  0  0  0
 17 51  1  0  0  0  0
 18 52  1  0  0  0  0
 18 53  1  0  0  0  0
 19 54  1  0  0  0  0
 19 55  1  0  0  0  0
 20 56  1  0  0  0  0
 20 57  1  0  0  0  0
 22 58  1  0  0  0  0
 23 59  1  0  0  0  0
 23 60  1  0  0  0  0
 25 61  1  0  0  0  0
 25 62  1  0  0  0  0
 25 63  1  0  0  0  0
 26 64  1  0  0  0  0
 26 65  1  0  0  0  0
 26 66  1  0  0  0  0
M  END
>  <energy>
327.46209124899411

$$$$
