CCN(CC)CCCCC(N)C(=O)COCC(=O)N1CCCCc2[nH]c3cnc4c(c3c(=NC3CCOCC3)c2-4)CC1
                    3D

 90 94  0  0  0  0  0  0  0  0999 V2000
    3.9184   -4.0676    2.1225 C   0  0  0  0  0  0  0  0  0  0  0  0
    4.2205   -3.1094    3.2739 C   0  0  0  0  0  0  0  0  0  0  0  0
    3.7158   -1.7350    3.1267 N   0  0  0  0  0  0  0  0  0  0  0  0
    4.4620   -0.9652    2.1254 C   0  0  0  0  0  0  0  0  0  0  0  0
    5.2110    0.1740    2.8040 C   0  0  0  0  0  0  0  0  0  0  0  0
    2.2572   -1.6909    2.9457 C   0  0  0  0  0  0  0  0  0  0  0  0
    1.6639   -0.2952    3.1844 C   0  0  0  0  0  0  0  0  0  0  0  0
    0.1357   -0.3253    3.0507 C   0  0  0  0  0  0  0  0  0  0  0  0
   -0.4579    1.0888    3.0556 C   0  0  0  0  0  0  0  0  0  0  0  0
   -1.9906    1.0934    2.9419 C   0  0  0  0  0  0  0  0  0  0  0  0
   -2.6288    0.6664    4.2009 N   0  0  0  0  0  0  0  0  0  0  0  0
   -2.4708    2.5092    2.5716 C   0  0  0  0  0  0  0  0  0  0  0  0
   -2.3192    3.4764    3.3240 O   0  0  0  0  0  0  0  0  0  0  0  0
   -3.2210    2.6691    1.2513 C   0  0  0  0  0  0  0  0  0  0  0  0
   -2.7619    1.7687    0.2559 O   0  0  0  0  0  0  0  0  0  0  0  0
   -3.1665    2.1220   -1.0642 C   0  0  0  0  0  0  0  0  0  0  0  0
   -2.1712    3.0965   -1.7054 C   0  0  0  0  0  0  0  0  0  0  0  0
   -2.0672    4.2475   -1.2772 O   0  0  0  0  0  0  0  0  0  0  0  0
   -1.3130    2.5868   -2.7057 N   0  0  0  0  0  0  0  0  0  0  0  0
   -0.0698    3.3909   -2.8602 C   0  0  0  0  0  0  0  0  0  0  0  0
    0.8354    3.4091   -1.5622 C   0  0  0  0  0  0  0  0  0  0  0  0
    2.1814    2.6133   -1.5338 C   0  0  0  0  0  0  0  0  0  0  0  0
    2.2525    1.2275   -0.7873 C   0  0  0  0  0  0  0  0  0  0  0  0
    1.2931    0.1505   -1.2397 C   0  0  0  0  0  0  0  0  0  0  0  0
    1.6477   -1.2349   -1.4133 N   0  0  0  0  0  0  0  0  0  0  0  0
    1.2829   -1.7063   -2.9878 C   0  0  0  0  0  0  0  0  0  0  0  0
    2.2840   -1.0831   -3.7262 C   0  0  0  0  0  0  0  0  0  0  0  0
    2.0871    0.2296   -3.9284 N   0  0  0  0  0  0  0  0  0  0  0  0
    0.8274    0.6598   -3.6301 C   0  0  0  0  0  0  0  0  0  0  0  0
   -0.1712   -0.0789   -4.1496 C   0  0  0  0  0  0  0  0  0  0  0  0
   -0.1037   -1.2187   -3.3423 C   0  0  0  0  0  0  0  0  0  0  0  0
   -0.6531   -0.6156   -2.1315 C   0  0  0  0  0  0  0  0  0  0  0  0
   -1.6255   -0.9506   -1.3710 N   0  0  0  0  0  0  0  0  0  0  0  0
   -2.3113   -2.2229   -1.6321 C   0  0  0  0  0  0  0  0  0  0  0  0
   -2.2049   -3.0856   -0.3725 C   0  0  0  0  0  0  0  0  0  0  0  0
   -3.1427   -2.5994    0.7214 C   0  0  0  0  0  0  0  0  0  0  0  0
   -4.4852   -2.5399    0.2408 O   0  0  0  0  0  0  0  0  0  0  0  0
   -4.6197   -1.5766   -0.8014 C   0  0  0  0  0  0  0  0  0  0  0  0
   -3.7699   -1.9590   -2.0057 C   0  0  0  0  0  0  0  0  0  0  0  0
    0.3205    0.5411   -2.0738 C   0  0  0  0  0  0  0  0  0  0  0  0
   -1.3533    0.7100   -4.6536 C   0  0  0  0  0  0  0  0  0  0  0  0
   -1.9563    1.9568   -3.8906 C   0  0  0  0  0  0  0  0  0  0  0  0
    4.3202   -3.7042    1.1725 H   0  0  0  0  0  0  0  0  0  0  0  0
    4.3723   -5.0435    2.3255 H   0  0  0  0  0  0  0  0  0  0  0  0
    2.8429   -4.2316    2.0030 H   0  0  0  0  0  0  0  0  0  0  0  0
    5.3056   -3.0802    3.4384 H   0  0  0  0  0  0  0  0  0  0  0  0
    3.8051   -3.5338    4.1962 H   0  0  0  0  0  0  0  0  0  0  0  0
    3.8075   -0.5555    1.3477 H   0  0  0  0  0  0  0  0  0  0  0  0
    5.1964   -1.5811    1.5926 H   0  0  0  0  0  0  0  0  0  0  0  0
    4.5268    0.8713    3.2964 H   0  0  0  0  0  0  0  0  0  0  0  0
    5.9138   -0.2017    3.5551 H   0  0  0  0  0  0  0  0  0  0  0  0
    5.7863    0.7385    2.0640 H   0  0  0  0  0  0  0  0  0  0  0  0
    1.7873   -2.3759    3.6639 H   0  0  0  0  0  0  0  0  0  0  0  0
    1.9811   -2.0382    1.9424 H   0  0  0  0  0  0  0  0  0  0  0  0
    1.9341    0.0598    4.1878 H   0  0  0  0  0  0  0  0  0  0  0  0
    2.0743    0.4221    2.4654 H   0  0  0  0  0  0  0  0  0  0  0  0
   -0.1432   -0.8252    2.1142 H   0  0  0  0  0  0  0  0  0  0  0  0
   -0.2813   -0.9187    3.8731 H   0  0  0  0  0  0  0  0  0  0  0  0
   -0.0330    1.6505    2.2122 H   0  0  0  0  0  0  0  0  0  0  0  0
   -0.1447    1.6216    3.9640 H   0  0  0  0  0  0  0  0  0  0  0  0
   -2.3013    0.3954    2.1618 H   0  0  0  0  0  0  0  0  0  0  0  0
   -2.3391   -0.2793    4.4365 H   0  0  0  0  0  0  0  0  0  0  0  0
   -3.6402    0.6416    4.0867 H   0  0  0  0  0  0  0  0  0  0  0  0
   -3.0926    3.7060    0.9271 H   0  0  0  0  0  0  0  0  0  0  0  0
   -4.2825    2.4801    1.4432 H   0  0  0  0  0  0  0  0  0  0  0  0
   -3.2165    1.1942   -1.6318 H   0  0  0  0  0  0  0  0  0  0  0  0
   -4.1673    2.5670   -1.0715 H   0  0  0  0  0  0  0  0  0  0  0  0
   -0.3869    4.4196   -3.0734 H   0  0  0  0  0  0  0  0  0  0  0  0
    0.4934    3.0724   -3.7397 H   0  0  0  0  0  0  0  0  0  0  0  0
    0.2568    3.1618   -0.6645 H   0  0  0  0  0  0  0  0  0  0  0  0
    1.1246    4.4628   -1.4473 H   0  0  0  0  0  0  0  0  0  0  0  0
    2.5801    2.5190   -2.5474 H   0  0  0  0  0  0  0  0  0  0  0  0
    2.9014    3.2526   -1.0044 H   0  0  0  0  0  0  0  0  0  0  0  0
    3.2833    0.8579   -0.8685 H   0  0  0  0  0  0  0  0  0  0  0  0
    2.0688    1.4053    0.2795 H   0  0  0  0  0  0  0  0  0  0  0  0
    2.6428   -1.4213   -1.2834 H   0  0  0  0  0  0  0  0  0  0  0  0
    3.2868   -1.4656   -3.8525 H   0  0  0  0  0  0  0  0  0  0  0  0
   -1.8446   -2.7764   -2.4553 H   0  0  0  0  0  0  0  0  0  0  0  0
   -2.4832   -4.1132   -0.6397 H   0  0  0  0  0  0  0  0  0  0  0  0
   -1.1753   -3.1066    0.0048 H   0  0  0  0  0  0  0  0  0  0  0  0
   -3.1278   -3.2949    1.5659 H   0  0  0  0  0  0  0  0  0  0  0  0
   -2.8426   -1.6187    1.1046 H   0  0  0  0  0  0  0  0  0  0  0  0
   -4.3695   -0.5823   -0.4175 H   0  0  0  0  0  0  0  0  0  0  0  0
   -5.6736   -1.5518   -1.0948 H   0  0  0  0  0  0  0  0  0  0  0  0
   -4.1770   -2.8894   -2.4224 H   0  0  0  0  0  0  0  0  0  0  0  0
   -3.8461   -1.1925   -2.7854 H   0  0  0  0  0  0  0  0  0  0  0  0
   -1.0334    1.1017   -5.6334 H   0  0  0  0  0  0  0  0  0  0  0  0
   -2.1681    0.0167   -4.9029 H   0  0  0  0  0  0  0  0  0  0  0  0
   -2.1047    2.7666   -4.6193 H   0  0  0  0  0  0  0  0  0  0  0  0
   -2.9788    1.6698   -3.6205 H   0  0  0  0  0  0  0  0  0  0  0  0
  2  1  1  0  0  0  0
  3  2  1  0  0  0  0
  4  3  1  0  0  0  0
  5  4  1  0  0  0  0
  6  3  1  0  0  0  0
  7  6  1  0  0  0  0
  8  7  1  0  0  0  0
  9  8  1  0  0  0  0
 10  9  1  0  0  0  0
 11 10  1  0  0  0  0
 12 10  1  0  0  0  0
 13 12  2  0  0  0  0
 14 12  1  0  0  0  0
 15 14  1  0  0  0  0
 16 15  1  0  0  0  0
 17 16  1  0  0  0  0
 18 17  2  0  0  0  0
 19 17  1  0  0  0  0
 20 19  1  0  0  0  0
 21 20  1  0  0  0  0
 22 21  1  0  0  0  0
 23 22  1  0  0  0  0
 24 23  1  0  0  0  0
 25 24  1  0  0  0  0
 26 25  1  0  0  0  0
 27 26  2  0  0  0  0
 28 27  1  0  0  0  0
 29 28  2  0  0  0  0
 30 29  1  0  0  0  0
 31 30  2  0  0  0  0
 31 26  1  0  0  0  0
 32 31  1  0  0  0  0
 33 32  2  0  0  0  0
 34 33  1  0  0  0  0
 35 34  1  0  0  0  0
 36 35  1  0  0  0  0
 37 36  1  0  0  0  0
 38 37  1  0  0  0  0
 39 38  1  0  0  0  0
 39 34  1  0  0  0  0
 40 32  1  0  0  0  0
 40 24  2  0  0  0  0
 40 29  1  0  0  0  0
 41 30  1  0  0  0  0
 42 41  1  0  0  0  0
 42 19  1  0  0  0  0
  1 43  1  0  0  0  0
  1 44  1  0  0  0  0
  1 45  1  0  0  0  0
  2 46  1  0  0  0  0
  2 47  1  0  0  0  0
  4 48  1  0  0  0  0
  4 49  1  0  0  0  0
  5 50  1  0  0  0  0
  5 51  1  0  0  0  0
  5 52  1  0  0  0  0
  6 53  1  0  0  0  0
  6 54  1  0  0  0  0
  7 55  1  0  0  0  0
  7 56  1  0  0  0  0
  8 57  1  0  0  0  0
  8 58  1  0  0  0  0
  9 59  1  0  0  0  0
  9 60  1  0  0  0  0
 10 61  1  0  0  0  0
 11 62  1  0  0  0  0
 11 63  1  0  0  0  0
 14 64  1  0  0  0  0
 14 65  1  0  0  0  0
 16 66  1  0  0  0  0
 16 67  1  0  0  0  0
 20 68  1  0  0  0  0
 20 69  1  0  0  0  0
 21 70  1  0  0  0  0
 21 71  1  0  0  0  0
 22 72  1  0  0  0  0
 22 73  1  0  0  0  0
 23 74  1  0  0  0  0
 23 75  1  0  0  0  0
 25 76  1  0  0  0  0
 27 77  1  0  0  0  0
 34 78  1  0  0  0  0
 35 79  1  0  0  0  0
 35 80  1  0  0  0  0
 36 81  1  0  0  0  0
 36 82  1  0  0  0  0
 38 83  1  0  0  0  0
 38 84  1  0  0  0  0
 39 85  1  0  0  0  0
 39 86  1  0  0  0  0
 41 87  1  0  0  0  0
 41 88  1  0  0  0  0
 42 89  1  0  0  0  0
 42 90  1  0  0  0  0
M  END
>  <energy>
452.01045483096942

$$$$
