O=C(O)C1CC2C3CC4CC2CC1(C4)C3
                    3D

 33 36  0  0  0  0  0  0  0  0999 V2000
   -3.0786   -0.3831    1.9971 O   0  0  0  0  0  0  0  0  0  0  0  0
   -2.8430    0.4174    1.1071 C   0  0  0  0  0  0  0  0  0  0  0  0
   -3.4976    1.5916    1.0524 O   0  0  0  0  0  0  0  0  0  0  0  0
   -1.9018    0.2063   -0.0609 C   0  0  0  0  0  0  0  0  0  0  0  0
   -1.1029    1.5706   -0.6305 C   0  0  0  0  0  0  0  0  0  0  0  0
    0.5724    1.3054   -0.7311 C   0  0  0  0  0  0  0  0  0  0  0  0
    1.1084    0.9942    0.7010 C   0  0  0  0  0  0  0  0  0  0  0  0
    2.2015   -0.0662    0.8916 C   0  0  0  0  0  0  0  0  0  0  0  0
    1.7737   -1.3668    0.1667 C   0  0  0  0  0  0  0  0  0  0  0  0
    1.9492   -0.9155   -1.3061 C   0  0  0  0  0  0  0  0  0  0  0  0
    0.8333    0.0782   -1.6612 C   0  0  0  0  0  0  0  0  0  0  0  0
   -0.3760   -0.7542   -1.4237 C   0  0  0  0  0  0  0  0  0  0  0  0
   -0.6745   -0.6599    0.1731 C   0  0  0  0  0  0  0  0  0  0  0  0
    0.2267   -1.8517    0.5329 C   0  0  0  0  0  0  0  0  0  0  0  0
   -0.0614    0.3165    1.3193 C   0  0  0  0  0  0  0  0  0  0  0  0
   -4.0856    1.5719    1.8363 H   0  0  0  0  0  0  0  0  0  0  0  0
   -2.5849   -0.1674   -0.8371 H   0  0  0  0  0  0  0  0  0  0  0  0
   -1.2864    2.4361    0.0162 H   0  0  0  0  0  0  0  0  0  0  0  0
   -1.4773    1.8102   -1.6331 H   0  0  0  0  0  0  0  0  0  0  0  0
    1.0630    2.1976   -1.1339 H   0  0  0  0  0  0  0  0  0  0  0  0
    1.3630    1.9153    1.2356 H   0  0  0  0  0  0  0  0  0  0  0  0
    2.3535   -0.2793    1.9579 H   0  0  0  0  0  0  0  0  0  0  0  0
    3.1638    0.3115    0.5250 H   0  0  0  0  0  0  0  0  0  0  0  0
    2.4664   -2.1816    0.4023 H   0  0  0  0  0  0  0  0  0  0  0  0
    2.9318   -0.4608   -1.4825 H   0  0  0  0  0  0  0  0  0  0  0  0
    1.9082   -1.7954   -1.9615 H   0  0  0  0  0  0  0  0  0  0  0  0
    0.9051    0.3858   -2.7095 H   0  0  0  0  0  0  0  0  0  0  0  0
   -1.1702   -0.4053   -2.1009 H   0  0  0  0  0  0  0  0  0  0  0  0
   -0.2869   -1.7920   -1.7791 H   0  0  0  0  0  0  0  0  0  0  0  0
   -0.0091   -2.7673   -0.0231 H   0  0  0  0  0  0  0  0  0  0  0  0
    0.1741   -2.1405    1.5897 H   0  0  0  0  0  0  0  0  0  0  0  0
    0.1673   -0.2175    2.2541 H   0  0  0  0  0  0  0  0  0  0  0  0
   -0.7252    1.0957    1.7158 H   0  0  0  0  0  0  0  0  0  0  0  0
  2  1  2  0  0  0  0
  3  2  1  0  0  0  0
  4  2  1  0  0  0  0
  5  4  1  0  0  0  0
  6  5  1  0  0  0  0
  7  6  1  0  0  0  0
  8  7  1  0  0  0  0
  9  8  1  0  0  0  0
 10  9  1  0  0  0  0
 11 10  1  0  0  0  0
 11  6  1  0  0  0  0
 12 11  1  0  0  0  0
 13 12  1  0  0  0  0
 13  4  1  0  0  0  0
 14 13  1  0  0  0  0
 14  9  1  0  0  0  0
 15 13  1  0  0  0  0
 15  7  1  0  0  0  0
  3 16  1  0  0  0  0
  4 17  1  0  0  0  0
  5 18  1  0  0  0  0
  5 19  1  0  0  0  0
  6 20  1  0  0  0  0
  7 21  1  0  0  0  0
  8 22  1  0  0  0  0
  8 23  1  0  0  0  0
  9 24  1  0  0  0  0
 10 25  1  0  0  0  0
 10 26  1  0  0  0  0
 11 27  1  0  0  0  0
 12 28  1  0  0  0  0
 12 29  1  0  0  0  0
 14 30  1  0  0  0  0
 14 31  1  0  0  0  0
 15 32  1  0  0  0  0
 15 33  1  0  0  0  0
M  END
>  <energy>
163.64313702844831

$$$$
