CCCC1CC2C3(CO3)C34CCC2(C(=O)NCCCN2CCN(C)CC2)C2(C#N)C(C3)C(O)CCC1(C)C42
                    3D

 86 92  0  0  0  0  0  0  0  0999 V2000
    0.5821   -3.6303   -4.1146 C   0  0  0  0  0  0  0  0  0  0  0  0
    0.6418   -2.4789   -3.1180 C   0  0  0  0  0  0  0  0  0  0  0  0
    1.2348   -2.9636   -1.7914 C   0  0  0  0  0  0  0  0  0  0  0  0
    1.3985   -1.9334   -0.6554 C   0  0  0  0  0  0  0  0  0  0  0  0
    0.0616   -0.9980   -0.5172 C   0  0  0  0  0  0  0  0  0  0  0  0
   -0.0582   -0.0421    0.7908 C   0  0  0  0  0  0  0  0  0  0  0  0
    0.4861   -0.8893    1.9180 C   0  0  0  0  0  0  0  0  0  0  0  0
   -0.4356   -1.4689    2.9871 C   0  0  0  0  0  0  0  0  0  0  0  0
    0.2213   -2.2766    2.0056 O   0  0  0  0  0  0  0  0  0  0  0  0
    1.8266   -0.3641    2.0778 C   0  0  0  0  0  0  0  0  0  0  0  0
    1.4490    0.8972    3.1180 C   0  0  0  0  0  0  0  0  0  0  0  0
    0.6997    1.9637    2.3804 C   0  0  0  0  0  0  0  0  0  0  0  0
    0.9275    1.5416    0.9502 C   0  0  0  0  0  0  0  0  0  0  0  0
    0.3461    2.6299    0.0355 C   0  0  0  0  0  0  0  0  0  0  0  0
    0.7334    3.7994    0.1255 O   0  0  0  0  0  0  0  0  0  0  0  0
   -0.6713    2.2707   -0.8207 N   0  0  0  0  0  0  0  0  0  0  0  0
   -1.3979    3.2645   -1.6179 C   0  0  0  0  0  0  0  0  0  0  0  0
   -2.5377    2.6135   -2.4260 C   0  0  0  0  0  0  0  0  0  0  0  0
   -3.8772    2.5271   -1.6662 C   0  0  0  0  0  0  0  0  0  0  0  0
   -3.8823    1.6527   -0.4804 N   0  0  0  0  0  0  0  0  0  0  0  0
   -4.9411    2.1092    0.4670 C   0  0  0  0  0  0  0  0  0  0  0  0
   -5.2682    1.0323    1.5210 C   0  0  0  0  0  0  0  0  0  0  0  0
   -5.9283   -0.1615    0.9345 N   0  0  0  0  0  0  0  0  0  0  0  0
   -5.5860   -1.3490    1.7210 C   0  0  0  0  0  0  0  0  0  0  0  0
   -5.5138   -0.3286   -0.4816 C   0  0  0  0  0  0  0  0  0  0  0  0
   -4.1013    0.2234   -0.8227 C   0  0  0  0  0  0  0  0  0  0  0  0
    2.7565    1.2808    0.8183 C   0  0  0  0  0  0  0  0  0  0  0  0
    3.3497    2.2214   -0.1305 C   0  0  0  0  0  0  0  0  0  0  0  0
    3.8089    2.9681   -0.8807 N   0  0  0  0  0  0  0  0  0  0  0  0
    3.8547    0.5868    1.8737 C   0  0  0  0  0  0  0  0  0  0  0  0
    3.1569   -0.6569    2.6029 C   0  0  0  0  0  0  0  0  0  0  0  0
    5.2098    0.0565    1.3136 C   0  0  0  0  0  0  0  0  0  0  0  0
    6.0469    1.1563    0.9498 O   0  0  0  0  0  0  0  0  0  0  0  0
    5.2486   -1.0032    0.1809 C   0  0  0  0  0  0  0  0  0  0  0  0
    4.0125   -1.8814   -0.1363 C   0  0  0  0  0  0  0  0  0  0  0  0
    2.7610   -1.1027   -0.5694 C   0  0  0  0  0  0  0  0  0  0  0  0
    3.0730   -0.4823   -1.9629 C   0  0  0  0  0  0  0  0  0  0  0  0
    2.3372   -0.0271    0.4078 C   0  0  0  0  0  0  0  0  0  0  0  0
   -0.1431   -4.3839   -3.7871 H   0  0  0  0  0  0  0  0  0  0  0  0
    1.5587   -4.1132   -4.2162 H   0  0  0  0  0  0  0  0  0  0  0  0
    0.2714   -3.2677   -5.0980 H   0  0  0  0  0  0  0  0  0  0  0  0
   -0.3817   -2.1095   -2.9740 H   0  0  0  0  0  0  0  0  0  0  0  0
    1.2381   -1.6636   -3.5358 H   0  0  0  0  0  0  0  0  0  0  0  0
    2.1815   -3.4854   -1.9621 H   0  0  0  0  0  0  0  0  0  0  0  0
    0.5467   -3.7354   -1.4143 H   0  0  0  0  0  0  0  0  0  0  0  0
    1.4228   -2.5820    0.2257 H   0  0  0  0  0  0  0  0  0  0  0  0
   -0.7955   -1.6869   -0.4812 H   0  0  0  0  0  0  0  0  0  0  0  0
   -0.0587   -0.4005   -1.4243 H   0  0  0  0  0  0  0  0  0  0  0  0
   -1.1062    0.2360    0.9442 H   0  0  0  0  0  0  0  0  0  0  0  0
   -0.0890   -1.5779    4.0049 H   0  0  0  0  0  0  0  0  0  0  0  0
   -1.5066   -1.3346    2.8813 H   0  0  0  0  0  0  0  0  0  0  0  0
    2.3166    1.3671    3.5977 H   0  0  0  0  0  0  0  0  0  0  0  0
    0.8785    0.5258    3.9762 H   0  0  0  0  0  0  0  0  0  0  0  0
    1.0999    2.9599    2.6128 H   0  0  0  0  0  0  0  0  0  0  0  0
   -0.3629    1.9682    2.6502 H   0  0  0  0  0  0  0  0  0  0  0  0
   -1.0833    1.3464   -0.7936 H   0  0  0  0  0  0  0  0  0  0  0  0
   -1.7857    4.0556   -0.9581 H   0  0  0  0  0  0  0  0  0  0  0  0
   -0.6582    3.7303   -2.2922 H   0  0  0  0  0  0  0  0  0  0  0  0
   -2.2261    1.6293   -2.7989 H   0  0  0  0  0  0  0  0  0  0  0  0
   -2.7254    3.2398   -3.3093 H   0  0  0  0  0  0  0  0  0  0  0  0
   -4.6745    2.2283   -2.3612 H   0  0  0  0  0  0  0  0  0  0  0  0
   -4.1145    3.5503   -1.3578 H   0  0  0  0  0  0  0  0  0  0  0  0
   -4.6036    3.0204    0.9751 H   0  0  0  0  0  0  0  0  0  0  0  0
   -5.8654    2.3596   -0.0700 H   0  0  0  0  0  0  0  0  0  0  0  0
   -4.3277    0.7578    2.0171 H   0  0  0  0  0  0  0  0  0  0  0  0
   -5.9266    1.4512    2.2926 H   0  0  0  0  0  0  0  0  0  0  0  0
   -6.1880   -2.2027    1.3932 H   0  0  0  0  0  0  0  0  0  0  0  0
   -4.5293   -1.6173    1.6260 H   0  0  0  0  0  0  0  0  0  0  0  0
   -5.8121   -1.1902    2.7818 H   0  0  0  0  0  0  0  0  0  0  0  0
   -6.2469    0.2158   -1.0934 H   0  0  0  0  0  0  0  0  0  0  0  0
   -5.6003   -1.3780   -0.7933 H   0  0  0  0  0  0  0  0  0  0  0  0
   -3.8743    0.0211   -1.8770 H   0  0  0  0  0  0  0  0  0  0  0  0
   -3.3685   -0.3508   -0.2449 H   0  0  0  0  0  0  0  0  0  0  0  0
    4.1041    1.3615    2.6110 H   0  0  0  0  0  0  0  0  0  0  0  0
    3.5415   -1.6371    2.3401 H   0  0  0  0  0  0  0  0  0  0  0  0
    3.2634   -0.5914    3.6897 H   0  0  0  0  0  0  0  0  0  0  0  0
    5.7241   -0.3941    2.1722 H   0  0  0  0  0  0  0  0  0  0  0  0
    6.9790    0.8627    0.9683 H   0  0  0  0  0  0  0  0  0  0  0  0
    6.0763   -1.6906    0.4338 H   0  0  0  0  0  0  0  0  0  0  0  0
    5.5975   -0.5240   -0.7487 H   0  0  0  0  0  0  0  0  0  0  0  0
    4.3050   -2.5442   -0.9623 H   0  0  0  0  0  0  0  0  0  0  0  0
    3.8120   -2.5693    0.6847 H   0  0  0  0  0  0  0  0  0  0  0  0
    3.9066    0.2231   -1.9145 H   0  0  0  0  0  0  0  0  0  0  0  0
    3.3447   -1.2574   -2.6881 H   0  0  0  0  0  0  0  0  0  0  0  0
    2.2135    0.0649   -2.3679 H   0  0  0  0  0  0  0  0  0  0  0  0
    1.6469    0.3553   -0.3418 H   0  0  0  0  0  0  0  0  0  0  0  0
  2  1  1  0  0  0  0
  3  2  1  0  0  0  0
  4  3  1  0  0  0  0
  5  4  1  0  0  0  0
  6  5  1  0  0  0  0
  7  6  1  0  0  0  0
  8  7  1  0  0  0  0
  9  8  1  0  0  0  0
  9  7  1  0  0  0  0
 10  7  1  0  0  0  0
 11 10  1  0  0  0  0
 12 11  1  0  0  0  0
 13 12  1  0  0  0  0
 13  6  1  0  0  0  0
 14 13  1  0  0  0  0
 15 14  2  0  0  0  0
 16 14  1  0  0  0  0
 17 16  1  0  0  0  0
 18 17  1  0  0  0  0
 19 18  1  0  0  0  0
 20 19  1  0  0  0  0
 21 20  1  0  0  0  0
 22 21  1  0  0  0  0
 23 22  1  0  0  0  0
 24 23  1  0  0  0  0
 25 23  1  0  0  0  0
 26 25  1  0  0  0  0
 26 20  1  0  0  0  0
 27 13  1  0  0  0  0
 28 27  1  0  0  0  0
 29 28  3  0  0  0  0
 30 27  1  0  0  0  0
 31 30  1  0  0  0  0
 31 10  1  0  0  0  0
 32 30  1  0  0  0  0
 33 32  1  0  0  0  0
 34 32  1  0  0  0  0
 35 34  1  0  0  0  0
 36 35  1  0  0  0  0
 36  4  1  0  0  0  0
 37 36  1  0  0  0  0
 38 36  1  0  0  0  0
 38 10  1  0  0  0  0
 38 27  1  0  0  0  0
  1 39  1  0  0  0  0
  1 40  1  0  0  0  0
  1 41  1  0  0  0  0
  2 42  1  0  0  0  0
  2 43  1  0  0  0  0
  3 44  1  0  0  0  0
  3 45  1  0  0  0  0
  4 46  1  0  0  0  0
  5 47  1  0  0  0  0
  5 48  1  0  0  0  0
  6 49  1  0  0  0  0
  8 50  1  0  0  0  0
  8 51  1  0  0  0  0
 11 52  1  0  0  0  0
 11 53  1  0  0  0  0
 12 54  1  0  0  0  0
 12 55  1  0  0  0  0
 16 56  1  0  0  0  0
 17 57  1  0  0  0  0
 17 58  1  0  0  0  0
 18 59  1  0  0  0  0
 18 60  1  0  0  0  0
 19 61  1  0  0  0  0
 19 62  1  0  0  0  0
 21 63  1  0  0  0  0
 21 64  1  0  0  0  0
 22 65  1  0  0  0  0
 22 66  1  0  0  0  0
 24 67  1  0  0  0  0
 24 68  1  0  0  0  0
 24 69  1  0  0  0  0
 25 70  1  0  0  0  0
 25 71  1  0  0  0  0
 26 72  1  0  0  0  0
 26 73  1  0  0  0  0
 30 74  1  0  0  0  0
 31 75  1  0  0  0  0
 31 76  1  0  0  0  0
 32 77  1  0  0  0  0
 33 78  1  0  0  0  0
 34 79  1  0  0  0  0
 34 80  1  0  0  0  0
 35 81  1  0  0  0  0
 35 82  1  0  0  0  0
 37 83  1  0  0  0  0
 37 84  1  0  0  0  0
 37 85  1  0  0  0  0
 38 86  1  0  0  0  0
M  END
>  <energy>
410.01556369705338

$$$$
