CCNC(=O)OC1CC2CCN3CCC4CC(C2)C3C1C4
                    3D

 49 52  0  0  0  0  0  0  0  0999 V2000
   -4.0545    0.4476   -0.4692 C   0  0  0  0  0  0  0  0  0  0  0  0
   -4.1314   -0.8087    0.3789 C   0  0  0  0  0  0  0  0  0  0  0  0
   -3.5401   -0.6095    1.6841 N   0  0  0  0  0  0  0  0  0  0  0  0
   -2.2304   -0.8045    2.0109 C   0  0  0  0  0  0  0  0  0  0  0  0
   -1.8092   -0.6035    3.1420 O   0  0  0  0  0  0  0  0  0  0  0  0
   -1.4903   -1.2453    0.9662 O   0  0  0  0  0  0  0  0  0  0  0  0
   -0.1127   -1.5440    1.2567 C   0  0  0  0  0  0  0  0  0  0  0  0
    0.4705   -2.5255   -0.0203 C   0  0  0  0  0  0  0  0  0  0  0  0
    1.0916   -1.9669   -1.5199 C   0  0  0  0  0  0  0  0  0  0  0  0
    0.0704   -1.0995   -2.3881 C   0  0  0  0  0  0  0  0  0  0  0  0
    0.1026    0.5051   -2.2744 C   0  0  0  0  0  0  0  0  0  0  0  0
    0.7488    1.0869   -1.0759 N   0  0  0  0  0  0  0  0  0  0  0  0
    0.2923    2.3523   -0.5643 C   0  0  0  0  0  0  0  0  0  0  0  0
    1.3832    2.9243    0.3658 C   0  0  0  0  0  0  0  0  0  0  0  0
    2.0918    1.8620    1.2630 C   0  0  0  0  0  0  0  0  0  0  0  0
    3.1036    0.9459    0.3156 C   0  0  0  0  0  0  0  0  0  0  0  0
    2.3972   -0.3400   -0.1874 C   0  0  0  0  0  0  0  0  0  0  0  0
    2.4748   -1.1769   -1.4409 C   0  0  0  0  0  0  0  0  0  0  0  0
    0.9596    0.0666   -0.0709 C   0  0  0  0  0  0  0  0  0  0  0  0
    0.7700   -0.2626    1.3807 C   0  0  0  0  0  0  0  0  0  0  0  0
    0.9381    1.0643    2.0701 C   0  0  0  0  0  0  0  0  0  0  0  0
   -4.5935    1.2732    0.0086 H   0  0  0  0  0  0  0  0  0  0  0  0
   -4.5017    0.2715   -1.4516 H   0  0  0  0  0  0  0  0  0  0  0  0
   -3.0174    0.7667   -0.6158 H   0  0  0  0  0  0  0  0  0  0  0  0
   -3.6301   -1.6377   -0.1303 H   0  0  0  0  0  0  0  0  0  0  0  0
   -5.1773   -1.0927    0.5359 H   0  0  0  0  0  0  0  0  0  0  0  0
   -4.1068   -0.2471    2.4383 H   0  0  0  0  0  0  0  0  0  0  0  0
   -0.0645   -2.1595    2.1646 H   0  0  0  0  0  0  0  0  0  0  0  0
    1.2785   -3.1267    0.4171 H   0  0  0  0  0  0  0  0  0  0  0  0
   -0.3564   -3.1997   -0.2805 H   0  0  0  0  0  0  0  0  0  0  0  0
    1.2775   -2.8876   -2.0881 H   0  0  0  0  0  0  0  0  0  0  0  0
   -0.9454   -1.4444   -2.1559 H   0  0  0  0  0  0  0  0  0  0  0  0
    0.2421   -1.3420   -3.4445 H   0  0  0  0  0  0  0  0  0  0  0  0
    0.6204    0.9010   -3.1562 H   0  0  0  0  0  0  0  0  0  0  0  0
   -0.9379    0.8484   -2.3403 H   0  0  0  0  0  0  0  0  0  0  0  0
   -0.6623    2.2443   -0.0344 H   0  0  0  0  0  0  0  0  0  0  0  0
    0.1248    3.0676   -1.3778 H   0  0  0  0  0  0  0  0  0  0  0  0
    0.9288    3.6900    1.0073 H   0  0  0  0  0  0  0  0  0  0  0  0
    2.1415    3.4393   -0.2378 H   0  0  0  0  0  0  0  0  0  0  0  0
    2.7195    2.4047    1.9816 H   0  0  0  0  0  0  0  0  0  0  0  0
    3.4857    1.5442   -0.5181 H   0  0  0  0  0  0  0  0  0  0  0  0
    3.9691    0.6643    0.9292 H   0  0  0  0  0  0  0  0  0  0  0  0
    2.7507   -1.0941    0.5309 H   0  0  0  0  0  0  0  0  0  0  0  0
    3.2997   -1.8968   -1.3694 H   0  0  0  0  0  0  0  0  0  0  0  0
    2.6505   -0.5811   -2.3428 H   0  0  0  0  0  0  0  0  0  0  0  0
    0.0928   -0.4553   -0.3943 H   0  0  0  0  0  0  0  0  0  0  0  0
    1.6108   -0.7750    1.8781 H   0  0  0  0  0  0  0  0  0  0  0  0
    1.2681    0.9196    3.1069 H   0  0  0  0  0  0  0  0  0  0  0  0
    0.0068    1.6365    2.1166 H   0  0  0  0  0  0  0  0  0  0  0  0
  2  1  1  0  0  0  0
  3  2  1  0  0  0  0
  4  3  1  0  0  0  0
  5  4  2  0  0  0  0
  6  4  1  0  0  0  0
  7  6  1  0  0  0  0
  8  7  1  0  0  0  0
  9  8  1  0  0  0  0
 10  9  1  0  0  0  0
 11 10  1  0  0  0  0
 12 11  1  0  0  0  0
 13 12  1  0  0  0  0
 14 13  1  0  0  0  0
 15 14  1  0  0  0  0
 16 15  1  0  0  0  0
 17 16  1  0  0  0  0
 18 17  1  0  0  0  0
 18  9  1  0  0  0  0
 19 17  1  0  0  0  0
 19 12  1  0  0  0  0
 20 19  1  0  0  0  0
 20  7  1  0  0  0  0
 21 20  1  0  0  0  0
 21 15  1  0  0  0  0
  1 22  1  0  0  0  0
  1 23  1  0  0  0  0
  1 24  1  0  0  0  0
  2 25  1  0  0  0  0
  2 26  1  0  0  0  0
  3 27  1  0  0  0  0
  7 28  1  0  0  0  0
  8 29  1  0  0  0  0
  8 30  1  0  0  0  0
  9 31  1  0  0  0  0
 10 32  1  0  0  0  0
 10 33  1  0  0  0  0
 11 34  1  0  0  0  0
 11 35  1  0  0  0  0
 13 36  1  0  0  0  0
 13 37  1  0  0  0  0
 14 38  1  0  0  0  0
 14 39  1  0  0  0  0
 15 40  1  0  0  0  0
 16 41  1  0  0  0  0
 16 42  1  0  0  0  0
 17 43  1  0  0  0  0
 18 44  1  0  0  0  0
 18 45  1  0  0  0  0
 19 46  1  0  0  0  0
 20 47  1  0  0  0  0
 21 48  1  0  0  0  0
 21 49  1  0  0  0  0
M  END
>  <energy>
155.50174566798336

$$$$
