CC[N+]1(CC[N+](C)(C)C)CC2C3C4(CO)C5C4C4C(C)(C5C43C(=O)O)C21
                    3D

 60 65  0  0  0  0  0  0  0  0999 V2000
   -0.9553   -3.5424   -0.8166 C   0  0  0  0  0  0  0  0  0  0  0  0
   -0.5626   -2.4629    0.1840 C   0  0  0  0  0  0  0  0  0  0  0  0
   -0.6599   -1.0741   -0.3984 N   0  3  0  0  0  0  0  0  0  0  0  0
   -2.0343   -0.5646   -0.8315 C   0  0  0  0  0  0  0  0  0  0  0  0
   -2.9954   -0.3302    0.3899 C   0  0  0  0  0  0  0  0  0  0  0  0
   -3.9362    0.8974    0.2789 N   0  3  0  0  0  0  0  0  0  0  0  0
   -5.0017    0.6800   -0.7964 C   0  0  0  0  0  0  0  0  0  0  0  0
   -4.6795    1.0878    1.6191 C   0  0  0  0  0  0  0  0  0  0  0  0
   -3.1945    2.2031    0.0027 C   0  0  0  0  0  0  0  0  0  0  0  0
    0.3267   -0.9269   -1.5340 C   0  0  0  0  0  0  0  0  0  0  0  0
    0.7508    0.4170   -0.9121 C   0  0  0  0  0  0  0  0  0  0  0  0
    2.0979    0.9691   -0.4059 C   0  0  0  0  0  0  0  0  0  0  0  0
    3.1745    0.9372   -1.3031 C   0  0  0  0  0  0  0  0  0  0  0  0
    3.2696    1.5323   -2.6401 C   0  0  0  0  0  0  0  0  0  0  0  0
    2.1050    1.1610   -3.3658 O   0  0  0  0  0  0  0  0  0  0  0  0
    3.7859    1.3681   -0.0964 C   0  0  0  0  0  0  0  0  0  0  0  0
    3.6131   -0.3265   -0.8344 C   0  0  0  0  0  0  0  0  0  0  0  0
    2.5365   -1.0403    0.2589 C   0  0  0  0  0  0  0  0  0  0  0  0
    1.2590   -0.2683    1.2856 C   0  0  0  0  0  0  0  0  0  0  0  0
    0.9547   -0.8183    2.6759 C   0  0  0  0  0  0  0  0  0  0  0  0
    2.4564    1.2475    1.2514 C   0  0  0  0  0  0  0  0  0  0  0  0
    2.9840   -0.0201    1.1332 C   0  0  0  0  0  0  0  0  0  0  0  0
    4.4315   -0.2668    1.7542 C   0  0  0  0  0  0  0  0  0  0  0  0
    5.0968   -1.2810    1.5614 O   0  0  0  0  0  0  0  0  0  0  0  0
    4.9033    0.6499    2.6384 O   0  0  0  0  0  0  0  0  0  0  0  0
    0.0648    0.0103    0.3547 C   0  0  0  0  0  0  0  0  0  0  0  0
   -0.5889   -4.5131   -0.4662 H   0  0  0  0  0  0  0  0  0  0  0  0
   -0.5334   -3.3813   -1.8119 H   0  0  0  0  0  0  0  0  0  0  0  0
   -2.0419   -3.6220   -0.9082 H   0  0  0  0  0  0  0  0  0  0  0  0
    0.4602   -2.6507    0.5131 H   0  0  0  0  0  0  0  0  0  0  0  0
   -1.2255   -2.4918    1.0532 H   0  0  0  0  0  0  0  0  0  0  0  0
   -2.4520   -1.2981   -1.5322 H   0  0  0  0  0  0  0  0  0  0  0  0
   -1.8760    0.3625   -1.3893 H   0  0  0  0  0  0  0  0  0  0  0  0
   -2.4257   -0.1811    1.3164 H   0  0  0  0  0  0  0  0  0  0  0  0
   -3.6293   -1.2133    0.5310 H   0  0  0  0  0  0  0  0  0  0  0  0
   -5.5911   -0.1981   -0.5217 H   0  0  0  0  0  0  0  0  0  0  0  0
   -4.4978    0.5255   -1.7555 H   0  0  0  0  0  0  0  0  0  0  0  0
   -5.6348    1.5712   -0.8333 H   0  0  0  0  0  0  0  0  0  0  0  0
   -3.9376    1.3174    2.3920 H   0  0  0  0  0  0  0  0  0  0  0  0
   -5.2172    0.1659    1.8509 H   0  0  0  0  0  0  0  0  0  0  0  0
   -5.3766    1.9220    1.5009 H   0  0  0  0  0  0  0  0  0  0  0  0
   -2.3603    2.2829    0.7039 H   0  0  0  0  0  0  0  0  0  0  0  0
   -3.8859    3.0377    0.1410 H   0  0  0  0  0  0  0  0  0  0  0  0
   -2.8334    2.1978   -1.0286 H   0  0  0  0  0  0  0  0  0  0  0  0
    1.0922   -1.7040   -1.5890 H   0  0  0  0  0  0  0  0  0  0  0  0
   -0.1482   -0.8716   -2.5194 H   0  0  0  0  0  0  0  0  0  0  0  0
    0.2232    1.2361   -1.4279 H   0  0  0  0  0  0  0  0  0  0  0  0
    1.8018    2.0781   -0.2714 H   0  0  0  0  0  0  0  0  0  0  0  0
    4.1560    1.1868   -3.1775 H   0  0  0  0  0  0  0  0  0  0  0  0
    3.2997    2.6204   -2.5740 H   0  0  0  0  0  0  0  0  0  0  0  0
    2.2813    1.4193   -4.2934 H   0  0  0  0  0  0  0  0  0  0  0  0
    4.7708    1.6900    0.1987 H   0  0  0  0  0  0  0  0  0  0  0  0
    4.5679   -0.8297   -0.9436 H   0  0  0  0  0  0  0  0  0  0  0  0
    2.7642   -2.0779    0.5269 H   0  0  0  0  0  0  0  0  0  0  0  0
    0.3635   -0.0983    3.2492 H   0  0  0  0  0  0  0  0  0  0  0  0
    1.8704   -1.0171    3.2414 H   0  0  0  0  0  0  0  0  0  0  0  0
    0.4134   -1.7614    2.6313 H   0  0  0  0  0  0  0  0  0  0  0  0
    2.5703    1.7991    2.1816 H   0  0  0  0  0  0  0  0  0  0  0  0
    4.4118    1.4776    2.7768 H   0  0  0  0  0  0  0  0  0  0  0  0
   -0.5821    0.7808    0.7808 H   0  0  0  0  0  0  0  0  0  0  0  0
  2  1  1  0  0  0  0
  3  2  1  0  0  0  0
  4  3  1  0  0  0  0
  5  4  1  0  0  0  0
  6  5  1  0  0  0  0
  7  6  1  0  0  0  0
  8  6  1  0  0  0  0
  9  6  1  0  0  0  0
 10  3  1  0  0  0  0
 11 10  1  0  0  0  0
 12 11  1  0  0  0  0
 13 12  1  0  0  0  0
 14 13  1  0  0  0  0
 15 14  1  0  0  0  0
 16 13  1  0  0  0  0
 17 16  1  0  0  0  0
 17 13  1  0  0  0  0
 18 17  1  0  0  0  0
 19 18  1  0  0  0  0
 20 19  1  0  0  0  0
 21 19  1  0  0  0  0
 21 16  1  0  0  0  0
 22 21  1  0  0  0  0
 22 18  1  0  0  0  0
 22 12  1  0  0  0  0
 23 22  1  0  0  0  0
 24 23  2  0  0  0  0
 25 23  1  0  0  0  0
 26 19  1  0  0  0  0
 26 11  1  0  0  0  0
 26  3  1  0  0  0  0
  1 27  1  0  0  0  0
  1 28  1  0  0  0  0
  1 29  1  0  0  0  0
  2 30  1  0  0  0  0
  2 31  1  0  0  0  0
  4 32  1  0  0  0  0
  4 33  1  0  0  0  0
  5 34  1  0  0  0  0
  5 35  1  0  0  0  0
  7 36  1  0  0  0  0
  7 37  1  0  0  0  0
  7 38  1  0  0  0  0
  8 39  1  0  0  0  0
  8 40  1  0  0  0  0
  8 41  1  0  0  0  0
  9 42  1  0  0  0  0
  9 43  1  0  0  0  0
  9 44  1  0  0  0  0
 10 45  1  0  0  0  0
 10 46  1  0  0  0  0
 11 47  1  0  0  0  0
 12 48  1  0  0  0  0
 14 49  1  0  0  0  0
 14 50  1  0  0  0  0
 15 51  1  0  0  0  0
 16 52  1  0  0  0  0
 17 53  1  0  0  0  0
 18 54  1  0  0  0  0
 20 55  1  0  0  0  0
 20 56  1  0  0  0  0
 20 57  1  0  0  0  0
 21 58  1  0  0  0  0
 25 59  1  0  0  0  0
 26 60  1  0  0  0  0
M  CHG  2   3   1   6   1
M  END
>  <energy>
692.95558591384599

$$$$
