CCN1CCCc2c(Cl)sc3c2C2OCC(F)CC2C1N3
                    3D

 41 44  0  0  0  0  0  0  0  0999 V2000
   -3.7144   -0.0269   -1.1200 C   0  0  0  0  0  0  0  0  0  0  0  0
   -2.5942   -1.0588   -1.0738 C   0  0  0  0  0  0  0  0  0  0  0  0
   -1.4230   -0.5722   -0.3489 N   0  0  0  0  0  0  0  0  0  0  0  0
   -1.5945   -0.3738    1.0922 C   0  0  0  0  0  0  0  0  0  0  0  0
   -1.6438    1.0932    1.6115 C   0  0  0  0  0  0  0  0  0  0  0  0
   -0.3349    1.9237    1.6456 C   0  0  0  0  0  0  0  0  0  0  0  0
    0.1044    2.2814    0.2632 C   0  0  0  0  0  0  0  0  0  0  0  0
   -0.4753    3.2184   -0.5747 C   0  0  0  0  0  0  0  0  0  0  0  0
   -1.4660    4.5566   -0.1541 Cl  0  0  0  0  0  0  0  0  0  0  0  0
   -0.3990    2.7244   -2.2143 S   0  0  0  0  0  0  0  0  0  0  0  0
    0.3603    1.2984   -1.7047 C   0  0  0  0  0  0  0  0  0  0  0  0
    1.0076    1.4851   -0.4980 C   0  0  0  0  0  0  0  0  0  0  0  0
    1.9175    0.3703   -0.1369 C   0  0  0  0  0  0  0  0  0  0  0  0
    2.7146    0.4958    1.0430 O   0  0  0  0  0  0  0  0  0  0  0  0
    3.7383   -0.5196    1.0204 C   0  0  0  0  0  0  0  0  0  0  0  0
    3.1921   -1.9497    0.8395 C   0  0  0  0  0  0  0  0  0  0  0  0
    4.2138   -2.7910    0.5335 F   0  0  0  0  0  0  0  0  0  0  0  0
    2.1155   -2.0658   -0.2515 C   0  0  0  0  0  0  0  0  0  0  0  0
    1.1123   -0.9277   -0.0483 C   0  0  0  0  0  0  0  0  0  0  0  0
   -0.1320   -0.8956   -1.0108 C   0  0  0  0  0  0  0  0  0  0  0  0
    0.1925    0.0190   -2.1688 N   0  0  0  0  0  0  0  0  0  0  0  0
   -4.5404   -0.4028   -1.7323 H   0  0  0  0  0  0  0  0  0  0  0  0
   -3.3649    0.9085   -1.5697 H   0  0  0  0  0  0  0  0  0  0  0  0
   -4.1127    0.1950   -0.1259 H   0  0  0  0  0  0  0  0  0  0  0  0
   -2.9551   -1.9955   -0.6319 H   0  0  0  0  0  0  0  0  0  0  0  0
   -2.3378   -1.2962   -2.1127 H   0  0  0  0  0  0  0  0  0  0  0  0
   -0.9108   -0.9629    1.7071 H   0  0  0  0  0  0  0  0  0  0  0  0
   -2.5633   -0.8085    1.3814 H   0  0  0  0  0  0  0  0  0  0  0  0
   -2.4127    1.6391    1.0496 H   0  0  0  0  0  0  0  0  0  0  0  0
   -2.0162    1.0475    2.6448 H   0  0  0  0  0  0  0  0  0  0  0  0
    0.4387    1.3596    2.1745 H   0  0  0  0  0  0  0  0  0  0  0  0
   -0.5058    2.8391    2.2247 H   0  0  0  0  0  0  0  0  0  0  0  0
    2.6285    0.3175   -0.9786 H   0  0  0  0  0  0  0  0  0  0  0  0
    4.4512   -0.2850    0.2213 H   0  0  0  0  0  0  0  0  0  0  0  0
    4.2989   -0.4549    1.9595 H   0  0  0  0  0  0  0  0  0  0  0  0
    2.7617   -2.2840    1.7912 H   0  0  0  0  0  0  0  0  0  0  0  0
    2.5747   -2.0218   -1.2457 H   0  0  0  0  0  0  0  0  0  0  0  0
    1.6239   -3.0426   -0.1795 H   0  0  0  0  0  0  0  0  0  0  0  0
    0.7925   -1.0658    0.9846 H   0  0  0  0  0  0  0  0  0  0  0  0
   -0.2203   -1.9108   -1.4186 H   0  0  0  0  0  0  0  0  0  0  0  0
   -0.5218   -0.0604   -2.8880 H   0  0  0  0  0  0  0  0  0  0  0  0
  2  1  1  0  0  0  0
  3  2  1  0  0  0  0
  4  3  1  0  0  0  0
  5  4  1  0  0  0  0
  6  5  1  0  0  0  0
  7  6  1  0  0  0  0
  8  7  2  0  0  0  0
  9  8  1  0  0  0  0
 10  8  1  0  0  0  0
 11 10  1  0  0  0  0
 12 11  2  0  0  0  0
 12  7  1  0  0  0  0
 13 12  1  0  0  0  0
 14 13  1  0  0  0  0
 15 14  1  0  0  0  0
 16 15  1  0  0  0  0
 17 16  1  0  0  0  0
 18 16  1  0  0  0  0
 19 18  1  0  0  0  0
 19 13  1  0  0  0  0
 20 19  1  0  0  0  0
 20  3  1  0  0  0  0
 21 20  1  0  0  0  0
 21 11  1  0  0  0  0
  1 22  1  0  0  0  0
  1 23  1  0  0  0  0
  1 24  1  0  0  0  0
  2 25  1  0  0  0  0
  2 26  1  0  0  0  0
  4 27  1  0  0  0  0
  4 28  1  0  0  0  0
  5 29  1  0  0  0  0
  5 30  1  0  0  0  0
  6 31  1  0  0  0  0
  6 32  1  0  0  0  0
 13 33  1  0  0  0  0
 15 34  1  0  0  0  0
 15 35  1  0  0  0  0
 16 36  1  0  0  0  0
 18 37  1  0  0  0  0
 18 38  1  0  0  0  0
 19 39  1  0  0  0  0
 20 40  1  0  0  0  0
 21 41  1  0  0  0  0
M  END
>  <energy>
39.085479480001183

$$$$
