CC(C)n1c2cc(F)c(F)cc2c(=S)n1NC12CC3C=CC1C3C2
                    3D

 43 47  0  0  0  0  0  0  0  0999 V2000
   -1.8247    2.1505    1.6212 C   0  0  0  0  0  0  0  0  0  0  0  0
   -1.2515    1.8518    0.2336 C   0  0  0  0  0  0  0  0  0  0  0  0
   -2.1982    2.3509   -0.8667 C   0  0  0  0  0  0  0  0  0  0  0  0
   -0.8612    0.4296    0.0641 N   0  0  0  0  0  0  0  0  0  0  0  0
   -1.8303   -0.5867    0.1549 C   0  0  0  0  0  0  0  0  0  0  0  0
   -2.6701   -0.8906    1.2157 C   0  0  0  0  0  0  0  0  0  0  0  0
   -3.5284   -1.9845    1.1001 C   0  0  0  0  0  0  0  0  0  0  0  0
   -4.3420   -2.2922    2.1253 F   0  0  0  0  0  0  0  0  0  0  0  0
   -3.5366   -2.7786   -0.0538 C   0  0  0  0  0  0  0  0  0  0  0  0
   -4.3523   -3.8377   -0.1246 F   0  0  0  0  0  0  0  0  0  0  0  0
   -2.6868   -2.5099   -1.1133 C   0  0  0  0  0  0  0  0  0  0  0  0
   -1.8410   -1.4212   -0.9727 C   0  0  0  0  0  0  0  0  0  0  0  0
   -0.7954   -0.9213   -1.8581 C   0  0  0  0  0  0  0  0  0  0  0  0
   -0.3615   -1.5187   -3.3567 S   0  0  0  0  0  0  0  0  0  0  0  0
   -0.2178    0.1514   -1.1757 N   0  0  0  0  0  0  0  0  0  0  0  0
    0.9830    0.7392   -1.5502 N   0  0  0  0  0  0  0  0  0  0  0  0
    2.0965    0.3608   -0.7050 C   0  0  0  0  0  0  0  0  0  0  0  0
    2.7392    1.3631    0.2433 C   0  0  0  0  0  0  0  0  0  0  0  0
    3.6179    0.3130    0.9681 C   0  0  0  0  0  0  0  0  0  0  0  0
    2.7664   -0.3490    2.0259 C   0  0  0  0  0  0  0  0  0  0  0  0
    1.8377   -1.1177    1.4330 C   0  0  0  0  0  0  0  0  0  0  0  0
    2.0994   -1.0717   -0.0310 C   0  0  0  0  0  0  0  0  0  0  0  0
    3.6463   -0.7806   -0.1337 C   0  0  0  0  0  0  0  0  0  0  0  0
    3.2943   -0.1844   -1.5298 C   0  0  0  0  0  0  0  0  0  0  0  0
   -2.8510    1.7861    1.7237 H   0  0  0  0  0  0  0  0  0  0  0  0
   -1.8599    3.2302    1.8015 H   0  0  0  0  0  0  0  0  0  0  0  0
   -1.2245    1.6977    2.4180 H   0  0  0  0  0  0  0  0  0  0  0  0
   -0.3336    2.4487    0.1587 H   0  0  0  0  0  0  0  0  0  0  0  0
   -3.2055    1.9336   -0.7601 H   0  0  0  0  0  0  0  0  0  0  0  0
   -1.8457    2.1093   -1.8771 H   0  0  0  0  0  0  0  0  0  0  0  0
   -2.2797    3.4421   -0.8043 H   0  0  0  0  0  0  0  0  0  0  0  0
   -2.6527   -0.3521    2.1525 H   0  0  0  0  0  0  0  0  0  0  0  0
   -2.6869   -3.1373   -1.9939 H   0  0  0  0  0  0  0  0  0  0  0  0
    1.1289    0.5079   -2.5379 H   0  0  0  0  0  0  0  0  0  0  0  0
    3.3382    2.1013   -0.3019 H   0  0  0  0  0  0  0  0  0  0  0  0
    2.0334    1.8857    0.8953 H   0  0  0  0  0  0  0  0  0  0  0  0
    4.5924    0.6624    1.3030 H   0  0  0  0  0  0  0  0  0  0  0  0
    2.8492   -0.1719    3.0861 H   0  0  0  0  0  0  0  0  0  0  0  0
    1.0583   -1.6846    1.9129 H   0  0  0  0  0  0  0  0  0  0  0  0
    1.7348   -1.9323   -0.5955 H   0  0  0  0  0  0  0  0  0  0  0  0
    4.3392   -1.6206   -0.0608 H   0  0  0  0  0  0  0  0  0  0  0  0
    3.0828   -0.9278   -2.3089 H   0  0  0  0  0  0  0  0  0  0  0  0
    3.9990    0.5560   -1.9249 H   0  0  0  0  0  0  0  0  0  0  0  0
  2  1  1  0  0  0  0
  3  2  1  0  0  0  0
  4  2  1  0  0  0  0
  5  4  1  0  0  0  0
  6  5  2  0  0  0  0
  7  6  1  0  0  0  0
  8  7  1  0  0  0  0
  9  7  2  0  0  0  0
 10  9  1  0  0  0  0
 11  9  1  0  0  0  0
 12 11  2  0  0  0  0
 12  5  1  0  0  0  0
 13 12  1  0  0  0  0
 14 13  2  0  0  0  0
 15 13  1  0  0  0  0
 15  4  1  0  0  0  0
 16 15  1  0  0  0  0
 17 16  1  0  0  0  0
 18 17  1  0  0  0  0
 19 18  1  0  0  0  0
 20 19  1  0  0  0  0
 21 20  2  0  0  0  0
 22 21  1  0  0  0  0
 22 17  1  0  0  0  0
 23 22  1  0  0  0  0
 23 19  1  0  0  0  0
 24 23  1  0  0  0  0
 24 17  1  0  0  0  0
  1 25  1  0  0  0  0
  1 26  1  0  0  0  0
  1 27  1  0  0  0  0
  2 28  1  0  0  0  0
  3 29  1  0  0  0  0
  3 30  1  0  0  0  0
  3 31  1  0  0  0  0
  6 32  1  0  0  0  0
 11 33  1  0  0  0  0
 16 34  1  0  0  0  0
 18 35  1  0  0  0  0
 18 36  1  0  0  0  0
 19 37  1  0  0  0  0
 20 38  1  0  0  0  0
 21 39  1  0  0  0  0
 22 40  1  0  0  0  0
 23 41  1  0  0  0  0
 24 42  1  0  0  0  0
 24 43  1  0  0  0  0
M  END
>  <energy>
122.61546654815338

$$$$
