C=CCN1CC23CC4CC2(O)C1CC3C4NC(=O)CC[N+]1(C)CCCC1
                    3D

 60 64  0  0  0  0  0  0  0  0999 V2000
   -5.0865    2.6839   -0.8423 C   0  0  0  0  0  0  0  0  0  0  0  0
   -5.0141    1.7877    0.1505 C   0  0  0  0  0  0  0  0  0  0  0  0
   -4.9544    0.3001   -0.0503 C   0  0  0  0  0  0  0  0  0  0  0  0
   -3.7998   -0.2696    0.6436 N   0  0  0  0  0  0  0  0  0  0  0  0
   -3.8643   -1.7668    0.6611 C   0  0  0  0  0  0  0  0  0  0  0  0
   -2.4335   -2.1006    0.3258 C   0  0  0  0  0  0  0  0  0  0  0  0
   -1.8550   -3.4080   -0.1411 C   0  0  0  0  0  0  0  0  0  0  0  0
   -0.4468   -2.7874   -0.3521 C   0  0  0  0  0  0  0  0  0  0  0  0
   -0.7319   -1.5700   -1.2701 C   0  0  0  0  0  0  0  0  0  0  0  0
   -2.1502   -1.1550   -0.8513 C   0  0  0  0  0  0  0  0  0  0  0  0
   -3.0222   -1.3411   -1.9549 O   0  0  0  0  0  0  0  0  0  0  0  0
   -2.4802    0.0645    0.0093 C   0  0  0  0  0  0  0  0  0  0  0  0
   -1.4816   -0.0417    1.1711 C   0  0  0  0  0  0  0  0  0  0  0  0
   -1.4468   -1.5627    1.4293 C   0  0  0  0  0  0  0  0  0  0  0  0
   -0.1339   -2.2943    1.0757 C   0  0  0  0  0  0  0  0  0  0  0  0
    1.0525   -1.4939    1.3361 N   0  0  0  0  0  0  0  0  0  0  0  0
    2.2477   -1.6550    0.6739 C   0  0  0  0  0  0  0  0  0  0  0  0
    2.3923   -2.2732   -0.3738 O   0  0  0  0  0  0  0  0  0  0  0  0
    3.4113   -0.9402    1.3145 C   0  0  0  0  0  0  0  0  0  0  0  0
    4.1633   -0.0678    0.3117 C   0  0  0  0  0  0  0  0  0  0  0  0
    3.6204    1.3745    0.1519 N   0  3  0  0  0  0  0  0  0  0  0  0
    3.4729    2.0835    1.4950 C   0  0  0  0  0  0  0  0  0  0  0  0
    2.2917    1.4295   -0.6413 C   0  0  0  0  0  0  0  0  0  0  0  0
    2.5829    2.2351   -1.8966 C   0  0  0  0  0  0  0  0  0  0  0  0
    3.7494    3.1175   -1.5197 C   0  0  0  0  0  0  0  0  0  0  0  0
    4.6231    2.1781   -0.7181 C   0  0  0  0  0  0  0  0  0  0  0  0
   -5.1069    2.3797   -1.8828 H   0  0  0  0  0  0  0  0  0  0  0  0
   -5.1531    3.7455   -0.6294 H   0  0  0  0  0  0  0  0  0  0  0  0
   -5.0151    2.1347    1.1816 H   0  0  0  0  0  0  0  0  0  0  0  0
   -4.9653    0.0448   -1.1161 H   0  0  0  0  0  0  0  0  0  0  0  0
   -5.8746   -0.1091    0.3858 H   0  0  0  0  0  0  0  0  0  0  0  0
   -4.1624   -2.1231    1.6517 H   0  0  0  0  0  0  0  0  0  0  0  0
   -4.5579   -2.1708   -0.0860 H   0  0  0  0  0  0  0  0  0  0  0  0
   -2.2922   -3.7834   -1.0710 H   0  0  0  0  0  0  0  0  0  0  0  0
   -1.8713   -4.1907    0.6225 H   0  0  0  0  0  0  0  0  0  0  0  0
    0.2824   -3.4904   -0.7582 H   0  0  0  0  0  0  0  0  0  0  0  0
   -0.0012   -0.7666   -1.1622 H   0  0  0  0  0  0  0  0  0  0  0  0
   -0.7113   -1.8957   -2.3172 H   0  0  0  0  0  0  0  0  0  0  0  0
   -2.9687   -0.5508   -2.5206 H   0  0  0  0  0  0  0  0  0  0  0  0
   -2.4460    1.0300   -0.5008 H   0  0  0  0  0  0  0  0  0  0  0  0
   -1.8231    0.5082    2.0571 H   0  0  0  0  0  0  0  0  0  0  0  0
   -0.5127    0.3760    0.8855 H   0  0  0  0  0  0  0  0  0  0  0  0
   -1.7664   -1.8073    2.4487 H   0  0  0  0  0  0  0  0  0  0  0  0
   -0.0316   -3.1733    1.7276 H   0  0  0  0  0  0  0  0  0  0  0  0
    1.1119   -1.1786    2.2982 H   0  0  0  0  0  0  0  0  0  0  0  0
    4.0892   -1.7370    1.6469 H   0  0  0  0  0  0  0  0  0  0  0  0
    3.1177   -0.4071    2.2195 H   0  0  0  0  0  0  0  0  0  0  0  0
    5.1962    0.0535    0.6597 H   0  0  0  0  0  0  0  0  0  0  0  0
    4.1913   -0.5062   -0.6924 H   0  0  0  0  0  0  0  0  0  0  0  0
    4.4025    1.9549    2.0550 H   0  0  0  0  0  0  0  0  0  0  0  0
    2.6279    1.6491    2.0342 H   0  0  0  0  0  0  0  0  0  0  0  0
    3.2781    3.1446    1.3156 H   0  0  0  0  0  0  0  0  0  0  0  0
    1.5381    1.9173   -0.0145 H   0  0  0  0  0  0  0  0  0  0  0  0
    1.9681    0.4194   -0.8896 H   0  0  0  0  0  0  0  0  0  0  0  0
    1.7130    2.8101   -2.2279 H   0  0  0  0  0  0  0  0  0  0  0  0
    2.8665    1.5631   -2.7155 H   0  0  0  0  0  0  0  0  0  0  0  0
    3.4123    3.9606   -0.9060 H   0  0  0  0  0  0  0  0  0  0  0  0
    4.2705    3.5194   -2.3932 H   0  0  0  0  0  0  0  0  0  0  0  0
    5.3456    2.6805   -0.0681 H   0  0  0  0  0  0  0  0  0  0  0  0
    5.1419    1.4714   -1.3758 H   0  0  0  0  0  0  0  0  0  0  0  0
  2  1  2  0  0  0  0
  3  2  1  0  0  0  0
  4  3  1  0  0  0  0
  5  4  1  0  0  0  0
  6  5  1  0  0  0  0
  7  6  1  0  0  0  0
  8  7  1  0  0  0  0
  9  8  1  0  0  0  0
 10  9  1  0  0  0  0
 10  6  1  0  0  0  0
 11 10  1  0  0  0  0
 12 10  1  0  0  0  0
 12  4  1  0  0  0  0
 13 12  1  0  0  0  0
 14 13  1  0  0  0  0
 14  6  1  0  0  0  0
 15 14  1  0  0  0  0
 15  8  1  0  0  0  0
 16 15  1  0  0  0  0
 17 16  1  0  0  0  0
 18 17  2  0  0  0  0
 19 17  1  0  0  0  0
 20 19  1  0  0  0  0
 21 20  1  0  0  0  0
 22 21  1  0  0  0  0
 23 21  1  0  0  0  0
 24 23  1  0  0  0  0
 25 24  1  0  0  0  0
 26 25  1  0  0  0  0
 26 21  1  0  0  0  0
  1 27  1  0  0  0  0
  1 28  1  0  0  0  0
  2 29  1  0  0  0  0
  3 30  1  0  0  0  0
  3 31  1  0  0  0  0
  5 32  1  0  0  0  0
  5 33  1  0  0  0  0
  7 34  1  0  0  0  0
  7 35  1  0  0  0  0
  8 36  1  0  0  0  0
  9 37  1  0  0  0  0
  9 38  1  0  0  0  0
 11 39  1  0  0  0  0
 12 40  1  0  0  0  0
 13 41  1  0  0  0  0
 13 42  1  0  0  0  0
 14 43  1  0  0  0  0
 15 44  1  0  0  0  0
 16 45  1  0  0  0  0
 19 46  1  0  0  0  0
 19 47  1  0  0  0  0
 20 48  1  0  0  0  0
 20 49  1  0  0  0  0
 22 50  1  0  0  0  0
 22 51  1  0  0  0  0
 22 52  1  0  0  0  0
 23 53  1  0  0  0  0
 23 54  1  0  0  0  0
 24 55  1  0  0  0  0
 24 56  1  0  0  0  0
 25 57  1  0  0  0  0
 25 58  1  0  0  0  0
 26 59  1  0  0  0  0
 26 60  1  0  0  0  0
M  CHG  1  21   1
M  END
>  <energy>
96.452269762299096

$$$$
