C=CC[SH](=O)(NC(N)=NC(=O)C1=C2CC(C)(C1)C2(C)C)N(C)C
                    3D

 51 52  0  0  0  0  0  0  0  0999 V2000
    3.0492   -4.1481    0.7619 C   0  0  0  0  0  0  0  0  0  0  0  0
    3.4756   -3.2298   -0.1164 C   0  0  0  0  0  0  0  0  0  0  0  0
    2.6012   -2.1555   -0.7154 C   0  0  0  0  0  0  0  0  0  0  0  0
    3.2958   -0.4617   -0.4938 S   0  0  0  0  0  0  0  0  0  0  0  0
    4.7205   -0.4120   -0.7396 O   0  0  0  0  0  0  0  0  0  0  0  0
    2.6095    0.1561   -1.9201 N   0  0  0  0  0  0  0  0  0  0  0  0
    1.6379    1.1002   -2.0132 C   0  0  0  0  0  0  0  0  0  0  0  0
    2.1760    2.2829   -2.4262 N   0  0  0  0  0  0  0  0  0  0  0  0
    0.3630    1.0719   -1.8374 N   0  0  0  0  0  0  0  0  0  0  0  0
   -0.2421   -0.1054   -1.5089 C   0  0  0  0  0  0  0  0  0  0  0  0
    0.0386   -1.2246   -1.9235 O   0  0  0  0  0  0  0  0  0  0  0  0
   -1.3112    0.0621   -0.5330 C   0  0  0  0  0  0  0  0  0  0  0  0
   -2.0514    1.1867   -0.3336 C   0  0  0  0  0  0  0  0  0  0  0  0
   -2.2435    1.3530    1.2566 C   0  0  0  0  0  0  0  0  0  0  0  0
   -3.0315    0.0150    0.9323 C   0  0  0  0  0  0  0  0  0  0  0  0
   -3.9220   -0.5877    1.9843 C   0  0  0  0  0  0  0  0  0  0  0  0
   -1.9164   -0.9565    0.3717 C   0  0  0  0  0  0  0  0  0  0  0  0
   -3.6613    0.8428   -0.3139 C   0  0  0  0  0  0  0  0  0  0  0  0
   -4.1737   -0.0268   -1.4788 C   0  0  0  0  0  0  0  0  0  0  0  0
   -4.6270    2.0199   -0.1391 C   0  0  0  0  0  0  0  0  0  0  0  0
    2.8286    0.8407    0.5128 N   0  0  0  0  0  0  0  0  0  0  0  0
    1.8606    0.6043    1.5787 C   0  0  0  0  0  0  0  0  0  0  0  0
    3.8545    1.7663    0.9767 C   0  0  0  0  0  0  0  0  0  0  0  0
    3.7329   -4.8896    1.1634 H   0  0  0  0  0  0  0  0  0  0  0  0
    2.0178   -4.1821    1.0971 H   0  0  0  0  0  0  0  0  0  0  0  0
    4.5179   -3.2285   -0.4293 H   0  0  0  0  0  0  0  0  0  0  0  0
    1.6072   -2.1830   -0.2567 H   0  0  0  0  0  0  0  0  0  0  0  0
    2.4956   -2.3713   -1.7838 H   0  0  0  0  0  0  0  0  0  0  0  0
    3.1829   -1.0322    0.7168 H   0  0  0  0  0  0  0  0  0  0  0  0
    3.3383    0.3481   -2.5968 H   0  0  0  0  0  0  0  0  0  0  0  0
    2.9555    2.5662   -1.8419 H   0  0  0  0  0  0  0  0  0  0  0  0
    1.4539    2.9993   -2.4081 H   0  0  0  0  0  0  0  0  0  0  0  0
   -2.7859    2.2115    1.6530 H   0  0  0  0  0  0  0  0  0  0  0  0
   -1.3501    1.2221    1.8797 H   0  0  0  0  0  0  0  0  0  0  0  0
   -4.5097   -1.4150    1.5732 H   0  0  0  0  0  0  0  0  0  0  0  0
   -4.6194    0.1534    2.3861 H   0  0  0  0  0  0  0  0  0  0  0  0
   -3.3317   -0.9740    2.8213 H   0  0  0  0  0  0  0  0  0  0  0  0
   -1.2274   -1.2752    1.1582 H   0  0  0  0  0  0  0  0  0  0  0  0
   -2.3362   -1.8198   -0.1482 H   0  0  0  0  0  0  0  0  0  0  0  0
   -4.3452    0.5829   -2.3731 H   0  0  0  0  0  0  0  0  0  0  0  0
   -5.1251   -0.4981   -1.2064 H   0  0  0  0  0  0  0  0  0  0  0  0
   -3.4904   -0.8259   -1.7747 H   0  0  0  0  0  0  0  0  0  0  0  0
   -5.6062    1.6576    0.1952 H   0  0  0  0  0  0  0  0  0  0  0  0
   -4.3105    2.7817    0.5734 H   0  0  0  0  0  0  0  0  0  0  0  0
   -4.7750    2.5405   -1.0937 H   0  0  0  0  0  0  0  0  0  0  0  0
    2.3235    0.1076    2.4378 H   0  0  0  0  0  0  0  0  0  0  0  0
    1.0724   -0.0551    1.2111 H   0  0  0  0  0  0  0  0  0  0  0  0
    1.3874    1.5336    1.9103 H   0  0  0  0  0  0  0  0  0  0  0  0
    4.4730    2.0810    0.1323 H   0  0  0  0  0  0  0  0  0  0  0  0
    3.4146    2.6732    1.4050 H   0  0  0  0  0  0  0  0  0  0  0  0
    4.5090    1.2975    1.7164 H   0  0  0  0  0  0  0  0  0  0  0  0
  2  1  2  0  0  0  0
  3  2  1  0  0  0  0
  4  3  1  0  0  0  0
  5  4  2  0  0  0  0
  6  4  1  0  0  0  0
  7  6  1  0  0  0  0
  8  7  1  0  0  0  0
  9  7  2  0  0  0  0
 10  9  1  0  0  0  0
 11 10  2  0  0  0  0
 12 10  1  0  0  0  0
 13 12  2  0  0  0  0
 14 13  1  0  0  0  0
 15 14  1  0  0  0  0
 16 15  1  0  0  0  0
 17 15  1  0  0  0  0
 17 12  1  0  0  0  0
 18 15  1  0  0  0  0
 18 13  1  0  0  0  0
 19 18  1  0  0  0  0
 20 18  1  0  0  0  0
 21  4  1  0  0  0  0
 22 21  1  0  0  0  0
 23 21  1  0  0  0  0
  1 24  1  0  0  0  0
  1 25  1  0  0  0  0
  2 26  1  0  0  0  0
  3 27  1  0  0  0  0
  3 28  1  0  0  0  0
  4 29  1  0  0  0  0
  6 30  1  0  0  0  0
  8 31  1  0  0  0  0
  8 32  1  0  0  0  0
 14 33  1  0  0  0  0
 14 34  1  0  0  0  0
 16 35  1  0  0  0  0
 16 36  1  0  0  0  0
 16 37  1  0  0  0  0
 17 38  1  0  0  0  0
 17 39  1  0  0  0  0
 19 40  1  0  0  0  0
 19 41  1  0  0  0  0
 19 42  1  0  0  0  0
 20 43  1  0  0  0  0
 20 44  1  0  0  0  0
 20 45  1  0  0  0  0
 22 46  1  0  0  0  0
 22 47  1  0  0  0  0
 22 48  1  0  0  0  0
 23 49  1  0  0  0  0
 23 50  1  0  0  0  0
 23 51  1  0  0  0  0
M  END
>  <energy>
61.567355447532123

$$$$
