COc1c(CC=C(C)C(C)O)cc(CCl)c2c1C(O)C1C(C)C3(O)C(=O)C(O)(OC(=O)CC(C)C)C4(CC1C4(O)C
                    3D

 87 91  0  0  0  0  0  0  0  0999 V2000
    1.1543   -3.3261   -2.3593 C   0  0  0  0  0  0  0  0  0  0  0  0
    2.5155   -2.8761   -2.3007 O   0  0  0  0  0  0  0  0  0  0  0  0
    2.6723   -1.9491   -1.3038 C   0  0  0  0  0  0  0  0  0  0  0  0
    2.9832   -2.3831    0.0043 C   0  0  0  0  0  0  0  0  0  0  0  0
    2.6305   -3.7733    0.5286 C   0  0  0  0  0  0  0  0  0  0  0  0
    1.4148   -3.6155    1.4442 C   0  0  0  0  0  0  0  0  0  0  0  0
    0.7328   -4.5357    2.1560 C   0  0  0  0  0  0  0  0  0  0  0  0
    0.8660   -6.0127    1.9384 C   0  0  0  0  0  0  0  0  0  0  0  0
   -0.1585   -4.1062    3.3269 C   0  0  0  0  0  0  0  0  0  0  0  0
    0.5697   -3.1582    4.2891 C   0  0  0  0  0  0  0  0  0  0  0  0
   -1.3503   -3.4921    2.8439 O   0  0  0  0  0  0  0  0  0  0  0  0
    3.3483   -1.4354    0.9732 C   0  0  0  0  0  0  0  0  0  0  0  0
    2.9931   -0.1111    0.7787 C   0  0  0  0  0  0  0  0  0  0  0  0
    3.3402    0.9600    1.7744 C   0  0  0  0  0  0  0  0  0  0  0  0
    2.7180    0.5958    3.3971 Cl  0  0  0  0  0  0  0  0  0  0  0  0
    2.3434    0.1940   -0.4144 C   0  0  0  0  0  0  0  0  0  0  0  0
    2.4606   -0.5934   -1.5598 C   0  0  0  0  0  0  0  0  0  0  0  0
    2.3266    0.0820   -2.9188 C   0  0  0  0  0  0  0  0  0  0  0  0
    2.0038   -0.8326   -3.9749 O   0  0  0  0  0  0  0  0  0  0  0  0
    1.3120    1.2659   -3.0186 C   0  0  0  0  0  0  0  0  0  0  0  0
    1.7428    2.7634   -2.4560 C   0  0  0  0  0  0  0  0  0  0  0  0
    3.2089    2.9533   -2.0031 C   0  0  0  0  0  0  0  0  0  0  0  0
    0.6961    3.6260   -1.5878 C   0  0  0  0  0  0  0  0  0  0  0  0
    1.0397    5.0058   -1.8322 O   0  0  0  0  0  0  0  0  0  0  0  0
    0.4567    3.5060    0.0173 C   0  0  0  0  0  0  0  0  0  0  0  0
    0.9007    4.3927    0.7499 O   0  0  0  0  0  0  0  0  0  0  0  0
   -0.3539    2.1845    0.5720 C   0  0  0  0  0  0  0  0  0  0  0  0
    0.2196    1.8846    1.8516 O   0  0  0  0  0  0  0  0  0  0  0  0
   -1.7804    2.2687    0.6992 O   0  0  0  0  0  0  0  0  0  0  0  0
   -2.3822    1.1056    1.1020 C   0  0  0  0  0  0  0  0  0  0  0  0
   -1.7611    0.1917    1.6568 O   0  0  0  0  0  0  0  0  0  0  0  0
   -3.8289    0.9933    0.6363 C   0  0  0  0  0  0  0  0  0  0  0  0
   -4.8822    0.7686    1.7277 C   0  0  0  0  0  0  0  0  0  0  0  0
   -6.2719    0.6215    1.0876 C   0  0  0  0  0  0  0  0  0  0  0  0
   -4.6089   -0.4616    2.5969 C   0  0  0  0  0  0  0  0  0  0  0  0
    0.0642    1.1827   -0.4939 C   0  0  0  0  0  0  0  0  0  0  0  0
   -0.4153   -0.1217   -1.2139 C   0  0  0  0  0  0  0  0  0  0  0  0
   -0.0851    0.7368   -2.5720 C   0  0  0  0  0  0  0  0  0  0  0  0
   -0.8438    1.8336   -1.8329 C   0  0  0  0  0  0  0  0  0  0  0  0
   -2.2903    1.5893   -1.8551 O   0  0  0  0  0  0  0  0  0  0  0  0
   -0.6565    3.3067   -2.1785 C   0  0  0  0  0  0  0  0  0  0  0  0
   -1.7458    4.0278   -1.5600 O   0  0  0  0  0  0  0  0  0  0  0  0
   -1.9559    5.3371   -2.0792 C   0  0  0  0  0  0  0  0  0  0  0  0
    1.5561    1.3084   -0.4660 O   0  0  0  0  0  0  0  0  0  0  0  0
    0.6587   -3.3349   -1.3787 H   0  0  0  0  0  0  0  0  0  0  0  0
    0.5870   -2.6910   -3.0468 H   0  0  0  0  0  0  0  0  0  0  0  0
    1.1563   -4.3467   -2.7567 H   0  0  0  0  0  0  0  0  0  0  0  0
    3.4762   -4.1414    1.1228 H   0  0  0  0  0  0  0  0  0  0  0  0
    2.4517   -4.4907   -0.2752 H   0  0  0  0  0  0  0  0  0  0  0  0
    1.1200   -2.5806    1.6303 H   0  0  0  0  0  0  0  0  0  0  0  0
    1.5837   -6.2564    1.1526 H   0  0  0  0  0  0  0  0  0  0  0  0
   -0.0960   -6.4405    1.6365 H   0  0  0  0  0  0  0  0  0  0  0  0
    1.1932   -6.5182    2.8507 H   0  0  0  0  0  0  0  0  0  0  0  0
   -0.4644   -4.9922    3.8989 H   0  0  0  0  0  0  0  0  0  0  0  0
   -0.0256   -2.9922    5.1897 H   0  0  0  0  0  0  0  0  0  0  0  0
    1.5470   -3.5554    4.5825 H   0  0  0  0  0  0  0  0  0  0  0  0
    0.7202   -2.1687    3.8444 H   0  0  0  0  0  0  0  0  0  0  0  0
   -1.1548   -2.5594    2.6409 H   0  0  0  0  0  0  0  0  0  0  0  0
    3.7409   -1.7687    1.9390 H   0  0  0  0  0  0  0  0  0  0  0  0
    2.9946    1.9588    1.4826 H   0  0  0  0  0  0  0  0  0  0  0  0
    4.4315    1.0204    1.8373 H   0  0  0  0  0  0  0  0  0  0  0  0
    3.3186    0.4510   -3.1994 H   0  0  0  0  0  0  0  0  0  0  0  0
    2.5485   -1.6296   -3.8187 H   0  0  0  0  0  0  0  0  0  0  0  0
    1.1938    1.4498   -4.0970 H   0  0  0  0  0  0  0  0  0  0  0  0
    1.7562    3.3332   -3.4022 H   0  0  0  0  0  0  0  0  0  0  0  0
    3.4726    4.0137   -1.9764 H   0  0  0  0  0  0  0  0  0  0  0  0
    3.9066    2.4889   -2.7034 H   0  0  0  0  0  0  0  0  0  0  0  0
    3.4186    2.5665   -1.0079 H   0  0  0  0  0  0  0  0  0  0  0  0
    1.4211    5.3525   -0.9956 H   0  0  0  0  0  0  0  0  0  0  0  0
   -0.0561    0.9740    2.0791 H   0  0  0  0  0  0  0  0  0  0  0  0
   -4.0881    1.8930    0.0658 H   0  0  0  0  0  0  0  0  0  0  0  0
   -3.8537    0.1678   -0.0870 H   0  0  0  0  0  0  0  0  0  0  0  0
   -4.8965    1.6438    2.3809 H   0  0  0  0  0  0  0  0  0  0  0  0
   -6.3403   -0.2989    0.4962 H   0  0  0  0  0  0  0  0  0  0  0  0
   -6.4995    1.4633    0.4251 H   0  0  0  0  0  0  0  0  0  0  0  0
   -7.0610    0.5813    1.8478 H   0  0  0  0  0  0  0  0  0  0  0  0
   -4.6173   -1.3820    2.0052 H   0  0  0  0  0  0  0  0  0  0  0  0
   -3.6454   -0.3975    3.1092 H   0  0  0  0  0  0  0  0  0  0  0  0
   -5.3688   -0.5591    3.3810 H   0  0  0  0  0  0  0  0  0  0  0  0
    0.1352   -1.0443   -1.0372 H   0  0  0  0  0  0  0  0  0  0  0  0
   -1.4651   -0.4103   -1.0646 H   0  0  0  0  0  0  0  0  0  0  0  0
   -0.6130    0.3066   -3.4322 H   0  0  0  0  0  0  0  0  0  0  0  0
   -2.6775    2.4644   -1.6270 H   0  0  0  0  0  0  0  0  0  0  0  0
   -0.7178    3.4703   -3.2604 H   0  0  0  0  0  0  0  0  0  0  0  0
   -2.1753    5.3017   -3.1503 H   0  0  0  0  0  0  0  0  0  0  0  0
   -1.0991    5.9835   -1.8903 H   0  0  0  0  0  0  0  0  0  0  0  0
   -2.8159    5.7725   -1.5630 H   0  0  0  0  0  0  0  0  0  0  0  0
  2  1  1  0  0  0  0
  3  2  1  0  0  0  0
  4  3  2  0  0  0  0
  5  4  1  0  0  0  0
  6  5  1  0  0  0  0
  7  6  2  0  0  0  0
  8  7  1  0  0  0  0
  9  7  1  0  0  0  0
 10  9  1  0  0  0  0
 11  9  1  0  0  0  0
 12  4  1  0  0  0  0
 13 12  2  0  0  0  0
 14 13  1  0  0  0  0
 15 14  1  0  0  0  0
 16 13  1  0  0  0  0
 17 16  2  0  0  0  0
 17  3  1  0  0  0  0
 18 17  1  0  0  0  0
 19 18  1  0  0  0  0
 20 18  1  0  0  0  0
 21 20  1  0  0  0  0
 22 21  1  0  0  0  0
 23 21  1  0  0  0  0
 24 23  1  0  0  0  0
 25 23  1  0  0  0  0
 26 25  2  0  0  0  0
 27 25  1  0  0  0  0
 28 27  1  0  0  0  0
 29 27  1  0  0  0  0
 30 29  1  0  0  0  0
 31 30  2  0  0  0  0
 32 30  1  0  0  0  0
 33 32  1  0  0  0  0
 34 33  1  0  0  0  0
 35 33  1  0  0  0  0
 36 27  1  0  0  0  0
 37 36  1  0  0  0  0
 38 37  1  0  0  0  0
 38 20  1  0  0  0  0
 39 38  1  0  0  0  0
 39 36  1  0  0  0  0
 40 39  1  0  0  0  0
 41 39  1  0  0  0  0
 41 23  1  0  0  0  0
 42 41  1  0  0  0  0
 43 42  1  0  0  0  0
 44 36  1  0  0  0  0
 44 16  1  0  0  0  0
  1 45  1  0  0  0  0
  1 46  1  0  0  0  0
  1 47  1  0  0  0  0
  5 48  1  0  0  0  0
  5 49  1  0  0  0  0
  6 50  1  0  0  0  0
  8 51  1  0  0  0  0
  8 52  1  0  0  0  0
  8 53  1  0  0  0  0
  9 54  1  0  0  0  0
 10 55  1  0  0  0  0
 10 56  1  0  0  0  0
 10 57  1  0  0  0  0
 11 58  1  0  0  0  0
 12 59  1  0  0  0  0
 14 60  1  0  0  0  0
 14 61  1  0  0  0  0
 18 62  1  0  0  0  0
 19 63  1  0  0  0  0
 20 64  1  0  0  0  0
 21 65  1  0  0  0  0
 22 66  1  0  0  0  0
 22 67  1  0  0  0  0
 22 68  1  0  0  0  0
 24 69  1  0  0  0  0
 28 70  1  0  0  0  0
 32 71  1  0  0  0  0
 32 72  1  0  0  0  0
 33 73  1  0  0  0  0
 34 74  1  0  0  0  0
 34 75  1  0  0  0  0
 34 76  1  0  0  0  0
 35 77  1  0  0  0  0
 35 78  1  0  0  0  0
 35 79  1  0  0  0  0
 37 80  1  0  0  0  0
 37 81  1  0  0  0  0
 38 82  1  0  0  0  0
 40 83  1  0  0  0  0
 41 84  1  0  0  0  0
 43 85  1  0  0  0  0
 43 86  1  0  0  0  0
 43 87  1  0  0  0  0
M  END
>  <energy>
289.8091253591129

$$$$
