CC12CCC3(CCC4C(CCC(=O)OCC#N)C3(C)C(O)C3CC4(C)C3O1)O2
                    3D

 59 63  0  0  0  0  0  0  0  0999 V2000
    4.1703   -1.3715   -0.6963 C   0  0  0  0  0  0  0  0  0  0  0  0
    3.2678   -0.2761   -0.1566 C   0  0  0  0  0  0  0  0  0  0  0  0
    3.6247    0.1457    1.2626 C   0  0  0  0  0  0  0  0  0  0  0  0
    2.3682   -0.1775    2.0660 C   0  0  0  0  0  0  0  0  0  0  0  0
    1.2556   -0.2400    1.0217 C   0  0  0  0  0  0  0  0  0  0  0  0
    0.2880   -1.4260    1.1402 C   0  0  0  0  0  0  0  0  0  0  0  0
   -0.3943   -1.6146   -0.2570 C   0  0  0  0  0  0  0  0  0  0  0  0
   -0.5691   -0.2806   -1.0469 C   0  0  0  0  0  0  0  0  0  0  0  0
   -0.9340    0.8239   -0.0259 C   0  0  0  0  0  0  0  0  0  0  0  0
   -2.2337    0.5338    0.7803 C   0  0  0  0  0  0  0  0  0  0  0  0
   -3.5150    0.5399   -0.0586 C   0  0  0  0  0  0  0  0  0  0  0  0
   -4.5752   -0.2814    0.6297 C   0  0  0  0  0  0  0  0  0  0  0  0
   -5.4814    0.1808    1.3003 O   0  0  0  0  0  0  0  0  0  0  0  0
   -4.3690   -1.6099    0.4041 O   0  0  0  0  0  0  0  0  0  0  0  0
   -5.3557   -2.4679    1.0062 C   0  0  0  0  0  0  0  0  0  0  0  0
   -5.0470   -2.7693    2.4144 C   0  0  0  0  0  0  0  0  0  0  0  0
   -4.8133   -3.0337    3.5173 N   0  0  0  0  0  0  0  0  0  0  0  0
    0.3849    1.1256    0.7902 C   0  0  0  0  0  0  0  0  0  0  0  0
    0.0086    1.6777    2.2009 C   0  0  0  0  0  0  0  0  0  0  0  0
    1.0288    2.3342    0.0010 C   0  0  0  0  0  0  0  0  0  0  0  0
    2.2401    2.7915    0.6052 O   0  0  0  0  0  0  0  0  0  0  0  0
    1.2275    2.1863   -1.5315 C   0  0  0  0  0  0  0  0  0  0  0  0
    0.1926    1.5864   -2.5664 C   0  0  0  0  0  0  0  0  0  0  0  0
    0.6342    0.1615   -2.0433 C   0  0  0  0  0  0  0  0  0  0  0  0
    0.7652   -0.8824   -3.1709 C   0  0  0  0  0  0  0  0  0  0  0  0
    2.1033    0.9927   -1.9251 C   0  0  0  0  0  0  0  0  0  0  0  0
    3.2456    0.8089   -1.0467 O   0  0  0  0  0  0  0  0  0  0  0  0
    1.9687   -0.7634   -0.1023 O   0  0  0  0  0  0  0  0  0  0  0  0
    3.8377   -1.6865   -1.6920 H   0  0  0  0  0  0  0  0  0  0  0  0
    4.1315   -2.2540   -0.0480 H   0  0  0  0  0  0  0  0  0  0  0  0
    5.2058   -1.0288   -0.7781 H   0  0  0  0  0  0  0  0  0  0  0  0
    4.4781   -0.4129    1.6613 H   0  0  0  0  0  0  0  0  0  0  0  0
    3.9025    1.2005    1.3290 H   0  0  0  0  0  0  0  0  0  0  0  0
    2.2191    0.5200    2.8889 H   0  0  0  0  0  0  0  0  0  0  0  0
    2.5127   -1.1640    2.5250 H   0  0  0  0  0  0  0  0  0  0  0  0
   -0.4288   -1.2984    1.9561 H   0  0  0  0  0  0  0  0  0  0  0  0
    0.8243   -2.3605    1.3625 H   0  0  0  0  0  0  0  0  0  0  0  0
   -1.3770   -2.0765   -0.0858 H   0  0  0  0  0  0  0  0  0  0  0  0
    0.1655   -2.3474   -0.8505 H   0  0  0  0  0  0  0  0  0  0  0  0
   -1.4314   -0.4449   -1.7074 H   0  0  0  0  0  0  0  0  0  0  0  0
   -1.2196    1.7415   -0.5476 H   0  0  0  0  0  0  0  0  0  0  0  0
   -2.3813    1.3194    1.5284 H   0  0  0  0  0  0  0  0  0  0  0  0
   -2.1632   -0.3947    1.3483 H   0  0  0  0  0  0  0  0  0  0  0  0
   -3.8961    1.5639   -0.1602 H   0  0  0  0  0  0  0  0  0  0  0  0
   -3.3892    0.1653   -1.0773 H   0  0  0  0  0  0  0  0  0  0  0  0
   -5.3527   -3.3964    0.4258 H   0  0  0  0  0  0  0  0  0  0  0  0
   -6.3602   -2.0420    0.9009 H   0  0  0  0  0  0  0  0  0  0  0  0
    0.8775    2.0699    2.7374 H   0  0  0  0  0  0  0  0  0  0  0  0
   -0.4483    0.9042    2.8315 H   0  0  0  0  0  0  0  0  0  0  0  0
   -0.6963    2.5139    2.1283 H   0  0  0  0  0  0  0  0  0  0  0  0
    0.3437    3.1835    0.1211 H   0  0  0  0  0  0  0  0  0  0  0  0
    2.9768    2.5309    0.0175 H   0  0  0  0  0  0  0  0  0  0  0  0
    1.6241    3.1439   -1.8981 H   0  0  0  0  0  0  0  0  0  0  0  0
    0.4655    1.7800   -3.6141 H   0  0  0  0  0  0  0  0  0  0  0  0
   -0.8545    1.8853   -2.4924 H   0  0  0  0  0  0  0  0  0  0  0  0
   -0.2111   -1.1335   -3.5992 H   0  0  0  0  0  0  0  0  0  0  0  0
    1.3912   -0.5144   -3.9912 H   0  0  0  0  0  0  0  0  0  0  0  0
    1.2308   -1.8041   -2.8046 H   0  0  0  0  0  0  0  0  0  0  0  0
    2.5362    1.1420   -2.9283 H   0  0  0  0  0  0  0  0  0  0  0  0
  2  1  1  0  0  0  0
  3  2  1  0  0  0  0
  4  3  1  0  0  0  0
  5  4  1  0  0  0  0
  6  5  1  0  0  0  0
  7  6  1  0  0  0  0
  8  7  1  0  0  0  0
  9  8  1  0  0  0  0
 10  9  1  0  0  0  0
 11 10  1  0  0  0  0
 12 11  1  0  0  0  0
 13 12  2  0  0  0  0
 14 12  1  0  0  0  0
 15 14  1  0  0  0  0
 16 15  1  0  0  0  0
 17 16  3  0  0  0  0
 18  9  1  0  0  0  0
 18  5  1  0  0  0  0
 19 18  1  0  0  0  0
 20 18  1  0  0  0  0
 21 20  1  0  0  0  0
 22 20  1  0  0  0  0
 23 22  1  0  0  0  0
 24 23  1  0  0  0  0
 24  8  1  0  0  0  0
 25 24  1  0  0  0  0
 26 24  1  0  0  0  0
 26 22  1  0  0  0  0
 27 26  1  0  0  0  0
 27  2  1  0  0  0  0
 28  5  1  0  0  0  0
 28  2  1  0  0  0  0
  1 29  1  0  0  0  0
  1 30  1  0  0  0  0
  1 31  1  0  0  0  0
  3 32  1  0  0  0  0
  3 33  1  0  0  0  0
  4 34  1  0  0  0  0
  4 35  1  0  0  0  0
  6 36  1  0  0  0  0
  6 37  1  0  0  0  0
  7 38  1  0  0  0  0
  7 39  1  0  0  0  0
  8 40  1  0  0  0  0
  9 41  1  0  0  0  0
 10 42  1  0  0  0  0
 10 43  1  0  0  0  0
 11 44  1  0  0  0  0
 11 45  1  0  0  0  0
 15 46  1  0  0  0  0
 15 47  1  0  0  0  0
 19 48  1  0  0  0  0
 19 49  1  0  0  0  0
 19 50  1  0  0  0  0
 20 51  1  0  0  0  0
 21 52  1  0  0  0  0
 22 53  1  0  0  0  0
 23 54  1  0  0  0  0
 23 55  1  0  0  0  0
 25 56  1  0  0  0  0
 25 57  1  0  0  0  0
 25 58  1  0  0  0  0
 26 59  1  0  0  0  0
M  END
>  <energy>
135.81846447568802

$$$$
