[N-]=[NH+]CC=CCC[N+]12CNC=C(C1)N2
                    3D

 30 31  0  0  0  0  0  0  0  0999 V2000
   -4.6010   -1.3460    0.5199 N   0  5  0  0  0  0  0  0  0  0  0  0
   -4.4174   -0.1003    0.6402 N   0  3  0  0  0  0  0  0  0  0  0  0
   -4.1794    0.7631   -0.5308 C   0  0  0  0  0  0  0  0  0  0  0  0
   -2.7330    1.1603   -0.5833 C   0  0  0  0  0  0  0  0  0  0  0  0
   -1.9045    0.7902    0.4092 C   0  0  0  0  0  0  0  0  0  0  0  0
   -0.4398    1.0322    0.4383 C   0  0  0  0  0  0  0  0  0  0  0  0
    0.2861    0.3105   -0.7043 C   0  0  0  0  0  0  0  0  0  0  0  0
    1.5829   -0.2583   -0.2567 N   0  3  0  0  0  0  0  0  0  0  0  0
    2.5795    0.5897    0.5209 C   0  0  0  0  0  0  0  0  0  0  0  0
    3.7877   -0.1973    0.7847 N   0  0  0  0  0  0  0  0  0  0  0  0
    3.9418   -1.4102    0.1707 C   0  0  0  0  0  0  0  0  0  0  0  0
    2.8390   -1.7866   -0.5272 C   0  0  0  0  0  0  0  0  0  0  0  0
    1.4670   -1.6112    0.2821 C   0  0  0  0  0  0  0  0  0  0  0  0
    2.3249   -0.9278   -1.4208 N   0  0  0  0  0  0  0  0  0  0  0  0
   -4.6716    0.3401    1.5223 H   0  0  0  0  0  0  0  0  0  0  0  0
   -4.7975    1.6670   -0.4471 H   0  0  0  0  0  0  0  0  0  0  0  0
   -4.4452    0.2637   -1.4727 H   0  0  0  0  0  0  0  0  0  0  0  0
   -2.4009    1.7174   -1.4554 H   0  0  0  0  0  0  0  0  0  0  0  0
   -2.3380    0.2163    1.2311 H   0  0  0  0  0  0  0  0  0  0  0  0
   -0.2293    2.1075    0.3805 H   0  0  0  0  0  0  0  0  0  0  0  0
   -0.0859    0.6996    1.4209 H   0  0  0  0  0  0  0  0  0  0  0  0
   -0.3047   -0.5020   -1.1450 H   0  0  0  0  0  0  0  0  0  0  0  0
    0.5245    1.0191   -1.5008 H   0  0  0  0  0  0  0  0  0  0  0  0
    2.7966    1.4749   -0.0864 H   0  0  0  0  0  0  0  0  0  0  0  0
    2.1182    0.8862    1.4691 H   0  0  0  0  0  0  0  0  0  0  0  0
    4.6536    0.3355    0.8752 H   0  0  0  0  0  0  0  0  0  0  0  0
    4.8027   -2.0422    0.3689 H   0  0  0  0  0  0  0  0  0  0  0  0
    1.4796   -1.6791    1.3733 H   0  0  0  0  0  0  0  0  0  0  0  0
    0.6300   -2.2139   -0.0961 H   0  0  0  0  0  0  0  0  0  0  0  0
    1.7339   -1.2984   -2.1808 H   0  0  0  0  0  0  0  0  0  0  0  0
  2  1  2  0  0  0  0
  3  2  1  0  0  0  0
  4  3  1  0  0  0  0
  5  4  2  0  0  0  0
  6  5  1  0  0  0  0
  7  6  1  0  0  0  0
  8  7  1  0  0  0  0
  9  8  1  0  0  0  0
 10  9  1  0  0  0  0
 11 10  1  0  0  0  0
 12 11  2  0  0  0  0
 13 12  1  0  0  0  0
 13  8  1  0  0  0  0
 14 12  1  0  0  0  0
 14  8  1  0  0  0  0
  2 15  1  0  0  0  0
  3 16  1  0  0  0  0
  3 17  1  0  0  0  0
  4 18  1  0  0  0  0
  5 19  1  0  0  0  0
  6 20  1  0  0  0  0
  6 21  1  0  0  0  0
  7 22  1  0  0  0  0
  7 23  1  0  0  0  0
  9 24  1  0  0  0  0
  9 25  1  0  0  0  0
 10 26  1  0  0  0  0
 11 27  1  0  0  0  0
 13 28  1  0  0  0  0
 13 29  1  0  0  0  0
 14 30  1  0  0  0  0
M  CHG  3   1  -1   2   1   8   1
M  END
>  <energy>
75.67448150216363

$$$$
