OCCON=CCCCSC1CCC2(O)CC3Cc4c(O)ccc5c4C1(CCN3CC1CC1)C2C5
                    3D

 75 80  0  0  0  0  0  0  0  0999 V2000
   -3.2132   -1.6952   -2.3376 O   0  0  0  0  0  0  0  0  0  0  0  0
   -4.5328   -1.8974   -2.8395 C   0  0  0  0  0  0  0  0  0  0  0  0
   -5.5095   -0.8911   -2.2485 C   0  0  0  0  0  0  0  0  0  0  0  0
   -5.6960   -1.2562   -0.8799 O   0  0  0  0  0  0  0  0  0  0  0  0
   -5.8483   -0.1074   -0.0982 N   0  0  0  0  0  0  0  0  0  0  0  0
   -5.5881   -0.4322    1.1250 C   0  0  0  0  0  0  0  0  0  0  0  0
   -5.6511    0.5848    2.2227 C   0  0  0  0  0  0  0  0  0  0  0  0
   -4.2987    0.7562    2.9068 C   0  0  0  0  0  0  0  0  0  0  0  0
   -3.2481    1.4925    2.0623 C   0  0  0  0  0  0  0  0  0  0  0  0
   -2.2253    0.3493    1.0669 S   0  0  0  0  0  0  0  0  0  0  0  0
   -0.8250    1.4648    0.5476 C   0  0  0  0  0  0  0  0  0  0  0  0
   -0.1817    2.3598    1.7151 C   0  0  0  0  0  0  0  0  0  0  0  0
    1.3095    2.9658    1.5161 C   0  0  0  0  0  0  0  0  0  0  0  0
    2.0715    2.6946    0.1566 C   0  0  0  0  0  0  0  0  0  0  0  0
    2.4295    4.0201   -0.3143 O   0  0  0  0  0  0  0  0  0  0  0  0
    3.3930    1.8762    0.1282 C   0  0  0  0  0  0  0  0  0  0  0  0
    3.5655    0.3171    0.0612 C   0  0  0  0  0  0  0  0  0  0  0  0
    3.1461   -0.4693   -1.2243 C   0  0  0  0  0  0  0  0  0  0  0  0
    1.7206   -0.7733   -1.7240 C   0  0  0  0  0  0  0  0  0  0  0  0
    1.6583   -1.4713   -2.9480 C   0  0  0  0  0  0  0  0  0  0  0  0
    2.5158   -2.5125   -3.1647 O   0  0  0  0  0  0  0  0  0  0  0  0
    0.8958   -0.9638   -3.9986 C   0  0  0  0  0  0  0  0  0  0  0  0
    0.3865    0.3165   -3.8366 C   0  0  0  0  0  0  0  0  0  0  0  0
    0.4314    0.8630   -2.5605 C   0  0  0  0  0  0  0  0  0  0  0  0
    0.6718    0.0916   -1.4450 C   0  0  0  0  0  0  0  0  0  0  0  0
    0.4446    0.8079   -0.1238 C   0  0  0  0  0  0  0  0  0  0  0  0
    0.8925   -0.2454    1.0002 C   0  0  0  0  0  0  0  0  0  0  0  0
    2.0746   -0.1432    1.9384 C   0  0  0  0  0  0  0  0  0  0  0  0
    3.3569   -0.3469    1.3355 N   0  0  0  0  0  0  0  0  0  0  0  0
    3.9612   -1.6746    1.5314 C   0  0  0  0  0  0  0  0  0  0  0  0
    3.1303   -2.8681    1.1486 C   0  0  0  0  0  0  0  0  0  0  0  0
    2.3247   -3.6416    2.1667 C   0  0  0  0  0  0  0  0  0  0  0  0
    3.5711   -4.2450    1.5882 C   0  0  0  0  0  0  0  0  0  0  0  0
    0.9822    2.1742   -0.7042 C   0  0  0  0  0  0  0  0  0  0  0  0
    0.8798    2.2541   -2.2448 C   0  0  0  0  0  0  0  0  0  0  0  0
   -3.2866   -1.4160   -1.4035 H   0  0  0  0  0  0  0  0  0  0  0  0
   -4.8303   -2.9175   -2.5823 H   0  0  0  0  0  0  0  0  0  0  0  0
   -4.4886   -1.7998   -3.9263 H   0  0  0  0  0  0  0  0  0  0  0  0
   -5.1086    0.1263   -2.3311 H   0  0  0  0  0  0  0  0  0  0  0  0
   -6.4758   -0.9556   -2.7570 H   0  0  0  0  0  0  0  0  0  0  0  0
   -5.3010   -1.4606    1.4084 H   0  0  0  0  0  0  0  0  0  0  0  0
   -6.0227    1.5355    1.8320 H   0  0  0  0  0  0  0  0  0  0  0  0
   -6.3799    0.2195    2.9537 H   0  0  0  0  0  0  0  0  0  0  0  0
   -4.4762    1.3512    3.8116 H   0  0  0  0  0  0  0  0  0  0  0  0
   -3.9137   -0.2083    3.2596 H   0  0  0  0  0  0  0  0  0  0  0  0
   -2.5897    2.0180    2.7554 H   0  0  0  0  0  0  0  0  0  0  0  0
   -3.7126    2.2287    1.4026 H   0  0  0  0  0  0  0  0  0  0  0  0
   -1.3597    2.1114   -0.1593 H   0  0  0  0  0  0  0  0  0  0  0  0
   -0.8548    3.2062    1.8931 H   0  0  0  0  0  0  0  0  0  0  0  0
   -0.1622    1.7936    2.6553 H   0  0  0  0  0  0  0  0  0  0  0  0
    1.1732    4.0546    1.6163 H   0  0  0  0  0  0  0  0  0  0  0  0
    1.9423    2.7285    2.3766 H   0  0  0  0  0  0  0  0  0  0  0  0
    2.9103    3.9381   -1.1556 H   0  0  0  0  0  0  0  0  0  0  0  0
    3.9739    2.2440   -0.7344 H   0  0  0  0  0  0  0  0  0  0  0  0
    3.9805    2.2252    0.9943 H   0  0  0  0  0  0  0  0  0  0  0  0
    4.6647    0.2730   -0.0336 H   0  0  0  0  0  0  0  0  0  0  0  0
    3.6071    0.0957   -2.0523 H   0  0  0  0  0  0  0  0  0  0  0  0
    3.6942   -1.4200   -1.2204 H   0  0  0  0  0  0  0  0  0  0  0  0
    2.3099   -2.9076   -4.0265 H   0  0  0  0  0  0  0  0  0  0  0  0
    0.8920   -1.4346   -4.9755 H   0  0  0  0  0  0  0  0  0  0  0  0
    0.1028    0.9096   -4.7013 H   0  0  0  0  0  0  0  0  0  0  0  0
    0.8804   -1.2587    0.5776 H   0  0  0  0  0  0  0  0  0  0  0  0
    0.0867   -0.3578    1.7273 H   0  0  0  0  0  0  0  0  0  0  0  0
    1.9266   -0.8704    2.7470 H   0  0  0  0  0  0  0  0  0  0  0  0
    2.0797    0.7914    2.4860 H   0  0  0  0  0  0  0  0  0  0  0  0
    4.2259   -1.7511    2.5931 H   0  0  0  0  0  0  0  0  0  0  0  0
    4.9197   -1.7271    0.9970 H   0  0  0  0  0  0  0  0  0  0  0  0
    2.7329   -2.8065    0.1430 H   0  0  0  0  0  0  0  0  0  0  0  0
    1.3677   -4.0441    1.8447 H   0  0  0  0  0  0  0  0  0  0  0  0
    2.3511   -3.3298    3.2026 H   0  0  0  0  0  0  0  0  0  0  0  0
    4.4339   -4.3325    2.2386 H   0  0  0  0  0  0  0  0  0  0  0  0
    3.4657   -5.0580    0.8805 H   0  0  0  0  0  0  0  0  0  0  0  0
    0.2576    3.0018   -0.5754 H   0  0  0  0  0  0  0  0  0  0  0  0
    0.1339    2.9811   -2.5909 H   0  0  0  0  0  0  0  0  0  0  0  0
    1.8547    2.4687   -2.6955 H   0  0  0  0  0  0  0  0  0  0  0  0
  2  1  1  0  0  0  0
  3  2  1  0  0  0  0
  4  3  1  0  0  0  0
  5  4  1  0  0  0  0
  6  5  2  0  0  0  0
  7  6  1  0  0  0  0
  8  7  1  0  0  0  0
  9  8  1  0  0  0  0
 10  9  1  0  0  0  0
 11 10  1  0  0  0  0
 12 11  1  0  0  0  0
 13 12  1  0  0  0  0
 14 13  1  0  0  0  0
 15 14  1  0  0  0  0
 16 14  1  0  0  0  0
 17 16  1  0  0  0  0
 18 17  1  0  0  0  0
 19 18  1  0  0  0  0
 20 19  2  0  0  0  0
 21 20  1  0  0  0  0
 22 20  1  0  0  0  0
 23 22  2  0  0  0  0
 24 23  1  0  0  0  0
 25 24  2  0  0  0  0
 25 19  1  0  0  0  0
 26 25  1  0  0  0  0
 26 11  1  0  0  0  0
 27 26  1  0  0  0  0
 28 27  1  0  0  0  0
 29 28  1  0  0  0  0
 29 17  1  0  0  0  0
 30 29  1  0  0  0  0
 31 30  1  0  0  0  0
 32 31  1  0  0  0  0
 33 32  1  0  0  0  0
 33 31  1  0  0  0  0
 34 26  1  0  0  0  0
 34 14  1  0  0  0  0
 35 34  1  0  0  0  0
 35 24  1  0  0  0  0
  1 36  1  0  0  0  0
  2 37  1  0  0  0  0
  2 38  1  0  0  0  0
  3 39  1  0  0  0  0
  3 40  1  0  0  0  0
  6 41  1  0  0  0  0
  7 42  1  0  0  0  0
  7 43  1  0  0  0  0
  8 44  1  0  0  0  0
  8 45  1  0  0  0  0
  9 46  1  0  0  0  0
  9 47  1  0  0  0  0
 11 48  1  0  0  0  0
 12 49  1  0  0  0  0
 12 50  1  0  0  0  0
 13 51  1  0  0  0  0
 13 52  1  0  0  0  0
 15 53  1  0  0  0  0
 16 54  1  0  0  0  0
 16 55  1  0  0  0  0
 17 56  1  0  0  0  0
 18 57  1  0  0  0  0
 18 58  1  0  0  0  0
 21 59  1  0  0  0  0
 22 60  1  0  0  0  0
 23 61  1  0  0  0  0
 27 62  1  0  0  0  0
 27 63  1  0  0  0  0
 28 64  1  0  0  0  0
 28 65  1  0  0  0  0
 30 66  1  0  0  0  0
 30 67  1  0  0  0  0
 31 68  1  0  0  0  0
 32 69  1  0  0  0  0
 32 70  1  0  0  0  0
 33 71  1  0  0  0  0
 33 72  1  0  0  0  0
 34 73  1  0  0  0  0
 35 74  1  0  0  0  0
 35 75  1  0  0  0  0
M  END
>  <energy>
308.09015306190122

$$$$
