COC1(C)OC2CCC3(F)C4(C)OOC23CC(C)CCC1O4
                    3D

 47 50  0  0  0  0  0  0  0  0999 V2000
    3.5553   -0.4552    0.7109 C   0  0  0  0  0  0  0  0  0  0  0  0
    2.6111   -0.4464   -0.3559 O   0  0  0  0  0  0  0  0  0  0  0  0
    1.4989    0.5051   -0.2156 C   0  0  0  0  0  0  0  0  0  0  0  0
    2.1843    1.8645   -0.5290 C   0  0  0  0  0  0  0  0  0  0  0  0
    1.1066    0.4252    1.1761 O   0  0  0  0  0  0  0  0  0  0  0  0
   -0.1394    0.8423    1.7779 C   0  0  0  0  0  0  0  0  0  0  0  0
   -0.2488    2.3588    1.7531 C   0  0  0  0  0  0  0  0  0  0  0  0
   -0.7604    2.6204    0.3673 C   0  0  0  0  0  0  0  0  0  0  0  0
   -1.6530    1.4247    0.2104 C   0  0  0  0  0  0  0  0  0  0  0  0
   -2.8367    1.9698    0.7385 F   0  0  0  0  0  0  0  0  0  0  0  0
   -1.9487    0.8334   -1.0987 C   0  0  0  0  0  0  0  0  0  0  0  0
   -2.8868    1.6746   -1.9565 C   0  0  0  0  0  0  0  0  0  0  0  0
   -2.6950   -0.3221   -0.6327 O   0  0  0  0  0  0  0  0  0  0  0  0
   -2.6543   -0.1458    0.9050 O   0  0  0  0  0  0  0  0  0  0  0  0
   -1.2630    0.1436    1.0296 C   0  0  0  0  0  0  0  0  0  0  0  0
   -0.9683   -1.4041    1.2043 C   0  0  0  0  0  0  0  0  0  0  0  0
    0.0291   -2.2818    0.4450 C   0  0  0  0  0  0  0  0  0  0  0  0
    0.0006   -3.6991    1.0570 C   0  0  0  0  0  0  0  0  0  0  0  0
   -0.3102   -2.3828   -1.0331 C   0  0  0  0  0  0  0  0  0  0  0  0
    0.4746   -1.4106   -1.8825 C   0  0  0  0  0  0  0  0  0  0  0  0
    0.4945    0.0693   -1.4563 C   0  0  0  0  0  0  0  0  0  0  0  0
   -0.7410    0.6907   -1.8496 O   0  0  0  0  0  0  0  0  0  0  0  0
    3.9094    0.5490    0.9586 H   0  0  0  0  0  0  0  0  0  0  0  0
    3.1258   -0.9311    1.5973 H   0  0  0  0  0  0  0  0  0  0  0  0
    4.4136   -1.0536    0.3930 H   0  0  0  0  0  0  0  0  0  0  0  0
    2.2817    2.4894    0.3626 H   0  0  0  0  0  0  0  0  0  0  0  0
    1.6649    2.4335   -1.3050 H   0  0  0  0  0  0  0  0  0  0  0  0
    3.1953    1.7281   -0.9336 H   0  0  0  0  0  0  0  0  0  0  0  0
   -0.1069    0.5353    2.8295 H   0  0  0  0  0  0  0  0  0  0  0  0
   -0.9824    2.6945    2.4966 H   0  0  0  0  0  0  0  0  0  0  0  0
    0.6968    2.8703    1.9486 H   0  0  0  0  0  0  0  0  0  0  0  0
   -1.3170    3.5648    0.3424 H   0  0  0  0  0  0  0  0  0  0  0  0
   -0.0115    2.7064   -0.3996 H   0  0  0  0  0  0  0  0  0  0  0  0
   -3.0971    1.1552   -2.8989 H   0  0  0  0  0  0  0  0  0  0  0  0
   -3.8515    1.8452   -1.4669 H   0  0  0  0  0  0  0  0  0  0  0  0
   -2.4371    2.6391   -2.2143 H   0  0  0  0  0  0  0  0  0  0  0  0
   -0.7014   -1.5141    2.2694 H   0  0  0  0  0  0  0  0  0  0  0  0
   -1.9023   -1.9960    1.1840 H   0  0  0  0  0  0  0  0  0  0  0  0
    1.0495   -1.9445    0.6039 H   0  0  0  0  0  0  0  0  0  0  0  0
    0.2368   -3.6676    2.1262 H   0  0  0  0  0  0  0  0  0  0  0  0
   -0.9816   -4.1695    0.9376 H   0  0  0  0  0  0  0  0  0  0  0  0
    0.7456   -4.3429    0.5763 H   0  0  0  0  0  0  0  0  0  0  0  0
   -0.0748   -3.3879   -1.4094 H   0  0  0  0  0  0  0  0  0  0  0  0
   -1.3839   -2.2678   -1.2066 H   0  0  0  0  0  0  0  0  0  0  0  0
    0.0581   -1.4707   -2.8984 H   0  0  0  0  0  0  0  0  0  0  0  0
    1.5013   -1.7856   -1.9745 H   0  0  0  0  0  0  0  0  0  0  0  0
    1.1194    0.4461   -2.2839 H   0  0  0  0  0  0  0  0  0  0  0  0
  2  1  1  0  0  0  0
  3  2  1  0  0  0  0
  4  3  1  0  0  0  0
  5  3  1  0  0  0  0
  6  5  1  0  0  0  0
  7  6  1  0  0  0  0
  8  7  1  0  0  0  0
  9  8  1  0  0  0  0
 10  9  1  0  0  0  0
 11  9  1  0  0  0  0
 12 11  1  0  0  0  0
 13 11  1  0  0  0  0
 14 13  1  0  0  0  0
 15 14  1  0  0  0  0
 15  6  1  0  0  0  0
 15  9  1  0  0  0  0
 16 15  1  0  0  0  0
 17 16  1  0  0  0  0
 18 17  1  0  0  0  0
 19 17  1  0  0  0  0
 20 19  1  0  0  0  0
 21 20  1  0  0  0  0
 21  3  1  0  0  0  0
 22 21  1  0  0  0  0
 22 11  1  0  0  0  0
  1 23  1  0  0  0  0
  1 24  1  0  0  0  0
  1 25  1  0  0  0  0
  4 26  1  0  0  0  0
  4 27  1  0  0  0  0
  4 28  1  0  0  0  0
  6 29  1  0  0  0  0
  7 30  1  0  0  0  0
  7 31  1  0  0  0  0
  8 32  1  0  0  0  0
  8 33  1  0  0  0  0
 12 34  1  0  0  0  0
 12 35  1  0  0  0  0
 12 36  1  0  0  0  0
 16 37  1  0  0  0  0
 16 38  1  0  0  0  0
 17 39  1  0  0  0  0
 18 40  1  0  0  0  0
 18 41  1  0  0  0  0
 18 42  1  0  0  0  0
 19 43  1  0  0  0  0
 19 44  1  0  0  0  0
 20 45  1  0  0  0  0
 20 46  1  0  0  0  0
 21 47  1  0  0  0  0
M  END
>  <energy>
298.46256282421479

$$$$
