CN1CC2C(C#N)C(C(=O)N=CC(=O)O)C21
                    3D

 27 28  0  0  0  0  0  0  0  0999 V2000
    0.8552    2.3033    0.5323 C   0  0  0  0  0  0  0  0  0  0  0  0
    1.1040    0.8641    0.4175 N   0  0  0  0  0  0  0  0  0  0  0  0
    2.5148    0.6520    0.0268 C   0  0  0  0  0  0  0  0  0  0  0  0
    2.0492   -0.2038   -1.1513 C   0  0  0  0  0  0  0  0  0  0  0  0
    1.5815   -1.6167   -0.7332 C   0  0  0  0  0  0  0  0  0  0  0  0
    1.8724   -2.6822   -1.6727 C   0  0  0  0  0  0  0  0  0  0  0  0
    2.0919   -3.5230   -2.4391 N   0  0  0  0  0  0  0  0  0  0  0  0
    0.1179   -1.1058   -0.8037 C   0  0  0  0  0  0  0  0  0  0  0  0
   -0.8196   -1.4942    0.3582 C   0  0  0  0  0  0  0  0  0  0  0  0
   -0.5234   -2.2479    1.2818 O   0  0  0  0  0  0  0  0  0  0  0  0
   -2.0605   -0.9240    0.2244 N   0  0  0  0  0  0  0  0  0  0  0  0
   -2.5318   -0.4074    1.3142 C   0  0  0  0  0  0  0  0  0  0  0  0
   -3.8958    0.2524    1.3107 C   0  0  0  0  0  0  0  0  0  0  0  0
   -4.7689   -0.0071    2.1102 O   0  0  0  0  0  0  0  0  0  0  0  0
   -4.0211    1.1805    0.3524 O   0  0  0  0  0  0  0  0  0  0  0  0
    0.6454    0.3470   -0.8864 C   0  0  0  0  0  0  0  0  0  0  0  0
    1.1975    2.8800   -0.3338 H   0  0  0  0  0  0  0  0  0  0  0  0
    1.3660    2.6962    1.4201 H   0  0  0  0  0  0  0  0  0  0  0  0
   -0.2099    2.5019    0.6702 H   0  0  0  0  0  0  0  0  0  0  0  0
    3.1090    0.1447    0.7896 H   0  0  0  0  0  0  0  0  0  0  0  0
    3.0759    1.5409   -0.2818 H   0  0  0  0  0  0  0  0  0  0  0  0
    2.4665   -0.0380   -2.1447 H   0  0  0  0  0  0  0  0  0  0  0  0
    1.9013   -1.8839    0.2820 H   0  0  0  0  0  0  0  0  0  0  0  0
   -0.3587   -1.3847   -1.7638 H   0  0  0  0  0  0  0  0  0  0  0  0
   -2.0152   -0.3892    2.2961 H   0  0  0  0  0  0  0  0  0  0  0  0
   -4.9378    1.5091    0.4305 H   0  0  0  0  0  0  0  0  0  0  0  0
    0.1943    1.0358   -1.6066 H   0  0  0  0  0  0  0  0  0  0  0  0
  2  1  1  0  0  0  0
  3  2  1  0  0  0  0
  4  3  1  0  0  0  0
  5  4  1  0  0  0  0
  6  5  1  0  0  0  0
  7  6  3  0  0  0  0
  8  5  1  0  0  0  0
  9  8  1  0  0  0  0
 10  9  2  0  0  0  0
 11  9  1  0  0  0  0
 12 11  2  0  0  0  0
 13 12  1  0  0  0  0
 14 13  2  0  0  0  0
 15 13  1  0  0  0  0
 16  8  1  0  0  0  0
 16  4  1  0  0  0  0
 16  2  1  0  0  0  0
  1 17  1  0  0  0  0
  1 18  1  0  0  0  0
  1 19  1  0  0  0  0
  3 20  1  0  0  0  0
  3 21  1  0  0  0  0
  4 22  1  0  0  0  0
  5 23  1  0  0  0  0
  8 24  1  0  0  0  0
 12 25  1  0  0  0  0
 15 26  1  0  0  0  0
 16 27  1  0  0  0  0
M  END
>  <energy>
5.0957769800973196

$$$$
