CC1(C)C2CNC(C2)C2CC3CC(F)(C2)CC1C3NC(=O)NCCO
                    3D

 57 60  0  0  0  0  0  0  0  0999 V2000
   -2.1182   -1.2666    3.1447 C   0  0  0  0  0  0  0  0  0  0  0  0
   -1.0581   -0.4760    2.3540 C   0  0  0  0  0  0  0  0  0  0  0  0
   -0.2522    0.3094    3.4212 C   0  0  0  0  0  0  0  0  0  0  0  0
   -1.6744    0.5094    1.3693 C   0  0  0  0  0  0  0  0  0  0  0  0
   -2.4178    1.8089    1.0553 C   0  0  0  0  0  0  0  0  0  0  0  0
   -2.5012    1.7112   -0.5275 N   0  0  0  0  0  0  0  0  0  0  0  0
   -1.7593    0.4535   -0.8032 C   0  0  0  0  0  0  0  0  0  0  0  0
   -2.3793   -0.2811    0.3195 C   0  0  0  0  0  0  0  0  0  0  0  0
   -1.3377   -0.4805   -1.9429 C   0  0  0  0  0  0  0  0  0  0  0  0
    0.2095   -0.3486   -2.1053 C   0  0  0  0  0  0  0  0  0  0  0  0
    1.0843   -1.1577   -1.0867 C   0  0  0  0  0  0  0  0  0  0  0  0
    0.7618   -2.6292   -1.3174 C   0  0  0  0  0  0  0  0  0  0  0  0
   -0.6608   -2.8556   -0.8416 C   0  0  0  0  0  0  0  0  0  0  0  0
   -0.9691   -4.1693   -1.1236 F   0  0  0  0  0  0  0  0  0  0  0  0
   -1.6348   -2.0054   -1.7382 C   0  0  0  0  0  0  0  0  0  0  0  0
   -0.6746   -2.7648    0.7254 C   0  0  0  0  0  0  0  0  0  0  0  0
   -0.0394   -1.5111    1.4457 C   0  0  0  0  0  0  0  0  0  0  0  0
    1.1137   -0.9138    0.4940 C   0  0  0  0  0  0  0  0  0  0  0  0
    1.6408    0.3663    0.9598 N   0  0  0  0  0  0  0  0  0  0  0  0
    2.6933    0.9388    0.2971 C   0  0  0  0  0  0  0  0  0  0  0  0
    3.8483    0.6507    0.5504 O   0  0  0  0  0  0  0  0  0  0  0  0
    2.2708    1.8736   -0.5997 N   0  0  0  0  0  0  0  0  0  0  0  0
    3.2340    2.6861   -1.3099 C   0  0  0  0  0  0  0  0  0  0  0  0
    2.5930    3.4661   -2.4521 C   0  0  0  0  0  0  0  0  0  0  0  0
    3.5694    4.2591   -3.1132 O   0  0  0  0  0  0  0  0  0  0  0  0
   -1.6368   -1.9582    3.8462 H   0  0  0  0  0  0  0  0  0  0  0  0
   -2.7463   -0.5870    3.7356 H   0  0  0  0  0  0  0  0  0  0  0  0
   -2.7945   -1.8478    2.5137 H   0  0  0  0  0  0  0  0  0  0  0  0
    0.3785   -0.3577    4.0154 H   0  0  0  0  0  0  0  0  0  0  0  0
   -0.9248    0.8301    4.1136 H   0  0  0  0  0  0  0  0  0  0  0  0
    0.3896    1.0850    2.9981 H   0  0  0  0  0  0  0  0  0  0  0  0
   -0.6919    0.9203    1.1125 H   0  0  0  0  0  0  0  0  0  0  0  0
   -1.8681    2.7125    1.3318 H   0  0  0  0  0  0  0  0  0  0  0  0
   -3.4374    1.8409    1.4521 H   0  0  0  0  0  0  0  0  0  0  0  0
   -2.0111    2.5096   -0.9280 H   0  0  0  0  0  0  0  0  0  0  0  0
   -0.7677    0.8674   -0.6088 H   0  0  0  0  0  0  0  0  0  0  0  0
   -2.2614   -1.3352    0.3717 H   0  0  0  0  0  0  0  0  0  0  0  0
   -3.4798   -0.2018    0.3567 H   0  0  0  0  0  0  0  0  0  0  0  0
   -1.8336   -0.1384   -2.8592 H   0  0  0  0  0  0  0  0  0  0  0  0
    0.4509   -0.7261   -3.1105 H   0  0  0  0  0  0  0  0  0  0  0  0
    0.5174    0.7027   -2.1415 H   0  0  0  0  0  0  0  0  0  0  0  0
    2.1157   -1.0057   -1.4362 H   0  0  0  0  0  0  0  0  0  0  0  0
    1.4657   -3.2839   -0.7875 H   0  0  0  0  0  0  0  0  0  0  0  0
    0.8571   -2.8987   -2.3776 H   0  0  0  0  0  0  0  0  0  0  0  0
   -1.5764   -2.4551   -2.7407 H   0  0  0  0  0  0  0  0  0  0  0  0
   -2.6798   -2.1850   -1.4572 H   0  0  0  0  0  0  0  0  0  0  0  0
   -1.6579   -3.0412    1.1171 H   0  0  0  0  0  0  0  0  0  0  0  0
   -0.0663   -3.6238    1.0551 H   0  0  0  0  0  0  0  0  0  0  0  0
    0.5243   -1.9658    2.2774 H   0  0  0  0  0  0  0  0  0  0  0  0
    1.9542   -1.5814    0.7585 H   0  0  0  0  0  0  0  0  0  0  0  0
    2.0271    0.1820    1.8801 H   0  0  0  0  0  0  0  0  0  0  0  0
    1.4102    2.3093   -0.3021 H   0  0  0  0  0  0  0  0  0  0  0  0
    4.0355    2.0411   -1.6865 H   0  0  0  0  0  0  0  0  0  0  0  0
    3.6997    3.3702   -0.5935 H   0  0  0  0  0  0  0  0  0  0  0  0
    1.8123    4.1302   -2.0674 H   0  0  0  0  0  0  0  0  0  0  0  0
    2.1370    2.7865   -3.1808 H   0  0  0  0  0  0  0  0  0  0  0  0
    3.1165    4.7313   -3.8333 H   0  0  0  0  0  0  0  0  0  0  0  0
  2  1  1  0  0  0  0
  3  2  1  0  0  0  0
  4  2  1  0  0  0  0
  5  4  1  0  0  0  0
  6  5  1  0  0  0  0
  7  6  1  0  0  0  0
  8  7  1  0  0  0  0
  8  4  1  0  0  0  0
  9  7  1  0  0  0  0
 10  9  1  0  0  0  0
 11 10  1  0  0  0  0
 12 11  1  0  0  0  0
 13 12  1  0  0  0  0
 14 13  1  0  0  0  0
 15 13  1  0  0  0  0
 15  9  1  0  0  0  0
 16 13  1  0  0  0  0
 17 16  1  0  0  0  0
 17  2  1  0  0  0  0
 18 17  1  0  0  0  0
 18 11  1  0  0  0  0
 19 18  1  0  0  0  0
 20 19  1  0  0  0  0
 21 20  2  0  0  0  0
 22 20  1  0  0  0  0
 23 22  1  0  0  0  0
 24 23  1  0  0  0  0
 25 24  1  0  0  0  0
  1 26  1  0  0  0  0
  1 27  1  0  0  0  0
  1 28  1  0  0  0  0
  3 29  1  0  0  0  0
  3 30  1  0  0  0  0
  3 31  1  0  0  0  0
  4 32  1  0  0  0  0
  5 33  1  0  0  0  0
  5 34  1  0  0  0  0
  6 35  1  0  0  0  0
  7 36  1  0  0  0  0
  8 37  1  0  0  0  0
  8 38  1  0  0  0  0
  9 39  1  0  0  0  0
 10 40  1  0  0  0  0
 10 41  1  0  0  0  0
 11 42  1  0  0  0  0
 12 43  1  0  0  0  0
 12 44  1  0  0  0  0
 15 45  1  0  0  0  0
 15 46  1  0  0  0  0
 16 47  1  0  0  0  0
 16 48  1  0  0  0  0
 17 49  1  0  0  0  0
 18 50  1  0  0  0  0
 19 51  1  0  0  0  0
 22 52  1  0  0  0  0
 23 53  1  0  0  0  0
 23 54  1  0  0  0  0
 24 55  1  0  0  0  0
 24 56  1  0  0  0  0
 25 57  1  0  0  0  0
M  END
>  <energy>
149.40120264155894

$$$$
