CC1CCC(NC(=O)C2CCC(C)N2C(=O)C23C=C4CC(C2)C4C(Cl)C3)CC1
                    3D

 61 65  0  0  0  0  0  0  0  0999 V2000
    2.5391    4.1648   -2.1095 C   0  0  0  0  0  0  0  0  0  0  0  0
    2.9188    3.1265   -1.0570 C   0  0  0  0  0  0  0  0  0  0  0  0
    1.8504    3.0675    0.0434 C   0  0  0  0  0  0  0  0  0  0  0  0
    2.1121    1.9471    1.0500 C   0  0  0  0  0  0  0  0  0  0  0  0
    2.2476    0.6012    0.3332 C   0  0  0  0  0  0  0  0  0  0  0  0
    2.4592   -0.5259    1.2322 N   0  0  0  0  0  0  0  0  0  0  0  0
    1.3565   -1.0167    1.9133 C   0  0  0  0  0  0  0  0  0  0  0  0
    0.7205   -0.3083    2.6903 O   0  0  0  0  0  0  0  0  0  0  0  0
    0.8020   -2.3801    1.4400 C   0  0  0  0  0  0  0  0  0  0  0  0
    1.7876   -3.3961    0.8638 C   0  0  0  0  0  0  0  0  0  0  0  0
    0.9182   -4.1796   -0.1007 C   0  0  0  0  0  0  0  0  0  0  0  0
    0.0563   -3.0820   -0.7249 C   0  0  0  0  0  0  0  0  0  0  0  0
   -1.1497   -3.6728   -1.4480 C   0  0  0  0  0  0  0  0  0  0  0  0
   -0.1888   -2.1206    0.3614 N   0  0  0  0  0  0  0  0  0  0  0  0
   -1.5046   -2.0013    0.8194 C   0  0  0  0  0  0  0  0  0  0  0  0
   -1.9966   -2.8423    1.5695 O   0  0  0  0  0  0  0  0  0  0  0  0
   -2.2469   -0.7068    0.4148 C   0  0  0  0  0  0  0  0  0  0  0  0
   -3.7605   -0.9750    0.2632 C   0  0  0  0  0  0  0  0  0  0  0  0
   -4.4371    0.2056    0.3069 C   0  0  0  0  0  0  0  0  0  0  0  0
   -4.7221    0.8893    1.6712 C   0  0  0  0  0  0  0  0  0  0  0  0
   -3.2576    1.4262    1.3913 C   0  0  0  0  0  0  0  0  0  0  0  0
   -2.1111    0.3721    1.5516 C   0  0  0  0  0  0  0  0  0  0  0  0
   -3.6809    1.5308   -0.1238 C   0  0  0  0  0  0  0  0  0  0  0  0
   -2.4879    1.3532   -1.0727 C   0  0  0  0  0  0  0  0  0  0  0  0
   -2.9882    1.6387   -2.7599 Cl  0  0  0  0  0  0  0  0  0  0  0  0
   -1.8310   -0.0405   -0.9187 C   0  0  0  0  0  0  0  0  0  0  0  0
    3.3786    0.6650   -0.6983 C   0  0  0  0  0  0  0  0  0  0  0  0
    3.1228    1.7611   -1.7242 C   0  0  0  0  0  0  0  0  0  0  0  0
    3.3122    4.2353   -2.8811 H   0  0  0  0  0  0  0  0  0  0  0  0
    2.4186    5.1532   -1.6562 H   0  0  0  0  0  0  0  0  0  0  0  0
    1.5962    3.8993   -2.6007 H   0  0  0  0  0  0  0  0  0  0  0  0
    3.8686    3.4288   -0.5974 H   0  0  0  0  0  0  0  0  0  0  0  0
    0.8608    2.9148   -0.4083 H   0  0  0  0  0  0  0  0  0  0  0  0
    1.8095    4.0267    0.5739 H   0  0  0  0  0  0  0  0  0  0  0  0
    3.0240    2.1615    1.6200 H   0  0  0  0  0  0  0  0  0  0  0  0
    1.2885    1.9293    1.7720 H   0  0  0  0  0  0  0  0  0  0  0  0
    1.3109    0.3991   -0.1992 H   0  0  0  0  0  0  0  0  0  0  0  0
    3.0838   -1.2188    0.8549 H   0  0  0  0  0  0  0  0  0  0  0  0
    0.3081   -2.8331    2.3108 H   0  0  0  0  0  0  0  0  0  0  0  0
    2.2302   -4.0271    1.6400 H   0  0  0  0  0  0  0  0  0  0  0  0
    2.6064   -2.9476    0.2968 H   0  0  0  0  0  0  0  0  0  0  0  0
    1.5083   -4.7193   -0.8455 H   0  0  0  0  0  0  0  0  0  0  0  0
    0.3048   -4.9043    0.4452 H   0  0  0  0  0  0  0  0  0  0  0  0
    0.6632   -2.5308   -1.4554 H   0  0  0  0  0  0  0  0  0  0  0  0
   -1.7948   -4.2444   -0.7721 H   0  0  0  0  0  0  0  0  0  0  0  0
   -0.8170   -4.3514   -2.2403 H   0  0  0  0  0  0  0  0  0  0  0  0
   -1.7592   -2.8953   -1.9128 H   0  0  0  0  0  0  0  0  0  0  0  0
   -4.1684   -1.8169    0.8235 H   0  0  0  0  0  0  0  0  0  0  0  0
   -5.5156    1.6424    1.6791 H   0  0  0  0  0  0  0  0  0  0  0  0
   -4.8174    0.2525    2.5558 H   0  0  0  0  0  0  0  0  0  0  0  0
   -3.0259    2.3726    1.8930 H   0  0  0  0  0  0  0  0  0  0  0  0
   -1.1443    0.8803    1.4716 H   0  0  0  0  0  0  0  0  0  0  0  0
   -2.1593   -0.0787    2.5486 H   0  0  0  0  0  0  0  0  0  0  0  0
   -4.3165    2.3970   -0.3488 H   0  0  0  0  0  0  0  0  0  0  0  0
   -1.7461    2.1286   -0.8504 H   0  0  0  0  0  0  0  0  0  0  0  0
   -2.1035   -0.6918   -1.7578 H   0  0  0  0  0  0  0  0  0  0  0  0
   -0.7463    0.0841   -0.9849 H   0  0  0  0  0  0  0  0  0  0  0  0
    4.3358    0.8439   -0.1934 H   0  0  0  0  0  0  0  0  0  0  0  0
    3.4716   -0.2971   -1.2181 H   0  0  0  0  0  0  0  0  0  0  0  0
    2.2375    1.4976   -2.3190 H   0  0  0  0  0  0  0  0  0  0  0  0
    3.9686    1.8090   -2.4218 H   0  0  0  0  0  0  0  0  0  0  0  0
  2  1  1  0  0  0  0
  3  2  1  0  0  0  0
  4  3  1  0  0  0  0
  5  4  1  0  0  0  0
  6  5  1  0  0  0  0
  7  6  1  0  0  0  0
  8  7  2  0  0  0  0
  9  7  1  0  0  0  0
 10  9  1  0  0  0  0
 11 10  1  0  0  0  0
 12 11  1  0  0  0  0
 13 12  1  0  0  0  0
 14 12  1  0  0  0  0
 14  9  1  0  0  0  0
 15 14  1  0  0  0  0
 16 15  2  0  0  0  0
 17 15  1  0  0  0  0
 18 17  1  0  0  0  0
 19 18  2  0  0  0  0
 20 19  1  0  0  0  0
 21 20  1  0  0  0  0
 22 21  1  0  0  0  0
 22 17  1  0  0  0  0
 23 21  1  0  0  0  0
 23 19  1  0  0  0  0
 24 23  1  0  0  0  0
 25 24  1  0  0  0  0
 26 24  1  0  0  0  0
 26 17  1  0  0  0  0
 27  5  1  0  0  0  0
 28 27  1  0  0  0  0
 28  2  1  0  0  0  0
  1 29  1  0  0  0  0
  1 30  1  0  0  0  0
  1 31  1  0  0  0  0
  2 32  1  0  0  0  0
  3 33  1  0  0  0  0
  3 34  1  0  0  0  0
  4 35  1  0  0  0  0
  4 36  1  0  0  0  0
  5 37  1  0  0  0  0
  6 38  1  0  0  0  0
  9 39  1  0  0  0  0
 10 40  1  0  0  0  0
 10 41  1  0  0  0  0
 11 42  1  0  0  0  0
 11 43  1  0  0  0  0
 12 44  1  0  0  0  0
 13 45  1  0  0  0  0
 13 46  1  0  0  0  0
 13 47  1  0  0  0  0
 18 48  1  0  0  0  0
 20 49  1  0  0  0  0
 20 50  1  0  0  0  0
 21 51  1  0  0  0  0
 22 52  1  0  0  0  0
 22 53  1  0  0  0  0
 23 54  1  0  0  0  0
 24 55  1  0  0  0  0
 26 56  1  0  0  0  0
 26 57  1  0  0  0  0
 27 58  1  0  0  0  0
 27 59  1  0  0  0  0
 28 60  1  0  0  0  0
 28 61  1  0  0  0  0
M  END
>  <energy>
153.38488515538745

$$$$
