CC1(C)C2CC1C2(C)C(N)=O
                    3D

 26 27  0  0  0  0  0  0  0  0999 V2000
   -2.7436   -0.1392   -0.0318 C   0  0  0  0  0  0  0  0  0  0  0  0
   -1.2286   -0.4143   -0.1674 C   0  0  0  0  0  0  0  0  0  0  0  0
   -1.1101   -1.8790   -0.6100 C   0  0  0  0  0  0  0  0  0  0  0  0
   -0.4232    0.8694   -0.7339 C   0  0  0  0  0  0  0  0  0  0  0  0
   -0.5933    1.4365    0.7424 C   0  0  0  0  0  0  0  0  0  0  0  0
   -0.1789   -0.0622    0.9766 C   0  0  0  0  0  0  0  0  0  0  0  0
    0.9318    0.2459   -0.1848 C   0  0  0  0  0  0  0  0  0  0  0  0
    1.5836   -0.7665   -1.1311 C   0  0  0  0  0  0  0  0  0  0  0  0
    2.1015    1.2542    0.2555 C   0  0  0  0  0  0  0  0  0  0  0  0
    2.7207    0.9122    1.4282 N   0  0  0  0  0  0  0  0  0  0  0  0
    2.4817    2.2514   -0.3550 O   0  0  0  0  0  0  0  0  0  0  0  0
   -3.2895   -0.5772   -0.8766 H   0  0  0  0  0  0  0  0  0  0  0  0
   -3.1326   -0.5870    0.8890 H   0  0  0  0  0  0  0  0  0  0  0  0
   -3.0097    0.9213   -0.0389 H   0  0  0  0  0  0  0  0  0  0  0  0
   -1.8687   -2.4979   -0.1140 H   0  0  0  0  0  0  0  0  0  0  0  0
   -0.1597   -2.3457   -0.3423 H   0  0  0  0  0  0  0  0  0  0  0  0
   -1.2681   -1.9713   -1.6895 H   0  0  0  0  0  0  0  0  0  0  0  0
   -0.5851    1.4093   -1.6549 H   0  0  0  0  0  0  0  0  0  0  0  0
   -1.5777    1.7433    1.1029 H   0  0  0  0  0  0  0  0  0  0  0  0
    0.0882    2.2259    1.0736 H   0  0  0  0  0  0  0  0  0  0  0  0
   -0.0319   -0.5517    1.9276 H   0  0  0  0  0  0  0  0  0  0  0  0
    0.9026   -1.1591   -1.8890 H   0  0  0  0  0  0  0  0  0  0  0  0
    2.3953   -0.2991   -1.7020 H   0  0  0  0  0  0  0  0  0  0  0  0
    2.0215   -1.5966   -0.5674 H   0  0  0  0  0  0  0  0  0  0  0  0
    3.4852    1.4960    1.7406 H   0  0  0  0  0  0  0  0  0  0  0  0
    2.4887    0.0815    1.9522 H   0  0  0  0  0  0  0  0  0  0  0  0
  2  1  1  0  0  0  0
  3  2  1  0  0  0  0
  4  2  1  0  0  0  0
  5  4  1  0  0  0  0
  6  5  1  0  0  0  0
  6  2  1  0  0  0  0
  7  6  1  0  0  0  0
  7  4  1  0  0  0  0
  8  7  1  0  0  0  0
  9  7  1  0  0  0  0
 10  9  1  0  0  0  0
 11  9  2  0  0  0  0
  1 12  1  0  0  0  0
  1 13  1  0  0  0  0
  1 14  1  0  0  0  0
  3 15  1  0  0  0  0
  3 16  1  0  0  0  0
  3 17  1  0  0  0  0
  4 18  1  0  0  0  0
  5 19  1  0  0  0  0
  5 20  1  0  0  0  0
  6 21  1  0  0  0  0
  8 22  1  0  0  0  0
  8 23  1  0  0  0  0
  8 24  1  0  0  0  0
 10 25  1  0  0  0  0
 10 26  1  0  0  0  0
M  END
>  <energy>
43.331315209132001

$$$$
