CC(C)C(=O)CCC1OC(=O)C2(C)CC3(C2)OOC2(C)OC(O1)C32C
                    3D

 51 54  0  0  0  0  0  0  0  0999 V2000
   -5.4306    0.8797    0.2255 C   0  0  0  0  0  0  0  0  0  0  0  0
   -4.3507   -0.1925    0.1028 C   0  0  0  0  0  0  0  0  0  0  0  0
   -4.0092   -0.4312   -1.3632 C   0  0  0  0  0  0  0  0  0  0  0  0
   -3.1109    0.2283    0.8935 C   0  0  0  0  0  0  0  0  0  0  0  0
   -2.6223    1.3548    0.7845 O   0  0  0  0  0  0  0  0  0  0  0  0
   -2.4983   -0.7933    1.8400 C   0  0  0  0  0  0  0  0  0  0  0  0
   -1.6281   -1.8258    1.1320 C   0  0  0  0  0  0  0  0  0  0  0  0
   -0.1625   -1.3998    0.9772 C   0  0  0  0  0  0  0  0  0  0  0  0
    0.5234   -2.4552    0.2761 O   0  0  0  0  0  0  0  0  0  0  0  0
    0.8371   -2.1469   -1.0232 C   0  0  0  0  0  0  0  0  0  0  0  0
    0.0210   -2.2957   -1.9287 O   0  0  0  0  0  0  0  0  0  0  0  0
    2.3431   -1.6792   -1.1734 C   0  0  0  0  0  0  0  0  0  0  0  0
    3.1958   -2.8120   -1.7547 C   0  0  0  0  0  0  0  0  0  0  0  0
    2.9602   -1.0530    0.0942 C   0  0  0  0  0  0  0  0  0  0  0  0
    2.8925    0.3586   -0.5485 C   0  0  0  0  0  0  0  0  0  0  0  0
    2.6323   -0.3217   -1.9009 C   0  0  0  0  0  0  0  0  0  0  0  0
    4.1236    1.0613   -0.2807 O   0  0  0  0  0  0  0  0  0  0  0  0
    3.8890    1.5136    1.1176 O   0  0  0  0  0  0  0  0  0  0  0  0
    2.4604    1.8241    1.1681 C   0  0  0  0  0  0  0  0  0  0  0  0
    2.2697    3.1989    1.7813 C   0  0  0  0  0  0  0  0  0  0  0  0
    1.6102    0.8067    1.8649 O   0  0  0  0  0  0  0  0  0  0  0  0
    0.6535    0.9336    0.7644 C   0  0  0  0  0  0  0  0  0  0  0  0
   -0.0869   -0.1858    0.2723 O   0  0  0  0  0  0  0  0  0  0  0  0
    1.7754    1.3807   -0.1569 C   0  0  0  0  0  0  0  0  0  0  0  0
    1.4211    2.4597   -1.1617 C   0  0  0  0  0  0  0  0  0  0  0  0
   -6.3723    0.5330   -0.2121 H   0  0  0  0  0  0  0  0  0  0  0  0
   -5.6192    1.1372    1.2721 H   0  0  0  0  0  0  0  0  0  0  0  0
   -5.1406    1.7998   -0.2933 H   0  0  0  0  0  0  0  0  0  0  0  0
   -4.7427   -1.1202    0.5391 H   0  0  0  0  0  0  0  0  0  0  0  0
   -3.3016   -1.2563   -1.4806 H   0  0  0  0  0  0  0  0  0  0  0  0
   -3.5575    0.4580   -1.8166 H   0  0  0  0  0  0  0  0  0  0  0  0
   -4.9088   -0.6851   -1.9350 H   0  0  0  0  0  0  0  0  0  0  0  0
   -1.9318   -0.2638    2.6161 H   0  0  0  0  0  0  0  0  0  0  0  0
   -3.3251   -1.2932    2.3576 H   0  0  0  0  0  0  0  0  0  0  0  0
   -2.0402   -2.0724    0.1487 H   0  0  0  0  0  0  0  0  0  0  0  0
   -1.6469   -2.7640    1.6997 H   0  0  0  0  0  0  0  0  0  0  0  0
    0.2924   -1.3071    1.9689 H   0  0  0  0  0  0  0  0  0  0  0  0
    2.8611   -3.0691   -2.7651 H   0  0  0  0  0  0  0  0  0  0  0  0
    4.2543   -2.5342   -1.8181 H   0  0  0  0  0  0  0  0  0  0  0  0
    3.1278   -3.7112   -1.1340 H   0  0  0  0  0  0  0  0  0  0  0  0
    3.9925   -1.3826    0.2804 H   0  0  0  0  0  0  0  0  0  0  0  0
    2.4569   -1.2242    1.0442 H   0  0  0  0  0  0  0  0  0  0  0  0
    3.5129   -0.3274   -2.5530 H   0  0  0  0  0  0  0  0  0  0  0  0
    1.7914    0.0496   -2.4960 H   0  0  0  0  0  0  0  0  0  0  0  0
    1.2138    3.4778    1.8574 H   0  0  0  0  0  0  0  0  0  0  0  0
    2.6919    3.2278    2.7917 H   0  0  0  0  0  0  0  0  0  0  0  0
    2.7745    3.9686    1.1845 H   0  0  0  0  0  0  0  0  0  0  0  0
   -0.0643    1.7251    1.0190 H   0  0  0  0  0  0  0  0  0  0  0  0
    2.3198    2.8915   -1.6129 H   0  0  0  0  0  0  0  0  0  0  0  0
    0.7974    2.0574   -1.9647 H   0  0  0  0  0  0  0  0  0  0  0  0
    0.8555    3.2771   -0.7007 H   0  0  0  0  0  0  0  0  0  0  0  0
  2  1  1  0  0  0  0
  3  2  1  0  0  0  0
  4  2  1  0  0  0  0
  5  4  2  0  0  0  0
  6  4  1  0  0  0  0
  7  6  1  0  0  0  0
  8  7  1  0  0  0  0
  9  8  1  0  0  0  0
 10  9  1  0  0  0  0
 11 10  2  0  0  0  0
 12 10  1  0  0  0  0
 13 12  1  0  0  0  0
 14 12  1  0  0  0  0
 15 14  1  0  0  0  0
 16 15  1  0  0  0  0
 16 12  1  0  0  0  0
 17 15  1  0  0  0  0
 18 17  1  0  0  0  0
 19 18  1  0  0  0  0
 20 19  1  0  0  0  0
 21 19  1  0  0  0  0
 22 21  1  0  0  0  0
 23 22  1  0  0  0  0
 23  8  1  0  0  0  0
 24 22  1  0  0  0  0
 24 15  1  0  0  0  0
 24 19  1  0  0  0  0
 25 24  1  0  0  0  0
  1 26  1  0  0  0  0
  1 27  1  0  0  0  0
  1 28  1  0  0  0  0
  2 29  1  0  0  0  0
  3 30  1  0  0  0  0
  3 31  1  0  0  0  0
  3 32  1  0  0  0  0
  6 33  1  0  0  0  0
  6 34  1  0  0  0  0
  7 35  1  0  0  0  0
  7 36  1  0  0  0  0
  8 37  1  0  0  0  0
 13 38  1  0  0  0  0
 13 39  1  0  0  0  0
 13 40  1  0  0  0  0
 14 41  1  0  0  0  0
 14 42  1  0  0  0  0
 16 43  1  0  0  0  0
 16 44  1  0  0  0  0
 20 45  1  0  0  0  0
 20 46  1  0  0  0  0
 20 47  1  0  0  0  0
 22 48  1  0  0  0  0
 25 49  1  0  0  0  0
 25 50  1  0  0  0  0
 25 51  1  0  0  0  0
M  END
>  <energy>
6.076529764499881

$$$$
