O=C(NC1CCCCCC1)NC1Cc2c[nH]c(c2)CC2CCCC21CS(=O)(=O)N1CCC(N2CCCCC2)CC1
                    3D

 91 96  0  0  0  0  0  0  0  0999 V2000
   -4.4758   -0.7459    0.7680 O   0  0  0  0  0  0  0  0  0  0  0  0
   -3.2690   -0.5915    0.6440 C   0  0  0  0  0  0  0  0  0  0  0  0
   -2.3795   -1.5277    0.1905 N   0  0  0  0  0  0  0  0  0  0  0  0
   -2.4973   -2.2048   -1.0964 C   0  0  0  0  0  0  0  0  0  0  0  0
   -1.4420   -3.3144   -1.2478 C   0  0  0  0  0  0  0  0  0  0  0  0
   -1.5628   -4.4980   -0.2951 C   0  0  0  0  0  0  0  0  0  0  0  0
   -2.8675   -5.2774   -0.4229 C   0  0  0  0  0  0  0  0  0  0  0  0
   -4.0453   -4.5533    0.2178 C   0  0  0  0  0  0  0  0  0  0  0  0
   -4.7447   -3.5427   -0.6799 C   0  0  0  0  0  0  0  0  0  0  0  0
   -3.8907   -2.6393   -1.5643 C   0  0  0  0  0  0  0  0  0  0  0  0
   -2.6743    0.6151    0.9453 N   0  0  0  0  0  0  0  0  0  0  0  0
   -2.1563    1.4028   -0.1900 C   0  0  0  0  0  0  0  0  0  0  0  0
   -3.3434    1.9827   -1.0839 C   0  0  0  0  0  0  0  0  0  0  0  0
   -4.0687    3.0582   -0.3533 C   0  0  0  0  0  0  0  0  0  0  0  0
   -5.0910    2.8950    0.5715 C   0  0  0  0  0  0  0  0  0  0  0  0
   -4.7025    3.7117    1.6252 N   0  0  0  0  0  0  0  0  0  0  0  0
   -3.4307    4.1265    1.2719 C   0  0  0  0  0  0  0  0  0  0  0  0
   -3.5247    4.3356   -0.0889 C   0  0  0  0  0  0  0  0  0  0  0  0
   -2.2307    3.8090    2.0812 C   0  0  0  0  0  0  0  0  0  0  0  0
   -0.9650    3.5432    1.2182 C   0  0  0  0  0  0  0  0  0  0  0  0
    0.1857    3.2915    2.2185 C   0  0  0  0  0  0  0  0  0  0  0  0
    0.2751    1.7858    2.2962 C   0  0  0  0  0  0  0  0  0  0  0  0
    0.1832    1.3940    0.8327 C   0  0  0  0  0  0  0  0  0  0  0  0
   -0.8792    2.3251    0.1677 C   0  0  0  0  0  0  0  0  0  0  0  0
   -0.4421    2.8280   -1.2547 C   0  0  0  0  0  0  0  0  0  0  0  0
    1.1823    3.4228   -1.6627 S   0  0  0  0  0  0  0  0  0  0  0  0
    1.5711    4.4130   -0.6822 O   0  0  0  0  0  0  0  0  0  0  0  0
    1.1719    3.7600   -3.0714 O   0  0  0  0  0  0  0  0  0  0  0  0
    2.2010    2.0998   -1.5149 N   0  0  0  0  0  0  0  0  0  0  0  0
    1.9453    0.8546   -2.2663 C   0  0  0  0  0  0  0  0  0  0  0  0
    2.5257   -0.2988   -1.4430 C   0  0  0  0  0  0  0  0  0  0  0  0
    4.0121   -0.0847   -1.0801 C   0  0  0  0  0  0  0  0  0  0  0  0
    4.4209   -1.1607   -0.1504 N   0  0  0  0  0  0  0  0  0  0  0  0
    5.7929   -1.6341   -0.3865 C   0  0  0  0  0  0  0  0  0  0  0  0
    6.3816   -2.4351    0.7888 C   0  0  0  0  0  0  0  0  0  0  0  0
    5.2991   -3.1928    1.5440 C   0  0  0  0  0  0  0  0  0  0  0  0
    4.2102   -2.2403    2.0441 C   0  0  0  0  0  0  0  0  0  0  0  0
    4.1753   -0.9150    1.2712 C   0  0  0  0  0  0  0  0  0  0  0  0
    4.2926    1.3503   -0.5804 C   0  0  0  0  0  0  0  0  0  0  0  0
    3.6549    2.3892   -1.4950 C   0  0  0  0  0  0  0  0  0  0  0  0
   -1.4391   -1.2558    0.4286 H   0  0  0  0  0  0  0  0  0  0  0  0
   -2.1915   -1.4343   -1.8207 H   0  0  0  0  0  0  0  0  0  0  0  0
   -1.4630   -3.6930   -2.2793 H   0  0  0  0  0  0  0  0  0  0  0  0
   -0.4439   -2.8759   -1.1123 H   0  0  0  0  0  0  0  0  0  0  0  0
   -0.7363   -5.1854   -0.5117 H   0  0  0  0  0  0  0  0  0  0  0  0
   -1.4176   -4.1672    0.7395 H   0  0  0  0  0  0  0  0  0  0  0  0
   -3.0779   -5.5267   -1.4690 H   0  0  0  0  0  0  0  0  0  0  0  0
   -2.7367   -6.2308    0.1032 H   0  0  0  0  0  0  0  0  0  0  0  0
   -4.7959   -5.3007    0.5101 H   0  0  0  0  0  0  0  0  0  0  0  0
   -3.7304   -4.0665    1.1489 H   0  0  0  0  0  0  0  0  0  0  0  0
   -5.4322   -4.0858   -1.3433 H   0  0  0  0  0  0  0  0  0  0  0  0
   -5.3973   -2.9282   -0.0509 H   0  0  0  0  0  0  0  0  0  0  0  0
   -4.4816   -1.7393   -1.7904 H   0  0  0  0  0  0  0  0  0  0  0  0
   -3.7695   -3.1410   -2.5363 H   0  0  0  0  0  0  0  0  0  0  0  0
   -3.3574    1.1573    1.4616 H   0  0  0  0  0  0  0  0  0  0  0  0
   -1.7333    0.6431   -0.8634 H   0  0  0  0  0  0  0  0  0  0  0  0
   -2.9613    2.3589   -2.0393 H   0  0  0  0  0  0  0  0  0  0  0  0
   -4.0403    1.1714   -1.3307 H   0  0  0  0  0  0  0  0  0  0  0  0
   -5.8024    2.0949    0.7406 H   0  0  0  0  0  0  0  0  0  0  0  0
   -5.0198    3.5642    2.5741 H   0  0  0  0  0  0  0  0  0  0  0  0
   -2.7335    4.7913   -0.6721 H   0  0  0  0  0  0  0  0  0  0  0  0
   -2.4363    2.9289    2.7042 H   0  0  0  0  0  0  0  0  0  0  0  0
   -2.0485    4.6407    2.7717 H   0  0  0  0  0  0  0  0  0  0  0  0
   -0.7416    4.4813    0.6935 H   0  0  0  0  0  0  0  0  0  0  0  0
    0.0169    3.7351    3.2059 H   0  0  0  0  0  0  0  0  0  0  0  0
    1.1231    3.7063    1.8316 H   0  0  0  0  0  0  0  0  0  0  0  0
    1.2182    1.4601    2.7473 H   0  0  0  0  0  0  0  0  0  0  0  0
   -0.5493    1.3607    2.8796 H   0  0  0  0  0  0  0  0  0  0  0  0
    1.1755    1.5621    0.4329 H   0  0  0  0  0  0  0  0  0  0  0  0
   -0.0217    0.3262    0.7276 H   0  0  0  0  0  0  0  0  0  0  0  0
   -1.0883    3.6653   -1.5364 H   0  0  0  0  0  0  0  0  0  0  0  0
   -0.6426    2.0624   -2.0101 H   0  0  0  0  0  0  0  0  0  0  0  0
    0.8798    0.6692   -2.3935 H   0  0  0  0  0  0  0  0  0  0  0  0
    2.3968    0.9024   -3.2647 H   0  0  0  0  0  0  0  0  0  0  0  0
    2.4065   -1.2364   -1.9993 H   0  0  0  0  0  0  0  0  0  0  0  0
    1.9324   -0.4096   -0.5287 H   0  0  0  0  0  0  0  0  0  0  0  0
    4.5640   -0.2092   -2.0248 H   0  0  0  0  0  0  0  0  0  0  0  0
    5.7824   -2.2738   -1.2772 H   0  0  0  0  0  0  0  0  0  0  0  0
    6.4706   -0.7981   -0.5953 H   0  0  0  0  0  0  0  0  0  0  0  0
    6.8916   -1.7522    1.4807 H   0  0  0  0  0  0  0  0  0  0  0  0
    7.1420   -3.1301    0.4161 H   0  0  0  0  0  0  0  0  0  0  0  0
    5.7279   -3.7465    2.3844 H   0  0  0  0  0  0  0  0  0  0  0  0
    4.8512   -3.9410    0.8784 H   0  0  0  0  0  0  0  0  0  0  0  0
    3.2401   -2.7437    1.9690 H   0  0  0  0  0  0  0  0  0  0  0  0
    4.3651   -2.0212    3.1081 H   0  0  0  0  0  0  0  0  0  0  0  0
    4.9285   -0.2287    1.6798 H   0  0  0  0  0  0  0  0  0  0  0  0
    3.1960   -0.4520    1.4475 H   0  0  0  0  0  0  0  0  0  0  0  0
    3.8812    1.5033    0.4246 H   0  0  0  0  0  0  0  0  0  0  0  0
    5.3700    1.5260   -0.5099 H   0  0  0  0  0  0  0  0  0  0  0  0
    3.8613    3.3896   -1.1090 H   0  0  0  0  0  0  0  0  0  0  0  0
    4.0701    2.3350   -2.5080 H   0  0  0  0  0  0  0  0  0  0  0  0
  2  1  2  0  0  0  0
  3  2  1  0  0  0  0
  4  3  1  0  0  0  0
  5  4  1  0  0  0  0
  6  5  1  0  0  0  0
  7  6  1  0  0  0  0
  8  7  1  0  0  0  0
  9  8  1  0  0  0  0
 10  9  1  0  0  0  0
 10  4  1  0  0  0  0
 11  2  1  0  0  0  0
 12 11  1  0  0  0  0
 13 12  1  0  0  0  0
 14 13  1  0  0  0  0
 15 14  2  0  0  0  0
 16 15  1  0  0  0  0
 17 16  1  0  0  0  0
 18 17  2  0  0  0  0
 18 14  1  0  0  0  0
 19 17  1  0  0  0  0
 20 19  1  0  0  0  0
 21 20  1  0  0  0  0
 22 21  1  0  0  0  0
 23 22  1  0  0  0  0
 24 23  1  0  0  0  0
 24 20  1  0  0  0  0
 24 12  1  0  0  0  0
 25 24  1  0  0  0  0
 26 25  1  0  0  0  0
 27 26  2  0  0  0  0
 28 26  2  0  0  0  0
 29 26  1  0  0  0  0
 30 29  1  0  0  0  0
 31 30  1  0  0  0  0
 32 31  1  0  0  0  0
 33 32  1  0  0  0  0
 34 33  1  0  0  0  0
 35 34  1  0  0  0  0
 36 35  1  0  0  0  0
 37 36  1  0  0  0  0
 38 37  1  0  0  0  0
 38 33  1  0  0  0  0
 39 32  1  0  0  0  0
 40 39  1  0  0  0  0
 40 29  1  0  0  0  0
  3 41  1  0  0  0  0
  4 42  1  0  0  0  0
  5 43  1  0  0  0  0
  5 44  1  0  0  0  0
  6 45  1  0  0  0  0
  6 46  1  0  0  0  0
  7 47  1  0  0  0  0
  7 48  1  0  0  0  0
  8 49  1  0  0  0  0
  8 50  1  0  0  0  0
  9 51  1  0  0  0  0
  9 52  1  0  0  0  0
 10 53  1  0  0  0  0
 10 54  1  0  0  0  0
 11 55  1  0  0  0  0
 12 56  1  0  0  0  0
 13 57  1  0  0  0  0
 13 58  1  0  0  0  0
 15 59  1  0  0  0  0
 16 60  1  0  0  0  0
 18 61  1  0  0  0  0
 19 62  1  0  0  0  0
 19 63  1  0  0  0  0
 20 64  1  0  0  0  0
 21 65  1  0  0  0  0
 21 66  1  0  0  0  0
 22 67  1  0  0  0  0
 22 68  1  0  0  0  0
 23 69  1  0  0  0  0
 23 70  1  0  0  0  0
 25 71  1  0  0  0  0
 25 72  1  0  0  0  0
 30 73  1  0  0  0  0
 30 74  1  0  0  0  0
 31 75  1  0  0  0  0
 31 76  1  0  0  0  0
 32 77  1  0  0  0  0
 34 78  1  0  0  0  0
 34 79  1  0  0  0  0
 35 80  1  0  0  0  0
 35 81  1  0  0  0  0
 36 82  1  0  0  0  0
 36 83  1  0  0  0  0
 37 84  1  0  0  0  0
 37 85  1  0  0  0  0
 38 86  1  0  0  0  0
 38 87  1  0  0  0  0
 39 88  1  0  0  0  0
 39 89  1  0  0  0  0
 40 90  1  0  0  0  0
 40 91  1  0  0  0  0
M  END
>  <energy>
1.8680929067816692

$$$$
