C=CCNC(=O)C1CC2C3CC2(CO)C2CC4CCC(CCC13C)(C2)C4C(=O)N1CCC(C(=O)NC(C)(C)C)CC1
                    3D

 94 99  0  0  0  0  0  0  0  0999 V2000
   -0.7673    3.0675   -3.9353 C   0  0  0  0  0  0  0  0  0  0  0  0
   -2.0321    3.3990   -4.2395 C   0  0  0  0  0  0  0  0  0  0  0  0
   -3.1445    2.3968   -4.4457 C   0  0  0  0  0  0  0  0  0  0  0  0
   -3.1863    1.5883   -3.2584 N   0  0  0  0  0  0  0  0  0  0  0  0
   -3.4448    0.2424   -3.2472 C   0  0  0  0  0  0  0  0  0  0  0  0
   -3.9967   -0.3192   -4.1878 O   0  0  0  0  0  0  0  0  0  0  0  0
   -2.7996   -0.5062   -2.0608 C   0  0  0  0  0  0  0  0  0  0  0  0
   -1.6487   -1.3136   -2.6861 C   0  0  0  0  0  0  0  0  0  0  0  0
   -1.2816   -2.3540   -1.6680 C   0  0  0  0  0  0  0  0  0  0  0  0
   -2.5946   -2.7093   -0.8960 C   0  0  0  0  0  0  0  0  0  0  0  0
   -1.5844   -3.1899    0.2385 C   0  0  0  0  0  0  0  0  0  0  0  0
   -0.5263   -2.1056   -0.2677 C   0  0  0  0  0  0  0  0  0  0  0  0
    0.8754   -2.7521   -0.1923 C   0  0  0  0  0  0  0  0  0  0  0  0
    1.8671   -1.8903   -0.7388 O   0  0  0  0  0  0  0  0  0  0  0  0
   -0.5348   -0.7899    0.5936 C   0  0  0  0  0  0  0  0  0  0  0  0
   -0.0538    0.5160   -0.0189 C   0  0  0  0  0  0  0  0  0  0  0  0
   -0.6630    1.8198    0.6480 C   0  0  0  0  0  0  0  0  0  0  0  0
   -1.7196    2.4450   -0.2549 C   0  0  0  0  0  0  0  0  0  0  0  0
   -2.9894    1.7474    0.1619 C   0  0  0  0  0  0  0  0  0  0  0  0
   -2.6254    0.7087    1.2600 C   0  0  0  0  0  0  0  0  0  0  0  0
   -4.0176    0.0939    1.4672 C   0  0  0  0  0  0  0  0  0  0  0  0
   -4.4724   -0.8986    0.1875 C   0  0  0  0  0  0  0  0  0  0  0  0
   -3.6260   -1.4858   -1.1449 C   0  0  0  0  0  0  0  0  0  0  0  0
   -4.7871   -2.0968   -1.9934 C   0  0  0  0  0  0  0  0  0  0  0  0
   -1.8732   -0.6171    1.2279 C   0  0  0  0  0  0  0  0  0  0  0  0
   -1.5387    1.6087    1.9567 C   0  0  0  0  0  0  0  0  0  0  0  0
   -0.7495    1.1049    3.1781 C   0  0  0  0  0  0  0  0  0  0  0  0
   -1.3136    0.3583    3.9898 O   0  0  0  0  0  0  0  0  0  0  0  0
    0.5689    1.4894    3.3873 N   0  0  0  0  0  0  0  0  0  0  0  0
    1.2625    2.6829    2.8997 C   0  0  0  0  0  0  0  0  0  0  0  0
    2.4834    2.3037    2.0260 C   0  0  0  0  0  0  0  0  0  0  0  0
    2.9672    0.8696    2.3271 C   0  0  0  0  0  0  0  0  0  0  0  0
    4.3753    0.5629    1.8340 C   0  0  0  0  0  0  0  0  0  0  0  0
    5.3766    0.8426    2.4993 O   0  0  0  0  0  0  0  0  0  0  0  0
    4.4173   -0.0848    0.6074 N   0  0  0  0  0  0  0  0  0  0  0  0
    5.5387   -0.9470    0.1594 C   0  0  0  0  0  0  0  0  0  0  0  0
    5.5127   -2.2489    0.9783 C   0  0  0  0  0  0  0  0  0  0  0  0
    5.3436   -1.2869   -1.3266 C   0  0  0  0  0  0  0  0  0  0  0  0
    6.9188   -0.2828    0.2776 C   0  0  0  0  0  0  0  0  0  0  0  0
    2.8455    0.6015    3.8329 C   0  0  0  0  0  0  0  0  0  0  0  0
    1.3778    0.6620    4.2836 C   0  0  0  0  0  0  0  0  0  0  0  0
    0.0033    3.8144   -3.7760 H   0  0  0  0  0  0  0  0  0  0  0  0
   -0.4690    2.0282   -3.8405 H   0  0  0  0  0  0  0  0  0  0  0  0
   -2.2926    4.4511   -4.3317 H   0  0  0  0  0  0  0  0  0  0  0  0
   -2.9490    1.7780   -5.3280 H   0  0  0  0  0  0  0  0  0  0  0  0
   -4.1069    2.9064   -4.5603 H   0  0  0  0  0  0  0  0  0  0  0  0
   -3.0443    2.0761   -2.3893 H   0  0  0  0  0  0  0  0  0  0  0  0
   -2.2850    0.1944   -1.4303 H   0  0  0  0  0  0  0  0  0  0  0  0
   -0.7826   -0.6887   -2.9530 H   0  0  0  0  0  0  0  0  0  0  0  0
   -1.9725   -1.8065   -3.6146 H   0  0  0  0  0  0  0  0  0  0  0  0
   -0.8594   -3.2292   -2.1930 H   0  0  0  0  0  0  0  0  0  0  0  0
   -3.0755   -3.6115   -1.2991 H   0  0  0  0  0  0  0  0  0  0  0  0
   -1.9196   -3.1714    1.2805 H   0  0  0  0  0  0  0  0  0  0  0  0
   -1.2622   -4.2295    0.0654 H   0  0  0  0  0  0  0  0  0  0  0  0
    0.9066   -3.6958   -0.7427 H   0  0  0  0  0  0  0  0  0  0  0  0
    1.1362   -2.9666    0.8497 H   0  0  0  0  0  0  0  0  0  0  0  0
    2.5600   -2.4804   -1.0787 H   0  0  0  0  0  0  0  0  0  0  0  0
    0.1426   -0.9836    1.4364 H   0  0  0  0  0  0  0  0  0  0  0  0
    1.0374    0.5668    0.0758 H   0  0  0  0  0  0  0  0  0  0  0  0
   -0.1867    0.5355   -1.1020 H   0  0  0  0  0  0  0  0  0  0  0  0
    0.1321    2.5532    0.7112 H   0  0  0  0  0  0  0  0  0  0  0  0
   -1.8223    3.5216   -0.0461 H   0  0  0  0  0  0  0  0  0  0  0  0
   -1.4649    2.3457   -1.3071 H   0  0  0  0  0  0  0  0  0  0  0  0
   -3.6367    1.4072   -0.6428 H   0  0  0  0  0  0  0  0  0  0  0  0
   -3.6369    2.5111    0.6358 H   0  0  0  0  0  0  0  0  0  0  0  0
   -4.0849   -0.4759    2.4100 H   0  0  0  0  0  0  0  0  0  0  0  0
   -4.8083    0.8529    1.5580 H   0  0  0  0  0  0  0  0  0  0  0  0
   -5.3394   -0.3750   -0.2313 H   0  0  0  0  0  0  0  0  0  0  0  0
   -4.8696   -1.7986    0.6827 H   0  0  0  0  0  0  0  0  0  0  0  0
   -5.3106   -2.8658   -1.4132 H   0  0  0  0  0  0  0  0  0  0  0  0
   -4.4228   -2.5692   -2.9096 H   0  0  0  0  0  0  0  0  0  0  0  0
   -5.5211   -1.3285   -2.2703 H   0  0  0  0  0  0  0  0  0  0  0  0
   -2.5381   -1.3711    0.8966 H   0  0  0  0  0  0  0  0  0  0  0  0
   -1.7779   -0.9818    2.2632 H   0  0  0  0  0  0  0  0  0  0  0  0
   -1.9827    2.5561    2.2822 H   0  0  0  0  0  0  0  0  0  0  0  0
    1.6139    3.2247    3.7883 H   0  0  0  0  0  0  0  0  0  0  0  0
    0.5849    3.3862    2.4107 H   0  0  0  0  0  0  0  0  0  0  0  0
    2.2381    2.3935    0.9607 H   0  0  0  0  0  0  0  0  0  0  0  0
    3.2880    3.0334    2.1832 H   0  0  0  0  0  0  0  0  0  0  0  0
    2.2951    0.1625    1.8287 H   0  0  0  0  0  0  0  0  0  0  0  0
    3.5058   -0.3718    0.2472 H   0  0  0  0  0  0  0  0  0  0  0  0
    5.6098   -2.0482    2.0519 H   0  0  0  0  0  0  0  0  0  0  0  0
    4.5688   -2.7903    0.8350 H   0  0  0  0  0  0  0  0  0  0  0  0
    6.3246   -2.9214    0.6871 H   0  0  0  0  0  0  0  0  0  0  0  0
    4.4029   -1.8046   -1.5056 H   0  0  0  0  0  0  0  0  0  0  0  0
    6.1403   -1.9395   -1.6939 H   0  0  0  0  0  0  0  0  0  0  0  0
    5.3424   -0.3807   -1.9390 H   0  0  0  0  0  0  0  0  0  0  0  0
    7.2392   -0.1689    1.3158 H   0  0  0  0  0  0  0  0  0  0  0  0
    6.9274    0.7036   -0.1950 H   0  0  0  0  0  0  0  0  0  0  0  0
    7.6821   -0.8884   -0.2247 H   0  0  0  0  0  0  0  0  0  0  0  0
    3.4299    1.3478    4.3862 H   0  0  0  0  0  0  0  0  0  0  0  0
    3.2738   -0.3724    4.1034 H   0  0  0  0  0  0  0  0  0  0  0  0
    0.9711   -0.3567    4.3226 H   0  0  0  0  0  0  0  0  0  0  0  0
    1.3054    1.0891    5.2899 H   0  0  0  0  0  0  0  0  0  0  0  0
  2  1  2  0  0  0  0
  3  2  1  0  0  0  0
  4  3  1  0  0  0  0
  5  4  1  0  0  0  0
  6  5  2  0  0  0  0
  7  5  1  0  0  0  0
  8  7  1  0  0  0  0
  9  8  1  0  0  0  0
 10  9  1  0  0  0  0
 11 10  1  0  0  0  0
 12 11  1  0  0  0  0
 12  9  1  0  0  0  0
 13 12  1  0  0  0  0
 14 13  1  0  0  0  0
 15 12  1  0  0  0  0
 16 15  1  0  0  0  0
 17 16  1  0  0  0  0
 18 17  1  0  0  0  0
 19 18  1  0  0  0  0
 20 19  1  0  0  0  0
 21 20  1  0  0  0  0
 22 21  1  0  0  0  0
 23 22  1  0  0  0  0
 23  7  1  0  0  0  0
 23 10  1  0  0  0  0
 24 23  1  0  0  0  0
 25 20  1  0  0  0  0
 25 15  1  0  0  0  0
 26 20  1  0  0  0  0
 26 17  1  0  0  0  0
 27 26  1  0  0  0  0
 28 27  2  0  0  0  0
 29 27  1  0  0  0  0
 30 29  1  0  0  0  0
 31 30  1  0  0  0  0
 32 31  1  0  0  0  0
 33 32  1  0  0  0  0
 34 33  2  0  0  0  0
 35 33  1  0  0  0  0
 36 35  1  0  0  0  0
 37 36  1  0  0  0  0
 38 36  1  0  0  0  0
 39 36  1  0  0  0  0
 40 32  1  0  0  0  0
 41 40  1  0  0  0  0
 41 29  1  0  0  0  0
  1 42  1  0  0  0  0
  1 43  1  0  0  0  0
  2 44  1  0  0  0  0
  3 45  1  0  0  0  0
  3 46  1  0  0  0  0
  4 47  1  0  0  0  0
  7 48  1  0  0  0  0
  8 49  1  0  0  0  0
  8 50  1  0  0  0  0
  9 51  1  0  0  0  0
 10 52  1  0  0  0  0
 11 53  1  0  0  0  0
 11 54  1  0  0  0  0
 13 55  1  0  0  0  0
 13 56  1  0  0  0  0
 14 57  1  0  0  0  0
 15 58  1  0  0  0  0
 16 59  1  0  0  0  0
 16 60  1  0  0  0  0
 17 61  1  0  0  0  0
 18 62  1  0  0  0  0
 18 63  1  0  0  0  0
 19 64  1  0  0  0  0
 19 65  1  0  0  0  0
 21 66  1  0  0  0  0
 21 67  1  0  0  0  0
 22 68  1  0  0  0  0
 22 69  1  0  0  0  0
 24 70  1  0  0  0  0
 24 71  1  0  0  0  0
 24 72  1  0  0  0  0
 25 73  1  0  0  0  0
 25 74  1  0  0  0  0
 26 75  1  0  0  0  0
 30 76  1  0  0  0  0
 30 77  1  0  0  0  0
 31 78  1  0  0  0  0
 31 79  1  0  0  0  0
 32 80  1  0  0  0  0
 35 81  1  0  0  0  0
 37 82  1  0  0  0  0
 37 83  1  0  0  0  0
 37 84  1  0  0  0  0
 38 85  1  0  0  0  0
 38 86  1  0  0  0  0
 38 87  1  0  0  0  0
 39 88  1  0  0  0  0
 39 89  1  0  0  0  0
 39 90  1  0  0  0  0
 40 91  1  0  0  0  0
 40 92  1  0  0  0  0
 41 93  1  0  0  0  0
 41 94  1  0  0  0  0
M  END
>  <energy>
201.08187231009512

$$$$
