C1=CN2N=C(N=CN2C2CCCC2)C(=NC2CCCCC2)N1
                    3D

 46 49  0  0  0  0  0  0  0  0999 V2000
    0.4318   -0.8421    1.9123 C   0  0  0  0  0  0  0  0  0  0  0  0
    1.7415   -0.9713    1.6457 C   0  0  0  0  0  0  0  0  0  0  0  0
    2.3273   -1.4855    0.4820 N   0  0  0  0  0  0  0  0  0  0  0  0
    1.5266   -2.4512   -0.1289 N   0  0  0  0  0  0  0  0  0  0  0  0
    0.6867   -1.8420   -0.9181 C   0  0  0  0  0  0  0  0  0  0  0  0
    1.1779   -1.1718   -2.0243 N   0  0  0  0  0  0  0  0  0  0  0  0
    2.2899   -0.5893   -1.7140 C   0  0  0  0  0  0  0  0  0  0  0  0
    2.9375   -0.6615   -0.4853 N   0  0  0  0  0  0  0  0  0  0  0  0
    3.9471    0.3486   -0.1609 C   0  0  0  0  0  0  0  0  0  0  0  0
    4.8525    0.0725    1.0449 C   0  0  0  0  0  0  0  0  0  0  0  0
    4.6896    1.2892    1.9635 C   0  0  0  0  0  0  0  0  0  0  0  0
    4.2203    2.4138    1.0483 C   0  0  0  0  0  0  0  0  0  0  0  0
    3.2703    1.7043    0.1068 C   0  0  0  0  0  0  0  0  0  0  0  0
   -0.6540   -1.4032   -0.2717 C   0  0  0  0  0  0  0  0  0  0  0  0
   -1.6308   -1.2865   -1.1092 N   0  0  0  0  0  0  0  0  0  0  0  0
   -2.8219   -0.5351   -0.7302 C   0  0  0  0  0  0  0  0  0  0  0  0
   -3.8746   -1.4488   -0.0990 C   0  0  0  0  0  0  0  0  0  0  0  0
   -5.2996   -0.9024   -0.2584 C   0  0  0  0  0  0  0  0  0  0  0  0
   -5.3373    0.6087   -0.4878 C   0  0  0  0  0  0  0  0  0  0  0  0
   -4.5794    1.0064   -1.7519 C   0  0  0  0  0  0  0  0  0  0  0  0
   -3.3446    0.1433   -2.0061 C   0  0  0  0  0  0  0  0  0  0  0  0
   -0.6481   -1.0656    1.0808 N   0  0  0  0  0  0  0  0  0  0  0  0
    0.1237   -0.4884    2.8952 H   0  0  0  0  0  0  0  0  0  0  0  0
    2.4818   -0.7110    2.3896 H   0  0  0  0  0  0  0  0  0  0  0  0
    2.8098    0.0351   -2.4558 H   0  0  0  0  0  0  0  0  0  0  0  0
    4.6049    0.4613   -1.0352 H   0  0  0  0  0  0  0  0  0  0  0  0
    5.8929    0.0220    0.6993 H   0  0  0  0  0  0  0  0  0  0  0  0
    4.6486   -0.8704    1.5615 H   0  0  0  0  0  0  0  0  0  0  0  0
    5.6211    1.5411    2.4829 H   0  0  0  0  0  0  0  0  0  0  0  0
    3.9231    1.0900    2.7235 H   0  0  0  0  0  0  0  0  0  0  0  0
    3.7303    3.2209    1.6010 H   0  0  0  0  0  0  0  0  0  0  0  0
    5.0648    2.8355    0.4935 H   0  0  0  0  0  0  0  0  0  0  0  0
    2.2942    1.5786    0.5927 H   0  0  0  0  0  0  0  0  0  0  0  0
    3.1011    2.2704   -0.8152 H   0  0  0  0  0  0  0  0  0  0  0  0
   -2.5685    0.2690   -0.0247 H   0  0  0  0  0  0  0  0  0  0  0  0
   -3.8251   -2.4659   -0.5163 H   0  0  0  0  0  0  0  0  0  0  0  0
   -3.6488   -1.5636    0.9723 H   0  0  0  0  0  0  0  0  0  0  0  0
   -5.8829   -1.1549    0.6324 H   0  0  0  0  0  0  0  0  0  0  0  0
   -5.7903   -1.4101   -1.0999 H   0  0  0  0  0  0  0  0  0  0  0  0
   -6.3754    0.9515   -0.5594 H   0  0  0  0  0  0  0  0  0  0  0  0
   -4.8961    1.1181    0.3794 H   0  0  0  0  0  0  0  0  0  0  0  0
   -4.2940    2.0642   -1.6878 H   0  0  0  0  0  0  0  0  0  0  0  0
   -5.2410    0.9322   -2.6237 H   0  0  0  0  0  0  0  0  0  0  0  0
   -2.5496    0.7504   -2.4598 H   0  0  0  0  0  0  0  0  0  0  0  0
   -3.5927   -0.6249   -2.7493 H   0  0  0  0  0  0  0  0  0  0  0  0
   -1.5404   -0.7817    1.4650 H   0  0  0  0  0  0  0  0  0  0  0  0
  2  1  2  0  0  0  0
  3  2  1  0  0  0  0
  4  3  1  0  0  0  0
  5  4  2  0  0  0  0
  6  5  1  0  0  0  0
  7  6  2  0  0  0  0
  8  7  1  0  0  0  0
  8  3  1  0  0  0  0
  9  8  1  0  0  0  0
 10  9  1  0  0  0  0
 11 10  1  0  0  0  0
 12 11  1  0  0  0  0
 13 12  1  0  0  0  0
 13  9  1  0  0  0  0
 14  5  1  0  0  0  0
 15 14  2  0  0  0  0
 16 15  1  0  0  0  0
 17 16  1  0  0  0  0
 18 17  1  0  0  0  0
 19 18  1  0  0  0  0
 20 19  1  0  0  0  0
 21 20  1  0  0  0  0
 21 16  1  0  0  0  0
 22 14  1  0  0  0  0
 22  1  1  0  0  0  0
  1 23  1  0  0  0  0
  2 24  1  0  0  0  0
  7 25  1  0  0  0  0
  9 26  1  0  0  0  0
 10 27  1  0  0  0  0
 10 28  1  0  0  0  0
 11 29  1  0  0  0  0
 11 30  1  0  0  0  0
 12 31  1  0  0  0  0
 12 32  1  0  0  0  0
 13 33  1  0  0  0  0
 13 34  1  0  0  0  0
 16 35  1  0  0  0  0
 17 36  1  0  0  0  0
 17 37  1  0  0  0  0
 18 38  1  0  0  0  0
 18 39  1  0  0  0  0
 19 40  1  0  0  0  0
 19 41  1  0  0  0  0
 20 42  1  0  0  0  0
 20 43  1  0  0  0  0
 21 44  1  0  0  0  0
 21 45  1  0  0  0  0
 22 46  1  0  0  0  0
M  END
>  <energy>
117.83343821138095

$$$$
