NC12CCCC3CC1C3C2
                    3D

 25 27  0  0  0  0  0  0  0  0999 V2000
    2.3626    0.9883   -0.3618 N   0  0  0  0  0  0  0  0  0  0  0  0
    0.9951    0.5309   -0.0695 C   0  0  0  0  0  0  0  0  0  0  0  0
   -0.0104    1.6445   -0.3216 C   0  0  0  0  0  0  0  0  0  0  0  0
   -1.4751    1.2148   -0.3622 C   0  0  0  0  0  0  0  0  0  0  0  0
   -1.8821    0.0554    0.5411 C   0  0  0  0  0  0  0  0  0  0  0  0
   -1.0669   -1.2175    0.3042 C   0  0  0  0  0  0  0  0  0  0  0  0
   -0.4557   -1.4322   -1.1074 C   0  0  0  0  0  0  0  0  0  0  0  0
    0.8926   -0.9479   -0.5631 C   0  0  0  0  0  0  0  0  0  0  0  0
    0.3839   -1.3166    0.8503 C   0  0  0  0  0  0  0  0  0  0  0  0
    1.0052   -0.0242    1.3838 C   0  0  0  0  0  0  0  0  0  0  0  0
    2.5076    1.2444   -1.3380 H   0  0  0  0  0  0  0  0  0  0  0  0
    3.0993    0.3198   -0.1377 H   0  0  0  0  0  0  0  0  0  0  0  0
    0.2086    2.1448   -1.2744 H   0  0  0  0  0  0  0  0  0  0  0  0
    0.1064    2.4169    0.4509 H   0  0  0  0  0  0  0  0  0  0  0  0
   -1.7388    0.9709   -1.3981 H   0  0  0  0  0  0  0  0  0  0  0  0
   -2.0975    2.0855   -0.1196 H   0  0  0  0  0  0  0  0  0  0  0  0
   -2.9381   -0.1641    0.3375 H   0  0  0  0  0  0  0  0  0  0  0  0
   -1.8354    0.3489    1.5956 H   0  0  0  0  0  0  0  0  0  0  0  0
   -1.6689   -2.0775    0.6296 H   0  0  0  0  0  0  0  0  0  0  0  0
   -0.8701   -0.8773   -1.9509 H   0  0  0  0  0  0  0  0  0  0  0  0
   -0.4322   -2.4893   -1.4051 H   0  0  0  0  0  0  0  0  0  0  0  0
    1.7944   -1.4682   -0.8968 H   0  0  0  0  0  0  0  0  0  0  0  0
    0.7098   -2.2749    1.2587 H   0  0  0  0  0  0  0  0  0  0  0  0
    1.9946   -0.1946    1.8293 H   0  0  0  0  0  0  0  0  0  0  0  0
    0.4115    0.5192    2.1252 H   0  0  0  0  0  0  0  0  0  0  0  0
  2  1  1  0  0  0  0
  3  2  1  0  0  0  0
  4  3  1  0  0  0  0
  5  4  1  0  0  0  0
  6  5  1  0  0  0  0
  7  6  1  0  0  0  0
  8  7  1  0  0  0  0
  8  2  1  0  0  0  0
  9  8  1  0  0  0  0
  9  6  1  0  0  0  0
 10  9  1  0  0  0  0
 10  2  1  0  0  0  0
  1 11  1  0  0  0  0
  1 12  1  0  0  0  0
  3 13  1  0  0  0  0
  3 14  1  0  0  0  0
  4 15  1  0  0  0  0
  4 16  1  0  0  0  0
  5 17  1  0  0  0  0
  5 18  1  0  0  0  0
  6 19  1  0  0  0  0
  7 20  1  0  0  0  0
  7 21  1  0  0  0  0
  8 22  1  0  0  0  0
  9 23  1  0  0  0  0
 10 24  1  0  0  0  0
 10 25  1  0  0  0  0
M  END
>  <energy>
41.865332134747035

$$$$
