CC1OC(OC2CCCCCCC(C=O)C3C4CC(=O)N4C23)C(O)C(O)C1O
                    3D

 59 62  0  0  0  0  0  0  0  0999 V2000
    2.4814    0.8200   -2.9454 C   0  0  0  0  0  0  0  0  0  0  0  0
    2.6682    0.4251   -1.4897 C   0  0  0  0  0  0  0  0  0  0  0  0
    1.9766   -0.8073   -1.2529 O   0  0  0  0  0  0  0  0  0  0  0  0
    1.6996   -0.9670    0.1526 C   0  0  0  0  0  0  0  0  0  0  0  0
    0.5190   -0.2205    0.3894 O   0  0  0  0  0  0  0  0  0  0  0  0
   -0.0416   -0.2200    1.6850 C   0  0  0  0  0  0  0  0  0  0  0  0
   -0.6053   -1.5752    2.1648 C   0  0  0  0  0  0  0  0  0  0  0  0
   -1.8944   -2.0854    1.5186 C   0  0  0  0  0  0  0  0  0  0  0  0
   -1.7242   -2.7353    0.1440 C   0  0  0  0  0  0  0  0  0  0  0  0
   -2.9590   -2.5451   -0.7470 C   0  0  0  0  0  0  0  0  0  0  0  0
   -2.7990   -1.4677   -1.8273 C   0  0  0  0  0  0  0  0  0  0  0  0
   -2.1868   -0.1436   -1.3607 C   0  0  0  0  0  0  0  0  0  0  0  0
   -3.0177    0.6142   -0.3235 C   0  0  0  0  0  0  0  0  0  0  0  0
   -4.0165    1.5283   -1.0253 C   0  0  0  0  0  0  0  0  0  0  0  0
   -4.0238    1.7867   -2.2250 O   0  0  0  0  0  0  0  0  0  0  0  0
   -2.1731    1.4194    0.6774 C   0  0  0  0  0  0  0  0  0  0  0  0
   -1.1163    2.4038    0.1347 C   0  0  0  0  0  0  0  0  0  0  0  0
   -1.3059    3.8688    0.5613 C   0  0  0  0  0  0  0  0  0  0  0  0
   -0.7505    3.4144    1.9226 C   0  0  0  0  0  0  0  0  0  0  0  0
   -0.7163    3.8392    3.0511 O   0  0  0  0  0  0  0  0  0  0  0  0
   -0.3737    2.2016    1.4015 N   0  0  0  0  0  0  0  0  0  0  0  0
   -1.0869    0.9276    1.7343 C   0  0  0  0  0  0  0  0  0  0  0  0
    2.9239   -0.5597    1.0223 C   0  0  0  0  0  0  0  0  0  0  0  0
    3.0293   -1.4088    2.1803 O   0  0  0  0  0  0  0  0  0  0  0  0
    4.2040   -0.6756    0.1854 C   0  0  0  0  0  0  0  0  0  0  0  0
    5.3407   -0.3898    1.0217 O   0  0  0  0  0  0  0  0  0  0  0  0
    4.1358    0.2226   -1.0682 C   0  0  0  0  0  0  0  0  0  0  0  0
    4.9085   -0.3831   -2.1122 O   0  0  0  0  0  0  0  0  0  0  0  0
    1.4262    1.0448   -3.1381 H   0  0  0  0  0  0  0  0  0  0  0  0
    2.7527    0.0118   -3.6270 H   0  0  0  0  0  0  0  0  0  0  0  0
    3.0571    1.7169   -3.1835 H   0  0  0  0  0  0  0  0  0  0  0  0
    2.2248    1.2221   -0.8750 H   0  0  0  0  0  0  0  0  0  0  0  0
    1.4774   -2.0295    0.2946 H   0  0  0  0  0  0  0  0  0  0  0  0
    0.7475    0.0475    2.4033 H   0  0  0  0  0  0  0  0  0  0  0  0
   -0.8182   -1.4740    3.2379 H   0  0  0  0  0  0  0  0  0  0  0  0
    0.1669   -2.3493    2.0755 H   0  0  0  0  0  0  0  0  0  0  0  0
   -2.6371   -1.2884    1.5239 H   0  0  0  0  0  0  0  0  0  0  0  0
   -2.3127   -2.8525    2.1863 H   0  0  0  0  0  0  0  0  0  0  0  0
   -0.8201   -2.3956   -0.3643 H   0  0  0  0  0  0  0  0  0  0  0  0
   -1.5823   -3.8123    0.3080 H   0  0  0  0  0  0  0  0  0  0  0  0
   -3.8450   -2.3316   -0.1401 H   0  0  0  0  0  0  0  0  0  0  0  0
   -3.1753   -3.4898   -1.2607 H   0  0  0  0  0  0  0  0  0  0  0  0
   -3.7743   -1.2777   -2.2931 H   0  0  0  0  0  0  0  0  0  0  0  0
   -2.1588   -1.8701   -2.6228 H   0  0  0  0  0  0  0  0  0  0  0  0
   -1.1934   -0.3523   -0.9811 H   0  0  0  0  0  0  0  0  0  0  0  0
   -2.0059    0.4828   -2.2409 H   0  0  0  0  0  0  0  0  0  0  0  0
   -3.6474   -0.0725    0.2432 H   0  0  0  0  0  0  0  0  0  0  0  0
   -4.7748    1.9827   -0.3672 H   0  0  0  0  0  0  0  0  0  0  0  0
   -2.9460    1.9525    1.2635 H   0  0  0  0  0  0  0  0  0  0  0  0
   -0.5349    2.1750   -0.7600 H   0  0  0  0  0  0  0  0  0  0  0  0
   -2.3342    4.2301    0.5739 H   0  0  0  0  0  0  0  0  0  0  0  0
   -0.6668    4.5984    0.0560 H   0  0  0  0  0  0  0  0  0  0  0  0
   -1.5135    0.9603    2.7487 H   0  0  0  0  0  0  0  0  0  0  0  0
    2.8353    0.4658    1.4050 H   0  0  0  0  0  0  0  0  0  0  0  0
    3.9779   -1.4001    2.4283 H   0  0  0  0  0  0  0  0  0  0  0  0
    4.3343   -1.7225   -0.1108 H   0  0  0  0  0  0  0  0  0  0  0  0
    5.5829    0.5500    0.9140 H   0  0  0  0  0  0  0  0  0  0  0  0
    4.6020    1.1982   -0.8908 H   0  0  0  0  0  0  0  0  0  0  0  0
    4.4596   -1.2086   -2.3763 H   0  0  0  0  0  0  0  0  0  0  0  0
  2  1  1  0  0  0  0
  3  2  1  0  0  0  0
  4  3  1  0  0  0  0
  5  4  1  0  0  0  0
  6  5  1  0  0  0  0
  7  6  1  0  0  0  0
  8  7  1  0  0  0  0
  9  8  1  0  0  0  0
 10  9  1  0  0  0  0
 11 10  1  0  0  0  0
 12 11  1  0  0  0  0
 13 12  1  0  0  0  0
 14 13  1  0  0  0  0
 15 14  2  0  0  0  0
 16 13  1  0  0  0  0
 17 16  1  0  0  0  0
 18 17  1  0  0  0  0
 19 18  1  0  0  0  0
 20 19  2  0  0  0  0
 21 19  1  0  0  0  0
 21 17  1  0  0  0  0
 22 21  1  0  0  0  0
 22  6  1  0  0  0  0
 22 16  1  0  0  0  0
 23  4  1  0  0  0  0
 24 23  1  0  0  0  0
 25 23  1  0  0  0  0
 26 25  1  0  0  0  0
 27 25  1  0  0  0  0
 27  2  1  0  0  0  0
 28 27  1  0  0  0  0
  1 29  1  0  0  0  0
  1 30  1  0  0  0  0
  1 31  1  0  0  0  0
  2 32  1  0  0  0  0
  4 33  1  0  0  0  0
  6 34  1  0  0  0  0
  7 35  1  0  0  0  0
  7 36  1  0  0  0  0
  8 37  1  0  0  0  0
  8 38  1  0  0  0  0
  9 39  1  0  0  0  0
  9 40  1  0  0  0  0
 10 41  1  0  0  0  0
 10 42  1  0  0  0  0
 11 43  1  0  0  0  0
 11 44  1  0  0  0  0
 12 45  1  0  0  0  0
 12 46  1  0  0  0  0
 13 47  1  0  0  0  0
 14 48  1  0  0  0  0
 16 49  1  0  0  0  0
 17 50  1  0  0  0  0
 18 51  1  0  0  0  0
 18 52  1  0  0  0  0
 22 53  1  0  0  0  0
 23 54  1  0  0  0  0
 24 55  1  0  0  0  0
 25 56  1  0  0  0  0
 26 57  1  0  0  0  0
 27 58  1  0  0  0  0
 28 59  1  0  0  0  0
M  END
>  <energy>
134.16903005000887

$$$$
