N#CC1(NC(=O)C23CC4(CC(Cl)(Cl)CC(C(=O)O)(C4)C2)C3)CCC1
                    3D

 44 47  0  0  0  0  0  0  0  0999 V2000
    4.7939    2.8468    1.9614 N   0  0  0  0  0  0  0  0  0  0  0  0
    4.1988    2.1023    1.3052 C   0  0  0  0  0  0  0  0  0  0  0  0
    3.5000    1.1252    0.4826 C   0  0  0  0  0  0  0  0  0  0  0  0
    2.0450    1.0416    0.8095 N   0  0  0  0  0  0  0  0  0  0  0  0
    1.0674    1.6528    0.0409 C   0  0  0  0  0  0  0  0  0  0  0  0
    1.2951    2.6859   -0.5803 O   0  0  0  0  0  0  0  0  0  0  0  0
   -0.2251    0.7427   -0.1008 C   0  0  0  0  0  0  0  0  0  0  0  0
   -1.4302    1.2074   -0.9075 C   0  0  0  0  0  0  0  0  0  0  0  0
   -1.5827   -0.4135   -1.2470 C   0  0  0  0  0  0  0  0  0  0  0  0
   -2.9102   -0.4780   -1.9569 C   0  0  0  0  0  0  0  0  0  0  0  0
   -4.0101   -0.3021   -0.8273 C   0  0  0  0  0  0  0  0  0  0  0  0
   -5.1773   -1.6789   -0.9729 Cl  0  0  0  0  0  0  0  0  0  0  0  0
   -4.9687    1.1921   -1.1828 Cl  0  0  0  0  0  0  0  0  0  0  0  0
   -3.4977   -0.2097    0.6897 C   0  0  0  0  0  0  0  0  0  0  0  0
   -2.0685   -0.7862    1.0273 C   0  0  0  0  0  0  0  0  0  0  0  0
   -2.1414   -1.6615    2.2740 C   0  0  0  0  0  0  0  0  0  0  0  0
   -2.3067   -1.2482    3.4063 O   0  0  0  0  0  0  0  0  0  0  0  0
   -1.9954   -2.9793    2.0546 O   0  0  0  0  0  0  0  0  0  0  0  0
   -1.6417   -1.5463   -0.1964 C   0  0  0  0  0  0  0  0  0  0  0  0
   -0.9048    0.2739    1.2511 C   0  0  0  0  0  0  0  0  0  0  0  0
   -0.0448   -0.2385   -1.4087 C   0  0  0  0  0  0  0  0  0  0  0  0
    4.1226   -0.3126    0.5238 C   0  0  0  0  0  0  0  0  0  0  0  0
    4.8417   -0.0237   -0.8039 C   0  0  0  0  0  0  0  0  0  0  0  0
    3.8632    1.1406   -1.0408 C   0  0  0  0  0  0  0  0  0  0  0  0
    1.7648    0.2544    1.3784 H   0  0  0  0  0  0  0  0  0  0  0  0
   -2.1980    1.7338   -0.3359 H   0  0  0  0  0  0  0  0  0  0  0  0
   -1.2357    1.8469   -1.7823 H   0  0  0  0  0  0  0  0  0  0  0  0
   -2.9844    0.2845   -2.7347 H   0  0  0  0  0  0  0  0  0  0  0  0
   -3.0053   -1.4414   -2.4740 H   0  0  0  0  0  0  0  0  0  0  0  0
   -4.2309   -0.7135    1.3359 H   0  0  0  0  0  0  0  0  0  0  0  0
   -3.5187    0.8299    1.0331 H   0  0  0  0  0  0  0  0  0  0  0  0
   -2.0749   -3.3819    2.9482 H   0  0  0  0  0  0  0  0  0  0  0  0
   -2.3418   -2.3498   -0.4700 H   0  0  0  0  0  0  0  0  0  0  0  0
   -0.6922   -2.0795   -0.0288 H   0  0  0  0  0  0  0  0  0  0  0  0
   -1.3130    1.1455    1.7778 H   0  0  0  0  0  0  0  0  0  0  0  0
   -0.1381   -0.1500    1.9063 H   0  0  0  0  0  0  0  0  0  0  0  0
    0.2876    0.2734   -2.3258 H   0  0  0  0  0  0  0  0  0  0  0  0
    0.6137   -1.1009   -1.2622 H   0  0  0  0  0  0  0  0  0  0  0  0
    4.7938   -0.5461    1.3622 H   0  0  0  0  0  0  0  0  0  0  0  0
    3.3896   -1.1285    0.4252 H   0  0  0  0  0  0  0  0  0  0  0  0
    4.7994   -0.8297   -1.5453 H   0  0  0  0  0  0  0  0  0  0  0  0
    5.8846    0.2827   -0.6707 H   0  0  0  0  0  0  0  0  0  0  0  0
    4.3348    2.0573   -1.4117 H   0  0  0  0  0  0  0  0  0  0  0  0
    3.0423    0.8802   -1.7267 H   0  0  0  0  0  0  0  0  0  0  0  0
  2  1  3  0  0  0  0
  3  2  1  0  0  0  0
  4  3  1  0  0  0  0
  5  4  1  0  0  0  0
  6  5  2  0  0  0  0
  7  5  1  0  0  0  0
  8  7  1  0  0  0  0
  9  8  1  0  0  0  0
 10  9  1  0  0  0  0
 11 10  1  0  0  0  0
 12 11  1  0  0  0  0
 13 11  1  0  0  0  0
 14 11  1  0  0  0  0
 15 14  1  0  0  0  0
 16 15  1  0  0  0  0
 17 16  2  0  0  0  0
 18 16  1  0  0  0  0
 19 15  1  0  0  0  0
 19  9  1  0  0  0  0
 20 15  1  0  0  0  0
 20  7  1  0  0  0  0
 21  9  1  0  0  0  0
 21  7  1  0  0  0  0
 22  3  1  0  0  0  0
 23 22  1  0  0  0  0
 24 23  1  0  0  0  0
 24  3  1  0  0  0  0
  4 25  1  0  0  0  0
  8 26  1  0  0  0  0
  8 27  1  0  0  0  0
 10 28  1  0  0  0  0
 10 29  1  0  0  0  0
 14 30  1  0  0  0  0
 14 31  1  0  0  0  0
 18 32  1  0  0  0  0
 19 33  1  0  0  0  0
 19 34  1  0  0  0  0
 20 35  1  0  0  0  0
 20 36  1  0  0  0  0
 21 37  1  0  0  0  0
 21 38  1  0  0  0  0
 22 39  1  0  0  0  0
 22 40  1  0  0  0  0
 23 41  1  0  0  0  0
 23 42  1  0  0  0  0
 24 43  1  0  0  0  0
 24 44  1  0  0  0  0
M  END
>  <energy>
78.577746411158643

$$$$
