CCOC(=O)N1CCC(OC(=O)NC2C3CC=CC4CC2(C(=O)OC)C43)CC1
                    3D

 56 59  0  0  0  0  0  0  0  0999 V2000
    3.3731   -1.7460    2.4685 C   0  0  0  0  0  0  0  0  0  0  0  0
    4.6513   -1.0423    2.0261 C   0  0  0  0  0  0  0  0  0  0  0  0
    4.4361   -0.1090    0.9517 O   0  0  0  0  0  0  0  0  0  0  0  0
    3.6974    1.0001    1.2389 C   0  0  0  0  0  0  0  0  0  0  0  0
    3.3018    1.2794    2.3687 O   0  0  0  0  0  0  0  0  0  0  0  0
    3.4070    1.7689    0.1142 N   0  0  0  0  0  0  0  0  0  0  0  0
    2.3855    2.7952    0.2303 C   0  0  0  0  0  0  0  0  0  0  0  0
    1.7099    3.1141   -1.1044 C   0  0  0  0  0  0  0  0  0  0  0  0
    1.5583    1.8736   -1.9945 C   0  0  0  0  0  0  0  0  0  0  0  0
    0.4876    1.0206   -1.4840 O   0  0  0  0  0  0  0  0  0  0  0  0
    0.7406    0.0302   -0.6096 C   0  0  0  0  0  0  0  0  0  0  0  0
    1.8134   -0.4916   -0.3630 O   0  0  0  0  0  0  0  0  0  0  0  0
   -0.3501   -0.3562    0.1159 N   0  0  0  0  0  0  0  0  0  0  0  0
   -1.5606   -0.9495   -0.5129 C   0  0  0  0  0  0  0  0  0  0  0  0
   -2.1180   -2.0924    0.4005 C   0  0  0  0  0  0  0  0  0  0  0  0
   -2.0495   -3.4972   -0.1785 C   0  0  0  0  0  0  0  0  0  0  0  0
   -3.2808   -3.8642   -0.9438 C   0  0  0  0  0  0  0  0  0  0  0  0
   -4.3587   -3.0910   -1.1533 C   0  0  0  0  0  0  0  0  0  0  0  0
   -4.4537   -1.7233   -0.6010 C   0  0  0  0  0  0  0  0  0  0  0  0
   -3.8926   -0.5899   -1.4824 C   0  0  0  0  0  0  0  0  0  0  0  0
   -2.9051   -0.1955   -0.3533 C   0  0  0  0  0  0  0  0  0  0  0  0
   -2.9126    1.2590    0.1370 C   0  0  0  0  0  0  0  0  0  0  0  0
   -2.5247    2.2240   -0.5257 O   0  0  0  0  0  0  0  0  0  0  0  0
   -3.3953    1.3808    1.4099 O   0  0  0  0  0  0  0  0  0  0  0  0
   -3.2726    2.6965    1.9464 C   0  0  0  0  0  0  0  0  0  0  0  0
   -3.4596   -1.3541    0.4970 C   0  0  0  0  0  0  0  0  0  0  0  0
    2.9185    1.2079   -2.2710 C   0  0  0  0  0  0  0  0  0  0  0  0
    3.9772    1.5397   -1.2067 C   0  0  0  0  0  0  0  0  0  0  0  0
    2.6881   -1.0530    2.9692 H   0  0  0  0  0  0  0  0  0  0  0  0
    2.8338   -2.1634    1.6105 H   0  0  0  0  0  0  0  0  0  0  0  0
    3.5999   -2.5575    3.1703 H   0  0  0  0  0  0  0  0  0  0  0  0
    5.3469   -1.7974    1.6429 H   0  0  0  0  0  0  0  0  0  0  0  0
    5.1475   -0.5404    2.8645 H   0  0  0  0  0  0  0  0  0  0  0  0
    2.8576    3.6988    0.6394 H   0  0  0  0  0  0  0  0  0  0  0  0
    1.6330    2.4785    0.9569 H   0  0  0  0  0  0  0  0  0  0  0  0
    0.7391    3.5942   -0.9228 H   0  0  0  0  0  0  0  0  0  0  0  0
    2.3296    3.8520   -1.6299 H   0  0  0  0  0  0  0  0  0  0  0  0
    1.1712    2.2156   -2.9629 H   0  0  0  0  0  0  0  0  0  0  0  0
    0.0486   -0.9101    0.8682 H   0  0  0  0  0  0  0  0  0  0  0  0
   -1.3366   -1.2787   -1.5356 H   0  0  0  0  0  0  0  0  0  0  0  0
   -1.6273   -2.1114    1.3873 H   0  0  0  0  0  0  0  0  0  0  0  0
   -1.1654   -3.5956   -0.8218 H   0  0  0  0  0  0  0  0  0  0  0  0
   -1.9238   -4.2230    0.6318 H   0  0  0  0  0  0  0  0  0  0  0  0
   -3.2875   -4.8752   -1.3492 H   0  0  0  0  0  0  0  0  0  0  0  0
   -5.2058   -3.4761   -1.7149 H   0  0  0  0  0  0  0  0  0  0  0  0
   -5.4838   -1.5179   -0.2872 H   0  0  0  0  0  0  0  0  0  0  0  0
   -3.4346   -0.9003   -2.4284 H   0  0  0  0  0  0  0  0  0  0  0  0
   -4.6412    0.1757   -1.7142 H   0  0  0  0  0  0  0  0  0  0  0  0
   -3.5341    2.6711    3.0079 H   0  0  0  0  0  0  0  0  0  0  0  0
   -2.2393    3.0467    1.8616 H   0  0  0  0  0  0  0  0  0  0  0  0
   -3.9611    3.3770    1.4392 H   0  0  0  0  0  0  0  0  0  0  0  0
   -3.8495   -1.1572    1.4956 H   0  0  0  0  0  0  0  0  0  0  0  0
    2.8248    0.1256   -2.3989 H   0  0  0  0  0  0  0  0  0  0  0  0
    3.3107    1.5770   -3.2294 H   0  0  0  0  0  0  0  0  0  0  0  0
    4.4742    2.4780   -1.4825 H   0  0  0  0  0  0  0  0  0  0  0  0
    4.7612    0.7792   -1.1886 H   0  0  0  0  0  0  0  0  0  0  0  0
  2  1  1  0  0  0  0
  3  2  1  0  0  0  0
  4  3  1  0  0  0  0
  5  4  2  0  0  0  0
  6  4  1  0  0  0  0
  7  6  1  0  0  0  0
  8  7  1  0  0  0  0
  9  8  1  0  0  0  0
 10  9  1  0  0  0  0
 11 10  1  0  0  0  0
 12 11  2  0  0  0  0
 13 11  1  0  0  0  0
 14 13  1  0  0  0  0
 15 14  1  0  0  0  0
 16 15  1  0  0  0  0
 17 16  1  0  0  0  0
 18 17  2  0  0  0  0
 19 18  1  0  0  0  0
 20 19  1  0  0  0  0
 21 20  1  0  0  0  0
 21 14  1  0  0  0  0
 22 21  1  0  0  0  0
 23 22  2  0  0  0  0
 24 22  1  0  0  0  0
 25 24  1  0  0  0  0
 26 21  1  0  0  0  0
 26 19  1  0  0  0  0
 26 15  1  0  0  0  0
 27  9  1  0  0  0  0
 28 27  1  0  0  0  0
 28  6  1  0  0  0  0
  1 29  1  0  0  0  0
  1 30  1  0  0  0  0
  1 31  1  0  0  0  0
  2 32  1  0  0  0  0
  2 33  1  0  0  0  0
  7 34  1  0  0  0  0
  7 35  1  0  0  0  0
  8 36  1  0  0  0  0
  8 37  1  0  0  0  0
  9 38  1  0  0  0  0
 13 39  1  0  0  0  0
 14 40  1  0  0  0  0
 15 41  1  0  0  0  0
 16 42  1  0  0  0  0
 16 43  1  0  0  0  0
 17 44  1  0  0  0  0
 18 45  1  0  0  0  0
 19 46  1  0  0  0  0
 20 47  1  0  0  0  0
 20 48  1  0  0  0  0
 25 49  1  0  0  0  0
 25 50  1  0  0  0  0
 25 51  1  0  0  0  0
 26 52  1  0  0  0  0
 27 53  1  0  0  0  0
 27 54  1  0  0  0  0
 28 55  1  0  0  0  0
 28 56  1  0  0  0  0
M  END
>  <energy>
-61.582686889929704

$$$$
