CCSC(=N)NC1CC(C)C2CC3CC1N=C(C3=O)C2O
                    3D

 44 46  0  0  0  0  0  0  0  0999 V2000
   -6.1845   -0.4131   -0.7924 C   0  0  0  0  0  0  0  0  0  0  0  0
   -5.1745   -1.5419   -0.9666 C   0  0  0  0  0  0  0  0  0  0  0  0
   -3.7980   -1.3654    0.2083 S   0  0  0  0  0  0  0  0  0  0  0  0
   -2.4856   -0.7324   -0.7583 C   0  0  0  0  0  0  0  0  0  0  0  0
   -2.6836    0.1833   -1.6363 N   0  0  0  0  0  0  0  0  0  0  0  0
   -1.2581   -1.2741   -0.4913 N   0  0  0  0  0  0  0  0  0  0  0  0
   -0.4595   -0.6999    0.6006 C   0  0  0  0  0  0  0  0  0  0  0  0
    0.8775   -1.5518    0.8422 C   0  0  0  0  0  0  0  0  0  0  0  0
    2.2457   -1.2166    0.0513 C   0  0  0  0  0  0  0  0  0  0  0  0
    3.2772   -2.2846    0.4831 C   0  0  0  0  0  0  0  0  0  0  0  0
    2.9581    0.2385    0.1803 C   0  0  0  0  0  0  0  0  0  0  0  0
    2.5892    1.2659   -1.0184 C   0  0  0  0  0  0  0  0  0  0  0  0
    1.4406    2.3420   -0.8038 C   0  0  0  0  0  0  0  0  0  0  0  0
   -0.0392    1.7742   -0.7076 C   0  0  0  0  0  0  0  0  0  0  0  0
   -0.0191    0.7392    0.4119 C   0  0  0  0  0  0  0  0  0  0  0  0
    0.4084    1.3075    1.7324 N   0  0  0  0  0  0  0  0  0  0  0  0
    1.6033    1.7938    1.5542 C   0  0  0  0  0  0  0  0  0  0  0  0
    1.7365    2.9063    0.5551 C   0  0  0  0  0  0  0  0  0  0  0  0
    2.0105    4.0436    0.8735 O   0  0  0  0  0  0  0  0  0  0  0  0
    2.8198    0.8848    1.5934 C   0  0  0  0  0  0  0  0  0  0  0  0
    3.9799    1.6431    1.8839 O   0  0  0  0  0  0  0  0  0  0  0  0
   -6.5486   -0.3385    0.2417 H   0  0  0  0  0  0  0  0  0  0  0  0
   -5.7672    0.5607   -1.0723 H   0  0  0  0  0  0  0  0  0  0  0  0
   -7.0596   -0.5857   -1.4342 H   0  0  0  0  0  0  0  0  0  0  0  0
   -5.6770   -2.4912   -0.7482 H   0  0  0  0  0  0  0  0  0  0  0  0
   -4.8191   -1.6011   -2.0004 H   0  0  0  0  0  0  0  0  0  0  0  0
   -3.6699    0.4515   -1.6409 H   0  0  0  0  0  0  0  0  0  0  0  0
   -1.4277   -2.2382   -0.2112 H   0  0  0  0  0  0  0  0  0  0  0  0
   -1.0472   -0.7853    1.5236 H   0  0  0  0  0  0  0  0  0  0  0  0
    0.6323   -2.6050    0.6580 H   0  0  0  0  0  0  0  0  0  0  0  0
    1.1074   -1.4848    1.9135 H   0  0  0  0  0  0  0  0  0  0  0  0
    2.0484   -1.3955   -1.0158 H   0  0  0  0  0  0  0  0  0  0  0  0
    3.5619   -2.1619    1.5348 H   0  0  0  0  0  0  0  0  0  0  0  0
    2.8701   -3.2935    0.3467 H   0  0  0  0  0  0  0  0  0  0  0  0
    4.1889   -2.2223   -0.1222 H   0  0  0  0  0  0  0  0  0  0  0  0
    4.0293    0.0503    0.0137 H   0  0  0  0  0  0  0  0  0  0  0  0
    2.3875    0.7024   -1.9352 H   0  0  0  0  0  0  0  0  0  0  0  0
    3.5040    1.8437   -1.2077 H   0  0  0  0  0  0  0  0  0  0  0  0
    1.4916    3.1218   -1.5649 H   0  0  0  0  0  0  0  0  0  0  0  0
   -0.3143    1.3365   -1.6725 H   0  0  0  0  0  0  0  0  0  0  0  0
   -0.7494    2.5734   -0.4768 H   0  0  0  0  0  0  0  0  0  0  0  0
    0.8410    0.3611   -0.0676 H   0  0  0  0  0  0  0  0  0  0  0  0
    2.7157    0.1222    2.3719 H   0  0  0  0  0  0  0  0  0  0  0  0
    3.8574    2.0368    2.7707 H   0  0  0  0  0  0  0  0  0  0  0  0
  2  1  1  0  0  0  0
  3  2  1  0  0  0  0
  4  3  1  0  0  0  0
  5  4  2  0  0  0  0
  6  4  1  0  0  0  0
  7  6  1  0  0  0  0
  8  7  1  0  0  0  0
  9  8  1  0  0  0  0
 10  9  1  0  0  0  0
 11  9  1  0  0  0  0
 12 11  1  0  0  0  0
 13 12  1  0  0  0  0
 14 13  1  0  0  0  0
 15 14  1  0  0  0  0
 15  7  1  0  0  0  0
 16 15  1  0  0  0  0
 17 16  2  0  0  0  0
 18 17  1  0  0  0  0
 18 13  1  0  0  0  0
 19 18  2  0  0  0  0
 20 17  1  0  0  0  0
 20 11  1  0  0  0  0
 21 20  1  0  0  0  0
  1 22  1  0  0  0  0
  1 23  1  0  0  0  0
  1 24  1  0  0  0  0
  2 25  1  0  0  0  0
  2 26  1  0  0  0  0
  5 27  1  0  0  0  0
  6 28  1  0  0  0  0
  7 29  1  0  0  0  0
  8 30  1  0  0  0  0
  8 31  1  0  0  0  0
  9 32  1  0  0  0  0
 10 33  1  0  0  0  0
 10 34  1  0  0  0  0
 10 35  1  0  0  0  0
 11 36  1  0  0  0  0
 12 37  1  0  0  0  0
 12 38  1  0  0  0  0
 13 39  1  0  0  0  0
 14 40  1  0  0  0  0
 14 41  1  0  0  0  0
 15 42  1  0  0  0  0
 20 43  1  0  0  0  0
 21 44  1  0  0  0  0
M  END
>  <energy>
146.56167749549621

$$$$
