COC1(O)C2C3COC45CC(C)CCC6C(C)C2C(C63)C(C4O)C15
                    3D

 54 59  0  0  0  0  0  0  0  0999 V2000
    3.7742   -0.9148   -1.8800 C   0  0  0  0  0  0  0  0  0  0  0  0
    3.8607   -0.4834   -0.5470 O   0  0  0  0  0  0  0  0  0  0  0  0
    2.7489    0.0822    0.1228 C   0  0  0  0  0  0  0  0  0  0  0  0
    3.4639    0.8659    1.0883 O   0  0  0  0  0  0  0  0  0  0  0  0
    1.7822    1.0387   -0.6010 C   0  0  0  0  0  0  0  0  0  0  0  0
    0.5073    0.3284   -1.1044 C   0  0  0  0  0  0  0  0  0  0  0  0
    0.6280   -1.0990   -1.7248 C   0  0  0  0  0  0  0  0  0  0  0  0
    0.9180   -2.1556   -0.7940 O   0  0  0  0  0  0  0  0  0  0  0  0
    0.3135   -1.8123    0.4590 C   0  0  0  0  0  0  0  0  0  0  0  0
   -1.2160   -2.2907    0.2142 C   0  0  0  0  0  0  0  0  0  0  0  0
   -2.5442   -1.3518    0.0753 C   0  0  0  0  0  0  0  0  0  0  0  0
   -3.7336   -2.3379   -0.0419 C   0  0  0  0  0  0  0  0  0  0  0  0
   -2.6883   -0.3103   -1.1426 C   0  0  0  0  0  0  0  0  0  0  0  0
   -2.3138    1.2544   -1.0942 C   0  0  0  0  0  0  0  0  0  0  0  0
   -1.3064    1.7403   -0.0435 C   0  0  0  0  0  0  0  0  0  0  0  0
   -0.1564    2.7868   -0.2014 C   0  0  0  0  0  0  0  0  0  0  0  0
   -0.4533    4.0743    0.5597 C   0  0  0  0  0  0  0  0  0  0  0  0
    1.1222    2.0059    0.4524 C   0  0  0  0  0  0  0  0  0  0  0  0
    0.4226    0.9954    1.3685 C   0  0  0  0  0  0  0  0  0  0  0  0
   -0.4185    0.5810    0.1893 C   0  0  0  0  0  0  0  0  0  0  0  0
    1.1104   -0.2706    1.9466 C   0  0  0  0  0  0  0  0  0  0  0  0
    0.4281   -1.7348    2.0519 C   0  0  0  0  0  0  0  0  0  0  0  0
   -0.7892   -1.6869    2.8380 O   0  0  0  0  0  0  0  0  0  0  0  0
    1.9278   -0.9558    0.9031 C   0  0  0  0  0  0  0  0  0  0  0  0
    3.2497   -1.8698   -1.9378 H   0  0  0  0  0  0  0  0  0  0  0  0
    3.3377   -0.1552   -2.5322 H   0  0  0  0  0  0  0  0  0  0  0  0
    4.7933   -1.0981   -2.2369 H   0  0  0  0  0  0  0  0  0  0  0  0
    4.3058    0.3832    1.1618 H   0  0  0  0  0  0  0  0  0  0  0  0
    2.2773    1.6064   -1.3949 H   0  0  0  0  0  0  0  0  0  0  0  0
    0.1349    0.9245   -1.9480 H   0  0  0  0  0  0  0  0  0  0  0  0
    1.3602   -1.1115   -2.5318 H   0  0  0  0  0  0  0  0  0  0  0  0
   -0.3025   -1.3660   -2.2286 H   0  0  0  0  0  0  0  0  0  0  0  0
   -1.2203   -2.9036   -0.7009 H   0  0  0  0  0  0  0  0  0  0  0  0
   -1.4368   -3.0424    0.9859 H   0  0  0  0  0  0  0  0  0  0  0  0
   -2.7288   -0.8258    1.0227 H   0  0  0  0  0  0  0  0  0  0  0  0
   -4.6900   -1.8024   -0.0188 H   0  0  0  0  0  0  0  0  0  0  0  0
   -3.6829   -2.9093   -0.9748 H   0  0  0  0  0  0  0  0  0  0  0  0
   -3.7422   -3.0453    0.7946 H   0  0  0  0  0  0  0  0  0  0  0  0
   -3.7484   -0.3001   -1.4335 H   0  0  0  0  0  0  0  0  0  0  0  0
   -2.1983   -0.7447   -2.0161 H   0  0  0  0  0  0  0  0  0  0  0  0
   -1.9939    1.5540   -2.0996 H   0  0  0  0  0  0  0  0  0  0  0  0
   -3.2469    1.8091   -0.9304 H   0  0  0  0  0  0  0  0  0  0  0  0
   -1.8854    1.9718    0.8616 H   0  0  0  0  0  0  0  0  0  0  0  0
    0.0379    3.0349   -1.2509 H   0  0  0  0  0  0  0  0  0  0  0  0
   -0.5948    3.8938    1.6306 H   0  0  0  0  0  0  0  0  0  0  0  0
   -1.3579    4.5542    0.1730 H   0  0  0  0  0  0  0  0  0  0  0  0
    0.3771    4.7796    0.4484 H   0  0  0  0  0  0  0  0  0  0  0  0
    1.8299    2.6827    0.9392 H   0  0  0  0  0  0  0  0  0  0  0  0
   -0.1459    1.4819    2.1702 H   0  0  0  0  0  0  0  0  0  0  0  0
   -1.0142   -0.1725    0.5939 H   0  0  0  0  0  0  0  0  0  0  0  0
    1.6752   -0.0088    2.8504 H   0  0  0  0  0  0  0  0  0  0  0  0
    1.0670   -2.5240    2.4739 H   0  0  0  0  0  0  0  0  0  0  0  0
   -0.4980   -1.4543    3.7371 H   0  0  0  0  0  0  0  0  0  0  0  0
    2.6528   -1.6916    1.2977 H   0  0  0  0  0  0  0  0  0  0  0  0
  2  1  1  0  0  0  0
  3  2  1  0  0  0  0
  4  3  1  0  0  0  0
  5  3  1  0  0  0  0
  6  5  1  0  0  0  0
  7  6  1  0  0  0  0
  8  7  1  0  0  0  0
  9  8  1  0  0  0  0
 10  9  1  0  0  0  0
 11 10  1  0  0  0  0
 12 11  1  0  0  0  0
 13 11  1  0  0  0  0
 14 13  1  0  0  0  0
 15 14  1  0  0  0  0
 16 15  1  0  0  0  0
 17 16  1  0  0  0  0
 18 16  1  0  0  0  0
 18  5  1  0  0  0  0
 19 18  1  0  0  0  0
 20 19  1  0  0  0  0
 20 15  1  0  0  0  0
 20  6  1  0  0  0  0
 21 19  1  0  0  0  0
 22 21  1  0  0  0  0
 22  9  1  0  0  0  0
 23 22  1  0  0  0  0
 24 21  1  0  0  0  0
 24  3  1  0  0  0  0
 24  9  1  0  0  0  0
  1 25  1  0  0  0  0
  1 26  1  0  0  0  0
  1 27  1  0  0  0  0
  4 28  1  0  0  0  0
  5 29  1  0  0  0  0
  6 30  1  0  0  0  0
  7 31  1  0  0  0  0
  7 32  1  0  0  0  0
 10 33  1  0  0  0  0
 10 34  1  0  0  0  0
 11 35  1  0  0  0  0
 12 36  1  0  0  0  0
 12 37  1  0  0  0  0
 12 38  1  0  0  0  0
 13 39  1  0  0  0  0
 13 40  1  0  0  0  0
 14 41  1  0  0  0  0
 14 42  1  0  0  0  0
 15 43  1  0  0  0  0
 16 44  1  0  0  0  0
 17 45  1  0  0  0  0
 17 46  1  0  0  0  0
 17 47  1  0  0  0  0
 18 48  1  0  0  0  0
 19 49  1  0  0  0  0
 20 50  1  0  0  0  0
 21 51  1  0  0  0  0
 22 52  1  0  0  0  0
 23 53  1  0  0  0  0
 24 54  1  0  0  0  0
M  END
>  <energy>
291.74740109602863

$$$$
