C[N+]1(CCC#CC#CC2=CC3NC(O)C4CC5C2C4C35CCO)CCCC1
                    3D

 58 62  0  0  0  0  0  0  0  0999 V2000
    3.1665   -0.5113    0.7452 C   0  0  0  0  0  0  0  0  0  0  0  0
    4.0134   -0.2688   -0.5115 N   0  3  0  0  0  0  0  0  0  0  0  0
    3.9535   -1.4941   -1.4638 C   0  0  0  0  0  0  0  0  0  0  0  0
    4.3068   -2.8428   -0.7992 C   0  0  0  0  0  0  0  0  0  0  0  0
    3.1457   -3.4174   -0.1253 C   0  0  0  0  0  0  0  0  0  0  0  0
    2.0393   -3.6128    0.3675 C   0  0  0  0  0  0  0  0  0  0  0  0
    0.7404   -3.3950    0.7194 C   0  0  0  0  0  0  0  0  0  0  0  0
   -0.3128   -2.8369    0.8477 C   0  0  0  0  0  0  0  0  0  0  0  0
   -1.3530   -1.8441    0.8103 C   0  0  0  0  0  0  0  0  0  0  0  0
   -1.0883   -0.6178    1.3329 C   0  0  0  0  0  0  0  0  0  0  0  0
   -2.0494    0.5576    1.1598 C   0  0  0  0  0  0  0  0  0  0  0  0
   -1.8608    1.6640    0.1538 N   0  0  0  0  0  0  0  0  0  0  0  0
   -2.8072    1.6640   -1.1265 C   0  0  0  0  0  0  0  0  0  0  0  0
   -3.7919    2.6723   -1.1191 O   0  0  0  0  0  0  0  0  0  0  0  0
   -3.4967    0.2800   -1.6114 C   0  0  0  0  0  0  0  0  0  0  0  0
   -4.5867   -0.6105   -1.0464 C   0  0  0  0  0  0  0  0  0  0  0  0
   -3.9314   -1.3652    0.1606 C   0  0  0  0  0  0  0  0  0  0  0  0
   -2.5220   -1.9042   -0.2032 C   0  0  0  0  0  0  0  0  0  0  0  0
   -2.4860   -0.5320   -0.9299 C   0  0  0  0  0  0  0  0  0  0  0  0
   -3.2934   -0.0932    0.7009 C   0  0  0  0  0  0  0  0  0  0  0  0
   -4.5437    0.4177    1.5484 C   0  0  0  0  0  0  0  0  0  0  0  0
   -4.6011    1.9024    1.8841 C   0  0  0  0  0  0  0  0  0  0  0  0
   -3.9974    2.0927    3.1575 O   0  0  0  0  0  0  0  0  0  0  0  0
    5.4470    0.1617   -0.1723 C   0  0  0  0  0  0  0  0  0  0  0  0
    5.3090    1.6294    0.1834 C   0  0  0  0  0  0  0  0  0  0  0  0
    4.2529    2.1563   -0.7708 C   0  0  0  0  0  0  0  0  0  0  0  0
    3.4487    0.9553   -1.2567 C   0  0  0  0  0  0  0  0  0  0  0  0
    2.1676   -0.8026    0.4078 H   0  0  0  0  0  0  0  0  0  0  0  0
    3.6481   -1.2911    1.3386 H   0  0  0  0  0  0  0  0  0  0  0  0
    3.0971    0.4048    1.3389 H   0  0  0  0  0  0  0  0  0  0  0  0
    4.6412   -1.2819   -2.2953 H   0  0  0  0  0  0  0  0  0  0  0  0
    2.9354   -1.5065   -1.8740 H   0  0  0  0  0  0  0  0  0  0  0  0
    5.1502   -2.7213   -0.1123 H   0  0  0  0  0  0  0  0  0  0  0  0
    4.6308   -3.5265   -1.5896 H   0  0  0  0  0  0  0  0  0  0  0  0
   -0.2265   -0.4703    1.9821 H   0  0  0  0  0  0  0  0  0  0  0  0
   -2.1180    0.9729    2.1705 H   0  0  0  0  0  0  0  0  0  0  0  0
   -1.9785    2.5624    0.6154 H   0  0  0  0  0  0  0  0  0  0  0  0
   -2.0345    1.9902   -1.8742 H   0  0  0  0  0  0  0  0  0  0  0  0
   -4.5345    2.2989   -1.6714 H   0  0  0  0  0  0  0  0  0  0  0  0
   -3.6819    0.3597   -2.6783 H   0  0  0  0  0  0  0  0  0  0  0  0
   -4.7501   -1.3272   -1.8225 H   0  0  0  0  0  0  0  0  0  0  0  0
   -5.4689   -0.0234   -0.8675 H   0  0  0  0  0  0  0  0  0  0  0  0
   -4.5810   -1.9937    0.7689 H   0  0  0  0  0  0  0  0  0  0  0  0
   -2.4976   -2.7952   -0.8438 H   0  0  0  0  0  0  0  0  0  0  0  0
   -1.4230   -0.3374   -1.1945 H   0  0  0  0  0  0  0  0  0  0  0  0
   -5.5170    0.1632    1.1058 H   0  0  0  0  0  0  0  0  0  0  0  0
   -4.5442   -0.1400    2.4999 H   0  0  0  0  0  0  0  0  0  0  0  0
   -5.6336    2.2502    1.9536 H   0  0  0  0  0  0  0  0  0  0  0  0
   -4.0925    2.5373    1.1746 H   0  0  0  0  0  0  0  0  0  0  0  0
   -3.6907    3.0099    3.2228 H   0  0  0  0  0  0  0  0  0  0  0  0
    6.0627    0.0312   -1.0732 H   0  0  0  0  0  0  0  0  0  0  0  0
    5.8322   -0.4530    0.6439 H   0  0  0  0  0  0  0  0  0  0  0  0
    4.9641    1.7313    1.2184 H   0  0  0  0  0  0  0  0  0  0  0  0
    6.2523    2.1792    0.1134 H   0  0  0  0  0  0  0  0  0  0  0  0
    4.7105    2.6621   -1.6292 H   0  0  0  0  0  0  0  0  0  0  0  0
    3.6027    2.8852   -0.2763 H   0  0  0  0  0  0  0  0  0  0  0  0
    3.6010    0.8002   -2.3317 H   0  0  0  0  0  0  0  0  0  0  0  0
    2.3753    1.0242   -1.0559 H   0  0  0  0  0  0  0  0  0  0  0  0
  2  1  1  0  0  0  0
  3  2  1  0  0  0  0
  4  3  1  0  0  0  0
  5  4  1  0  0  0  0
  6  5  3  0  0  0  0
  7  6  1  0  0  0  0
  8  7  3  0  0  0  0
  9  8  1  0  0  0  0
 10  9  2  0  0  0  0
 11 10  1  0  0  0  0
 12 11  1  0  0  0  0
 13 12  1  0  0  0  0
 14 13  1  0  0  0  0
 15 13  1  0  0  0  0
 16 15  1  0  0  0  0
 17 16  1  0  0  0  0
 18 17  1  0  0  0  0
 18  9  1  0  0  0  0
 19 18  1  0  0  0  0
 19 15  1  0  0  0  0
 20 19  1  0  0  0  0
 20 11  1  0  0  0  0
 20 17  1  0  0  0  0
 21 20  1  0  0  0  0
 22 21  1  0  0  0  0
 23 22  1  0  0  0  0
 24  2  1  0  0  0  0
 25 24  1  0  0  0  0
 26 25  1  0  0  0  0
 27 26  1  0  0  0  0
 27  2  1  0  0  0  0
  1 28  1  0  0  0  0
  1 29  1  0  0  0  0
  1 30  1  0  0  0  0
  3 31  1  0  0  0  0
  3 32  1  0  0  0  0
  4 33  1  0  0  0  0
  4 34  1  0  0  0  0
 10 35  1  0  0  0  0
 11 36  1  0  0  0  0
 12 37  1  0  0  0  0
 13 38  1  0  0  0  0
 14 39  1  0  0  0  0
 15 40  1  0  0  0  0
 16 41  1  0  0  0  0
 16 42  1  0  0  0  0
 17 43  1  0  0  0  0
 18 44  1  0  0  0  0
 19 45  1  0  0  0  0
 21 46  1  0  0  0  0
 21 47  1  0  0  0  0
 22 48  1  0  0  0  0
 22 49  1  0  0  0  0
 23 50  1  0  0  0  0
 24 51  1  0  0  0  0
 24 52  1  0  0  0  0
 25 53  1  0  0  0  0
 25 54  1  0  0  0  0
 26 55  1  0  0  0  0
 26 56  1  0  0  0  0
 27 57  1  0  0  0  0
 27 58  1  0  0  0  0
M  CHG  1   2   1
M  END
>  <energy>
198.66410893319684

$$$$
