COC1C2C3C4CC3C3CC2(CN4)C1C3(Cl)Cl
                    3D

 34 38  0  0  0  0  0  0  0  0999 V2000
    3.7349   -1.4731   -0.1728 C   0  0  0  0  0  0  0  0  0  0  0  0
    2.6862   -0.5197   -0.0544 O   0  0  0  0  0  0  0  0  0  0  0  0
    1.4907   -0.7929   -0.8023 C   0  0  0  0  0  0  0  0  0  0  0  0
    0.5547    0.3560   -0.9741 C   0  0  0  0  0  0  0  0  0  0  0  0
    0.2268    1.3031    0.1417 C   0  0  0  0  0  0  0  0  0  0  0  0
   -0.7311    2.4005   -0.2282 C   0  0  0  0  0  0  0  0  0  0  0  0
   -1.2573    2.2739    1.2910 C   0  0  0  0  0  0  0  0  0  0  0  0
   -0.2923    0.9741    1.5168 C   0  0  0  0  0  0  0  0  0  0  0  0
   -0.9460   -0.5286    1.5464 C   0  0  0  0  0  0  0  0  0  0  0  0
   -1.8392   -0.7848    0.2767 C   0  0  0  0  0  0  0  0  0  0  0  0
   -0.8047   -0.6675   -0.9952 C   0  0  0  0  0  0  0  0  0  0  0  0
   -1.5010    0.4753   -1.8949 C   0  0  0  0  0  0  0  0  0  0  0  0
   -1.7882    1.8396   -1.1993 N   0  0  0  0  0  0  0  0  0  0  0  0
    0.3575   -1.6253   -0.2193 C   0  0  0  0  0  0  0  0  0  0  0  0
    0.0936   -1.6371    1.3180 C   0  0  0  0  0  0  0  0  0  0  0  0
    1.4925   -1.5185    2.3994 Cl  0  0  0  0  0  0  0  0  0  0  0  0
   -0.6495   -3.2582    1.7324 Cl  0  0  0  0  0  0  0  0  0  0  0  0
    4.5037   -1.2379    0.5672 H   0  0  0  0  0  0  0  0  0  0  0  0
    4.1740   -1.4146   -1.1723 H   0  0  0  0  0  0  0  0  0  0  0  0
    3.3576   -2.4831    0.0110 H   0  0  0  0  0  0  0  0  0  0  0  0
    1.7711   -1.1831   -1.7936 H   0  0  0  0  0  0  0  0  0  0  0  0
    0.8431    0.8863   -1.8943 H   0  0  0  0  0  0  0  0  0  0  0  0
   -0.6685    0.7956    0.0623 H   0  0  0  0  0  0  0  0  0  0  0  0
   -0.2998    3.3616   -0.5159 H   0  0  0  0  0  0  0  0  0  0  0  0
   -2.3277    2.0877    1.4217 H   0  0  0  0  0  0  0  0  0  0  0  0
   -0.9679    3.1277    1.9148 H   0  0  0  0  0  0  0  0  0  0  0  0
    0.4201    1.1201    2.3357 H   0  0  0  0  0  0  0  0  0  0  0  0
   -1.5132   -0.6427    2.4758 H   0  0  0  0  0  0  0  0  0  0  0  0
   -2.3111   -1.7727    0.2534 H   0  0  0  0  0  0  0  0  0  0  0  0
   -2.6601   -0.0613    0.2301 H   0  0  0  0  0  0  0  0  0  0  0  0
   -0.9633    0.6451   -2.8368 H   0  0  0  0  0  0  0  0  0  0  0  0
   -2.4864    0.0949   -2.1945 H   0  0  0  0  0  0  0  0  0  0  0  0
   -2.0870    2.5035   -1.9141 H   0  0  0  0  0  0  0  0  0  0  0  0
    0.3880   -2.6435   -0.6328 H   0  0  0  0  0  0  0  0  0  0  0  0
  2  1  1  0  0  0  0
  3  2  1  0  0  0  0
  4  3  1  0  0  0  0
  5  4  1  0  0  0  0
  6  5  1  0  0  0  0
  7  6  1  0  0  0  0
  8  7  1  0  0  0  0
  8  5  1  0  0  0  0
  9  8  1  0  0  0  0
 10  9  1  0  0  0  0
 11 10  1  0  0  0  0
 11  4  1  0  0  0  0
 12 11  1  0  0  0  0
 13 12  1  0  0  0  0
 13  6  1  0  0  0  0
 14 11  1  0  0  0  0
 14  3  1  0  0  0  0
 15 14  1  0  0  0  0
 15  9  1  0  0  0  0
 16 15  1  0  0  0  0
 17 15  1  0  0  0  0
  1 18  1  0  0  0  0
  1 19  1  0  0  0  0
  1 20  1  0  0  0  0
  3 21  1  0  0  0  0
  4 22  1  0  0  0  0
  5 23  1  0  0  0  0
  6 24  1  0  0  0  0
  7 25  1  0  0  0  0
  7 26  1  0  0  0  0
  8 27  1  0  0  0  0
  9 28  1  0  0  0  0
 10 29  1  0  0  0  0
 10 30  1  0  0  0  0
 12 31  1  0  0  0  0
 12 32  1  0  0  0  0
 13 33  1  0  0  0  0
 14 34  1  0  0  0  0
M  END
>  <energy>
267.8838462894937

$$$$
