N=c1[nH]cc2c3nc[nH]c4ncn(CC5Cc6cc(O)ccc6O5)c4nc(c13)C(=NO)NN2
                    3D

 51 56  0  0  0  0  0  0  0  0999 V2000
    4.9008    0.5617   -0.7672 N   0  0  0  0  0  0  0  0  0  0  0  0
    3.7202    0.6113   -1.2990 C   0  0  0  0  0  0  0  0  0  0  0  0
    3.4877    1.6717   -2.1749 N   0  0  0  0  0  0  0  0  0  0  0  0
    2.2292    2.2739   -2.0731 C   0  0  0  0  0  0  0  0  0  0  0  0
    1.2070    1.5282   -1.5620 C   0  0  0  0  0  0  0  0  0  0  0  0
    1.4669    0.0458   -1.6276 C   0  0  0  0  0  0  0  0  0  0  0  0
    1.0815   -0.5827   -2.7935 N   0  0  0  0  0  0  0  0  0  0  0  0
    1.1600   -1.8781   -2.8417 C   0  0  0  0  0  0  0  0  0  0  0  0
    1.4705   -2.8929   -1.9382 N   0  0  0  0  0  0  0  0  0  0  0  0
    0.6923   -3.0004   -0.8318 C   0  0  0  0  0  0  0  0  0  0  0  0
   -0.1108   -4.1140   -0.7883 N   0  0  0  0  0  0  0  0  0  0  0  0
   -0.8358   -3.9690    0.2881 C   0  0  0  0  0  0  0  0  0  0  0  0
   -0.5310   -2.8040    0.9243 N   0  0  0  0  0  0  0  0  0  0  0  0
   -1.2774   -2.2294    2.0167 C   0  0  0  0  0  0  0  0  0  0  0  0
   -2.6712   -1.6790    1.6496 C   0  0  0  0  0  0  0  0  0  0  0  0
   -2.9378   -0.2956    2.2762 C   0  0  0  0  0  0  0  0  0  0  0  0
   -2.8420    0.5563    1.0737 C   0  0  0  0  0  0  0  0  0  0  0  0
   -2.7937    1.9389    0.9699 C   0  0  0  0  0  0  0  0  0  0  0  0
   -2.8669    2.4863   -0.3099 C   0  0  0  0  0  0  0  0  0  0  0  0
   -2.8335    3.8393   -0.4980 O   0  0  0  0  0  0  0  0  0  0  0  0
   -2.9860    1.6804   -1.4515 C   0  0  0  0  0  0  0  0  0  0  0  0
   -2.9936    0.2892   -1.3218 C   0  0  0  0  0  0  0  0  0  0  0  0
   -2.9020   -0.2447   -0.0545 C   0  0  0  0  0  0  0  0  0  0  0  0
   -2.9019   -1.5859    0.2193 O   0  0  0  0  0  0  0  0  0  0  0  0
    0.5937   -2.2450    0.3330 C   0  0  0  0  0  0  0  0  0  0  0  0
    1.1587   -1.1946    0.9774 N   0  0  0  0  0  0  0  0  0  0  0  0
    1.9860   -0.3565    0.4261 C   0  0  0  0  0  0  0  0  0  0  0  0
    2.5758   -0.3364   -0.9430 C   0  0  0  0  0  0  0  0  0  0  0  0
    2.1202    0.9445    1.2221 C   0  0  0  0  0  0  0  0  0  0  0  0
    2.9102    0.9213    2.2477 N   0  0  0  0  0  0  0  0  0  0  0  0
    2.9378    2.1681    2.8932 O   0  0  0  0  0  0  0  0  0  0  0  0
    1.3292    2.0114    0.8078 N   0  0  0  0  0  0  0  0  0  0  0  0
    0.5780    2.0108   -0.3872 N   0  0  0  0  0  0  0  0  0  0  0  0
    4.9785   -0.1669   -0.0499 H   0  0  0  0  0  0  0  0  0  0  0  0
    4.2815    2.3084   -2.1883 H   0  0  0  0  0  0  0  0  0  0  0  0
    2.3017    3.3441   -1.9000 H   0  0  0  0  0  0  0  0  0  0  0  0
    1.0170   -2.3252   -3.8475 H   0  0  0  0  0  0  0  0  0  0  0  0
    1.4085   -3.7982   -2.4105 H   0  0  0  0  0  0  0  0  0  0  0  0
   -1.6044   -4.6472    0.6357 H   0  0  0  0  0  0  0  0  0  0  0  0
   -1.3930   -3.0065    2.7787 H   0  0  0  0  0  0  0  0  0  0  0  0
   -0.6693   -1.4539    2.4921 H   0  0  0  0  0  0  0  0  0  0  0  0
   -3.4127   -2.3962    2.0286 H   0  0  0  0  0  0  0  0  0  0  0  0
   -2.2373   -0.0219    3.0677 H   0  0  0  0  0  0  0  0  0  0  0  0
   -3.9579   -0.2488    2.6650 H   0  0  0  0  0  0  0  0  0  0  0  0
   -2.6997    2.5504    1.8559 H   0  0  0  0  0  0  0  0  0  0  0  0
   -3.0009    4.2788    0.3523 H   0  0  0  0  0  0  0  0  0  0  0  0
   -3.0706    2.1321   -2.4372 H   0  0  0  0  0  0  0  0  0  0  0  0
   -3.0892   -0.3567   -2.1886 H   0  0  0  0  0  0  0  0  0  0  0  0
    3.6728    2.0441    3.5213 H   0  0  0  0  0  0  0  0  0  0  0  0
    1.1319    2.6849    1.5477 H   0  0  0  0  0  0  0  0  0  0  0  0
    0.2208    2.9479   -0.5852 H   0  0  0  0  0  0  0  0  0  0  0  0
  2  1  2  0  0  0  0
  3  2  1  0  0  0  0
  4  3  1  0  0  0  0
  5  4  2  0  0  0  0
  6  5  1  0  0  0  0
  7  6  1  0  0  0  0
  8  7  2  0  0  0  0
  9  8  1  0  0  0  0
 10  9  1  0  0  0  0
 11 10  1  0  0  0  0
 12 11  2  0  0  0  0
 13 12  1  0  0  0  0
 14 13  1  0  0  0  0
 15 14  1  0  0  0  0
 16 15  1  0  0  0  0
 17 16  1  0  0  0  0
 18 17  2  0  0  0  0
 19 18  1  0  0  0  0
 20 19  1  0  0  0  0
 21 19  2  0  0  0  0
 22 21  1  0  0  0  0
 23 22  2  0  0  0  0
 23 17  1  0  0  0  0
 24 23  1  0  0  0  0
 24 15  1  0  0  0  0
 25 13  1  0  0  0  0
 25 10  2  0  0  0  0
 26 25  1  0  0  0  0
 27 26  2  0  0  0  0
 28 27  1  0  0  0  0
 28  2  1  0  0  0  0
 28  6  2  0  0  0  0
 29 27  1  0  0  0  0
 30 29  2  0  0  0  0
 31 30  1  0  0  0  0
 32 29  1  0  0  0  0
 33 32  1  0  0  0  0
 33  5  1  0  0  0  0
  1 34  1  0  0  0  0
  3 35  1  0  0  0  0
  4 36  1  0  0  0  0
  8 37  1  0  0  0  0
  9 38  1  0  0  0  0
 12 39  1  0  0  0  0
 14 40  1  0  0  0  0
 14 41  1  0  0  0  0
 15 42  1  0  0  0  0
 16 43  1  0  0  0  0
 16 44  1  0  0  0  0
 18 45  1  0  0  0  0
 20 46  1  0  0  0  0
 21 47  1  0  0  0  0
 22 48  1  0  0  0  0
 31 49  1  0  0  0  0
 32 50  1  0  0  0  0
 33 51  1  0  0  0  0
M  END
>  <energy>
199.97573964607815

$$$$
