COC1CC2OC3C4C(OC5CC(N)C(O)(C6(C)CC6)C(O)C5NC(C)C)C1C3C24
                    3D

 68 73  0  0  0  0  0  0  0  0999 V2000
    2.5472    2.7168   -2.1054 C   0  0  0  0  0  0  0  0  0  0  0  0
    2.0274    2.2368   -0.8777 O   0  0  0  0  0  0  0  0  0  0  0  0
    2.8077    2.5485    0.2748 C   0  0  0  0  0  0  0  0  0  0  0  0
    4.4252    1.9150    0.2248 C   0  0  0  0  0  0  0  0  0  0  0  0
    4.5789    0.4496    0.8723 C   0  0  0  0  0  0  0  0  0  0  0  0
    4.9150    0.1950    2.2482 O   0  0  0  0  0  0  0  0  0  0  0  0
    3.6197    0.3005    2.9683 C   0  0  0  0  0  0  0  0  0  0  0  0
    2.3268   -0.2640    2.1911 C   0  0  0  0  0  0  0  0  0  0  0  0
    1.1558    0.7632    1.8770 C   0  0  0  0  0  0  0  0  0  0  0  0
    0.3949    0.4163    0.7272 O   0  0  0  0  0  0  0  0  0  0  0  0
   -0.4664   -0.7167    0.8583 C   0  0  0  0  0  0  0  0  0  0  0  0
   -1.7958   -0.2731    1.5019 C   0  0  0  0  0  0  0  0  0  0  0  0
   -3.0012   -0.5947    0.6267 C   0  0  0  0  0  0  0  0  0  0  0  0
   -4.3141   -0.2829    1.2356 N   0  0  0  0  0  0  0  0  0  0  0  0
   -2.8713   -0.0745   -0.8353 C   0  0  0  0  0  0  0  0  0  0  0  0
   -3.9502   -0.7739   -1.5328 O   0  0  0  0  0  0  0  0  0  0  0  0
   -3.0940    1.4556   -1.1147 C   0  0  0  0  0  0  0  0  0  0  0  0
   -3.7653    1.7396   -2.4514 C   0  0  0  0  0  0  0  0  0  0  0  0
   -1.9945    2.4471   -0.7469 C   0  0  0  0  0  0  0  0  0  0  0  0
   -3.2990    2.5054   -0.0245 C   0  0  0  0  0  0  0  0  0  0  0  0
   -1.5240   -0.5432   -1.4836 C   0  0  0  0  0  0  0  0  0  0  0  0
   -1.7954   -1.3264   -2.6700 O   0  0  0  0  0  0  0  0  0  0  0  0
   -0.5843   -1.3616   -0.5502 C   0  0  0  0  0  0  0  0  0  0  0  0
   -1.0174   -2.7846   -0.4591 N   0  0  0  0  0  0  0  0  0  0  0  0
    0.0365   -3.7314   -0.8763 C   0  0  0  0  0  0  0  0  0  0  0  0
   -0.5778   -5.1358   -0.9074 C   0  0  0  0  0  0  0  0  0  0  0  0
    1.2458   -3.7215    0.0614 C   0  0  0  0  0  0  0  0  0  0  0  0
    1.9597    2.0894    1.6011 C   0  0  0  0  0  0  0  0  0  0  0  0
    3.1129    1.5876    2.3370 C   0  0  0  0  0  0  0  0  0  0  0  0
    3.1463    0.2818    1.0705 C   0  0  0  0  0  0  0  0  0  0  0  0
    3.2924    2.0181   -2.4952 H   0  0  0  0  0  0  0  0  0  0  0  0
    2.9735    3.7186   -2.0019 H   0  0  0  0  0  0  0  0  0  0  0  0
    1.7255    2.7604   -2.8254 H   0  0  0  0  0  0  0  0  0  0  0  0
    2.9275    3.6409    0.3291 H   0  0  0  0  0  0  0  0  0  0  0  0
    5.0887    2.6152    0.7461 H   0  0  0  0  0  0  0  0  0  0  0  0
    4.7346    1.8610   -0.8225 H   0  0  0  0  0  0  0  0  0  0  0  0
    5.0484   -0.2788    0.2069 H   0  0  0  0  0  0  0  0  0  0  0  0
    3.6818    0.2520    4.0548 H   0  0  0  0  0  0  0  0  0  0  0  0
    2.1434   -1.3371    2.2122 H   0  0  0  0  0  0  0  0  0  0  0  0
    0.5133    0.8770    2.7582 H   0  0  0  0  0  0  0  0  0  0  0  0
    0.0126   -1.4394    1.5262 H   0  0  0  0  0  0  0  0  0  0  0  0
   -1.9057   -0.8040    2.4582 H   0  0  0  0  0  0  0  0  0  0  0  0
   -1.7718    0.7907    1.7591 H   0  0  0  0  0  0  0  0  0  0  0  0
   -3.0498   -1.6901    0.5671 H   0  0  0  0  0  0  0  0  0  0  0  0
   -4.4522    0.7222    1.2899 H   0  0  0  0  0  0  0  0  0  0  0  0
   -4.3234   -0.6233    2.1969 H   0  0  0  0  0  0  0  0  0  0  0  0
   -4.6944   -0.7408   -0.8950 H   0  0  0  0  0  0  0  0  0  0  0  0
   -3.2300    1.2468   -3.2690 H   0  0  0  0  0  0  0  0  0  0  0  0
   -4.8036    1.3896   -2.4500 H   0  0  0  0  0  0  0  0  0  0  0  0
   -3.7882    2.8113   -2.6773 H   0  0  0  0  0  0  0  0  0  0  0  0
   -1.1234    2.1220   -0.1920 H   0  0  0  0  0  0  0  0  0  0  0  0
   -1.7587    3.2492   -1.4401 H   0  0  0  0  0  0  0  0  0  0  0  0
   -3.9526    3.3456   -0.2407 H   0  0  0  0  0  0  0  0  0  0  0  0
   -3.2517    2.2839    1.0301 H   0  0  0  0  0  0  0  0  0  0  0  0
   -0.9530    0.3216   -1.8331 H   0  0  0  0  0  0  0  0  0  0  0  0
   -2.7768   -1.3456   -2.7219 H   0  0  0  0  0  0  0  0  0  0  0  0
    0.4001   -1.3193   -1.0375 H   0  0  0  0  0  0  0  0  0  0  0  0
   -1.7655   -2.8904   -1.1572 H   0  0  0  0  0  0  0  0  0  0  0  0
    0.3657   -3.4901   -1.8964 H   0  0  0  0  0  0  0  0  0  0  0  0
    0.1481   -5.8671   -1.2790 H   0  0  0  0  0  0  0  0  0  0  0  0
   -0.8991   -5.4508    0.0914 H   0  0  0  0  0  0  0  0  0  0  0  0
   -1.4489   -5.1718   -1.5706 H   0  0  0  0  0  0  0  0  0  0  0  0
    0.9409   -3.8620    1.1033 H   0  0  0  0  0  0  0  0  0  0  0  0
    1.8020   -2.7821   -0.0057 H   0  0  0  0  0  0  0  0  0  0  0  0
    1.9405   -4.5282   -0.1981 H   0  0  0  0  0  0  0  0  0  0  0  0
    1.4609    2.9562    2.0454 H   0  0  0  0  0  0  0  0  0  0  0  0
    3.8710    2.3704    2.4868 H   0  0  0  0  0  0  0  0  0  0  0  0
    2.6284    0.2043    0.1065 H   0  0  0  0  0  0  0  0  0  0  0  0
  2  1  1  0  0  0  0
  3  2  1  0  0  0  0
  4  3  1  0  0  0  0
  5  4  1  0  0  0  0
  6  5  1  0  0  0  0
  7  6  1  0  0  0  0
  8  7  1  0  0  0  0
  9  8  1  0  0  0  0
 10  9  1  0  0  0  0
 11 10  1  0  0  0  0
 12 11  1  0  0  0  0
 13 12  1  0  0  0  0
 14 13  1  0  0  0  0
 15 13  1  0  0  0  0
 16 15  1  0  0  0  0
 17 15  1  0  0  0  0
 18 17  1  0  0  0  0
 19 17  1  0  0  0  0
 20 19  1  0  0  0  0
 20 17  1  0  0  0  0
 21 15  1  0  0  0  0
 22 21  1  0  0  0  0
 23 21  1  0  0  0  0
 23 11  1  0  0  0  0
 24 23  1  0  0  0  0
 25 24  1  0  0  0  0
 26 25  1  0  0  0  0
 27 25  1  0  0  0  0
 28  9  1  0  0  0  0
 28  3  1  0  0  0  0
 29 28  1  0  0  0  0
 29  7  1  0  0  0  0
 30 29  1  0  0  0  0
 30  5  1  0  0  0  0
 30  8  1  0  0  0  0
  1 31  1  0  0  0  0
  1 32  1  0  0  0  0
  1 33  1  0  0  0  0
  3 34  1  0  0  0  0
  4 35  1  0  0  0  0
  4 36  1  0  0  0  0
  5 37  1  0  0  0  0
  7 38  1  0  0  0  0
  8 39  1  0  0  0  0
  9 40  1  0  0  0  0
 11 41  1  0  0  0  0
 12 42  1  0  0  0  0
 12 43  1  0  0  0  0
 13 44  1  0  0  0  0
 14 45  1  0  0  0  0
 14 46  1  0  0  0  0
 16 47  1  0  0  0  0
 18 48  1  0  0  0  0
 18 49  1  0  0  0  0
 18 50  1  0  0  0  0
 19 51  1  0  0  0  0
 19 52  1  0  0  0  0
 20 53  1  0  0  0  0
 20 54  1  0  0  0  0
 21 55  1  0  0  0  0
 22 56  1  0  0  0  0
 23 57  1  0  0  0  0
 24 58  1  0  0  0  0
 25 59  1  0  0  0  0
 26 60  1  0  0  0  0
 26 61  1  0  0  0  0
 26 62  1  0  0  0  0
 27 63  1  0  0  0  0
 27 64  1  0  0  0  0
 27 65  1  0  0  0  0
 28 66  1  0  0  0  0
 29 67  1  0  0  0  0
 30 68  1  0  0  0  0
M  END
>  <energy>
342.07271907115967

$$$$
