C#CC1(O)CC2CCC21F
                    3D

 19 20  0  0  0  0  0  0  0  0999 V2000
   -1.9607   -0.3714   -2.3694 C   0  0  0  0  0  0  0  0  0  0  0  0
   -1.5703   -0.2005   -1.2467 C   0  0  0  0  0  0  0  0  0  0  0  0
   -1.1285    0.0038    0.1202 C   0  0  0  0  0  0  0  0  0  0  0  0
   -2.2905    0.4096    0.8847 O   0  0  0  0  0  0  0  0  0  0  0  0
   -0.3520   -1.1804    0.7561 C   0  0  0  0  0  0  0  0  0  0  0  0
    0.7114   -0.1877    1.2496 C   0  0  0  0  0  0  0  0  0  0  0  0
    2.0033   -0.1860    0.4306 C   0  0  0  0  0  0  0  0  0  0  0  0
    1.3060    0.6567   -0.6478 C   0  0  0  0  0  0  0  0  0  0  0  0
    0.1332    0.8919    0.3242 C   0  0  0  0  0  0  0  0  0  0  0  0
   -0.0285    2.1345    0.8233 F   0  0  0  0  0  0  0  0  0  0  0  0
   -2.3245   -0.5273   -3.3583 H   0  0  0  0  0  0  0  0  0  0  0  0
   -2.4990    1.2996    0.5508 H   0  0  0  0  0  0  0  0  0  0  0  0
   -0.8902   -1.6841    1.5673 H   0  0  0  0  0  0  0  0  0  0  0  0
    0.0038   -1.9470    0.0573 H   0  0  0  0  0  0  0  0  0  0  0  0
    0.7536    0.0419    2.3146 H   0  0  0  0  0  0  0  0  0  0  0  0
    2.8291    0.3393    0.9234 H   0  0  0  0  0  0  0  0  0  0  0  0
    2.3649   -1.1648    0.1024 H   0  0  0  0  0  0  0  0  0  0  0  0
    1.0857    0.1060   -1.5670 H   0  0  0  0  0  0  0  0  0  0  0  0
    1.8531    1.5658   -0.9152 H   0  0  0  0  0  0  0  0  0  0  0  0
  2  1  3  0  0  0  0
  3  2  1  0  0  0  0
  4  3  1  0  0  0  0
  5  3  1  0  0  0  0
  6  5  1  0  0  0  0
  7  6  1  0  0  0  0
  8  7  1  0  0  0  0
  9  8  1  0  0  0  0
  9  6  1  0  0  0  0
  9  3  1  0  0  0  0
 10  9  1  0  0  0  0
  1 11  1  0  0  0  0
  4 12  1  0  0  0  0
  5 13  1  0  0  0  0
  5 14  1  0  0  0  0
  6 15  1  0  0  0  0
  7 16  1  0  0  0  0
  7 17  1  0  0  0  0
  8 18  1  0  0  0  0
  8 19  1  0  0  0  0
M  END
>  <energy>
37.608537327119805

$$$$
