OC1C2C3C4CC3C1(F)C42
                    3D

 19 22  0  0  0  0  0  0  0  0999 V2000
    2.7908   -0.7465    0.4209 O   0  0  0  0  0  0  0  0  0  0  0  0
    1.5954    0.0419    0.6035 C   0  0  0  0  0  0  0  0  0  0  0  0
    0.9128    0.5398   -0.7004 C   0  0  0  0  0  0  0  0  0  0  0  0
   -0.4706    1.1289   -0.3357 C   0  0  0  0  0  0  0  0  0  0  0  0
   -1.1282   -0.0712   -1.0768 C   0  0  0  0  0  0  0  0  0  0  0  0
   -2.0904   -0.1693    0.1322 C   0  0  0  0  0  0  0  0  0  0  0  0
   -0.8717    0.3421    0.9503 C   0  0  0  0  0  0  0  0  0  0  0  0
    0.2520   -0.7268    0.8182 C   0  0  0  0  0  0  0  0  0  0  0  0
    0.2022   -1.8410    1.5636 F   0  0  0  0  0  0  0  0  0  0  0  0
    0.1733   -0.8300   -0.7310 C   0  0  0  0  0  0  0  0  0  0  0  0
    3.4777   -0.1093    0.1619 H   0  0  0  0  0  0  0  0  0  0  0  0
    1.7822    0.8295    1.3426 H   0  0  0  0  0  0  0  0  0  0  0  0
    1.4591    0.8596   -1.5843 H   0  0  0  0  0  0  0  0  0  0  0  0
   -0.7947    2.1455   -0.5365 H   0  0  0  0  0  0  0  0  0  0  0  0
   -1.4619    0.0550   -2.1035 H   0  0  0  0  0  0  0  0  0  0  0  0
   -2.4504   -1.1716    0.3806 H   0  0  0  0  0  0  0  0  0  0  0  0
   -2.9416    0.5195    0.0963 H   0  0  0  0  0  0  0  0  0  0  0  0
   -1.0123    0.8720    1.8895 H   0  0  0  0  0  0  0  0  0  0  0  0
    0.5762   -1.6680   -1.2916 H   0  0  0  0  0  0  0  0  0  0  0  0
  2  1  1  0  0  0  0
  3  2  1  0  0  0  0
  4  3  1  0  0  0  0
  5  4  1  0  0  0  0
  6  5  1  0  0  0  0
  7  6  1  0  0  0  0
  7  4  1  0  0  0  0
  8  7  1  0  0  0  0
  8  2  1  0  0  0  0
  9  8  1  0  0  0  0
 10  8  1  0  0  0  0
 10  5  1  0  0  0  0
 10  3  1  0  0  0  0
  1 11  1  0  0  0  0
  2 12  1  0  0  0  0
  3 13  1  0  0  0  0
  4 14  1  0  0  0  0
  5 15  1  0  0  0  0
  6 16  1  0  0  0  0
  6 17  1  0  0  0  0
  7 18  1  0  0  0  0
 10 19  1  0  0  0  0
M  END
>  <energy>
55.982844423793928

$$$$
