C1CCC(N2CCC34CCC5C2C3CC54)C1
                    3D

 39 43  0  0  0  0  0  0  0  0999 V2000
    2.7543   -1.0196   -1.3878 C   0  0  0  0  0  0  0  0  0  0  0  0
    2.2401   -2.0735   -0.4099 C   0  0  0  0  0  0  0  0  0  0  0  0
    2.2308   -1.3933    0.9532 C   0  0  0  0  0  0  0  0  0  0  0  0
    1.9654    0.0887    0.6548 C   0  0  0  0  0  0  0  0  0  0  0  0
    0.5240    0.3350    0.5781 N   0  0  0  0  0  0  0  0  0  0  0  0
    0.0032    1.1818    1.6747 C   0  0  0  0  0  0  0  0  0  0  0  0
   -1.4752    1.6904    1.5422 C   0  0  0  0  0  0  0  0  0  0  0  0
   -2.2451    0.9548    0.4125 C   0  0  0  0  0  0  0  0  0  0  0  0
   -2.4307   -0.4932    1.0581 C   0  0  0  0  0  0  0  0  0  0  0  0
   -1.6523   -1.4881    0.1996 C   0  0  0  0  0  0  0  0  0  0  0  0
   -1.2487   -0.6365   -0.9851 C   0  0  0  0  0  0  0  0  0  0  0  0
   -0.1646    0.4452   -0.7028 C   0  0  0  0  0  0  0  0  0  0  0  0
   -1.1215    1.6160   -0.6171 C   0  0  0  0  0  0  0  0  0  0  0  0
   -2.1799    1.6014   -1.7074 C   0  0  0  0  0  0  0  0  0  0  0  0
   -2.4794    0.2771   -1.0520 C   0  0  0  0  0  0  0  0  0  0  0  0
    2.8181    0.2923   -0.6050 C   0  0  0  0  0  0  0  0  0  0  0  0
    2.0861   -0.9419   -2.2517 H   0  0  0  0  0  0  0  0  0  0  0  0
    3.7453   -1.2847   -1.7721 H   0  0  0  0  0  0  0  0  0  0  0  0
    1.2285   -2.3832   -0.6931 H   0  0  0  0  0  0  0  0  0  0  0  0
    2.8666   -2.9710   -0.4098 H   0  0  0  0  0  0  0  0  0  0  0  0
    3.2186   -1.5004    1.4204 H   0  0  0  0  0  0  0  0  0  0  0  0
    1.5032   -1.8410    1.6380 H   0  0  0  0  0  0  0  0  0  0  0  0
    2.3983    0.6920    1.4628 H   0  0  0  0  0  0  0  0  0  0  0  0
    0.6342    2.0735    1.7884 H   0  0  0  0  0  0  0  0  0  0  0  0
    0.0896    0.6196    2.6129 H   0  0  0  0  0  0  0  0  0  0  0  0
   -1.4961    2.7821    1.4047 H   0  0  0  0  0  0  0  0  0  0  0  0
   -1.9892    1.5547    2.5042 H   0  0  0  0  0  0  0  0  0  0  0  0
   -3.5008   -0.7426    1.0702 H   0  0  0  0  0  0  0  0  0  0  0  0
   -2.1027   -0.5670    2.1014 H   0  0  0  0  0  0  0  0  0  0  0  0
   -2.3154   -2.3062   -0.1051 H   0  0  0  0  0  0  0  0  0  0  0  0
   -0.8058   -1.9352    0.7261 H   0  0  0  0  0  0  0  0  0  0  0  0
   -1.0497   -1.2125   -1.8923 H   0  0  0  0  0  0  0  0  0  0  0  0
    0.4812    0.5744   -1.5728 H   0  0  0  0  0  0  0  0  0  0  0  0
   -0.6911    2.6173   -0.4959 H   0  0  0  0  0  0  0  0  0  0  0  0
   -2.9614    2.3626   -1.6224 H   0  0  0  0  0  0  0  0  0  0  0  0
   -1.8146    1.5620   -2.7365 H   0  0  0  0  0  0  0  0  0  0  0  0
   -3.4552   -0.1605   -1.2830 H   0  0  0  0  0  0  0  0  0  0  0  0
    2.5324    1.1648   -1.2000 H   0  0  0  0  0  0  0  0  0  0  0  0
    3.8595    0.4648   -0.3005 H   0  0  0  0  0  0  0  0  0  0  0  0
  2  1  1  0  0  0  0
  3  2  1  0  0  0  0
  4  3  1  0  0  0  0
  5  4  1  0  0  0  0
  6  5  1  0  0  0  0
  7  6  1  0  0  0  0
  8  7  1  0  0  0  0
  9  8  1  0  0  0  0
 10  9  1  0  0  0  0
 11 10  1  0  0  0  0
 12 11  1  0  0  0  0
 12  5  1  0  0  0  0
 13 12  1  0  0  0  0
 13  8  1  0  0  0  0
 14 13  1  0  0  0  0
 15 14  1  0  0  0  0
 15 11  1  0  0  0  0
 15  8  1  0  0  0  0
 16  4  1  0  0  0  0
 16  1  1  0  0  0  0
  1 17  1  0  0  0  0
  1 18  1  0  0  0  0
  2 19  1  0  0  0  0
  2 20  1  0  0  0  0
  3 21  1  0  0  0  0
  3 22  1  0  0  0  0
  4 23  1  0  0  0  0
  6 24  1  0  0  0  0
  6 25  1  0  0  0  0
  7 26  1  0  0  0  0
  7 27  1  0  0  0  0
  9 28  1  0  0  0  0
  9 29  1  0  0  0  0
 10 30  1  0  0  0  0
 10 31  1  0  0  0  0
 11 32  1  0  0  0  0
 12 33  1  0  0  0  0
 13 34  1  0  0  0  0
 14 35  1  0  0  0  0
 14 36  1  0  0  0  0
 15 37  1  0  0  0  0
 16 38  1  0  0  0  0
 16 39  1  0  0  0  0
M  END
>  <energy>
138.88657502238544

$$$$
