Fc1cccc(F)c1C1=CC2CCC(C=NNc3ccc4cc3C3CC=C4CCN(CC4CC4)C3)C2C1
                    3D

 72 78  0  0  0  0  0  0  0  0999 V2000
    2.2787   -1.6895    1.0808 F   0  0  0  0  0  0  0  0  0  0  0  0
    3.4547   -2.3388    1.0776 C   0  0  0  0  0  0  0  0  0  0  0  0
    3.5071   -3.6183    1.6281 C   0  0  0  0  0  0  0  0  0  0  0  0
    4.7081   -4.3292    1.6268 C   0  0  0  0  0  0  0  0  0  0  0  0
    5.8499   -3.7486    1.0790 C   0  0  0  0  0  0  0  0  0  0  0  0
    5.7832   -2.4716    0.5248 C   0  0  0  0  0  0  0  0  0  0  0  0
    6.9045   -1.9466    0.0031 F   0  0  0  0  0  0  0  0  0  0  0  0
    4.5875   -1.7482    0.5090 C   0  0  0  0  0  0  0  0  0  0  0  0
    4.5190   -0.4418   -0.1281 C   0  0  0  0  0  0  0  0  0  0  0  0
    4.6120   -0.2423   -1.4509 C   0  0  0  0  0  0  0  0  0  0  0  0
    4.4822    1.2024   -1.7994 C   0  0  0  0  0  0  0  0  0  0  0  0
    3.3653    1.4932   -2.8023 C   0  0  0  0  0  0  0  0  0  0  0  0
    2.5177    2.5837   -2.1587 C   0  0  0  0  0  0  0  0  0  0  0  0
    2.6203    2.3157   -0.6628 C   0  0  0  0  0  0  0  0  0  0  0  0
    1.5751    1.3128   -0.2314 C   0  0  0  0  0  0  0  0  0  0  0  0
    0.7248    1.6661    0.6741 N   0  0  0  0  0  0  0  0  0  0  0  0
   -0.1563    0.6906    1.0303 N   0  0  0  0  0  0  0  0  0  0  0  0
   -1.3180    1.1853    1.6618 C   0  0  0  0  0  0  0  0  0  0  0  0
   -1.9360    2.3847    1.2314 C   0  0  0  0  0  0  0  0  0  0  0  0
   -3.2788    2.6245    1.5893 C   0  0  0  0  0  0  0  0  0  0  0  0
   -3.8620    1.6938    2.4430 C   0  0  0  0  0  0  0  0  0  0  0  0
   -2.9383    1.1681    3.3038 C   0  0  0  0  0  0  0  0  0  0  0  0
   -2.0892    0.4118    2.5286 C   0  0  0  0  0  0  0  0  0  0  0  0
   -2.6132   -0.9883    2.1659 C   0  0  0  0  0  0  0  0  0  0  0  0
   -3.9351   -1.3136    2.9547 C   0  0  0  0  0  0  0  0  0  0  0  0
   -5.1352   -0.4635    2.5476 C   0  0  0  0  0  0  0  0  0  0  0  0
   -4.9625    0.7671    1.9939 C   0  0  0  0  0  0  0  0  0  0  0  0
   -5.4585    0.8771    0.5736 C   0  0  0  0  0  0  0  0  0  0  0  0
   -4.8746   -0.2719   -0.3122 C   0  0  0  0  0  0  0  0  0  0  0  0
   -3.3986   -0.4038   -0.3749 N   0  0  0  0  0  0  0  0  0  0  0  0
   -2.9978   -0.8369   -1.7290 C   0  0  0  0  0  0  0  0  0  0  0  0
   -2.4007    0.3303   -2.4642 C   0  0  0  0  0  0  0  0  0  0  0  0
   -2.2718    0.2713   -3.9679 C   0  0  0  0  0  0  0  0  0  0  0  0
   -1.0419    0.1883   -3.1092 C   0  0  0  0  0  0  0  0  0  0  0  0
   -2.7582   -1.3080    0.6271 C   0  0  0  0  0  0  0  0  0  0  0  0
    4.0687    1.8572   -0.4626 C   0  0  0  0  0  0  0  0  0  0  0  0
    4.3301    0.8249    0.6434 C   0  0  0  0  0  0  0  0  0  0  0  0
    2.6054   -4.0559    2.0439 H   0  0  0  0  0  0  0  0  0  0  0  0
    4.7550   -5.3313    2.0476 H   0  0  0  0  0  0  0  0  0  0  0  0
    6.7963   -4.2807    1.0664 H   0  0  0  0  0  0  0  0  0  0  0  0
    4.7714   -1.0187   -2.1895 H   0  0  0  0  0  0  0  0  0  0  0  0
    5.4450    1.5948   -2.1455 H   0  0  0  0  0  0  0  0  0  0  0  0
    2.7504    0.6062   -3.0023 H   0  0  0  0  0  0  0  0  0  0  0  0
    3.7708    1.8319   -3.7606 H   0  0  0  0  0  0  0  0  0  0  0  0
    2.9377    3.5698   -2.3889 H   0  0  0  0  0  0  0  0  0  0  0  0
    1.4888    2.5635   -2.5317 H   0  0  0  0  0  0  0  0  0  0  0  0
    2.4423    3.2416   -0.1020 H   0  0  0  0  0  0  0  0  0  0  0  0
    1.5737    0.3124   -0.6985 H   0  0  0  0  0  0  0  0  0  0  0  0
    0.2527   -0.0515    1.6024 H   0  0  0  0  0  0  0  0  0  0  0  0
   -1.4610    3.0006    0.4761 H   0  0  0  0  0  0  0  0  0  0  0  0
   -3.8584    3.3351    1.0122 H   0  0  0  0  0  0  0  0  0  0  0  0
   -2.4242    1.9253    3.9197 H   0  0  0  0  0  0  0  0  0  0  0  0
   -1.8530   -1.6843    2.5483 H   0  0  0  0  0  0  0  0  0  0  0  0
   -3.7811   -1.2411    4.0380 H   0  0  0  0  0  0  0  0  0  0  0  0
   -4.1895   -2.3621    2.7580 H   0  0  0  0  0  0  0  0  0  0  0  0
   -5.9607   -1.0864    2.1993 H   0  0  0  0  0  0  0  0  0  0  0  0
   -6.5526    0.8157    0.5638 H   0  0  0  0  0  0  0  0  0  0  0  0
   -5.2196    1.8363    0.1041 H   0  0  0  0  0  0  0  0  0  0  0  0
   -5.2700   -0.0529   -1.3135 H   0  0  0  0  0  0  0  0  0  0  0  0
   -5.3210   -1.2377   -0.0452 H   0  0  0  0  0  0  0  0  0  0  0  0
   -3.8394   -1.2501   -2.2988 H   0  0  0  0  0  0  0  0  0  0  0  0
   -2.2651   -1.6536   -1.7055 H   0  0  0  0  0  0  0  0  0  0  0  0
   -2.6504    1.2910   -2.0264 H   0  0  0  0  0  0  0  0  0  0  0  0
   -2.6073   -0.6227   -4.4812 H   0  0  0  0  0  0  0  0  0  0  0  0
   -2.4346    1.1877   -4.5268 H   0  0  0  0  0  0  0  0  0  0  0  0
   -0.3813    1.0471   -3.0838 H   0  0  0  0  0  0  0  0  0  0  0  0
   -0.5292   -0.7636   -3.0272 H   0  0  0  0  0  0  0  0  0  0  0  0
   -1.7151   -1.4340    0.3018 H   0  0  0  0  0  0  0  0  0  0  0  0
   -3.2066   -2.3065    0.5281 H   0  0  0  0  0  0  0  0  0  0  0  0
    4.6850    2.7515   -0.2858 H   0  0  0  0  0  0  0  0  0  0  0  0
    5.2582    1.0647    1.1771 H   0  0  0  0  0  0  0  0  0  0  0  0
    3.5252    0.7703    1.3822 H   0  0  0  0  0  0  0  0  0  0  0  0
  2  1  1  0  0  0  0
  3  2  2  0  0  0  0
  4  3  1  0  0  0  0
  5  4  2  0  0  0  0
  6  5  1  0  0  0  0
  7  6  1  0  0  0  0
  8  6  2  0  0  0  0
  8  2  1  0  0  0  0
  9  8  1  0  0  0  0
 10  9  2  0  0  0  0
 11 10  1  0  0  0  0
 12 11  1  0  0  0  0
 13 12  1  0  0  0  0
 14 13  1  0  0  0  0
 15 14  1  0  0  0  0
 16 15  2  0  0  0  0
 17 16  1  0  0  0  0
 18 17  1  0  0  0  0
 19 18  2  0  0  0  0
 20 19  1  0  0  0  0
 21 20  2  0  0  0  0
 22 21  1  0  0  0  0
 23 22  2  0  0  0  0
 23 18  1  0  0  0  0
 24 23  1  0  0  0  0
 25 24  1  0  0  0  0
 26 25  1  0  0  0  0
 27 26  2  0  0  0  0
 27 21  1  0  0  0  0
 28 27  1  0  0  0  0
 29 28  1  0  0  0  0
 30 29  1  0  0  0  0
 31 30  1  0  0  0  0
 32 31  1  0  0  0  0
 33 32  1  0  0  0  0
 34 33  1  0  0  0  0
 34 32  1  0  0  0  0
 35 30  1  0  0  0  0
 35 24  1  0  0  0  0
 36 14  1  0  0  0  0
 36 11  1  0  0  0  0
 37 36  1  0  0  0  0
 37  9  1  0  0  0  0
  3 38  1  0  0  0  0
  4 39  1  0  0  0  0
  5 40  1  0  0  0  0
 10 41  1  0  0  0  0
 11 42  1  0  0  0  0
 12 43  1  0  0  0  0
 12 44  1  0  0  0  0
 13 45  1  0  0  0  0
 13 46  1  0  0  0  0
 14 47  1  0  0  0  0
 15 48  1  0  0  0  0
 17 49  1  0  0  0  0
 19 50  1  0  0  0  0
 20 51  1  0  0  0  0
 22 52  1  0  0  0  0
 24 53  1  0  0  0  0
 25 54  1  0  0  0  0
 25 55  1  0  0  0  0
 26 56  1  0  0  0  0
 28 57  1  0  0  0  0
 28 58  1  0  0  0  0
 29 59  1  0  0  0  0
 29 60  1  0  0  0  0
 31 61  1  0  0  0  0
 31 62  1  0  0  0  0
 32 63  1  0  0  0  0
 33 64  1  0  0  0  0
 33 65  1  0  0  0  0
 34 66  1  0  0  0  0
 34 67  1  0  0  0  0
 35 68  1  0  0  0  0
 35 69  1  0  0  0  0
 36 70  1  0  0  0  0
 37 71  1  0  0  0  0
 37 72  1  0  0  0  0
M  END
>  <energy>
288.84396209169904

$$$$
