CC1CN(C=NC23CCC4CC(C2)C43)CCO1
                    3D

 39 42  0  0  0  0  0  0  0  0999 V2000
    4.4494    1.2202   -1.0916 C   0  0  0  0  0  0  0  0  0  0  0  0
    3.4915    0.5545   -0.1137 C   0  0  0  0  0  0  0  0  0  0  0  0
    2.6387   -0.5206   -0.8192 C   0  0  0  0  0  0  0  0  0  0  0  0
    1.8069   -1.2186    0.1743 N   0  0  0  0  0  0  0  0  0  0  0  0
    0.4812   -0.9059    0.3224 C   0  0  0  0  0  0  0  0  0  0  0  0
   -0.2202   -0.1920   -0.4923 N   0  0  0  0  0  0  0  0  0  0  0  0
   -1.6135   -0.0163   -0.1129 C   0  0  0  0  0  0  0  0  0  0  0  0
   -1.8402    0.9429    1.0443 C   0  0  0  0  0  0  0  0  0  0  0  0
   -3.2925    1.3973    0.9144 C   0  0  0  0  0  0  0  0  0  0  0  0
   -3.6032    1.3387   -0.5802 C   0  0  0  0  0  0  0  0  0  0  0  0
   -4.4904    0.1547   -1.0424 C   0  0  0  0  0  0  0  0  0  0  0  0
   -3.2353   -0.6326   -1.4435 C   0  0  0  0  0  0  0  0  0  0  0  0
   -2.4730   -1.3016   -0.2880 C   0  0  0  0  0  0  0  0  0  0  0  0
   -2.4076    0.6315   -1.2508 C   0  0  0  0  0  0  0  0  0  0  0  0
    2.5933   -1.7777    1.2781 C   0  0  0  0  0  0  0  0  0  0  0  0
    3.4473   -0.6712    1.9149 C   0  0  0  0  0  0  0  0  0  0  0  0
    4.2874   -0.0317    0.9402 O   0  0  0  0  0  0  0  0  0  0  0  0
    3.9097    1.7099   -1.9075 H   0  0  0  0  0  0  0  0  0  0  0  0
    5.0602    1.9696   -0.5766 H   0  0  0  0  0  0  0  0  0  0  0  0
    5.1459    0.4900   -1.5196 H   0  0  0  0  0  0  0  0  0  0  0  0
    2.8439    1.3205    0.3320 H   0  0  0  0  0  0  0  0  0  0  0  0
    3.2913   -1.2651   -1.2917 H   0  0  0  0  0  0  0  0  0  0  0  0
    2.0373   -0.0717   -1.6172 H   0  0  0  0  0  0  0  0  0  0  0  0
    0.0381   -1.3441    1.2362 H   0  0  0  0  0  0  0  0  0  0  0  0
   -1.1805    1.8145    0.9466 H   0  0  0  0  0  0  0  0  0  0  0  0
   -1.6486    0.4840    2.0192 H   0  0  0  0  0  0  0  0  0  0  0  0
   -3.9518    0.7291    1.4812 H   0  0  0  0  0  0  0  0  0  0  0  0
   -3.4258    2.4061    1.3180 H   0  0  0  0  0  0  0  0  0  0  0  0
   -3.8668    2.3048   -1.0228 H   0  0  0  0  0  0  0  0  0  0  0  0
   -5.1304    0.4088   -1.8966 H   0  0  0  0  0  0  0  0  0  0  0  0
   -5.1206   -0.3104   -0.2782 H   0  0  0  0  0  0  0  0  0  0  0  0
   -3.2098   -1.1122   -2.4225 H   0  0  0  0  0  0  0  0  0  0  0  0
   -1.9185   -2.1930   -0.6012 H   0  0  0  0  0  0  0  0  0  0  0  0
   -3.0831   -1.5792    0.5777 H   0  0  0  0  0  0  0  0  0  0  0  0
   -1.9238    1.0817   -2.1163 H   0  0  0  0  0  0  0  0  0  0  0  0
    1.9525   -2.2432    2.0358 H   0  0  0  0  0  0  0  0  0  0  0  0
    3.2456   -2.5600    0.8729 H   0  0  0  0  0  0  0  0  0  0  0  0
    4.0975   -1.1001    2.6841 H   0  0  0  0  0  0  0  0  0  0  0  0
    2.8179    0.0884    2.3927 H   0  0  0  0  0  0  0  0  0  0  0  0
  2  1  1  0  0  0  0
  3  2  1  0  0  0  0
  4  3  1  0  0  0  0
  5  4  1  0  0  0  0
  6  5  2  0  0  0  0
  7  6  1  0  0  0  0
  8  7  1  0  0  0  0
  9  8  1  0  0  0  0
 10  9  1  0  0  0  0
 11 10  1  0  0  0  0
 12 11  1  0  0  0  0
 13 12  1  0  0  0  0
 13  7  1  0  0  0  0
 14 12  1  0  0  0  0
 14 10  1  0  0  0  0
 14  7  1  0  0  0  0
 15  4  1  0  0  0  0
 16 15  1  0  0  0  0
 17 16  1  0  0  0  0
 17  2  1  0  0  0  0
  1 18  1  0  0  0  0
  1 19  1  0  0  0  0
  1 20  1  0  0  0  0
  2 21  1  0  0  0  0
  3 22  1  0  0  0  0
  3 23  1  0  0  0  0
  5 24  1  0  0  0  0
  8 25  1  0  0  0  0
  8 26  1  0  0  0  0
  9 27  1  0  0  0  0
  9 28  1  0  0  0  0
 10 29  1  0  0  0  0
 11 30  1  0  0  0  0
 11 31  1  0  0  0  0
 12 32  1  0  0  0  0
 13 33  1  0  0  0  0
 13 34  1  0  0  0  0
 14 35  1  0  0  0  0
 15 36  1  0  0  0  0
 15 37  1  0  0  0  0
 16 38  1  0  0  0  0
 16 39  1  0  0  0  0
M  END
>  <energy>
65.286005988815347

$$$$
