CC1(N)CC2(F)CC34CCC2CC(C13)[S+]4[O-]
                    3D

 34 37  0  0  0  0  0  0  0  0999 V2000
    2.6007    1.1834    0.5022 C   0  0  0  0  0  0  0  0  0  0  0  0
    1.7643   -0.0642    0.1527 C   0  0  0  0  0  0  0  0  0  0  0  0
    2.7053   -1.1874    0.3342 N   0  0  0  0  0  0  0  0  0  0  0  0
    1.2545    0.0015   -1.2974 C   0  0  0  0  0  0  0  0  0  0  0  0
   -0.1962   -0.4659   -1.3658 C   0  0  0  0  0  0  0  0  0  0  0  0
   -0.4214   -0.9533   -2.6218 F   0  0  0  0  0  0  0  0  0  0  0  0
   -0.3995   -1.6153   -0.3743 C   0  0  0  0  0  0  0  0  0  0  0  0
   -1.0453   -1.1290    0.9300 C   0  0  0  0  0  0  0  0  0  0  0  0
   -2.5201   -1.0188    0.3404 C   0  0  0  0  0  0  0  0  0  0  0  0
   -2.6021    0.0260   -0.7843 C   0  0  0  0  0  0  0  0  0  0  0  0
   -1.2382    0.6583   -1.1185 C   0  0  0  0  0  0  0  0  0  0  0  0
   -0.8349    1.6932   -0.0436 C   0  0  0  0  0  0  0  0  0  0  0  0
   -0.2472    1.0961    1.2333 C   0  0  0  0  0  0  0  0  0  0  0  0
    0.5381   -0.2235    1.1336 C   0  0  0  0  0  0  0  0  0  0  0  0
   -1.4149    0.1966    2.2692 S   0  3  0  0  0  0  0  0  0  0  0  0
   -0.7300   -0.2445    3.5269 O   0  5  0  0  0  0  0  0  0  0  0  0
    2.9082    1.1752    1.5548 H   0  0  0  0  0  0  0  0  0  0  0  0
    2.0522    2.1145    0.3328 H   0  0  0  0  0  0  0  0  0  0  0  0
    3.5061    1.2460   -0.1142 H   0  0  0  0  0  0  0  0  0  0  0  0
    2.3739   -2.0511   -0.0885 H   0  0  0  0  0  0  0  0  0  0  0  0
    3.5907   -0.9900   -0.1348 H   0  0  0  0  0  0  0  0  0  0  0  0
    1.3521    1.0061   -1.7265 H   0  0  0  0  0  0  0  0  0  0  0  0
    1.8695   -0.6304   -1.9531 H   0  0  0  0  0  0  0  0  0  0  0  0
    0.4786   -2.2387   -0.1949 H   0  0  0  0  0  0  0  0  0  0  0  0
   -1.0282   -2.3710   -0.8715 H   0  0  0  0  0  0  0  0  0  0  0  0
   -3.2990   -0.8244    1.0919 H   0  0  0  0  0  0  0  0  0  0  0  0
   -2.8388   -1.9986   -0.0464 H   0  0  0  0  0  0  0  0  0  0  0  0
   -3.0058   -0.4593   -1.6824 H   0  0  0  0  0  0  0  0  0  0  0  0
   -3.3278    0.8035   -0.5160 H   0  0  0  0  0  0  0  0  0  0  0  0
   -1.3707    1.2135   -2.0572 H   0  0  0  0  0  0  0  0  0  0  0  0
   -1.6857    2.3425    0.2001 H   0  0  0  0  0  0  0  0  0  0  0  0
   -0.0910    2.3653   -0.4886 H   0  0  0  0  0  0  0  0  0  0  0  0
    0.2719    1.8768    1.8018 H   0  0  0  0  0  0  0  0  0  0  0  0
    1.0307   -0.5332    2.0760 H   0  0  0  0  0  0  0  0  0  0  0  0
  2  1  1  0  0  0  0
  3  2  1  0  0  0  0
  4  2  1  0  0  0  0
  5  4  1  0  0  0  0
  6  5  1  0  0  0  0
  7  5  1  0  0  0  0
  8  7  1  0  0  0  0
  9  8  1  0  0  0  0
 10  9  1  0  0  0  0
 11 10  1  0  0  0  0
 11  5  1  0  0  0  0
 12 11  1  0  0  0  0
 13 12  1  0  0  0  0
 14 13  1  0  0  0  0
 14  2  1  0  0  0  0
 14  8  1  0  0  0  0
 15 13  1  0  0  0  0
 15  8  1  0  0  0  0
 16 15  1  0  0  0  0
  1 17  1  0  0  0  0
  1 18  1  0  0  0  0
  1 19  1  0  0  0  0
  3 20  1  0  0  0  0
  3 21  1  0  0  0  0
  4 22  1  0  0  0  0
  4 23  1  0  0  0  0
  7 24  1  0  0  0  0
  7 25  1  0  0  0  0
  9 26  1  0  0  0  0
  9 27  1  0  0  0  0
 10 28  1  0  0  0  0
 10 29  1  0  0  0  0
 11 30  1  0  0  0  0
 12 31  1  0  0  0  0
 12 32  1  0  0  0  0
 13 33  1  0  0  0  0
 14 34  1  0  0  0  0
M  CHG  2  15   1  16  -1
M  END
>  <energy>
156.22851713060072

$$$$
