CN(CO)CC12CCCC3(C#N)C(C1)CC31CC(C2)C1
                    3D

 46 49  0  0  0  0  0  0  0  0999 V2000
   -4.0343   -0.5606   -0.5545 C   0  0  0  0  0  0  0  0  0  0  0  0
   -3.1335    0.3303    0.1944 N   0  0  0  0  0  0  0  0  0  0  0  0
   -3.9087    1.4943    0.6144 C   0  0  0  0  0  0  0  0  0  0  0  0
   -3.1847    2.2079    1.5912 O   0  0  0  0  0  0  0  0  0  0  0  0
   -1.9839    0.7296   -0.6542 C   0  0  0  0  0  0  0  0  0  0  0  0
   -0.5585    0.0875   -0.2724 C   0  0  0  0  0  0  0  0  0  0  0  0
   -0.7095   -1.4455   -0.3613 C   0  0  0  0  0  0  0  0  0  0  0  0
    0.3753   -2.2622    0.3007 C   0  0  0  0  0  0  0  0  0  0  0  0
    1.7134   -2.2548   -0.3987 C   0  0  0  0  0  0  0  0  0  0  0  0
    2.4893   -0.9352   -0.6027 C   0  0  0  0  0  0  0  0  0  0  0  0
    3.7814   -1.4502   -1.1712 C   0  0  0  0  0  0  0  0  0  0  0  0
    4.7781   -1.8524   -1.6100 N   0  0  0  0  0  0  0  0  0  0  0  0
    1.8011    0.0923   -1.5239 C   0  0  0  0  0  0  0  0  0  0  0  0
    0.3683    0.6147   -1.3985 C   0  0  0  0  0  0  0  0  0  0  0  0
    2.8693    1.0775   -1.0350 C   0  0  0  0  0  0  0  0  0  0  0  0
    2.9624    0.4134    0.3824 C   0  0  0  0  0  0  0  0  0  0  0  0
    2.0528    1.6407    1.0137 C   0  0  0  0  0  0  0  0  0  0  0  0
    1.1768    0.6587    1.7370 C   0  0  0  0  0  0  0  0  0  0  0  0
   -0.2470    0.5474    1.1820 C   0  0  0  0  0  0  0  0  0  0  0  0
    2.4201   -0.2278    1.6818 C   0  0  0  0  0  0  0  0  0  0  0  0
   -3.5107   -1.4430   -0.9345 H   0  0  0  0  0  0  0  0  0  0  0  0
   -4.8311   -0.9327    0.0997 H   0  0  0  0  0  0  0  0  0  0  0  0
   -4.4997   -0.0534   -1.4084 H   0  0  0  0  0  0  0  0  0  0  0  0
   -4.8481    1.1886    1.0893 H   0  0  0  0  0  0  0  0  0  0  0  0
   -4.1584    2.1652   -0.2160 H   0  0  0  0  0  0  0  0  0  0  0  0
   -2.7854    1.5008    2.1256 H   0  0  0  0  0  0  0  0  0  0  0  0
   -1.8585    1.8224   -0.6285 H   0  0  0  0  0  0  0  0  0  0  0  0
   -2.2084    0.5080   -1.7077 H   0  0  0  0  0  0  0  0  0  0  0  0
   -1.6288   -1.7494    0.1503 H   0  0  0  0  0  0  0  0  0  0  0  0
   -0.8319   -1.7580   -1.4064 H   0  0  0  0  0  0  0  0  0  0  0  0
    0.4491   -2.0163    1.3614 H   0  0  0  0  0  0  0  0  0  0  0  0
    0.0310   -3.3069    0.3012 H   0  0  0  0  0  0  0  0  0  0  0  0
    1.5636   -2.7253   -1.3829 H   0  0  0  0  0  0  0  0  0  0  0  0
    2.3467   -2.9589    0.1629 H   0  0  0  0  0  0  0  0  0  0  0  0
    1.9508   -0.1421   -2.5900 H   0  0  0  0  0  0  0  0  0  0  0  0
    0.3690    1.7123   -1.3908 H   0  0  0  0  0  0  0  0  0  0  0  0
   -0.1162    0.3690   -2.3562 H   0  0  0  0  0  0  0  0  0  0  0  0
    2.6337    2.1413   -1.1750 H   0  0  0  0  0  0  0  0  0  0  0  0
    3.8262    1.0113   -1.5805 H   0  0  0  0  0  0  0  0  0  0  0  0
    2.6588    2.2731    1.6841 H   0  0  0  0  0  0  0  0  0  0  0  0
    1.4871    2.3592    0.4104 H   0  0  0  0  0  0  0  0  0  0  0  0
    1.0175    0.9687    2.7837 H   0  0  0  0  0  0  0  0  0  0  0  0
   -0.8265   -0.0801    1.8735 H   0  0  0  0  0  0  0  0  0  0  0  0
   -0.6704    1.5532    1.3061 H   0  0  0  0  0  0  0  0  0  0  0  0
    2.2989   -1.3035    1.7971 H   0  0  0  0  0  0  0  0  0  0  0  0
    3.1134   -0.0091    2.5161 H   0  0  0  0  0  0  0  0  0  0  0  0
  2  1  1  0  0  0  0
  3  2  1  0  0  0  0
  4  3  1  0  0  0  0
  5  2  1  0  0  0  0
  6  5  1  0  0  0  0
  7  6  1  0  0  0  0
  8  7  1  0  0  0  0
  9  8  1  0  0  0  0
 10  9  1  0  0  0  0
 11 10  1  0  0  0  0
 12 11  3  0  0  0  0
 13 10  1  0  0  0  0
 14 13  1  0  0  0  0
 14  6  1  0  0  0  0
 15 13  1  0  0  0  0
 16 15  1  0  0  0  0
 16 10  1  0  0  0  0
 17 16  1  0  0  0  0
 18 17  1  0  0  0  0
 19 18  1  0  0  0  0
 19  6  1  0  0  0  0
 20 18  1  0  0  0  0
 20 16  1  0  0  0  0
  1 21  1  0  0  0  0
  1 22  1  0  0  0  0
  1 23  1  0  0  0  0
  3 24  1  0  0  0  0
  3 25  1  0  0  0  0
  4 26  1  0  0  0  0
  5 27  1  0  0  0  0
  5 28  1  0  0  0  0
  7 29  1  0  0  0  0
  7 30  1  0  0  0  0
  8 31  1  0  0  0  0
  8 32  1  0  0  0  0
  9 33  1  0  0  0  0
  9 34  1  0  0  0  0
 13 35  1  0  0  0  0
 14 36  1  0  0  0  0
 14 37  1  0  0  0  0
 15 38  1  0  0  0  0
 15 39  1  0  0  0  0
 17 40  1  0  0  0  0
 17 41  1  0  0  0  0
 18 42  1  0  0  0  0
 19 43  1  0  0  0  0
 19 44  1  0  0  0  0
 20 45  1  0  0  0  0
 20 46  1  0  0  0  0
M  END
>  <energy>
152.79856048834978

$$$$
