CN1CC2(CBr)C3(O)CCC24C2C(CC21)C(NS(=O)(=O)CCN1C(=O)N(CC(=O)O)C(C)(C)C1C(F)(F)F)C
                    3D

 73 78  0  0  0  0  0  0  0  0999 V2000
    4.7837    2.3434   -0.9663 C   0  0  0  0  0  0  0  0  0  0  0  0
    4.0140    1.3315   -0.2454 N   0  0  0  0  0  0  0  0  0  0  0  0
    4.9261    0.1386    0.1504 C   0  0  0  0  0  0  0  0  0  0  0  0
    4.2870   -0.9723    1.1430 C   0  0  0  0  0  0  0  0  0  0  0  0
    5.0708   -0.9726    2.4560 C   0  0  0  0  0  0  0  0  0  0  0  0
    6.7235   -1.9661    2.1611 Br  0  0  0  0  0  0  0  0  0  0  0  0
    3.3106   -2.3076    1.0358 C   0  0  0  0  0  0  0  0  0  0  0  0
    3.7086   -3.5371    1.6394 O   0  0  0  0  0  0  0  0  0  0  0  0
    2.8357   -2.4491   -0.3777 C   0  0  0  0  0  0  0  0  0  0  0  0
    2.4094   -1.0106   -0.5052 C   0  0  0  0  0  0  0  0  0  0  0  0
    2.8787   -0.4840    0.9255 C   0  0  0  0  0  0  0  0  0  0  0  0
    2.7064    0.8129    1.6285 C   0  0  0  0  0  0  0  0  0  0  0  0
    1.2738    1.0096    1.1848 C   0  0  0  0  0  0  0  0  0  0  0  0
    1.9032    2.4591    0.8202 C   0  0  0  0  0  0  0  0  0  0  0  0
    3.3608    1.9430    0.9328 C   0  0  0  0  0  0  0  0  0  0  0  0
    0.9435   -0.3595    2.0134 C   0  0  0  0  0  0  0  0  0  0  0  0
   -0.3037   -0.9997    1.5441 N   0  0  0  0  0  0  0  0  0  0  0  0
   -1.1695   -1.8615    2.7215 S   0  0  0  0  0  0  0  0  0  0  0  0
   -1.3222   -1.0091    3.8821 O   0  0  0  0  0  0  0  0  0  0  0  0
   -0.5565   -3.1654    2.8060 O   0  0  0  0  0  0  0  0  0  0  0  0
   -2.7522   -2.0100    1.9209 C   0  0  0  0  0  0  0  0  0  0  0  0
   -3.2752   -0.6481    1.5109 C   0  0  0  0  0  0  0  0  0  0  0  0
   -3.4480   -0.4995    0.0693 N   0  0  0  0  0  0  0  0  0  0  0  0
   -4.6971   -0.5316   -0.5267 C   0  0  0  0  0  0  0  0  0  0  0  0
   -5.6957   -1.0529   -0.0495 O   0  0  0  0  0  0  0  0  0  0  0  0
   -4.6424    0.2374   -1.7086 N   0  0  0  0  0  0  0  0  0  0  0  0
   -5.9288    0.7841   -2.1306 C   0  0  0  0  0  0  0  0  0  0  0  0
   -5.9571    1.4232   -3.5011 C   0  0  0  0  0  0  0  0  0  0  0  0
   -6.0618    2.6230   -3.6840 O   0  0  0  0  0  0  0  0  0  0  0  0
   -5.8749    0.5345   -4.5215 O   0  0  0  0  0  0  0  0  0  0  0  0
   -3.3798    1.0263   -1.7021 C   0  0  0  0  0  0  0  0  0  0  0  0
   -2.8375    1.3073   -3.1072 C   0  0  0  0  0  0  0  0  0  0  0  0
   -3.5760    2.3795   -0.9756 C   0  0  0  0  0  0  0  0  0  0  0  0
   -2.4608    0.1313   -0.8181 C   0  0  0  0  0  0  0  0  0  0  0  0
   -1.6505   -0.8967   -1.6294 C   0  0  0  0  0  0  0  0  0  0  0  0
   -2.4156   -1.6185   -2.4755 F   0  0  0  0  0  0  0  0  0  0  0  0
   -1.0219   -1.7799   -0.8124 F   0  0  0  0  0  0  0  0  0  0  0  0
   -0.6821   -0.2951   -2.3568 F   0  0  0  0  0  0  0  0  0  0  0  0
    2.2098   -1.3935    1.9021 C   0  0  0  0  0  0  0  0  0  0  0  0
    5.5783    2.7747   -0.3495 H   0  0  0  0  0  0  0  0  0  0  0  0
    5.2393    1.9069   -1.8624 H   0  0  0  0  0  0  0  0  0  0  0  0
    4.1297    3.1532   -1.3034 H   0  0  0  0  0  0  0  0  0  0  0  0
    5.8298    0.5571    0.6091 H   0  0  0  0  0  0  0  0  0  0  0  0
    5.2360   -0.3712   -0.7693 H   0  0  0  0  0  0  0  0  0  0  0  0
    5.3532    0.0290    2.7893 H   0  0  0  0  0  0  0  0  0  0  0  0
    4.5767   -1.4889    3.2832 H   0  0  0  0  0  0  0  0  0  0  0  0
    4.6199   -3.7150    1.3393 H   0  0  0  0  0  0  0  0  0  0  0  0
    1.9992   -3.1469   -0.4870 H   0  0  0  0  0  0  0  0  0  0  0  0
    3.6372   -2.7171   -1.0719 H   0  0  0  0  0  0  0  0  0  0  0  0
    2.8911   -0.5280   -1.3587 H   0  0  0  0  0  0  0  0  0  0  0  0
    1.3339   -0.9645   -0.6809 H   0  0  0  0  0  0  0  0  0  0  0  0
    2.8998    0.8658    2.7133 H   0  0  0  0  0  0  0  0  0  0  0  0
    0.8760    0.7429    0.1949 H   0  0  0  0  0  0  0  0  0  0  0  0
    1.6440    3.2222    1.5657 H   0  0  0  0  0  0  0  0  0  0  0  0
    1.6227    2.8476   -0.1654 H   0  0  0  0  0  0  0  0  0  0  0  0
    4.0154    2.5547    1.5634 H   0  0  0  0  0  0  0  0  0  0  0  0
    0.8259   -0.0587    3.0647 H   0  0  0  0  0  0  0  0  0  0  0  0
   -0.1249   -1.6404    0.7591 H   0  0  0  0  0  0  0  0  0  0  0  0
   -2.6442   -2.7029    1.0809 H   0  0  0  0  0  0  0  0  0  0  0  0
   -3.4157   -2.4651    2.6648 H   0  0  0  0  0  0  0  0  0  0  0  0
   -4.2634   -0.5132    1.9699 H   0  0  0  0  0  0  0  0  0  0  0  0
   -2.6719    0.1937    1.8640 H   0  0  0  0  0  0  0  0  0  0  0  0
   -6.2586    1.5172   -1.3851 H   0  0  0  0  0  0  0  0  0  0  0  0
   -6.6804   -0.0160   -2.1175 H   0  0  0  0  0  0  0  0  0  0  0  0
   -5.6698   -0.3664   -4.1953 H   0  0  0  0  0  0  0  0  0  0  0  0
   -1.8196    1.7067   -3.0626 H   0  0  0  0  0  0  0  0  0  0  0  0
   -2.8317    0.4112   -3.7354 H   0  0  0  0  0  0  0  0  0  0  0  0
   -3.4343    2.0562   -3.6346 H   0  0  0  0  0  0  0  0  0  0  0  0
   -3.9726    2.2481    0.0368 H   0  0  0  0  0  0  0  0  0  0  0  0
   -4.2755    3.0273   -1.5140 H   0  0  0  0  0  0  0  0  0  0  0  0
   -2.6250    2.9180   -0.8947 H   0  0  0  0  0  0  0  0  0  0  0  0
   -1.7686    0.7380   -0.2242 H   0  0  0  0  0  0  0  0  0  0  0  0
    2.5119   -1.4405    2.9596 H   0  0  0  0  0  0  0  0  0  0  0  0
  2  1  1  0  0  0  0
  3  2  1  0  0  0  0
  4  3  1  0  0  0  0
  5  4  1  0  0  0  0
  6  5  1  0  0  0  0
  7  4  1  0  0  0  0
  8  7  1  0  0  0  0
  9  7  1  0  0  0  0
 10  9  1  0  0  0  0
 11 10  1  0  0  0  0
 11  4  1  0  0  0  0
 12 11  1  0  0  0  0
 13 12  1  0  0  0  0
 14 13  1  0  0  0  0
 15 14  1  0  0  0  0
 15 12  1  0  0  0  0
 15  2  1  0  0  0  0
 16 13  1  0  0  0  0
 17 16  1  0  0  0  0
 18 17  1  0  0  0  0
 19 18  2  0  0  0  0
 20 18  2  0  0  0  0
 21 18  1  0  0  0  0
 22 21  1  0  0  0  0
 23 22  1  0  0  0  0
 24 23  1  0  0  0  0
 25 24  2  0  0  0  0
 26 24  1  0  0  0  0
 27 26  1  0  0  0  0
 28 27  1  0  0  0  0
 29 28  2  0  0  0  0
 30 28  1  0  0  0  0
 31 26  1  0  0  0  0
 32 31  1  0  0  0  0
 33 31  1  0  0  0  0
 34 31  1  0  0  0  0
 34 23  1  0  0  0  0
 35 34  1  0  0  0  0
 36 35  1  0  0  0  0
 37 35  1  0  0  0  0
 38 35  1  0  0  0  0
 39 16  1  0  0  0  0
 39  7  1  0  0  0  0
 39 11  1  0  0  0  0
  1 40  1  0  0  0  0
  1 41  1  0  0  0  0
  1 42  1  0  0  0  0
  3 43  1  0  0  0  0
  3 44  1  0  0  0  0
  5 45  1  0  0  0  0
  5 46  1  0  0  0  0
  8 47  1  0  0  0  0
  9 48  1  0  0  0  0
  9 49  1  0  0  0  0
 10 50  1  0  0  0  0
 10 51  1  0  0  0  0
 12 52  1  0  0  0  0
 13 53  1  0  0  0  0
 14 54  1  0  0  0  0
 14 55  1  0  0  0  0
 15 56  1  0  0  0  0
 16 57  1  0  0  0  0
 17 58  1  0  0  0  0
 21 59  1  0  0  0  0
 21 60  1  0  0  0  0
 22 61  1  0  0  0  0
 22 62  1  0  0  0  0
 27 63  1  0  0  0  0
 27 64  1  0  0  0  0
 30 65  1  0  0  0  0
 32 66  1  0  0  0  0
 32 67  1  0  0  0  0
 32 68  1  0  0  0  0
 33 69  1  0  0  0  0
 33 70  1  0  0  0  0
 33 71  1  0  0  0  0
 34 72  1  0  0  0  0
 39 73  1  0  0  0  0
M  END
>  <energy>
156.74047156222932

$$$$
