COC(=O)C(NC(=O)C1CC2CC(NC(=O)C3CC3(Br)Br)C21)c1cc(F)ccn1
                    3D

 49 52  0  0  0  0  0  0  0  0999 V2000
    3.3197   -4.3928    1.1238 C   0  0  0  0  0  0  0  0  0  0  0  0
    2.5424   -3.3304    0.5615 O   0  0  0  0  0  0  0  0  0  0  0  0
    3.1241   -2.6379   -0.4624 C   0  0  0  0  0  0  0  0  0  0  0  0
    4.2114   -2.9311   -0.9503 O   0  0  0  0  0  0  0  0  0  0  0  0
    2.1918   -1.5512   -1.0382 C   0  0  0  0  0  0  0  0  0  0  0  0
    1.0973   -1.0580   -0.1977 N   0  0  0  0  0  0  0  0  0  0  0  0
    1.4245   -0.2796    0.8976 C   0  0  0  0  0  0  0  0  0  0  0  0
    2.4785   -0.4450    1.5124 O   0  0  0  0  0  0  0  0  0  0  0  0
    0.3987    0.8451    1.1768 C   0  0  0  0  0  0  0  0  0  0  0  0
    0.5155    1.6334    2.5067 C   0  0  0  0  0  0  0  0  0  0  0  0
   -0.8315    1.0601    2.9618 C   0  0  0  0  0  0  0  0  0  0  0  0
   -2.0478    1.9596    2.7120 C   0  0  0  0  0  0  0  0  0  0  0  0
   -2.0577    1.5353    1.2268 C   0  0  0  0  0  0  0  0  0  0  0  0
   -3.3488    1.0203    0.7570 N   0  0  0  0  0  0  0  0  0  0  0  0
   -3.4641    0.2352   -0.3648 C   0  0  0  0  0  0  0  0  0  0  0  0
   -2.5315   -0.1038   -1.0796 O   0  0  0  0  0  0  0  0  0  0  0  0
   -4.8386   -0.2447   -0.6034 C   0  0  0  0  0  0  0  0  0  0  0  0
   -5.3749   -0.4591   -1.9989 C   0  0  0  0  0  0  0  0  0  0  0  0
   -5.8999    0.6667   -1.1608 C   0  0  0  0  0  0  0  0  0  0  0  0
   -5.5097    2.4455   -1.7239 Br  0  0  0  0  0  0  0  0  0  0  0  0
   -7.6536    0.5078   -0.4130 Br  0  0  0  0  0  0  0  0  0  0  0  0
   -1.0286    0.4379    1.5806 C   0  0  0  0  0  0  0  0  0  0  0  0
    2.9022   -0.3733   -1.7024 C   0  0  0  0  0  0  0  0  0  0  0  0
    4.0700    0.1810   -1.1890 C   0  0  0  0  0  0  0  0  0  0  0  0
    4.5657    1.3359   -1.7793 C   0  0  0  0  0  0  0  0  0  0  0  0
    5.6813    1.8958   -1.2942 F   0  0  0  0  0  0  0  0  0  0  0  0
    3.9179    1.9312   -2.8465 C   0  0  0  0  0  0  0  0  0  0  0  0
    2.7651    1.3322   -3.2934 C   0  0  0  0  0  0  0  0  0  0  0  0
    2.2387    0.2135   -2.7440 N   0  0  0  0  0  0  0  0  0  0  0  0
    3.1743   -4.3983    2.2068 H   0  0  0  0  0  0  0  0  0  0  0  0
    2.9559   -5.3420    0.7259 H   0  0  0  0  0  0  0  0  0  0  0  0
    4.3913   -4.2980    0.9273 H   0  0  0  0  0  0  0  0  0  0  0  0
    1.6727   -2.0842   -1.8466 H   0  0  0  0  0  0  0  0  0  0  0  0
    0.2893   -0.7421   -0.7286 H   0  0  0  0  0  0  0  0  0  0  0  0
    0.4031    1.5306    0.3130 H   0  0  0  0  0  0  0  0  0  0  0  0
    0.5457    2.7204    2.3815 H   0  0  0  0  0  0  0  0  0  0  0  0
    1.3587    1.3424    3.1394 H   0  0  0  0  0  0  0  0  0  0  0  0
   -0.8425    0.3825    3.8160 H   0  0  0  0  0  0  0  0  0  0  0  0
   -1.8898    3.0285    2.8904 H   0  0  0  0  0  0  0  0  0  0  0  0
   -2.9332    1.6459    3.2785 H   0  0  0  0  0  0  0  0  0  0  0  0
   -1.6874    2.3275    0.5628 H   0  0  0  0  0  0  0  0  0  0  0  0
   -4.2014    1.2924    1.2296 H   0  0  0  0  0  0  0  0  0  0  0  0
   -5.1411   -0.9989    0.1216 H   0  0  0  0  0  0  0  0  0  0  0  0
   -4.7211   -0.2335   -2.8349 H   0  0  0  0  0  0  0  0  0  0  0  0
   -6.0060   -1.3271   -2.1584 H   0  0  0  0  0  0  0  0  0  0  0  0
   -1.3228   -0.6116    1.5583 H   0  0  0  0  0  0  0  0  0  0  0  0
    4.5838   -0.2434   -0.3314 H   0  0  0  0  0  0  0  0  0  0  0  0
    4.3093    2.8333   -3.2987 H   0  0  0  0  0  0  0  0  0  0  0  0
    2.2034    1.7460   -4.1274 H   0  0  0  0  0  0  0  0  0  0  0  0
  2  1  1  0  0  0  0
  3  2  1  0  0  0  0
  4  3  2  0  0  0  0
  5  3  1  0  0  0  0
  6  5  1  0  0  0  0
  7  6  1  0  0  0  0
  8  7  2  0  0  0  0
  9  7  1  0  0  0  0
 10  9  1  0  0  0  0
 11 10  1  0  0  0  0
 12 11  1  0  0  0  0
 13 12  1  0  0  0  0
 14 13  1  0  0  0  0
 15 14  1  0  0  0  0
 16 15  2  0  0  0  0
 17 15  1  0  0  0  0
 18 17  1  0  0  0  0
 19 18  1  0  0  0  0
 19 17  1  0  0  0  0
 20 19  1  0  0  0  0
 21 19  1  0  0  0  0
 22 13  1  0  0  0  0
 22 11  1  0  0  0  0
 22  9  1  0  0  0  0
 23  5  1  0  0  0  0
 24 23  2  0  0  0  0
 25 24  1  0  0  0  0
 26 25  1  0  0  0  0
 27 25  2  0  0  0  0
 28 27  1  0  0  0  0
 29 28  2  0  0  0  0
 29 23  1  0  0  0  0
  1 30  1  0  0  0  0
  1 31  1  0  0  0  0
  1 32  1  0  0  0  0
  5 33  1  0  0  0  0
  6 34  1  0  0  0  0
  9 35  1  0  0  0  0
 10 36  1  0  0  0  0
 10 37  1  0  0  0  0
 11 38  1  0  0  0  0
 12 39  1  0  0  0  0
 12 40  1  0  0  0  0
 13 41  1  0  0  0  0
 14 42  1  0  0  0  0
 17 43  1  0  0  0  0
 18 44  1  0  0  0  0
 18 45  1  0  0  0  0
 22 46  1  0  0  0  0
 24 47  1  0  0  0  0
 27 48  1  0  0  0  0
 28 49  1  0  0  0  0
M  END
>  <energy>
2.0090115841871068

$$$$
