COC(=O)C1NC(=O)C2(NNC3(NC4(C)CC3=NO4)S2)C(=O)N1
                    3D

 37 40  0  0  0  0  0  0  0  0999 V2000
    6.1841   -2.2706   -1.3194 C   0  0  0  0  0  0  0  0  0  0  0  0
    4.9774   -1.4854   -1.1919 O   0  0  0  0  0  0  0  0  0  0  0  0
    4.3078   -1.5523   -0.0010 C   0  0  0  0  0  0  0  0  0  0  0  0
    4.6750   -2.2159    0.9683 O   0  0  0  0  0  0  0  0  0  0  0  0
    2.9165   -0.8484   -0.0858 C   0  0  0  0  0  0  0  0  0  0  0  0
    2.7884    0.1830   -1.0771 N   0  0  0  0  0  0  0  0  0  0  0  0
    1.5138    0.6063   -1.3941 C   0  0  0  0  0  0  0  0  0  0  0  0
    1.2875    0.9790   -2.5420 O   0  0  0  0  0  0  0  0  0  0  0  0
    0.4356    0.4329   -0.2861 C   0  0  0  0  0  0  0  0  0  0  0  0
   -0.3182   -0.8308   -0.5705 N   0  0  0  0  0  0  0  0  0  0  0  0
   -1.7389   -0.5507   -0.8309 N   0  0  0  0  0  0  0  0  0  0  0  0
   -2.1120    0.7077   -0.2061 C   0  0  0  0  0  0  0  0  0  0  0  0
   -2.7044    0.4012    1.1028 N   0  0  0  0  0  0  0  0  0  0  0  0
   -4.1277    0.8710    0.9168 C   0  0  0  0  0  0  0  0  0  0  0  0
   -4.9902    0.8441    2.1534 C   0  0  0  0  0  0  0  0  0  0  0  0
   -3.9691    2.2332    0.2466 C   0  0  0  0  0  0  0  0  0  0  0  0
   -3.3469    1.3775   -0.8231 C   0  0  0  0  0  0  0  0  0  0  0  0
   -4.2490    0.6257   -1.3783 N   0  0  0  0  0  0  0  0  0  0  0  0
   -4.8348    0.1247   -0.1608 O   0  0  0  0  0  0  0  0  0  0  0  0
   -0.7328    1.8114   -0.2472 S   0  0  0  0  0  0  0  0  0  0  0  0
    1.1144    0.2937    1.1097 C   0  0  0  0  0  0  0  0  0  0  0  0
    0.6356    0.6918    2.1758 O   0  0  0  0  0  0  0  0  0  0  0  0
    2.3435   -0.3284    1.1238 N   0  0  0  0  0  0  0  0  0  0  0  0
    7.0472   -1.5972   -1.3372 H   0  0  0  0  0  0  0  0  0  0  0  0
    6.3151   -3.0120   -0.5216 H   0  0  0  0  0  0  0  0  0  0  0  0
    6.1523   -2.7982   -2.2810 H   0  0  0  0  0  0  0  0  0  0  0  0
    2.2517   -1.6527   -0.4137 H   0  0  0  0  0  0  0  0  0  0  0  0
    3.4538    0.2277   -1.8416 H   0  0  0  0  0  0  0  0  0  0  0  0
    0.0948   -1.3177   -1.3668 H   0  0  0  0  0  0  0  0  0  0  0  0
   -1.9759   -0.4967   -1.8218 H   0  0  0  0  0  0  0  0  0  0  0  0
   -2.2275    0.9753    1.7979 H   0  0  0  0  0  0  0  0  0  0  0  0
   -5.2151   -0.1870    2.4424 H   0  0  0  0  0  0  0  0  0  0  0  0
   -4.5321    1.3539    3.0035 H   0  0  0  0  0  0  0  0  0  0  0  0
   -5.9582    1.3197    1.9518 H   0  0  0  0  0  0  0  0  0  0  0  0
   -4.8962    2.7075   -0.0869 H   0  0  0  0  0  0  0  0  0  0  0  0
   -3.2920    2.9268    0.7524 H   0  0  0  0  0  0  0  0  0  0  0  0
    2.7264   -0.5501    2.0397 H   0  0  0  0  0  0  0  0  0  0  0  0
  2  1  1  0  0  0  0
  3  2  1  0  0  0  0
  4  3  2  0  0  0  0
  5  3  1  0  0  0  0
  6  5  1  0  0  0  0
  7  6  1  0  0  0  0
  8  7  2  0  0  0  0
  9  7  1  0  0  0  0
 10  9  1  0  0  0  0
 11 10  1  0  0  0  0
 12 11  1  0  0  0  0
 13 12  1  0  0  0  0
 14 13  1  0  0  0  0
 15 14  1  0  0  0  0
 16 14  1  0  0  0  0
 17 16  1  0  0  0  0
 17 12  1  0  0  0  0
 18 17  2  0  0  0  0
 19 18  1  0  0  0  0
 19 14  1  0  0  0  0
 20 12  1  0  0  0  0
 20  9  1  0  0  0  0
 21  9  1  0  0  0  0
 22 21  2  0  0  0  0
 23 21  1  0  0  0  0
 23  5  1  0  0  0  0
  1 24  1  0  0  0  0
  1 25  1  0  0  0  0
  1 26  1  0  0  0  0
  5 27  1  0  0  0  0
  6 28  1  0  0  0  0
 10 29  1  0  0  0  0
 11 30  1  0  0  0  0
 13 31  1  0  0  0  0
 15 32  1  0  0  0  0
 15 33  1  0  0  0  0
 15 34  1  0  0  0  0
 16 35  1  0  0  0  0
 16 36  1  0  0  0  0
 23 37  1  0  0  0  0
M  END
>  <energy>
187.46191538467065

$$$$
