CN1C2=C(Nc3no[nH]c3=N)C(=O)C(=C3SCCCN3N2)N1C
                    3D

 39 42  0  0  0  0  0  0  0  0999 V2000
    0.6298    3.6276   -0.2999 C   0  0  0  0  0  0  0  0  0  0  0  0
   -0.0747    2.4519    0.2375 N   0  0  0  0  0  0  0  0  0  0  0  0
   -0.5007    1.4726   -0.7094 C   0  0  0  0  0  0  0  0  0  0  0  0
   -1.4023    0.5355   -0.2721 C   0  0  0  0  0  0  0  0  0  0  0  0
   -2.0632   -0.3910   -1.0758 N   0  0  0  0  0  0  0  0  0  0  0  0
   -2.7280   -1.5403   -0.7492 C   0  0  0  0  0  0  0  0  0  0  0  0
   -2.5125   -2.6884   -1.3248 N   0  0  0  0  0  0  0  0  0  0  0  0
   -3.4586   -3.6005   -0.7798 O   0  0  0  0  0  0  0  0  0  0  0  0
   -4.4378   -2.9066   -0.0672 N   0  0  0  0  0  0  0  0  0  0  0  0
   -3.9152   -1.6744    0.1637 C   0  0  0  0  0  0  0  0  0  0  0  0
   -4.3457   -0.7880    0.9929 N   0  0  0  0  0  0  0  0  0  0  0  0
   -0.9214    0.0624    1.1119 C   0  0  0  0  0  0  0  0  0  0  0  0
   -1.6238   -0.5787    1.8851 O   0  0  0  0  0  0  0  0  0  0  0  0
    0.5310    0.4667    1.4556 C   0  0  0  0  0  0  0  0  0  0  0  0
    1.2982   -0.2902    0.6026 C   0  0  0  0  0  0  0  0  0  0  0  0
    1.9870   -1.7300    1.3536 S   0  0  0  0  0  0  0  0  0  0  0  0
    3.3062   -2.1278    0.1818 C   0  0  0  0  0  0  0  0  0  0  0  0
    2.8484   -1.9823   -1.2594 C   0  0  0  0  0  0  0  0  0  0  0  0
    2.5456   -0.5268   -1.5941 C   0  0  0  0  0  0  0  0  0  0  0  0
    1.4326    0.0030   -0.7989 N   0  0  0  0  0  0  0  0  0  0  0  0
    0.5573    0.9192   -1.4908 N   0  0  0  0  0  0  0  0  0  0  0  0
    0.5370    1.8968    1.3994 N   0  0  0  0  0  0  0  0  0  0  0  0
    0.2119    2.5912    2.6532 C   0  0  0  0  0  0  0  0  0  0  0  0
    1.6727    3.3896   -0.5378 H   0  0  0  0  0  0  0  0  0  0  0  0
    0.6099    4.4494    0.4230 H   0  0  0  0  0  0  0  0  0  0  0  0
    0.1346    3.9804   -1.2127 H   0  0  0  0  0  0  0  0  0  0  0  0
   -1.5811   -0.5053   -1.9584 H   0  0  0  0  0  0  0  0  0  0  0  0
   -4.7604   -3.3758    0.7712 H   0  0  0  0  0  0  0  0  0  0  0  0
   -3.7024    0.0109    1.0014 H   0  0  0  0  0  0  0  0  0  0  0  0
    4.1750   -1.4883    0.3767 H   0  0  0  0  0  0  0  0  0  0  0  0
    3.6181   -3.1603    0.3695 H   0  0  0  0  0  0  0  0  0  0  0  0
    1.9714   -2.6143   -1.4516 H   0  0  0  0  0  0  0  0  0  0  0  0
    3.6463   -2.3400   -1.9208 H   0  0  0  0  0  0  0  0  0  0  0  0
    2.3041   -0.4600   -2.6623 H   0  0  0  0  0  0  0  0  0  0  0  0
    3.4302    0.0981   -1.4288 H   0  0  0  0  0  0  0  0  0  0  0  0
    0.1803    0.4922   -2.3360 H   0  0  0  0  0  0  0  0  0  0  0  0
   -0.8592    2.5283    2.8658 H   0  0  0  0  0  0  0  0  0  0  0  0
    0.4945    3.6466    2.5971 H   0  0  0  0  0  0  0  0  0  0  0  0
    0.7649    2.1464    3.4881 H   0  0  0  0  0  0  0  0  0  0  0  0
  2  1  1  0  0  0  0
  3  2  1  0  0  0  0
  4  3  2  0  0  0  0
  5  4  1  0  0  0  0
  6  5  1  0  0  0  0
  7  6  2  0  0  0  0
  8  7  1  0  0  0  0
  9  8  1  0  0  0  0
 10  9  1  0  0  0  0
 10  6  1  0  0  0  0
 11 10  2  0  0  0  0
 12  4  1  0  0  0  0
 13 12  2  0  0  0  0
 14 12  1  0  0  0  0
 15 14  2  0  0  0  0
 16 15  1  0  0  0  0
 17 16  1  0  0  0  0
 18 17  1  0  0  0  0
 19 18  1  0  0  0  0
 20 19  1  0  0  0  0
 20 15  1  0  0  0  0
 21 20  1  0  0  0  0
 21  3  1  0  0  0  0
 22 14  1  0  0  0  0
 22  2  1  0  0  0  0
 23 22  1  0  0  0  0
  1 24  1  0  0  0  0
  1 25  1  0  0  0  0
  1 26  1  0  0  0  0
  5 27  1  0  0  0  0
  9 28  1  0  0  0  0
 11 29  1  0  0  0  0
 17 30  1  0  0  0  0
 17 31  1  0  0  0  0
 18 32  1  0  0  0  0
 18 33  1  0  0  0  0
 19 34  1  0  0  0  0
 19 35  1  0  0  0  0
 21 36  1  0  0  0  0
 23 37  1  0  0  0  0
 23 38  1  0  0  0  0
 23 39  1  0  0  0  0
M  END
>  <energy>
232.05073361271144

$$$$
