[C-]#[N+]C12C=C(CC(NC(=O)NC3CCC3)C1)CN1C3CCCN(C3)CC12
                    3D

 55 59  0  0  0  0  0  0  0  0999 V2000
    3.3508    2.8828   -2.0649 C   0  5  0  0  0  0  0  0  0  0  0  0
    2.6329    2.3103   -1.3384 N   0  3  0  0  0  0  0  0  0  0  0  0
    1.7363    1.6472   -0.4208 C   0  0  0  0  0  0  0  0  0  0  0  0
    2.1738    2.0071    1.0193 C   0  0  0  0  0  0  0  0  0  0  0  0
    1.3560    1.3801    1.8959 C   0  0  0  0  0  0  0  0  0  0  0  0
   -0.0846    1.8465    1.8651 C   0  0  0  0  0  0  0  0  0  0  0  0
   -0.6825    1.6778    0.4562 C   0  0  0  0  0  0  0  0  0  0  0  0
   -2.0242    2.2494    0.3857 N   0  0  0  0  0  0  0  0  0  0  0  0
   -2.9195    1.6534   -0.4789 C   0  0  0  0  0  0  0  0  0  0  0  0
   -2.5936    0.9817   -1.4483 O   0  0  0  0  0  0  0  0  0  0  0  0
   -4.2094    1.7881   -0.0233 N   0  0  0  0  0  0  0  0  0  0  0  0
   -5.3279    0.9639   -0.5198 C   0  0  0  0  0  0  0  0  0  0  0  0
   -6.3119    0.5568    0.6095 C   0  0  0  0  0  0  0  0  0  0  0  0
   -6.3568   -0.8580    0.0081 C   0  0  0  0  0  0  0  0  0  0  0  0
   -5.0243   -0.5473   -0.6909 C   0  0  0  0  0  0  0  0  0  0  0  0
    0.2893    2.1981   -0.6287 C   0  0  0  0  0  0  0  0  0  0  0  0
    1.5082   -0.1418    1.9436 C   0  0  0  0  0  0  0  0  0  0  0  0
    2.2370   -0.6042    0.7524 N   0  0  0  0  0  0  0  0  0  0  0  0
    2.3684   -2.0694    0.6633 C   0  0  0  0  0  0  0  0  0  0  0  0
    3.8284   -2.4254    1.0083 C   0  0  0  0  0  0  0  0  0  0  0  0
    4.7953   -1.8826   -0.0539 C   0  0  0  0  0  0  0  0  0  0  0  0
    4.3315   -2.2117   -1.4832 C   0  0  0  0  0  0  0  0  0  0  0  0
    2.9080   -1.9371   -1.7667 N   0  0  0  0  0  0  0  0  0  0  0  0
    2.0807   -2.6178   -0.7564 C   0  0  0  0  0  0  0  0  0  0  0  0
    2.6240   -0.4743   -1.7466 C   0  0  0  0  0  0  0  0  0  0  0  0
    1.7958    0.0480   -0.5282 C   0  0  0  0  0  0  0  0  0  0  0  0
    3.2505    1.8118    1.1089 H   0  0  0  0  0  0  0  0  0  0  0  0
   -0.1278    2.8929    2.1895 H   0  0  0  0  0  0  0  0  0  0  0  0
   -0.6832    1.2908    2.5961 H   0  0  0  0  0  0  0  0  0  0  0  0
   -0.8213    0.5998    0.2962 H   0  0  0  0  0  0  0  0  0  0  0  0
   -2.4434    2.4761    1.2766 H   0  0  0  0  0  0  0  0  0  0  0  0
   -4.4071    2.6279    0.5016 H   0  0  0  0  0  0  0  0  0  0  0  0
   -5.8314    1.4134   -1.3857 H   0  0  0  0  0  0  0  0  0  0  0  0
   -5.8891    0.5806    1.6230 H   0  0  0  0  0  0  0  0  0  0  0  0
   -7.2700    1.0847    0.6192 H   0  0  0  0  0  0  0  0  0  0  0  0
   -6.3259   -1.6767    0.7346 H   0  0  0  0  0  0  0  0  0  0  0  0
   -7.1930   -1.0281   -0.6789 H   0  0  0  0  0  0  0  0  0  0  0  0
   -4.1550   -0.9143   -0.1320 H   0  0  0  0  0  0  0  0  0  0  0  0
   -4.9557   -0.9012   -1.7240 H   0  0  0  0  0  0  0  0  0  0  0  0
    0.3147    3.2976   -0.6067 H   0  0  0  0  0  0  0  0  0  0  0  0
   -0.0665    1.9316   -1.6323 H   0  0  0  0  0  0  0  0  0  0  0  0
    0.5246   -0.6250    1.9816 H   0  0  0  0  0  0  0  0  0  0  0  0
    2.0402   -0.4165    2.8598 H   0  0  0  0  0  0  0  0  0  0  0  0
    1.6993   -2.5717    1.3721 H   0  0  0  0  0  0  0  0  0  0  0  0
    4.1052   -2.0372    1.9980 H   0  0  0  0  0  0  0  0  0  0  0  0
    3.9263   -3.5187    1.0586 H   0  0  0  0  0  0  0  0  0  0  0  0
    5.7936   -2.3022    0.1129 H   0  0  0  0  0  0  0  0  0  0  0  0
    4.8892   -0.7926    0.0583 H   0  0  0  0  0  0  0  0  0  0  0  0
    4.9662   -1.6859   -2.2061 H   0  0  0  0  0  0  0  0  0  0  0  0
    4.5095   -3.2753   -1.6771 H   0  0  0  0  0  0  0  0  0  0  0  0
    1.0186   -2.5080   -1.0043 H   0  0  0  0  0  0  0  0  0  0  0  0
    2.2765   -3.6968   -0.7870 H   0  0  0  0  0  0  0  0  0  0  0  0
    2.0397   -0.2588   -2.6509 H   0  0  0  0  0  0  0  0  0  0  0  0
    3.5621    0.0815   -1.8461 H   0  0  0  0  0  0  0  0  0  0  0  0
    0.7715   -0.3012   -0.7143 H   0  0  0  0  0  0  0  0  0  0  0  0
  2  1  3  0  0  0  0
  3  2  1  0  0  0  0
  4  3  1  0  0  0  0
  5  4  2  0  0  0  0
  6  5  1  0  0  0  0
  7  6  1  0  0  0  0
  8  7  1  0  0  0  0
  9  8  1  0  0  0  0
 10  9  2  0  0  0  0
 11  9  1  0  0  0  0
 12 11  1  0  0  0  0
 13 12  1  0  0  0  0
 14 13  1  0  0  0  0
 15 14  1  0  0  0  0
 15 12  1  0  0  0  0
 16  7  1  0  0  0  0
 16  3  1  0  0  0  0
 17  5  1  0  0  0  0
 18 17  1  0  0  0  0
 19 18  1  0  0  0  0
 20 19  1  0  0  0  0
 21 20  1  0  0  0  0
 22 21  1  0  0  0  0
 23 22  1  0  0  0  0
 24 23  1  0  0  0  0
 24 19  1  0  0  0  0
 25 23  1  0  0  0  0
 26 25  1  0  0  0  0
 26 18  1  0  0  0  0
 26  3  1  0  0  0  0
  4 27  1  0  0  0  0
  6 28  1  0  0  0  0
  6 29  1  0  0  0  0
  7 30  1  0  0  0  0
  8 31  1  0  0  0  0
 11 32  1  0  0  0  0
 12 33  1  0  0  0  0
 13 34  1  0  0  0  0
 13 35  1  0  0  0  0
 14 36  1  0  0  0  0
 14 37  1  0  0  0  0
 15 38  1  0  0  0  0
 15 39  1  0  0  0  0
 16 40  1  0  0  0  0
 16 41  1  0  0  0  0
 17 42  1  0  0  0  0
 17 43  1  0  0  0  0
 19 44  1  0  0  0  0
 20 45  1  0  0  0  0
 20 46  1  0  0  0  0
 21 47  1  0  0  0  0
 21 48  1  0  0  0  0
 22 49  1  0  0  0  0
 22 50  1  0  0  0  0
 24 51  1  0  0  0  0
 24 52  1  0  0  0  0
 25 53  1  0  0  0  0
 25 54  1  0  0  0  0
 26 55  1  0  0  0  0
M  CHG  2   1  -1   2   1
M  END
>  <energy>
113.86740899211377

$$$$
