O=C(NC(=O)C(=O)N1CCN(C(=O)C2CCCC2)CC1)NC12CCC3(CC1)CC(C3)C2
                    3D

 65 69  0  0  0  0  0  0  0  0999 V2000
    2.0135    4.0852    0.9996 O   0  0  0  0  0  0  0  0  0  0  0  0
    1.3068    3.6501    0.1008 C   0  0  0  0  0  0  0  0  0  0  0  0
    0.3341    4.3985   -0.4967 N   0  0  0  0  0  0  0  0  0  0  0  0
   -0.9413    4.0353   -0.1112 C   0  0  0  0  0  0  0  0  0  0  0  0
   -1.5514    4.4632    0.8475 O   0  0  0  0  0  0  0  0  0  0  0  0
   -1.5562    3.0292   -1.1093 C   0  0  0  0  0  0  0  0  0  0  0  0
   -1.0451    3.0299   -2.2326 O   0  0  0  0  0  0  0  0  0  0  0  0
   -2.5320    2.1124   -0.7024 N   0  0  0  0  0  0  0  0  0  0  0  0
   -2.7739    1.0065   -1.6430 C   0  0  0  0  0  0  0  0  0  0  0  0
   -4.0409    0.2149   -1.3319 C   0  0  0  0  0  0  0  0  0  0  0  0
   -4.0592   -0.1703    0.0738 N   0  0  0  0  0  0  0  0  0  0  0  0
   -3.6924   -1.3984    0.5981 C   0  0  0  0  0  0  0  0  0  0  0  0
   -3.8944   -1.6757    1.7819 O   0  0  0  0  0  0  0  0  0  0  0  0
   -2.9097   -2.3615   -0.2918 C   0  0  0  0  0  0  0  0  0  0  0  0
   -1.4935   -2.5369    0.2943 C   0  0  0  0  0  0  0  0  0  0  0  0
   -1.2148   -4.0362    0.3271 C   0  0  0  0  0  0  0  0  0  0  0  0
   -2.2783   -4.6599   -0.5632 C   0  0  0  0  0  0  0  0  0  0  0  0
   -3.4960   -3.7719   -0.3423 C   0  0  0  0  0  0  0  0  0  0  0  0
   -4.0655    0.9851    0.9682 C   0  0  0  0  0  0  0  0  0  0  0  0
   -2.8019    1.8388    0.7296 C   0  0  0  0  0  0  0  0  0  0  0  0
    1.3441    2.3531   -0.3708 N   0  0  0  0  0  0  0  0  0  0  0  0
    2.3129    1.3094    0.0510 C   0  0  0  0  0  0  0  0  0  0  0  0
    1.6557   -0.0595   -0.2906 C   0  0  0  0  0  0  0  0  0  0  0  0
    2.3680   -1.2628    0.3548 C   0  0  0  0  0  0  0  0  0  0  0  0
    3.7609   -0.8240    0.9214 C   0  0  0  0  0  0  0  0  0  0  0  0
    3.2229    0.0508    2.1070 C   0  0  0  0  0  0  0  0  0  0  0  0
    2.5690    1.3363    1.5778 C   0  0  0  0  0  0  0  0  0  0  0  0
    5.1390    0.1332    0.8674 C   0  0  0  0  0  0  0  0  0  0  0  0
    4.7519    0.5058   -0.5548 C   0  0  0  0  0  0  0  0  0  0  0  0
    4.3764   -0.9636   -0.6415 C   0  0  0  0  0  0  0  0  0  0  0  0
    3.6266    1.5329   -0.7604 C   0  0  0  0  0  0  0  0  0  0  0  0
    0.4097    4.2145   -1.4896 H   0  0  0  0  0  0  0  0  0  0  0  0
   -1.8975    0.3521   -1.5748 H   0  0  0  0  0  0  0  0  0  0  0  0
   -2.8293    1.3954   -2.6677 H   0  0  0  0  0  0  0  0  0  0  0  0
   -4.9225    0.8442   -1.5063 H   0  0  0  0  0  0  0  0  0  0  0  0
   -4.1433   -0.6520   -1.9875 H   0  0  0  0  0  0  0  0  0  0  0  0
   -2.7998   -1.9918   -1.3121 H   0  0  0  0  0  0  0  0  0  0  0  0
   -0.7631   -2.0251   -0.3415 H   0  0  0  0  0  0  0  0  0  0  0  0
   -1.3828   -2.1123    1.2993 H   0  0  0  0  0  0  0  0  0  0  0  0
   -0.2010   -4.2685   -0.0146 H   0  0  0  0  0  0  0  0  0  0  0  0
   -1.3128   -4.4155    1.3525 H   0  0  0  0  0  0  0  0  0  0  0  0
   -2.4685   -5.7075   -0.3053 H   0  0  0  0  0  0  0  0  0  0  0  0
   -1.9605   -4.6233   -1.6135 H   0  0  0  0  0  0  0  0  0  0  0  0
   -4.2215   -3.8846   -1.1545 H   0  0  0  0  0  0  0  0  0  0  0  0
   -4.0042   -4.0427    0.5900 H   0  0  0  0  0  0  0  0  0  0  0  0
   -4.9595    1.5791    0.7467 H   0  0  0  0  0  0  0  0  0  0  0  0
   -4.1186    0.6837    2.0181 H   0  0  0  0  0  0  0  0  0  0  0  0
   -1.9167    1.3191    1.1159 H   0  0  0  0  0  0  0  0  0  0  0  0
   -2.9172    2.7722    1.2843 H   0  0  0  0  0  0  0  0  0  0  0  0
    0.9829    2.2183   -1.3082 H   0  0  0  0  0  0  0  0  0  0  0  0
    0.6090   -0.0615    0.0495 H   0  0  0  0  0  0  0  0  0  0  0  0
    1.6054   -0.1919   -1.3799 H   0  0  0  0  0  0  0  0  0  0  0  0
    1.7363   -1.6586    1.1636 H   0  0  0  0  0  0  0  0  0  0  0  0
    2.4062   -2.1213   -0.3303 H   0  0  0  0  0  0  0  0  0  0  0  0
    3.9777    0.2781    2.8753 H   0  0  0  0  0  0  0  0  0  0  0  0
    2.4805   -0.5109    2.6904 H   0  0  0  0  0  0  0  0  0  0  0  0
    3.2112    2.1841    1.8449 H   0  0  0  0  0  0  0  0  0  0  0  0
    1.6239    1.4946    2.1184 H   0  0  0  0  0  0  0  0  0  0  0  0
    5.2787    1.0206    1.4954 H   0  0  0  0  0  0  0  0  0  0  0  0
    6.0747   -0.4401    0.9721 H   0  0  0  0  0  0  0  0  0  0  0  0
    5.6109    0.7682   -1.1858 H   0  0  0  0  0  0  0  0  0  0  0  0
    3.7548   -1.1699   -1.5224 H   0  0  0  0  0  0  0  0  0  0  0  0
    5.2177   -1.6726   -0.7178 H   0  0  0  0  0  0  0  0  0  0  0  0
    3.3778    1.5479   -1.8302 H   0  0  0  0  0  0  0  0  0  0  0  0
    4.0258    2.5281   -0.5323 H   0  0  0  0  0  0  0  0  0  0  0  0
  2  1  2  0  0  0  0
  3  2  1  0  0  0  0
  4  3  1  0  0  0  0
  5  4  2  0  0  0  0
  6  4  1  0  0  0  0
  7  6  2  0  0  0  0
  8  6  1  0  0  0  0
  9  8  1  0  0  0  0
 10  9  1  0  0  0  0
 11 10  1  0  0  0  0
 12 11  1  0  0  0  0
 13 12  2  0  0  0  0
 14 12  1  0  0  0  0
 15 14  1  0  0  0  0
 16 15  1  0  0  0  0
 17 16  1  0  0  0  0
 18 17  1  0  0  0  0
 18 14  1  0  0  0  0
 19 11  1  0  0  0  0
 20 19  1  0  0  0  0
 20  8  1  0  0  0  0
 21  2  1  0  0  0  0
 22 21  1  0  0  0  0
 23 22  1  0  0  0  0
 24 23  1  0  0  0  0
 25 24  1  0  0  0  0
 26 25  1  0  0  0  0
 27 26  1  0  0  0  0
 27 22  1  0  0  0  0
 28 25  1  0  0  0  0
 29 28  1  0  0  0  0
 30 29  1  0  0  0  0
 30 25  1  0  0  0  0
 31 29  1  0  0  0  0
 31 22  1  0  0  0  0
  3 32  1  0  0  0  0
  9 33  1  0  0  0  0
  9 34  1  0  0  0  0
 10 35  1  0  0  0  0
 10 36  1  0  0  0  0
 14 37  1  0  0  0  0
 15 38  1  0  0  0  0
 15 39  1  0  0  0  0
 16 40  1  0  0  0  0
 16 41  1  0  0  0  0
 17 42  1  0  0  0  0
 17 43  1  0  0  0  0
 18 44  1  0  0  0  0
 18 45  1  0  0  0  0
 19 46  1  0  0  0  0
 19 47  1  0  0  0  0
 20 48  1  0  0  0  0
 20 49  1  0  0  0  0
 21 50  1  0  0  0  0
 23 51  1  0  0  0  0
 23 52  1  0  0  0  0
 24 53  1  0  0  0  0
 24 54  1  0  0  0  0
 26 55  1  0  0  0  0
 26 56  1  0  0  0  0
 27 57  1  0  0  0  0
 27 58  1  0  0  0  0
 28 59  1  0  0  0  0
 28 60  1  0  0  0  0
 29 61  1  0  0  0  0
 30 62  1  0  0  0  0
 30 63  1  0  0  0  0
 31 64  1  0  0  0  0
 31 65  1  0  0  0  0
M  END
>  <energy>
113.73681014194906

$$$$
