COC1SC(O)C=C2C(C)(C)C=CC13OC(C)(C)OC2(C)OC3O
                    3D

 50 52  0  0  0  0  0  0  0  0999 V2000
    4.2816   -1.3103    0.2255 C   0  0  0  0  0  0  0  0  0  0  0  0
    3.2276   -1.3160   -0.7754 O   0  0  0  0  0  0  0  0  0  0  0  0
    2.3727   -0.0225   -0.7026 C   0  0  0  0  0  0  0  0  0  0  0  0
    1.4760    0.3902   -2.5122 S   0  0  0  0  0  0  0  0  0  0  0  0
   -0.3805   -0.2430   -2.8467 C   0  0  0  0  0  0  0  0  0  0  0  0
   -0.2018   -1.5555   -3.3377 O   0  0  0  0  0  0  0  0  0  0  0  0
   -1.7687   -0.0471   -1.8829 C   0  0  0  0  0  0  0  0  0  0  0  0
   -1.8981    0.2859   -0.5056 C   0  0  0  0  0  0  0  0  0  0  0  0
   -2.0483    0.6748    1.1029 C   0  0  0  0  0  0  0  0  0  0  0  0
   -3.1193   -0.3361    1.5523 C   0  0  0  0  0  0  0  0  0  0  0  0
   -2.6295    2.0949    1.3641 C   0  0  0  0  0  0  0  0  0  0  0  0
   -0.7492    0.5009    2.1836 C   0  0  0  0  0  0  0  0  0  0  0  0
    0.6622    0.4238    2.1055 C   0  0  0  0  0  0  0  0  0  0  0  0
    1.8256    0.2491    0.9241 C   0  0  0  0  0  0  0  0  0  0  0  0
    1.5191   -1.1859    1.0118 O   0  0  0  0  0  0  0  0  0  0  0  0
    0.3745   -1.5039    0.2419 C   0  0  0  0  0  0  0  0  0  0  0  0
   -0.4557   -2.3561    1.2103 C   0  0  0  0  0  0  0  0  0  0  0  0
    0.6270   -2.5287   -0.8531 C   0  0  0  0  0  0  0  0  0  0  0  0
   -0.3021   -0.4488   -0.3696 O   0  0  0  0  0  0  0  0  0  0  0  0
   -0.5126    0.9630   -0.5764 C   0  0  0  0  0  0  0  0  0  0  0  0
   -1.2099    2.2089   -1.5201 C   0  0  0  0  0  0  0  0  0  0  0  0
    0.0010    1.8845    0.3861 O   0  0  0  0  0  0  0  0  0  0  0  0
    1.3668    1.7672    0.5523 C   0  0  0  0  0  0  0  0  0  0  0  0
    2.0937    2.5487   -0.4135 O   0  0  0  0  0  0  0  0  0  0  0  0
    5.1771   -0.7951   -0.1622 H   0  0  0  0  0  0  0  0  0  0  0  0
    4.6062   -2.3333    0.4895 H   0  0  0  0  0  0  0  0  0  0  0  0
    3.9952   -0.8309    1.1798 H   0  0  0  0  0  0  0  0  0  0  0  0
    3.2345    0.6401   -0.8799 H   0  0  0  0  0  0  0  0  0  0  0  0
   -0.5834    0.3703   -3.7379 H   0  0  0  0  0  0  0  0  0  0  0  0
    0.7735   -1.5540   -3.5565 H   0  0  0  0  0  0  0  0  0  0  0  0
   -2.6411   -0.2358   -2.4848 H   0  0  0  0  0  0  0  0  0  0  0  0
   -3.1189   -0.4953    2.6301 H   0  0  0  0  0  0  0  0  0  0  0  0
   -4.1183   -0.0160    1.2621 H   0  0  0  0  0  0  0  0  0  0  0  0
   -2.9673   -1.3076    1.0880 H   0  0  0  0  0  0  0  0  0  0  0  0
   -3.0993    2.1647    2.3460 H   0  0  0  0  0  0  0  0  0  0  0  0
   -3.3780    2.3623    0.6211 H   0  0  0  0  0  0  0  0  0  0  0  0
   -1.8839    2.8909    1.3584 H   0  0  0  0  0  0  0  0  0  0  0  0
   -1.1032    0.4299    3.1954 H   0  0  0  0  0  0  0  0  0  0  0  0
    1.1767    0.2786    3.0458 H   0  0  0  0  0  0  0  0  0  0  0  0
   -1.3015   -2.8681    0.7600 H   0  0  0  0  0  0  0  0  0  0  0  0
    0.1790   -3.1181    1.6943 H   0  0  0  0  0  0  0  0  0  0  0  0
   -0.8905   -1.8404    2.0632 H   0  0  0  0  0  0  0  0  0  0  0  0
   -0.2792   -2.7417   -1.4209 H   0  0  0  0  0  0  0  0  0  0  0  0
    0.9648   -3.4991   -0.4808 H   0  0  0  0  0  0  0  0  0  0  0  0
    1.3606   -2.2767   -1.6196 H   0  0  0  0  0  0  0  0  0  0  0  0
   -1.1469    3.1838   -1.0196 H   0  0  0  0  0  0  0  0  0  0  0  0
   -2.3143    2.1836   -1.7028 H   0  0  0  0  0  0  0  0  0  0  0  0
   -0.7761    2.3445   -2.5110 H   0  0  0  0  0  0  0  0  0  0  0  0
    1.6029    2.4221    1.4310 H   0  0  0  0  0  0  0  0  0  0  0  0
    1.9788    3.5034   -0.1532 H   0  0  0  0  0  0  0  0  0  0  0  0
  2  1  1  0  0  0  0
  3  2  1  0  0  0  0
  4  3  1  0  0  0  0
  5  4  1  0  0  0  0
  6  5  1  0  0  0  0
  7  5  1  0  0  0  0
  8  7  2  0  0  0  0
  9  8  1  0  0  0  0
 10  9  1  0  0  0  0
 11  9  1  0  0  0  0
 12  9  1  0  0  0  0
 13 12  2  0  0  0  0
 14 13  1  0  0  0  0
 14  3  1  0  0  0  0
 15 14  1  0  0  0  0
 16 15  1  0  0  0  0
 17 16  1  0  0  0  0
 18 16  1  0  0  0  0
 19 16  1  0  0  0  0
 20 19  1  0  0  0  0
 20  8  1  0  0  0  0
 21 20  1  0  0  0  0
 22 20  1  0  0  0  0
 23 22  1  0  0  0  0
 23 14  1  0  0  0  0
 24 23  1  0  0  0  0
  1 25  1  0  0  0  0
  1 26  1  0  0  0  0
  1 27  1  0  0  0  0
  3 28  1  0  0  0  0
  5 29  1  0  0  0  0
  6 30  1  0  0  0  0
  7 31  1  0  0  0  0
 10 32  1  0  0  0  0
 10 33  1  0  0  0  0
 10 34  1  0  0  0  0
 11 35  1  0  0  0  0
 11 36  1  0  0  0  0
 11 37  1  0  0  0  0
 12 38  1  0  0  0  0
 13 39  1  0  0  0  0
 17 40  1  0  0  0  0
 17 41  1  0  0  0  0
 17 42  1  0  0  0  0
 18 43  1  0  0  0  0
 18 44  1  0  0  0  0
 18 45  1  0  0  0  0
 21 46  1  0  0  0  0
 21 47  1  0  0  0  0
 21 48  1  0  0  0  0
 23 49  1  0  0  0  0
 24 50  1  0  0  0  0
M  END
>  <energy>
595.08597484776101

$$$$
