CNCCC12CCC13CCCCC3C1CC3CC(CC(C3)C2)C1
                    3D

 60 64  0  0  0  0  0  0  0  0999 V2000
    3.9495   -2.0877    1.2005 C   0  0  0  0  0  0  0  0  0  0  0  0
    3.0884   -3.1543    0.7046 N   0  0  0  0  0  0  0  0  0  0  0  0
    1.6786   -2.7485    0.5884 C   0  0  0  0  0  0  0  0  0  0  0  0
    1.4400   -1.7383   -0.5431 C   0  0  0  0  0  0  0  0  0  0  0  0
   -0.0261   -1.3008   -0.8960 C   0  0  0  0  0  0  0  0  0  0  0  0
   -0.8613   -2.6215   -1.0444 C   0  0  0  0  0  0  0  0  0  0  0  0
   -1.3896   -2.3911    0.3885 C   0  0  0  0  0  0  0  0  0  0  0  0
   -1.1828   -0.8432    0.1633 C   0  0  0  0  0  0  0  0  0  0  0  0
   -2.5661   -0.3439   -0.3476 C   0  0  0  0  0  0  0  0  0  0  0  0
   -3.6235   -0.2865    0.7608 C   0  0  0  0  0  0  0  0  0  0  0  0
   -3.1544    0.4178    2.0260 C   0  0  0  0  0  0  0  0  0  0  0  0
   -1.7893   -0.0773    2.4809 C   0  0  0  0  0  0  0  0  0  0  0  0
   -0.6932   -0.0365    1.3868 C   0  0  0  0  0  0  0  0  0  0  0  0
   -0.1409    1.4175    1.1429 C   0  0  0  0  0  0  0  0  0  0  0  0
   -0.9829    2.4595    0.3857 C   0  0  0  0  0  0  0  0  0  0  0  0
   -0.4188    3.0018   -0.9293 C   0  0  0  0  0  0  0  0  0  0  0  0
    1.0294    3.4178   -0.7269 C   0  0  0  0  0  0  0  0  0  0  0  0
    1.8506    2.1661   -0.4539 C   0  0  0  0  0  0  0  0  0  0  0  0
    1.8559    1.2921   -1.7154 C   0  0  0  0  0  0  0  0  0  0  0  0
    0.4879    0.9445   -2.3118 C   0  0  0  0  0  0  0  0  0  0  0  0
   -0.5617    2.0626   -2.1365 C   0  0  0  0  0  0  0  0  0  0  0  0
   -0.0344   -0.5159   -2.2362 C   0  0  0  0  0  0  0  0  0  0  0  0
    1.3804    1.5019    0.8496 C   0  0  0  0  0  0  0  0  0  0  0  0
    3.5834   -1.6754    2.1462 H   0  0  0  0  0  0  0  0  0  0  0  0
    4.0580   -1.2810    0.4706 H   0  0  0  0  0  0  0  0  0  0  0  0
    4.9517   -2.4905    1.3792 H   0  0  0  0  0  0  0  0  0  0  0  0
    3.1434   -3.9400    1.3534 H   0  0  0  0  0  0  0  0  0  0  0  0
    1.1244   -3.6703    0.3934 H   0  0  0  0  0  0  0  0  0  0  0  0
    1.3342   -2.3645    1.5527 H   0  0  0  0  0  0  0  0  0  0  0  0
    2.0180   -0.8630   -0.2935 H   0  0  0  0  0  0  0  0  0  0  0  0
    1.8968   -2.1537   -1.4528 H   0  0  0  0  0  0  0  0  0  0  0  0
   -1.6472   -2.5930   -1.8102 H   0  0  0  0  0  0  0  0  0  0  0  0
   -0.3201   -3.5568   -1.2131 H   0  0  0  0  0  0  0  0  0  0  0  0
   -0.7932   -2.8226    1.1960 H   0  0  0  0  0  0  0  0  0  0  0  0
   -2.4047   -2.7694    0.5418 H   0  0  0  0  0  0  0  0  0  0  0  0
   -2.9595   -0.9880   -1.1434 H   0  0  0  0  0  0  0  0  0  0  0  0
   -2.4908    0.6288   -0.8137 H   0  0  0  0  0  0  0  0  0  0  0  0
   -3.9391   -1.3021    1.0259 H   0  0  0  0  0  0  0  0  0  0  0  0
   -4.5216    0.2133    0.3779 H   0  0  0  0  0  0  0  0  0  0  0  0
   -3.8858    0.2416    2.8243 H   0  0  0  0  0  0  0  0  0  0  0  0
   -3.1404    1.5013    1.8802 H   0  0  0  0  0  0  0  0  0  0  0  0
   -1.4709    0.4915    3.3632 H   0  0  0  0  0  0  0  0  0  0  0  0
   -1.9021   -1.1142    2.8252 H   0  0  0  0  0  0  0  0  0  0  0  0
    0.1420   -0.5839    1.8374 H   0  0  0  0  0  0  0  0  0  0  0  0
   -0.1727    1.8108    2.1742 H   0  0  0  0  0  0  0  0  0  0  0  0
   -2.0219    2.1760    0.2527 H   0  0  0  0  0  0  0  0  0  0  0  0
   -1.0559    3.3323    1.0547 H   0  0  0  0  0  0  0  0  0  0  0  0
   -0.9978    3.9059   -1.1656 H   0  0  0  0  0  0  0  0  0  0  0  0
    1.1153    4.1229    0.1092 H   0  0  0  0  0  0  0  0  0  0  0  0
    1.4044    3.9409   -1.6152 H   0  0  0  0  0  0  0  0  0  0  0  0
    2.8924    2.4768   -0.2911 H   0  0  0  0  0  0  0  0  0  0  0  0
    2.3729    1.8943   -2.4804 H   0  0  0  0  0  0  0  0  0  0  0  0
    2.5124    0.4274   -1.6238 H   0  0  0  0  0  0  0  0  0  0  0  0
    0.6843    0.9992   -3.3985 H   0  0  0  0  0  0  0  0  0  0  0  0
   -1.5815    1.6863   -2.2352 H   0  0  0  0  0  0  0  0  0  0  0  0
   -0.4505    2.7155   -3.0176 H   0  0  0  0  0  0  0  0  0  0  0  0
   -1.0474   -0.5241   -2.6598 H   0  0  0  0  0  0  0  0  0  0  0  0
    0.5554   -1.1018   -2.9578 H   0  0  0  0  0  0  0  0  0  0  0  0
    1.7933    2.1404    1.6482 H   0  0  0  0  0  0  0  0  0  0  0  0
    1.8848    0.5529    1.0277 H   0  0  0  0  0  0  0  0  0  0  0  0
  2  1  1  0  0  0  0
  3  2  1  0  0  0  0
  4  3  1  0  0  0  0
  5  4  1  0  0  0  0
  6  5  1  0  0  0  0
  7  6  1  0  0  0  0
  8  7  1  0  0  0  0
  8  5  1  0  0  0  0
  9  8  1  0  0  0  0
 10  9  1  0  0  0  0
 11 10  1  0  0  0  0
 12 11  1  0  0  0  0
 13 12  1  0  0  0  0
 13  8  1  0  0  0  0
 14 13  1  0  0  0  0
 15 14  1  0  0  0  0
 16 15  1  0  0  0  0
 17 16  1  0  0  0  0
 18 17  1  0  0  0  0
 19 18  1  0  0  0  0
 20 19  1  0  0  0  0
 21 20  1  0  0  0  0
 21 16  1  0  0  0  0
 22 20  1  0  0  0  0
 22  5  1  0  0  0  0
 23 18  1  0  0  0  0
 23 14  1  0  0  0  0
  1 24  1  0  0  0  0
  1 25  1  0  0  0  0
  1 26  1  0  0  0  0
  2 27  1  0  0  0  0
  3 28  1  0  0  0  0
  3 29  1  0  0  0  0
  4 30  1  0  0  0  0
  4 31  1  0  0  0  0
  6 32  1  0  0  0  0
  6 33  1  0  0  0  0
  7 34  1  0  0  0  0
  7 35  1  0  0  0  0
  9 36  1  0  0  0  0
  9 37  1  0  0  0  0
 10 38  1  0  0  0  0
 10 39  1  0  0  0  0
 11 40  1  0  0  0  0
 11 41  1  0  0  0  0
 12 42  1  0  0  0  0
 12 43  1  0  0  0  0
 13 44  1  0  0  0  0
 14 45  1  0  0  0  0
 15 46  1  0  0  0  0
 15 47  1  0  0  0  0
 16 48  1  0  0  0  0
 17 49  1  0  0  0  0
 17 50  1  0  0  0  0
 18 51  1  0  0  0  0
 19 52  1  0  0  0  0
 19 53  1  0  0  0  0
 20 54  1  0  0  0  0
 21 55  1  0  0  0  0
 21 56  1  0  0  0  0
 22 57  1  0  0  0  0
 22 58  1  0  0  0  0
 23 59  1  0  0  0  0
 23 60  1  0  0  0  0
M  END
>  <energy>
111.56452547516695

$$$$
