COC(=S)N=c1ccc2c3c4cc5cc6cc(c6[nH]1)c5c4n2C1Cc2[nH]c(C(C)C)cc2C1C=C3
                    3D

 59 66  0  0  0  0  0  0  0  0999 V2000
   -5.1129   -2.5578   -0.0795 C   0  0  0  0  0  0  0  0  0  0  0  0
   -4.8527   -2.2449    1.2968 O   0  0  0  0  0  0  0  0  0  0  0  0
   -4.5143   -0.9690    1.6434 C   0  0  0  0  0  0  0  0  0  0  0  0
   -4.5025   -0.6974    3.2997 S   0  0  0  0  0  0  0  0  0  0  0  0
   -4.3237   -0.1124    0.5893 N   0  0  0  0  0  0  0  0  0  0  0  0
   -3.3737    0.8047    0.5675 C   0  0  0  0  0  0  0  0  0  0  0  0
   -3.5435    1.7686   -0.7332 C   0  0  0  0  0  0  0  0  0  0  0  0
   -2.7156    2.3291   -1.6808 C   0  0  0  0  0  0  0  0  0  0  0  0
   -1.2340    2.1722   -1.8601 C   0  0  0  0  0  0  0  0  0  0  0  0
   -0.1602    3.0676   -2.1387 C   0  0  0  0  0  0  0  0  0  0  0  0
    0.3993    3.4074   -0.7399 C   0  0  0  0  0  0  0  0  0  0  0  0
    1.2277    3.9302    0.2418 C   0  0  0  0  0  0  0  0  0  0  0  0
    0.3726    3.7194    1.4644 C   0  0  0  0  0  0  0  0  0  0  0  0
    0.4265    3.1322    2.7037 C   0  0  0  0  0  0  0  0  0  0  0  0
   -1.0800    2.4481    3.2102 C   0  0  0  0  0  0  0  0  0  0  0  0
   -2.0797    3.5545    3.1995 C   0  0  0  0  0  0  0  0  0  0  0  0
   -2.1198    3.2625    1.8748 C   0  0  0  0  0  0  0  0  0  0  0  0
   -2.0201    1.8943    2.3229 C   0  0  0  0  0  0  0  0  0  0  0  0
   -2.3727    0.8427    1.5889 N   0  0  0  0  0  0  0  0  0  0  0  0
   -0.9638    3.4806    0.9526 C   0  0  0  0  0  0  0  0  0  0  0  0
   -0.5168    2.6226    0.0591 C   0  0  0  0  0  0  0  0  0  0  0  0
   -0.8715    1.5276   -0.6789 N   0  0  0  0  0  0  0  0  0  0  0  0
    0.0185    0.3873   -0.9775 C   0  0  0  0  0  0  0  0  0  0  0  0
    0.1256   -0.7234    0.0966 C   0  0  0  0  0  0  0  0  0  0  0  0
    1.3208   -1.3967   -0.4544 C   0  0  0  0  0  0  0  0  0  0  0  0
    1.8782   -2.6007   -0.2482 N   0  0  0  0  0  0  0  0  0  0  0  0
    3.1734   -2.5090   -0.7250 C   0  0  0  0  0  0  0  0  0  0  0  0
    4.2344   -3.4574   -0.2652 C   0  0  0  0  0  0  0  0  0  0  0  0
    4.0471   -4.8496   -0.8625 C   0  0  0  0  0  0  0  0  0  0  0  0
    4.2548   -3.4849    1.2716 C   0  0  0  0  0  0  0  0  0  0  0  0
    3.2809   -1.3572   -1.5159 C   0  0  0  0  0  0  0  0  0  0  0  0
    2.0983   -0.6426   -1.2986 C   0  0  0  0  0  0  0  0  0  0  0  0
    1.5014    0.7179   -1.4756 C   0  0  0  0  0  0  0  0  0  0  0  0
    1.5450    1.4006   -2.8341 C   0  0  0  0  0  0  0  0  0  0  0  0
    0.7916    2.4910   -3.1225 C   0  0  0  0  0  0  0  0  0  0  0  0
   -5.4690   -3.5945   -0.1246 H   0  0  0  0  0  0  0  0  0  0  0  0
   -5.9036   -1.9145   -0.4707 H   0  0  0  0  0  0  0  0  0  0  0  0
   -4.2112   -2.4776   -0.6935 H   0  0  0  0  0  0  0  0  0  0  0  0
   -4.6135    1.9253   -0.9365 H   0  0  0  0  0  0  0  0  0  0  0  0
   -3.2076    2.8761   -2.4788 H   0  0  0  0  0  0  0  0  0  0  0  0
    2.1814    4.4570    0.2952 H   0  0  0  0  0  0  0  0  0  0  0  0
    1.2849    2.8265    3.2732 H   0  0  0  0  0  0  0  0  0  0  0  0
   -1.9800    4.5001    3.7364 H   0  0  0  0  0  0  0  0  0  0  0  0
   -2.2811   -0.0532    2.0618 H   0  0  0  0  0  0  0  0  0  0  0  0
   -0.4714   -0.1386   -1.8162 H   0  0  0  0  0  0  0  0  0  0  0  0
   -0.7712   -1.3509    0.1109 H   0  0  0  0  0  0  0  0  0  0  0  0
    0.3337   -0.3182    1.0934 H   0  0  0  0  0  0  0  0  0  0  0  0
    1.5205   -3.3309    0.3632 H   0  0  0  0  0  0  0  0  0  0  0  0
    5.2032   -3.0765   -0.5999 H   0  0  0  0  0  0  0  0  0  0  0  0
    4.1546   -4.8195   -1.9559 H   0  0  0  0  0  0  0  0  0  0  0  0
    4.7932   -5.5408   -0.4627 H   0  0  0  0  0  0  0  0  0  0  0  0
    3.0535   -5.2488   -0.6421 H   0  0  0  0  0  0  0  0  0  0  0  0
    4.3249   -2.4664    1.6794 H   0  0  0  0  0  0  0  0  0  0  0  0
    5.1049   -4.0568    1.6449 H   0  0  0  0  0  0  0  0  0  0  0  0
    3.3406   -3.9307    1.6777 H   0  0  0  0  0  0  0  0  0  0  0  0
    4.1772   -1.0243   -2.0216 H   0  0  0  0  0  0  0  0  0  0  0  0
    2.0383    1.3522   -0.7594 H   0  0  0  0  0  0  0  0  0  0  0  0
    2.2317    1.0474   -3.5883 H   0  0  0  0  0  0  0  0  0  0  0  0
    0.8277    2.9992   -4.0781 H   0  0  0  0  0  0  0  0  0  0  0  0
  2  1  1  0  0  0  0
  3  2  1  0  0  0  0
  4  3  2  0  0  0  0
  5  3  1  0  0  0  0
  6  5  2  0  0  0  0
  7  6  1  0  0  0  0
  8  7  2  0  0  0  0
  9  8  1  0  0  0  0
 10  9  2  0  0  0  0
 11 10  1  0  0  0  0
 12 11  2  0  0  0  0
 13 12  1  0  0  0  0
 14 13  2  0  0  0  0
 15 14  1  0  0  0  0
 16 15  1  0  0  0  0
 17 16  2  0  0  0  0
 18 17  1  0  0  0  0
 18 15  2  0  0  0  0
 19 18  1  0  0  0  0
 19  6  1  0  0  0  0
 20 17  1  0  0  0  0
 20 13  1  0  0  0  0
 21 20  2  0  0  0  0
 21 11  1  0  0  0  0
 22 21  1  0  0  0  0
 22  9  1  0  0  0  0
 23 22  1  0  0  0  0
 24 23  1  0  0  0  0
 25 24  1  0  0  0  0
 26 25  1  0  0  0  0
 27 26  1  0  0  0  0
 28 27  1  0  0  0  0
 29 28  1  0  0  0  0
 30 28  1  0  0  0  0
 31 27  2  0  0  0  0
 32 31  1  0  0  0  0
 32 25  2  0  0  0  0
 33 32  1  0  0  0  0
 33 23  1  0  0  0  0
 34 33  1  0  0  0  0
 35 34  2  0  0  0  0
 35 10  1  0  0  0  0
  1 36  1  0  0  0  0
  1 37  1  0  0  0  0
  1 38  1  0  0  0  0
  7 39  1  0  0  0  0
  8 40  1  0  0  0  0
 12 41  1  0  0  0  0
 14 42  1  0  0  0  0
 16 43  1  0  0  0  0
 19 44  1  0  0  0  0
 23 45  1  0  0  0  0
 24 46  1  0  0  0  0
 24 47  1  0  0  0  0
 26 48  1  0  0  0  0
 28 49  1  0  0  0  0
 29 50  1  0  0  0  0
 29 51  1  0  0  0  0
 29 52  1  0  0  0  0
 30 53  1  0  0  0  0
 30 54  1  0  0  0  0
 30 55  1  0  0  0  0
 31 56  1  0  0  0  0
 33 57  1  0  0  0  0
 34 58  1  0  0  0  0
 35 59  1  0  0  0  0
M  END
>  <energy>
480.52088348517049

$$$$
