CN=C(N=c1nc2cc(CO)c3nn(C)c(c4ccccc4[nH]2)c13)NC
                    3D

 45 48  0  0  0  0  0  0  0  0999 V2000
    4.1528   -2.2082   -0.3276 C   0  0  0  0  0  0  0  0  0  0  0  0
    4.2338   -0.7896   -0.0490 N   0  0  0  0  0  0  0  0  0  0  0  0
    3.2811    0.0048   -0.3843 C   0  0  0  0  0  0  0  0  0  0  0  0
    2.1640   -0.4245   -1.0419 N   0  0  0  0  0  0  0  0  0  0  0  0
    1.1154   -0.5041   -0.3025 C   0  0  0  0  0  0  0  0  0  0  0  0
    1.0628   -0.2702    1.0472 N   0  0  0  0  0  0  0  0  0  0  0  0
    0.0182   -0.7911    1.6386 C   0  0  0  0  0  0  0  0  0  0  0  0
   -0.3073   -2.2692    1.4902 C   0  0  0  0  0  0  0  0  0  0  0  0
   -0.7868   -2.7155    0.3089 C   0  0  0  0  0  0  0  0  0  0  0  0
   -1.2174   -4.1210    0.0457 C   0  0  0  0  0  0  0  0  0  0  0  0
   -2.6391   -4.1932    0.0210 O   0  0  0  0  0  0  0  0  0  0  0  0
   -1.0279   -1.7848   -0.7695 C   0  0  0  0  0  0  0  0  0  0  0  0
   -2.2454   -1.5839   -1.2990 N   0  0  0  0  0  0  0  0  0  0  0  0
   -2.2973   -0.2310   -1.3747 N   0  0  0  0  0  0  0  0  0  0  0  0
   -3.5316    0.4185   -1.7474 C   0  0  0  0  0  0  0  0  0  0  0  0
   -1.1826    0.3582   -0.8230 C   0  0  0  0  0  0  0  0  0  0  0  0
   -1.2191    1.5143    0.1032 C   0  0  0  0  0  0  0  0  0  0  0  0
   -1.3630    2.7964   -0.4409 C   0  0  0  0  0  0  0  0  0  0  0  0
   -1.4438    3.9186    0.3850 C   0  0  0  0  0  0  0  0  0  0  0  0
   -1.3810    3.7735    1.7696 C   0  0  0  0  0  0  0  0  0  0  0  0
   -1.2207    2.5067    2.3381 C   0  0  0  0  0  0  0  0  0  0  0  0
   -1.0961    1.3653    1.5286 C   0  0  0  0  0  0  0  0  0  0  0  0
   -0.8885    0.0994    2.2024 N   0  0  0  0  0  0  0  0  0  0  0  0
   -0.2014   -0.6371   -0.9057 C   0  0  0  0  0  0  0  0  0  0  0  0
    3.3877    1.3411   -0.0900 N   0  0  0  0  0  0  0  0  0  0  0  0
    3.2999    2.3018   -1.1762 C   0  0  0  0  0  0  0  0  0  0  0  0
    4.4317   -2.7657    0.5724 H   0  0  0  0  0  0  0  0  0  0  0  0
    3.1641   -2.5640   -0.6329 H   0  0  0  0  0  0  0  0  0  0  0  0
    4.8672   -2.4627   -1.1152 H   0  0  0  0  0  0  0  0  0  0  0  0
   -0.1768   -2.9011    2.3594 H   0  0  0  0  0  0  0  0  0  0  0  0
   -0.8647   -4.7932    0.8357 H   0  0  0  0  0  0  0  0  0  0  0  0
   -0.8247   -4.4914   -0.9092 H   0  0  0  0  0  0  0  0  0  0  0  0
   -2.9252   -3.4760   -0.5826 H   0  0  0  0  0  0  0  0  0  0  0  0
   -4.1399    0.5892   -0.8559 H   0  0  0  0  0  0  0  0  0  0  0  0
   -3.2867    1.3694   -2.2258 H   0  0  0  0  0  0  0  0  0  0  0  0
   -4.0650   -0.2092   -2.4648 H   0  0  0  0  0  0  0  0  0  0  0  0
   -1.4055    2.9313   -1.5180 H   0  0  0  0  0  0  0  0  0  0  0  0
   -1.5601    4.9085   -0.0510 H   0  0  0  0  0  0  0  0  0  0  0  0
   -1.4370    4.6535    2.4045 H   0  0  0  0  0  0  0  0  0  0  0  0
   -1.1363    2.4164    3.4160 H   0  0  0  0  0  0  0  0  0  0  0  0
   -1.7898   -0.3210    2.4082 H   0  0  0  0  0  0  0  0  0  0  0  0
    2.6446    1.5527    0.5735 H   0  0  0  0  0  0  0  0  0  0  0  0
    4.0230    2.0676   -1.9644 H   0  0  0  0  0  0  0  0  0  0  0  0
    2.2933    2.3189   -1.6058 H   0  0  0  0  0  0  0  0  0  0  0  0
    3.5213    3.3017   -0.7908 H   0  0  0  0  0  0  0  0  0  0  0  0
  2  1  1  0  0  0  0
  3  2  2  0  0  0  0
  4  3  1  0  0  0  0
  5  4  2  0  0  0  0
  6  5  1  0  0  0  0
  7  6  2  0  0  0  0
  8  7  1  0  0  0  0
  9  8  2  0  0  0  0
 10  9  1  0  0  0  0
 11 10  1  0  0  0  0
 12  9  1  0  0  0  0
 13 12  2  0  0  0  0
 14 13  1  0  0  0  0
 15 14  1  0  0  0  0
 16 14  1  0  0  0  0
 17 16  1  0  0  0  0
 18 17  1  0  0  0  0
 19 18  2  0  0  0  0
 20 19  1  0  0  0  0
 21 20  2  0  0  0  0
 22 21  1  0  0  0  0
 22 17  2  0  0  0  0
 23 22  1  0  0  0  0
 23  7  1  0  0  0  0
 24 16  2  0  0  0  0
 24  5  1  0  0  0  0
 24 12  1  0  0  0  0
 25  3  1  0  0  0  0
 26 25  1  0  0  0  0
  1 27  1  0  0  0  0
  1 28  1  0  0  0  0
  1 29  1  0  0  0  0
  8 30  1  0  0  0  0
 10 31  1  0  0  0  0
 10 32  1  0  0  0  0
 11 33  1  0  0  0  0
 15 34  1  0  0  0  0
 15 35  1  0  0  0  0
 15 36  1  0  0  0  0
 18 37  1  0  0  0  0
 19 38  1  0  0  0  0
 20 39  1  0  0  0  0
 21 40  1  0  0  0  0
 23 41  1  0  0  0  0
 25 42  1  0  0  0  0
 26 43  1  0  0  0  0
 26 44  1  0  0  0  0
 26 45  1  0  0  0  0
M  END
>  <energy>
1.1680769045299542

$$$$
