CCN1C2C3C(C(C)N)C45CCC1(O)C4(ONC(N)=S)C2C35
                    3D

 46 50  0  0  0  0  0  0  0  0999 V2000
   -2.0858    3.1815   -0.9486 C   0  0  0  0  0  0  0  0  0  0  0  0
   -0.6331    2.7194   -1.0691 C   0  0  0  0  0  0  0  0  0  0  0  0
   -0.4553    1.3806   -0.5128 N   0  0  0  0  0  0  0  0  0  0  0  0
   -0.5689    1.3814    0.9752 C   0  0  0  0  0  0  0  0  0  0  0  0
   -1.3595    0.1321    1.4540 C   0  0  0  0  0  0  0  0  0  0  0  0
   -1.4611   -1.0262    0.4512 C   0  0  0  0  0  0  0  0  0  0  0  0
   -2.3606   -2.1928    0.9435 C   0  0  0  0  0  0  0  0  0  0  0  0
   -2.2231   -3.4246    0.0501 C   0  0  0  0  0  0  0  0  0  0  0  0
   -3.7692   -1.7862    0.9160 N   0  0  0  0  0  0  0  0  0  0  0  0
    0.1196   -1.2653    0.5510 C   0  0  0  0  0  0  0  0  0  0  0  0
    0.5435   -1.7669   -0.8265 C   0  0  0  0  0  0  0  0  0  0  0  0
    0.5509   -0.5543   -1.7846 C   0  0  0  0  0  0  0  0  0  0  0  0
    0.7858    0.6651   -0.8828 C   0  0  0  0  0  0  0  0  0  0  0  0
    1.7948    1.5049   -1.4133 O   0  0  0  0  0  0  0  0  0  0  0  0
    1.2274   -0.0597    0.3834 C   0  0  0  0  0  0  0  0  0  0  0  0
    2.6117   -0.5288    0.4220 O   0  0  0  0  0  0  0  0  0  0  0  0
    3.4676    0.4457    0.9914 N   0  0  0  0  0  0  0  0  0  0  0  0
    4.5843    0.7216    0.2570 C   0  0  0  0  0  0  0  0  0  0  0  0
    4.4878    0.5538   -1.0809 N   0  0  0  0  0  0  0  0  0  0  0  0
    6.0018    1.2140    0.9660 S   0  0  0  0  0  0  0  0  0  0  0  0
    0.6853    0.7160    1.5307 C   0  0  0  0  0  0  0  0  0  0  0  0
   -0.0581   -0.5157    1.9490 C   0  0  0  0  0  0  0  0  0  0  0  0
   -2.2114    4.1568   -1.4334 H   0  0  0  0  0  0  0  0  0  0  0  0
   -2.4017    3.2903    0.0967 H   0  0  0  0  0  0  0  0  0  0  0  0
   -2.7688    2.4774   -1.4386 H   0  0  0  0  0  0  0  0  0  0  0  0
    0.0349    3.4492   -0.5953 H   0  0  0  0  0  0  0  0  0  0  0  0
   -0.4049    2.7074   -2.1396 H   0  0  0  0  0  0  0  0  0  0  0  0
   -0.8316    2.3216    1.4689 H   0  0  0  0  0  0  0  0  0  0  0  0
   -2.1499    0.2986    2.1894 H   0  0  0  0  0  0  0  0  0  0  0  0
   -1.8391   -0.7154   -0.5321 H   0  0  0  0  0  0  0  0  0  0  0  0
   -2.0984   -2.4761    1.9691 H   0  0  0  0  0  0  0  0  0  0  0  0
   -2.3739   -3.1671   -1.0042 H   0  0  0  0  0  0  0  0  0  0  0  0
   -1.2305   -3.8754    0.1528 H   0  0  0  0  0  0  0  0  0  0  0  0
   -2.9469   -4.2034    0.3128 H   0  0  0  0  0  0  0  0  0  0  0  0
   -4.3560   -2.5735    1.1878 H   0  0  0  0  0  0  0  0  0  0  0  0
   -3.9431   -1.0560    1.6049 H   0  0  0  0  0  0  0  0  0  0  0  0
    1.5307   -2.2476   -0.7955 H   0  0  0  0  0  0  0  0  0  0  0  0
   -0.1135   -2.5380   -1.2317 H   0  0  0  0  0  0  0  0  0  0  0  0
    1.3246   -0.6721   -2.5509 H   0  0  0  0  0  0  0  0  0  0  0  0
   -0.4031   -0.4732   -2.3192 H   0  0  0  0  0  0  0  0  0  0  0  0
    1.5022    1.7343   -2.3090 H   0  0  0  0  0  0  0  0  0  0  0  0
    3.6593    0.3041    1.9770 H   0  0  0  0  0  0  0  0  0  0  0  0
    3.5493    0.6529   -1.4541 H   0  0  0  0  0  0  0  0  0  0  0  0
    5.2472    0.9041   -1.6514 H   0  0  0  0  0  0  0  0  0  0  0  0
    1.3083    1.2227    2.2663 H   0  0  0  0  0  0  0  0  0  0  0  0
    0.0309   -1.0171    2.9073 H   0  0  0  0  0  0  0  0  0  0  0  0
  2  1  1  0  0  0  0
  3  2  1  0  0  0  0
  4  3  1  0  0  0  0
  5  4  1  0  0  0  0
  6  5  1  0  0  0  0
  7  6  1  0  0  0  0
  8  7  1  0  0  0  0
  9  7  1  0  0  0  0
 10  6  1  0  0  0  0
 11 10  1  0  0  0  0
 12 11  1  0  0  0  0
 13 12  1  0  0  0  0
 13  3  1  0  0  0  0
 14 13  1  0  0  0  0
 15 13  1  0  0  0  0
 15 10  1  0  0  0  0
 16 15  1  0  0  0  0
 17 16  1  0  0  0  0
 18 17  1  0  0  0  0
 19 18  1  0  0  0  0
 20 18  2  0  0  0  0
 21 15  1  0  0  0  0
 21  4  1  0  0  0  0
 22 21  1  0  0  0  0
 22  5  1  0  0  0  0
 22 10  1  0  0  0  0
  1 23  1  0  0  0  0
  1 24  1  0  0  0  0
  1 25  1  0  0  0  0
  2 26  1  0  0  0  0
  2 27  1  0  0  0  0
  4 28  1  0  0  0  0
  5 29  1  0  0  0  0
  6 30  1  0  0  0  0
  7 31  1  0  0  0  0
  8 32  1  0  0  0  0
  8 33  1  0  0  0  0
  8 34  1  0  0  0  0
  9 35  1  0  0  0  0
  9 36  1  0  0  0  0
 11 37  1  0  0  0  0
 11 38  1  0  0  0  0
 12 39  1  0  0  0  0
 12 40  1  0  0  0  0
 14 41  1  0  0  0  0
 17 42  1  0  0  0  0
 19 43  1  0  0  0  0
 19 44  1  0  0  0  0
 21 45  1  0  0  0  0
 22 46  1  0  0  0  0
M  END
>  <energy>
67.371848905094041

$$$$
