CC(=O)OC1C(O)C(CO)Oc2c3c(O)c4c(=O)c5c6c(c(O)c4c2O)C5(OC(=O)C2=CC(O)OC2O3)C1OC1=C
                    3D

 68 75  0  0  0  0  0  0  0  0999 V2000
    0.3259   -0.3023    4.4027 C   0  0  0  0  0  0  0  0  0  0  0  0
    1.3172    0.1621    3.3778 C   0  0  0  0  0  0  0  0  0  0  0  0
    2.3222    0.7999    3.6610 O   0  0  0  0  0  0  0  0  0  0  0  0
    0.9407   -0.2186    2.1248 O   0  0  0  0  0  0  0  0  0  0  0  0
    1.8016    0.1734    1.0424 C   0  0  0  0  0  0  0  0  0  0  0  0
    2.3573   -1.0673    0.2505 C   0  0  0  0  0  0  0  0  0  0  0  0
    3.8089   -0.9558    0.2212 O   0  0  0  0  0  0  0  0  0  0  0  0
    2.0329   -2.5783    0.6039 C   0  0  0  0  0  0  0  0  0  0  0  0
    2.6027   -3.0251    1.9703 C   0  0  0  0  0  0  0  0  0  0  0  0
    1.7751   -2.6840    3.0778 O   0  0  0  0  0  0  0  0  0  0  0  0
    0.6735   -3.0875    0.5045 O   0  0  0  0  0  0  0  0  0  0  0  0
   -0.0487   -2.9704   -0.6642 C   0  0  0  0  0  0  0  0  0  0  0  0
   -1.4545   -2.8622   -0.5207 C   0  0  0  0  0  0  0  0  0  0  0  0
   -2.2359   -2.2416   -1.5067 C   0  0  0  0  0  0  0  0  0  0  0  0
   -3.5971   -2.2578   -1.4212 O   0  0  0  0  0  0  0  0  0  0  0  0
   -1.5617   -1.4100   -2.3955 C   0  0  0  0  0  0  0  0  0  0  0  0
   -2.0632    0.0638   -2.5148 C   0  0  0  0  0  0  0  0  0  0  0  0
   -3.1361    0.2967   -3.0583 O   0  0  0  0  0  0  0  0  0  0  0  0
   -1.1013    1.2158   -1.8151 C   0  0  0  0  0  0  0  0  0  0  0  0
   -0.0695    1.7630   -2.5564 C   0  0  0  0  0  0  0  0  0  0  0  0
    0.5842    0.4708   -2.2823 C   0  0  0  0  0  0  0  0  0  0  0  0
    0.6352   -0.5882   -3.1082 C   0  0  0  0  0  0  0  0  0  0  0  0
    0.8352   -0.5213   -4.4660 O   0  0  0  0  0  0  0  0  0  0  0  0
   -0.1894   -1.7064   -2.6485 C   0  0  0  0  0  0  0  0  0  0  0  0
    0.5004   -2.6595   -1.8945 C   0  0  0  0  0  0  0  0  0  0  0  0
    1.7859   -2.9943   -2.2085 O   0  0  0  0  0  0  0  0  0  0  0  0
    0.0171    0.6584   -0.7845 C   0  0  0  0  0  0  0  0  0  0  0  0
   -0.6757   -0.3478   -0.0197 O   0  0  0  0  0  0  0  0  0  0  0  0
   -1.5384    0.1498    0.9044 C   0  0  0  0  0  0  0  0  0  0  0  0
   -1.4966    1.2678    1.3925 O   0  0  0  0  0  0  0  0  0  0  0  0
   -2.6538   -0.7446    1.1153 C   0  0  0  0  0  0  0  0  0  0  0  0
   -3.8884   -0.2377    1.0754 C   0  0  0  0  0  0  0  0  0  0  0  0
   -4.8579   -1.3130    1.3158 C   0  0  0  0  0  0  0  0  0  0  0  0
   -5.7380   -1.4226    0.2210 O   0  0  0  0  0  0  0  0  0  0  0  0
   -4.0947   -2.5160    1.4486 O   0  0  0  0  0  0  0  0  0  0  0  0
   -2.6821   -2.1897    1.4505 C   0  0  0  0  0  0  0  0  0  0  0  0
   -1.9960   -3.1981    0.6883 O   0  0  0  0  0  0  0  0  0  0  0  0
    1.0984    1.3052    0.1419 C   0  0  0  0  0  0  0  0  0  0  0  0
    2.1829    1.9849   -0.5542 O   0  0  0  0  0  0  0  0  0  0  0  0
    1.7264    3.0177   -1.3225 C   0  0  0  0  0  0  0  0  0  0  0  0
    0.7433    2.9633   -2.2258 C   0  0  0  0  0  0  0  0  0  0  0  0
    0.5712    4.3590   -2.6838 C   0  0  0  0  0  0  0  0  0  0  0  0
   -0.1649    4.7161   -3.5854 O   0  0  0  0  0  0  0  0  0  0  0  0
    1.5015    5.1880   -1.8760 C   0  0  0  0  0  0  0  0  0  0  0  0
    1.5464    6.5680   -1.8981 O   0  0  0  0  0  0  0  0  0  0  0  0
    1.2503    7.1006   -0.6805 C   0  0  0  0  0  0  0  0  0  0  0  0
    0.4307    6.4828    0.0696 O   0  0  0  0  0  0  0  0  0  0  0  0
    1.8441    8.1845   -0.4078 O   0  5  0  0  0  0  0  0  0  0  0  0
    2.2167    4.3399   -1.1222 C   0  0  0  0  0  0  0  0  0  0  0  0
    0.8617   -0.8249    5.2006 H   0  0  0  0  0  0  0  0  0  0  0  0
   -0.2116    0.5578    4.8071 H   0  0  0  0  0  0  0  0  0  0  0  0
   -0.3941   -1.0007    3.9674 H   0  0  0  0  0  0  0  0  0  0  0  0
    2.6843    0.6809    1.4528 H   0  0  0  0  0  0  0  0  0  0  0  0
    2.1017   -0.9247   -0.7911 H   0  0  0  0  0  0  0  0  0  0  0  0
    4.0301   -0.0623   -0.1045 H   0  0  0  0  0  0  0  0  0  0  0  0
    2.6425   -3.1739   -0.0887 H   0  0  0  0  0  0  0  0  0  0  0  0
    2.6803   -4.1188    1.9748 H   0  0  0  0  0  0  0  0  0  0  0  0
    3.6036   -2.6174    2.1432 H   0  0  0  0  0  0  0  0  0  0  0  0
    2.2059   -3.0605    3.8649 H   0  0  0  0  0  0  0  0  0  0  0  0
   -3.8655   -3.0450   -0.8919 H   0  0  0  0  0  0  0  0  0  0  0  0
    1.1114    0.3897   -4.6837 H   0  0  0  0  0  0  0  0  0  0  0  0
    1.9461   -2.7567   -3.1419 H   0  0  0  0  0  0  0  0  0  0  0  0
   -4.1556    0.7930    0.8826 H   0  0  0  0  0  0  0  0  0  0  0  0
   -5.4337   -1.1517    2.2313 H   0  0  0  0  0  0  0  0  0  0  0  0
   -5.2435   -1.1712   -0.5820 H   0  0  0  0  0  0  0  0  0  0  0  0
   -2.3357   -2.3106    2.4835 H   0  0  0  0  0  0  0  0  0  0  0  0
    0.6416    2.0356    0.8204 H   0  0  0  0  0  0  0  0  0  0  0  0
    2.9468    4.6300   -0.3840 H   0  0  0  0  0  0  0  0  0  0  0  0
  2  1  1  0  0  0  0
  3  2  2  0  0  0  0
  4  2  1  0  0  0  0
  5  4  1  0  0  0  0
  6  5  1  0  0  0  0
  7  6  1  0  0  0  0
  8  6  1  0  0  0  0
  9  8  1  0  0  0  0
 10  9  1  0  0  0  0
 11  8  1  0  0  0  0
 12 11  1  0  0  0  0
 13 12  2  0  0  0  0
 14 13  1  0  0  0  0
 15 14  1  0  0  0  0
 16 14  2  0  0  0  0
 17 16  1  0  0  0  0
 18 17  2  0  0  0  0
 19 17  1  0  0  0  0
 20 19  2  0  0  0  0
 21 20  1  0  0  0  0
 22 21  2  0  0  0  0
 23 22  1  0  0  0  0
 24 22  1  0  0  0  0
 24 16  1  0  0  0  0
 25 24  2  0  0  0  0
 25 12  1  0  0  0  0
 26 25  1  0  0  0  0
 27 21  1  0  0  0  0
 27 19  1  0  0  0  0
 28 27  1  0  0  0  0
 29 28  1  0  0  0  0
 30 29  2  0  0  0  0
 31 29  1  0  0  0  0
 32 31  2  0  0  0  0
 33 32  1  0  0  0  0
 34 33  1  0  0  0  0
 35 33  1  0  0  0  0
 36 35  1  0  0  0  0
 36 31  1  0  0  0  0
 37 36  1  0  0  0  0
 37 13  1  0  0  0  0
 38 27  1  0  0  0  0
 38  5  1  0  0  0  0
 39 38  1  0  0  0  0
 40 39  1  0  0  0  0
 41 40  2  0  0  0  0
 41 20  1  0  0  0  0
 42 41  1  0  0  0  0
 43 42  2  0  0  0  0
 44 42  1  0  0  0  0
 45 44  1  0  0  0  0
 46 45  1  0  0  0  0
 47 46  2  0  0  0  0
 48 46  1  0  0  0  0
 49 44  2  0  0  0  0
 49 40  1  0  0  0  0
  1 50  1  0  0  0  0
  1 51  1  0  0  0  0
  1 52  1  0  0  0  0
  5 53  1  0  0  0  0
  6 54  1  0  0  0  0
  7 55  1  0  0  0  0
  8 56  1  0  0  0  0
  9 57  1  0  0  0  0
  9 58  1  0  0  0  0
 10 59  1  0  0  0  0
 15 60  1  0  0  0  0
 23 61  1  0  0  0  0
 26 62  1  0  0  0  0
 32 63  1  0  0  0  0
 33 64  1  0  0  0  0
 34 65  1  0  0  0  0
 36 66  1  0  0  0  0
 38 67  1  0  0  0  0
 49 68  1  0  0  0  0
M  CHG  1  48  -1
M  END
>  <energy>
290.53013917012322

$$$$
