CC12OC3CC4N(CC5CC5)CCC35CC(O)C1C4(C)C5OC2OC(=O)c1cc(Cl)ccc1C(F)Cl
                    3D

 68 74  0  0  0  0  0  0  0  0999 V2000
    0.3163   -4.0528   -0.5129 C   0  0  0  0  0  0  0  0  0  0  0  0
    0.1347   -2.5598   -0.2156 C   0  0  0  0  0  0  0  0  0  0  0  0
    0.5439   -1.7136   -1.4861 O   0  0  0  0  0  0  0  0  0  0  0  0
   -0.2844   -0.6136   -2.0043 C   0  0  0  0  0  0  0  0  0  0  0  0
   -0.2781    0.9611   -1.5277 C   0  0  0  0  0  0  0  0  0  0  0  0
   -1.3829    1.2123   -0.0587 C   0  0  0  0  0  0  0  0  0  0  0  0
   -2.6076    1.8833   -0.4655 N   0  0  0  0  0  0  0  0  0  0  0  0
   -3.1880    2.7655    0.5405 C   0  0  0  0  0  0  0  0  0  0  0  0
   -2.7506    4.1648    0.2019 C   0  0  0  0  0  0  0  0  0  0  0  0
   -1.5023    4.7740    0.7925 C   0  0  0  0  0  0  0  0  0  0  0  0
   -2.8531    5.2766    1.2179 C   0  0  0  0  0  0  0  0  0  0  0  0
   -3.5212    0.8731   -0.9233 C   0  0  0  0  0  0  0  0  0  0  0  0
   -2.7115    0.0171   -1.8740 C   0  0  0  0  0  0  0  0  0  0  0  0
   -1.4694   -0.8798   -1.2395 C   0  0  0  0  0  0  0  0  0  0  0  0
   -2.1204   -2.2995   -1.4703 C   0  0  0  0  0  0  0  0  0  0  0  0
   -2.5334   -2.7401   -0.1131 C   0  0  0  0  0  0  0  0  0  0  0  0
   -3.7889   -2.2210    0.2724 O   0  0  0  0  0  0  0  0  0  0  0  0
   -1.4414   -2.1052    0.6807 C   0  0  0  0  0  0  0  0  0  0  0  0
   -1.6380   -0.2757    0.9228 C   0  0  0  0  0  0  0  0  0  0  0  0
   -1.7522    0.0570    2.4037 C   0  0  0  0  0  0  0  0  0  0  0  0
   -0.3684   -0.4391    0.3332 C   0  0  0  0  0  0  0  0  0  0  0  0
    0.4338   -1.0938    1.3628 O   0  0  0  0  0  0  0  0  0  0  0  0
    1.1615   -2.1563    0.8169 C   0  0  0  0  0  0  0  0  0  0  0  0
    2.3836   -1.6636    0.2852 O   0  0  0  0  0  0  0  0  0  0  0  0
    3.4556   -1.8455    1.0777 C   0  0  0  0  0  0  0  0  0  0  0  0
    3.5867   -2.6285    1.9982 O   0  0  0  0  0  0  0  0  0  0  0  0
    4.4155   -0.7614    0.7840 C   0  0  0  0  0  0  0  0  0  0  0  0
    4.7215    0.0764    1.8679 C   0  0  0  0  0  0  0  0  0  0  0  0
    5.5799    1.1542    1.6897 C   0  0  0  0  0  0  0  0  0  0  0  0
    5.9370    2.1917    3.0131 Cl  0  0  0  0  0  0  0  0  0  0  0  0
    6.1449    1.4039    0.4431 C   0  0  0  0  0  0  0  0  0  0  0  0
    5.8523    0.5620   -0.6327 C   0  0  0  0  0  0  0  0  0  0  0  0
    4.9848   -0.5395   -0.4833 C   0  0  0  0  0  0  0  0  0  0  0  0
    4.7038   -1.4187   -1.6781 C   0  0  0  0  0  0  0  0  0  0  0  0
    4.2406   -2.6596   -1.3704 F   0  0  0  0  0  0  0  0  0  0  0  0
    3.5728   -0.6181   -2.7902 Cl  0  0  0  0  0  0  0  0  0  0  0  0
    1.3522   -4.2633   -0.8033 H   0  0  0  0  0  0  0  0  0  0  0  0
    0.0761   -4.6573    0.3678 H   0  0  0  0  0  0  0  0  0  0  0  0
   -0.2922   -4.4184   -1.3416 H   0  0  0  0  0  0  0  0  0  0  0  0
   -0.3497   -0.6980   -3.0919 H   0  0  0  0  0  0  0  0  0  0  0  0
   -0.6540    1.6275   -2.3141 H   0  0  0  0  0  0  0  0  0  0  0  0
    0.7383    1.3189   -1.3068 H   0  0  0  0  0  0  0  0  0  0  0  0
   -0.8024    1.9280    0.5528 H   0  0  0  0  0  0  0  0  0  0  0  0
   -4.2850    2.7534    0.4941 H   0  0  0  0  0  0  0  0  0  0  0  0
   -2.9158    2.4874    1.5646 H   0  0  0  0  0  0  0  0  0  0  0  0
   -3.0067    4.4242   -0.8217 H   0  0  0  0  0  0  0  0  0  0  0  0
   -0.9047    5.4106    0.1496 H   0  0  0  0  0  0  0  0  0  0  0  0
   -0.9266    4.2056    1.5125 H   0  0  0  0  0  0  0  0  0  0  0  0
   -3.1864    5.0439    2.2226 H   0  0  0  0  0  0  0  0  0  0  0  0
   -3.1549    6.2571    0.8662 H   0  0  0  0  0  0  0  0  0  0  0  0
   -4.3526    1.3320   -1.4707 H   0  0  0  0  0  0  0  0  0  0  0  0
   -3.9560    0.2839   -0.1110 H   0  0  0  0  0  0  0  0  0  0  0  0
   -3.4549   -0.6032   -2.3895 H   0  0  0  0  0  0  0  0  0  0  0  0
   -2.3646    0.6238   -2.7229 H   0  0  0  0  0  0  0  0  0  0  0  0
   -1.4388   -2.9717   -1.9889 H   0  0  0  0  0  0  0  0  0  0  0  0
   -2.9869   -2.3444   -2.1368 H   0  0  0  0  0  0  0  0  0  0  0  0
   -2.5499   -3.8302   -0.0196 H   0  0  0  0  0  0  0  0  0  0  0  0
   -4.4656   -2.6442   -0.2840 H   0  0  0  0  0  0  0  0  0  0  0  0
   -1.4052   -2.5703    1.6791 H   0  0  0  0  0  0  0  0  0  0  0  0
   -1.5358   -0.8053    3.0426 H   0  0  0  0  0  0  0  0  0  0  0  0
   -2.7719    0.3735    2.6375 H   0  0  0  0  0  0  0  0  0  0  0  0
   -1.0706    0.8617    2.6963 H   0  0  0  0  0  0  0  0  0  0  0  0
    0.3734    0.3586    0.2454 H   0  0  0  0  0  0  0  0  0  0  0  0
    1.2909   -2.9169    1.5963 H   0  0  0  0  0  0  0  0  0  0  0  0
    4.2713   -0.1078    2.8417 H   0  0  0  0  0  0  0  0  0  0  0  0
    6.8105    2.2525    0.3035 H   0  0  0  0  0  0  0  0  0  0  0  0
    6.3053    0.7791   -1.5990 H   0  0  0  0  0  0  0  0  0  0  0  0
    5.6357   -1.5789   -2.2291 H   0  0  0  0  0  0  0  0  0  0  0  0
  2  1  1  0  0  0  0
  3  2  1  0  0  0  0
  4  3  1  0  0  0  0
  5  4  1  0  0  0  0
  6  5  1  0  0  0  0
  7  6  1  0  0  0  0
  8  7  1  0  0  0  0
  9  8  1  0  0  0  0
 10  9  1  0  0  0  0
 11 10  1  0  0  0  0
 11  9  1  0  0  0  0
 12  7  1  0  0  0  0
 13 12  1  0  0  0  0
 14 13  1  0  0  0  0
 14  4  1  0  0  0  0
 15 14  1  0  0  0  0
 16 15  1  0  0  0  0
 17 16  1  0  0  0  0
 18 16  1  0  0  0  0
 18  2  1  0  0  0  0
 19 18  1  0  0  0  0
 19  6  1  0  0  0  0
 20 19  1  0  0  0  0
 21 19  1  0  0  0  0
 21 14  1  0  0  0  0
 22 21  1  0  0  0  0
 23 22  1  0  0  0  0
 23  2  1  0  0  0  0
 24 23  1  0  0  0  0
 25 24  1  0  0  0  0
 26 25  2  0  0  0  0
 27 25  1  0  0  0  0
 28 27  2  0  0  0  0
 29 28  1  0  0  0  0
 30 29  1  0  0  0  0
 31 29  2  0  0  0  0
 32 31  1  0  0  0  0
 33 32  2  0  0  0  0
 33 27  1  0  0  0  0
 34 33  1  0  0  0  0
 35 34  1  0  0  0  0
 36 34  1  0  0  0  0
  1 37  1  0  0  0  0
  1 38  1  0  0  0  0
  1 39  1  0  0  0  0
  4 40  1  0  0  0  0
  5 41  1  0  0  0  0
  5 42  1  0  0  0  0
  6 43  1  0  0  0  0
  8 44  1  0  0  0  0
  8 45  1  0  0  0  0
  9 46  1  0  0  0  0
 10 47  1  0  0  0  0
 10 48  1  0  0  0  0
 11 49  1  0  0  0  0
 11 50  1  0  0  0  0
 12 51  1  0  0  0  0
 12 52  1  0  0  0  0
 13 53  1  0  0  0  0
 13 54  1  0  0  0  0
 15 55  1  0  0  0  0
 15 56  1  0  0  0  0
 16 57  1  0  0  0  0
 17 58  1  0  0  0  0
 18 59  1  0  0  0  0
 20 60  1  0  0  0  0
 20 61  1  0  0  0  0
 20 62  1  0  0  0  0
 21 63  1  0  0  0  0
 23 64  1  0  0  0  0
 28 65  1  0  0  0  0
 31 66  1  0  0  0  0
 32 67  1  0  0  0  0
 34 68  1  0  0  0  0
M  END
>  <energy>
561.03621308095637

$$$$
