CC1C(C)(C)C1(C#CCC1C2CN1C2)C(=O)Cl
                    3D

 35 37  0  0  0  0  0  0  0  0999 V2000
   -3.3164    0.1363   -1.8034 C   0  0  0  0  0  0  0  0  0  0  0  0
   -2.1809    0.1780   -0.8399 C   0  0  0  0  0  0  0  0  0  0  0  0
   -2.4056    0.1300    0.6590 C   0  0  0  0  0  0  0  0  0  0  0  0
   -1.6322    1.1630    1.4629 C   0  0  0  0  0  0  0  0  0  0  0  0
   -3.8003   -0.0956    1.2085 C   0  0  0  0  0  0  0  0  0  0  0  0
   -1.6728   -1.0405   -0.0720 C   0  0  0  0  0  0  0  0  0  0  0  0
   -0.2404   -1.1327    0.0906 C   0  0  0  0  0  0  0  0  0  0  0  0
    0.9421   -1.1766    0.2864 C   0  0  0  0  0  0  0  0  0  0  0  0
    2.3724   -1.1502    0.6185 C   0  0  0  0  0  0  0  0  0  0  0  0
    3.1828   -0.3753   -0.4220 C   0  0  0  0  0  0  0  0  0  0  0  0
    4.5146    0.3370   -0.0719 C   0  0  0  0  0  0  0  0  0  0  0  0
    3.6630    1.4162    0.6224 C   0  0  0  0  0  0  0  0  0  0  0  0
    2.7520    1.1739   -0.6655 N   0  0  0  0  0  0  0  0  0  0  0  0
    4.2303    1.1667   -1.3488 C   0  0  0  0  0  0  0  0  0  0  0  0
   -2.3555   -2.3826   -0.1843 C   0  0  0  0  0  0  0  0  0  0  0  0
   -2.8861   -2.8982    0.7946 O   0  0  0  0  0  0  0  0  0  0  0  0
   -2.2288   -3.0888   -1.7681 Cl  0  0  0  0  0  0  0  0  0  0  0  0
   -3.8266    1.1034   -1.8170 H   0  0  0  0  0  0  0  0  0  0  0  0
   -4.0580   -0.6297   -1.5690 H   0  0  0  0  0  0  0  0  0  0  0  0
   -2.9380   -0.0596   -2.8113 H   0  0  0  0  0  0  0  0  0  0  0  0
   -1.4308    0.8818   -1.1987 H   0  0  0  0  0  0  0  0  0  0  0  0
   -0.6098    0.8498    1.6859 H   0  0  0  0  0  0  0  0  0  0  0  0
   -2.1188    1.3609    2.4240 H   0  0  0  0  0  0  0  0  0  0  0  0
   -1.5889    2.1144    0.9201 H   0  0  0  0  0  0  0  0  0  0  0  0
   -4.3391    0.8560    1.2680 H   0  0  0  0  0  0  0  0  0  0  0  0
   -4.4096   -0.7769    0.6094 H   0  0  0  0  0  0  0  0  0  0  0  0
   -3.7341   -0.5175    2.2191 H   0  0  0  0  0  0  0  0  0  0  0  0
    2.7534   -2.1787    0.6691 H   0  0  0  0  0  0  0  0  0  0  0  0
    2.4877   -0.7481    1.6287 H   0  0  0  0  0  0  0  0  0  0  0  0
    3.1985   -0.9614   -1.3550 H   0  0  0  0  0  0  0  0  0  0  0  0
    5.4510   -0.0940    0.2448 H   0  0  0  0  0  0  0  0  0  0  0  0
    3.1794    1.1898    1.5771 H   0  0  0  0  0  0  0  0  0  0  0  0
    4.0761    2.4294    0.6958 H   0  0  0  0  0  0  0  0  0  0  0  0
    4.2795    0.6613   -2.3208 H   0  0  0  0  0  0  0  0  0  0  0  0
    4.6901    2.1585   -1.4373 H   0  0  0  0  0  0  0  0  0  0  0  0
  2  1  1  0  0  0  0
  3  2  1  0  0  0  0
  4  3  1  0  0  0  0
  5  3  1  0  0  0  0
  6  3  1  0  0  0  0
  6  2  1  0  0  0  0
  7  6  1  0  0  0  0
  8  7  3  0  0  0  0
  9  8  1  0  0  0  0
 10  9  1  0  0  0  0
 11 10  1  0  0  0  0
 12 11  1  0  0  0  0
 13 12  1  0  0  0  0
 13 10  1  0  0  0  0
 14 13  1  0  0  0  0
 14 11  1  0  0  0  0
 15  6  1  0  0  0  0
 16 15  2  0  0  0  0
 17 15  1  0  0  0  0
  1 18  1  0  0  0  0
  1 19  1  0  0  0  0
  1 20  1  0  0  0  0
  2 21  1  0  0  0  0
  4 22  1  0  0  0  0
  4 23  1  0  0  0  0
  4 24  1  0  0  0  0
  5 25  1  0  0  0  0
  5 26  1  0  0  0  0
  5 27  1  0  0  0  0
  9 28  1  0  0  0  0
  9 29  1  0  0  0  0
 10 30  1  0  0  0  0
 11 31  1  0  0  0  0
 12 32  1  0  0  0  0
 12 33  1  0  0  0  0
 14 34  1  0  0  0  0
 14 35  1  0  0  0  0
M  END
>  <energy>
108.80026642230948

$$$$
