CC1OC2CCC1(O)OC1CC34CCC5C(C3)C(C4C2)C5(C=O)C1
                    3D

 52 57  0  0  0  0  0  0  0  0999 V2000
   -4.5702   -0.3615   -0.8029 C   0  0  0  0  0  0  0  0  0  0  0  0
   -3.0882   -0.1612   -1.1301 C   0  0  0  0  0  0  0  0  0  0  0  0
   -2.3713   -1.2870   -0.6481 O   0  0  0  0  0  0  0  0  0  0  0  0
   -1.9283   -1.3055    0.6995 C   0  0  0  0  0  0  0  0  0  0  0  0
   -1.8936   -0.0165    1.5181 C   0  0  0  0  0  0  0  0  0  0  0  0
   -2.5206    1.2045    0.8745 C   0  0  0  0  0  0  0  0  0  0  0  0
   -2.4793    1.1732   -0.6469 C   0  0  0  0  0  0  0  0  0  0  0  0
   -3.3401    2.2377   -1.0673 O   0  0  0  0  0  0  0  0  0  0  0  0
   -1.2541    1.5072   -1.2888 O   0  0  0  0  0  0  0  0  0  0  0  0
    0.0604    0.9943   -1.0045 C   0  0  0  0  0  0  0  0  0  0  0  0
    0.3190   -0.4524   -1.5292 C   0  0  0  0  0  0  0  0  0  0  0  0
    1.5542   -1.3210   -1.1263 C   0  0  0  0  0  0  0  0  0  0  0  0
    2.5274   -0.1784   -1.8561 C   0  0  0  0  0  0  0  0  0  0  0  0
    3.2933    0.8351   -0.9916 C   0  0  0  0  0  0  0  0  0  0  0  0
    3.0805    0.6087    0.4926 C   0  0  0  0  0  0  0  0  0  0  0  0
    2.9875   -0.8721    0.8721 C   0  0  0  0  0  0  0  0  0  0  0  0
    2.9035   -1.7585   -0.3658 C   0  0  0  0  0  0  0  0  0  0  0  0
    1.5418   -0.6912    1.3490 C   0  0  0  0  0  0  0  0  0  0  0  0
    0.8465   -1.6116    0.3685 C   0  0  0  0  0  0  0  0  0  0  0  0
   -0.6059   -2.0991    0.7396 C   0  0  0  0  0  0  0  0  0  0  0  0
    1.6726    0.8554    1.1342 C   0  0  0  0  0  0  0  0  0  0  0  0
    1.8060    1.6553    2.5196 C   0  0  0  0  0  0  0  0  0  0  0  0
    2.2358    2.7978    2.6761 O   0  0  0  0  0  0  0  0  0  0  0  0
    0.6542    1.6102    0.2734 C   0  0  0  0  0  0  0  0  0  0  0  0
   -4.9239   -1.2994   -1.2457 H   0  0  0  0  0  0  0  0  0  0  0  0
   -5.1876    0.4521   -1.1936 H   0  0  0  0  0  0  0  0  0  0  0  0
   -4.7444   -0.4529    0.2735 H   0  0  0  0  0  0  0  0  0  0  0  0
   -3.0024   -0.1930   -2.2236 H   0  0  0  0  0  0  0  0  0  0  0  0
   -2.6675   -1.9482    1.1979 H   0  0  0  0  0  0  0  0  0  0  0  0
   -0.8805    0.2001    1.8497 H   0  0  0  0  0  0  0  0  0  0  0  0
   -2.4104   -0.2011    2.4708 H   0  0  0  0  0  0  0  0  0  0  0  0
   -2.0927    2.1295    1.2744 H   0  0  0  0  0  0  0  0  0  0  0  0
   -3.5678    1.2577    1.2034 H   0  0  0  0  0  0  0  0  0  0  0  0
   -3.0625    2.3953   -1.9864 H   0  0  0  0  0  0  0  0  0  0  0  0
    0.6062    1.5770   -1.7599 H   0  0  0  0  0  0  0  0  0  0  0  0
    0.2891   -0.3818   -2.6337 H   0  0  0  0  0  0  0  0  0  0  0  0
   -0.5496   -1.0842   -1.4847 H   0  0  0  0  0  0  0  0  0  0  0  0
    3.2493   -0.7261   -2.4889 H   0  0  0  0  0  0  0  0  0  0  0  0
    2.0584    0.3862   -2.6750 H   0  0  0  0  0  0  0  0  0  0  0  0
    3.0244    1.8604   -1.2677 H   0  0  0  0  0  0  0  0  0  0  0  0
    4.3631    0.7428   -1.2218 H   0  0  0  0  0  0  0  0  0  0  0  0
    3.8779    1.1273    1.0441 H   0  0  0  0  0  0  0  0  0  0  0  0
    3.7027   -1.1954    1.6344 H   0  0  0  0  0  0  0  0  0  0  0  0
    3.8439   -1.7302   -0.9357 H   0  0  0  0  0  0  0  0  0  0  0  0
    2.8944   -2.8308   -0.1131 H   0  0  0  0  0  0  0  0  0  0  0  0
    1.3903   -0.9918    2.3929 H   0  0  0  0  0  0  0  0  0  0  0  0
    1.2299   -2.6195    0.6218 H   0  0  0  0  0  0  0  0  0  0  0  0
   -0.7764   -2.9965    0.1237 H   0  0  0  0  0  0  0  0  0  0  0  0
   -0.5324   -2.4659    1.7763 H   0  0  0  0  0  0  0  0  0  0  0  0
    1.4601    1.0926    3.4065 H   0  0  0  0  0  0  0  0  0  0  0  0
    1.1193    2.5653   -0.0191 H   0  0  0  0  0  0  0  0  0  0  0  0
   -0.1420    1.9671    0.9199 H   0  0  0  0  0  0  0  0  0  0  0  0
  2  1  1  0  0  0  0
  3  2  1  0  0  0  0
  4  3  1  0  0  0  0
  5  4  1  0  0  0  0
  6  5  1  0  0  0  0
  7  6  1  0  0  0  0
  7  2  1  0  0  0  0
  8  7  1  0  0  0  0
  9  7  1  0  0  0  0
 10  9  1  0  0  0  0
 11 10  1  0  0  0  0
 12 11  1  0  0  0  0
 13 12  1  0  0  0  0
 14 13  1  0  0  0  0
 15 14  1  0  0  0  0
 16 15  1  0  0  0  0
 17 16  1  0  0  0  0
 17 12  1  0  0  0  0
 18 16  1  0  0  0  0
 19 18  1  0  0  0  0
 19 12  1  0  0  0  0
 20 19  1  0  0  0  0
 20  4  1  0  0  0  0
 21 18  1  0  0  0  0
 21 15  1  0  0  0  0
 22 21  1  0  0  0  0
 23 22  2  0  0  0  0
 24 21  1  0  0  0  0
 24 10  1  0  0  0  0
  1 25  1  0  0  0  0
  1 26  1  0  0  0  0
  1 27  1  0  0  0  0
  2 28  1  0  0  0  0
  4 29  1  0  0  0  0
  5 30  1  0  0  0  0
  5 31  1  0  0  0  0
  6 32  1  0  0  0  0
  6 33  1  0  0  0  0
  8 34  1  0  0  0  0
 10 35  1  0  0  0  0
 11 36  1  0  0  0  0
 11 37  1  0  0  0  0
 13 38  1  0  0  0  0
 13 39  1  0  0  0  0
 14 40  1  0  0  0  0
 14 41  1  0  0  0  0
 15 42  1  0  0  0  0
 16 43  1  0  0  0  0
 17 44  1  0  0  0  0
 17 45  1  0  0  0  0
 18 46  1  0  0  0  0
 19 47  1  0  0  0  0
 20 48  1  0  0  0  0
 20 49  1  0  0  0  0
 22 50  1  0  0  0  0
 24 51  1  0  0  0  0
 24 52  1  0  0  0  0
M  END
>  <energy>
301.74296932674645

$$$$
