C=C1C(=C)C2C1C1CC(OC(C)=O)C(OC3C(O)C(NC)C(OC(=O)CC(C)(O)CO)C(N(C)C)C3O)C(O)C12
                    3D

 84 87  0  0  0  0  0  0  0  0999 V2000
    7.4601    1.3824   -2.0567 C   0  0  0  0  0  0  0  0  0  0  0  0
    6.1671    1.0744   -2.1737 C   0  0  0  0  0  0  0  0  0  0  0  0
    5.0400    1.6776   -2.8054 C   0  0  0  0  0  0  0  0  0  0  0  0
    4.8757    2.7557   -3.5617 C   0  0  0  0  0  0  0  0  0  0  0  0
    4.0964    0.6296   -2.2373 C   0  0  0  0  0  0  0  0  0  0  0  0
    5.3446   -0.0821   -1.6805 C   0  0  0  0  0  0  0  0  0  0  0  0
    4.7984    0.0583   -0.2465 C   0  0  0  0  0  0  0  0  0  0  0  0
    4.4658   -1.2961    0.3448 C   0  0  0  0  0  0  0  0  0  0  0  0
    3.1327   -1.2570    1.0739 C   0  0  0  0  0  0  0  0  0  0  0  0
    2.9422   -2.6025    1.5664 O   0  0  0  0  0  0  0  0  0  0  0  0
    2.5518   -2.6549    2.8667 C   0  0  0  0  0  0  0  0  0  0  0  0
    3.6543   -3.1978    3.7240 C   0  0  0  0  0  0  0  0  0  0  0  0
    1.4710   -2.2630    3.2854 O   0  0  0  0  0  0  0  0  0  0  0  0
    2.0064   -0.8545    0.0871 C   0  0  0  0  0  0  0  0  0  0  0  0
    0.7824   -1.0695    0.7899 O   0  0  0  0  0  0  0  0  0  0  0  0
   -0.4830   -0.9046    0.1455 C   0  0  0  0  0  0  0  0  0  0  0  0
   -0.6084   -1.6453   -1.1923 C   0  0  0  0  0  0  0  0  0  0  0  0
   -0.1424   -3.0052   -1.0781 O   0  0  0  0  0  0  0  0  0  0  0  0
   -2.0622   -1.6517   -1.7683 C   0  0  0  0  0  0  0  0  0  0  0  0
   -2.1320   -1.1390   -3.1608 N   0  0  0  0  0  0  0  0  0  0  0  0
   -1.9601    0.2931   -3.3251 C   0  0  0  0  0  0  0  0  0  0  0  0
   -3.1399   -1.1238   -0.7718 C   0  0  0  0  0  0  0  0  0  0  0  0
   -3.0393    0.3053   -0.6012 O   0  0  0  0  0  0  0  0  0  0  0  0
   -4.1963    1.0082   -0.7513 C   0  0  0  0  0  0  0  0  0  0  0  0
   -5.2906    0.5309   -1.0184 O   0  0  0  0  0  0  0  0  0  0  0  0
   -3.9381    2.4930   -0.6698 C   0  0  0  0  0  0  0  0  0  0  0  0
   -3.8286    3.0545    0.7537 C   0  0  0  0  0  0  0  0  0  0  0  0
   -2.5251    2.6331    1.4370 C   0  0  0  0  0  0  0  0  0  0  0  0
   -4.9356    2.5913    1.5305 O   0  0  0  0  0  0  0  0  0  0  0  0
   -3.9184    4.5968    0.6903 C   0  0  0  0  0  0  0  0  0  0  0  0
   -2.8663    5.1577   -0.0836 O   0  0  0  0  0  0  0  0  0  0  0  0
   -2.9060   -1.8194    0.6012 C   0  0  0  0  0  0  0  0  0  0  0  0
   -4.1018   -1.6472    1.5020 N   0  0  0  0  0  0  0  0  0  0  0  0
   -5.0334   -2.7727    1.3319 C   0  0  0  0  0  0  0  0  0  0  0  0
   -3.7936   -1.4934    2.9220 C   0  0  0  0  0  0  0  0  0  0  0  0
   -1.5091   -1.4232    1.1792 C   0  0  0  0  0  0  0  0  0  0  0  0
   -0.9647   -2.6048    1.8130 O   0  0  0  0  0  0  0  0  0  0  0  0
    2.1935    0.6117   -0.3612 C   0  0  0  0  0  0  0  0  0  0  0  0
    1.8700    1.4745    0.7387 O   0  0  0  0  0  0  0  0  0  0  0  0
    3.6279    0.9372   -0.7926 C   0  0  0  0  0  0  0  0  0  0  0  0
    7.8856    2.2720   -2.5135 H   0  0  0  0  0  0  0  0  0  0  0  0
    8.1335    0.7238   -1.5160 H   0  0  0  0  0  0  0  0  0  0  0  0
    3.8944    3.0432   -3.9161 H   0  0  0  0  0  0  0  0  0  0  0  0
    5.7203    3.3830   -3.8208 H   0  0  0  0  0  0  0  0  0  0  0  0
    3.4514    0.0438   -2.8971 H   0  0  0  0  0  0  0  0  0  0  0  0
    5.5521   -1.0750   -2.0867 H   0  0  0  0  0  0  0  0  0  0  0  0
    5.4492    0.6212    0.4364 H   0  0  0  0  0  0  0  0  0  0  0  0
    5.2594   -1.6155    1.0279 H   0  0  0  0  0  0  0  0  0  0  0  0
    4.4177   -2.0774   -0.4246 H   0  0  0  0  0  0  0  0  0  0  0  0
    3.1683   -0.5511    1.9165 H   0  0  0  0  0  0  0  0  0  0  0  0
    4.0613   -4.1091    3.2811 H   0  0  0  0  0  0  0  0  0  0  0  0
    4.4412   -2.4447    3.8185 H   0  0  0  0  0  0  0  0  0  0  0  0
    3.2652   -3.4381    4.7175 H   0  0  0  0  0  0  0  0  0  0  0  0
    2.0495   -1.5298   -0.7738 H   0  0  0  0  0  0  0  0  0  0  0  0
   -0.6468    0.1646   -0.0218 H   0  0  0  0  0  0  0  0  0  0  0  0
    0.0750   -1.1856   -1.9161 H   0  0  0  0  0  0  0  0  0  0  0  0
   -0.1414   -3.2295   -0.1231 H   0  0  0  0  0  0  0  0  0  0  0  0
   -2.3196   -2.7136   -1.9024 H   0  0  0  0  0  0  0  0  0  0  0  0
   -1.4379   -1.6352   -3.7229 H   0  0  0  0  0  0  0  0  0  0  0  0
   -1.7318    0.5103   -4.3751 H   0  0  0  0  0  0  0  0  0  0  0  0
   -2.8835    0.8299   -3.0959 H   0  0  0  0  0  0  0  0  0  0  0  0
   -1.1429    0.6954   -2.7200 H   0  0  0  0  0  0  0  0  0  0  0  0
   -4.1166   -1.4153   -1.1742 H   0  0  0  0  0  0  0  0  0  0  0  0
   -4.7851    2.9670   -1.1871 H   0  0  0  0  0  0  0  0  0  0  0  0
   -3.0522    2.7317   -1.2722 H   0  0  0  0  0  0  0  0  0  0  0  0
   -1.6464    2.9001    0.8415 H   0  0  0  0  0  0  0  0  0  0  0  0
   -2.4310    3.1143    2.4173 H   0  0  0  0  0  0  0  0  0  0  0  0
   -2.5079    1.5573    1.6283 H   0  0  0  0  0  0  0  0  0  0  0  0
   -4.7827    2.8054    2.4676 H   0  0  0  0  0  0  0  0  0  0  0  0
   -3.8808    5.0243    1.6987 H   0  0  0  0  0  0  0  0  0  0  0  0
   -4.8790    4.9026    0.2575 H   0  0  0  0  0  0  0  0  0  0  0  0
   -3.0356    6.1148   -0.1367 H   0  0  0  0  0  0  0  0  0  0  0  0
   -2.8353   -2.9009    0.3999 H   0  0  0  0  0  0  0  0  0  0  0  0
   -4.5973   -3.7144    1.6848 H   0  0  0  0  0  0  0  0  0  0  0  0
   -5.9567   -2.5954    1.8904 H   0  0  0  0  0  0  0  0  0  0  0  0
   -5.3216   -2.8964    0.2839 H   0  0  0  0  0  0  0  0  0  0  0  0
   -4.7168   -1.4589    3.5111 H   0  0  0  0  0  0  0  0  0  0  0  0
   -3.3015   -0.5354    3.1117 H   0  0  0  0  0  0  0  0  0  0  0  0
   -3.1758   -2.3079    3.3112 H   0  0  0  0  0  0  0  0  0  0  0  0
   -1.5870   -0.6616    1.9571 H   0  0  0  0  0  0  0  0  0  0  0  0
   -0.1122   -2.3115    2.2156 H   0  0  0  0  0  0  0  0  0  0  0  0
    1.4856    0.8537   -1.1600 H   0  0  0  0  0  0  0  0  0  0  0  0
    1.8040    2.3848    0.3959 H   0  0  0  0  0  0  0  0  0  0  0  0
    3.8059    2.0016   -0.5614 H   0  0  0  0  0  0  0  0  0  0  0  0
  2  1  2  0  0  0  0
  3  2  1  0  0  0  0
  4  3  2  0  0  0  0
  5  3  1  0  0  0  0
  6  5  1  0  0  0  0
  6  2  1  0  0  0  0
  7  6  1  0  0  0  0
  8  7  1  0  0  0  0
  9  8  1  0  0  0  0
 10  9  1  0  0  0  0
 11 10  1  0  0  0  0
 12 11  1  0  0  0  0
 13 11  2  0  0  0  0
 14  9  1  0  0  0  0
 15 14  1  0  0  0  0
 16 15  1  0  0  0  0
 17 16  1  0  0  0  0
 18 17  1  0  0  0  0
 19 17  1  0  0  0  0
 20 19  1  0  0  0  0
 21 20  1  0  0  0  0
 22 19  1  0  0  0  0
 23 22  1  0  0  0  0
 24 23  1  0  0  0  0
 25 24  2  0  0  0  0
 26 24  1  0  0  0  0
 27 26  1  0  0  0  0
 28 27  1  0  0  0  0
 29 27  1  0  0  0  0
 30 27  1  0  0  0  0
 31 30  1  0  0  0  0
 32 22  1  0  0  0  0
 33 32  1  0  0  0  0
 34 33  1  0  0  0  0
 35 33  1  0  0  0  0
 36 32  1  0  0  0  0
 36 16  1  0  0  0  0
 37 36  1  0  0  0  0
 38 14  1  0  0  0  0
 39 38  1  0  0  0  0
 40 38  1  0  0  0  0
 40  7  1  0  0  0  0
 40  5  1  0  0  0  0
  1 41  1  0  0  0  0
  1 42  1  0  0  0  0
  4 43  1  0  0  0  0
  4 44  1  0  0  0  0
  5 45  1  0  0  0  0
  6 46  1  0  0  0  0
  7 47  1  0  0  0  0
  8 48  1  0  0  0  0
  8 49  1  0  0  0  0
  9 50  1  0  0  0  0
 12 51  1  0  0  0  0
 12 52  1  0  0  0  0
 12 53  1  0  0  0  0
 14 54  1  0  0  0  0
 16 55  1  0  0  0  0
 17 56  1  0  0  0  0
 18 57  1  0  0  0  0
 19 58  1  0  0  0  0
 20 59  1  0  0  0  0
 21 60  1  0  0  0  0
 21 61  1  0  0  0  0
 21 62  1  0  0  0  0
 22 63  1  0  0  0  0
 26 64  1  0  0  0  0
 26 65  1  0  0  0  0
 28 66  1  0  0  0  0
 28 67  1  0  0  0  0
 28 68  1  0  0  0  0
 29 69  1  0  0  0  0
 30 70  1  0  0  0  0
 30 71  1  0  0  0  0
 31 72  1  0  0  0  0
 32 73  1  0  0  0  0
 34 74  1  0  0  0  0
 34 75  1  0  0  0  0
 34 76  1  0  0  0  0
 35 77  1  0  0  0  0
 35 78  1  0  0  0  0
 35 79  1  0  0  0  0
 36 80  1  0  0  0  0
 37 81  1  0  0  0  0
 38 82  1  0  0  0  0
 39 83  1  0  0  0  0
 40 84  1  0  0  0  0
M  END
>  <energy>
235.32396295783127

$$$$
