CCSC(C)C(=O)OCOC(=O)C1=C(C)N=C2SC1C(C)C2=O
                    3D

 42 43  0  0  0  0  0  0  0  0999 V2000
   -3.2319    1.7360   -2.9777 C   0  0  0  0  0  0  0  0  0  0  0  0
   -3.7608    0.4134   -2.4498 C   0  0  0  0  0  0  0  0  0  0  0  0
   -4.4178    0.5471   -0.7560 S   0  0  0  0  0  0  0  0  0  0  0  0
   -2.8732    0.6314    0.2126 C   0  0  0  0  0  0  0  0  0  0  0  0
   -2.9228    1.8272    1.1610 C   0  0  0  0  0  0  0  0  0  0  0  0
   -2.6905   -0.6369    1.0344 C   0  0  0  0  0  0  0  0  0  0  0  0
   -3.0799   -0.7950    2.1842 O   0  0  0  0  0  0  0  0  0  0  0  0
   -1.9222   -1.5310    0.3429 O   0  0  0  0  0  0  0  0  0  0  0  0
   -1.1684   -2.4028    1.1916 C   0  0  0  0  0  0  0  0  0  0  0  0
   -0.0163   -1.6725    1.6145 O   0  0  0  0  0  0  0  0  0  0  0  0
    1.1116   -2.0044    0.9561 C   0  0  0  0  0  0  0  0  0  0  0  0
    1.4851   -3.1232    0.6642 O   0  0  0  0  0  0  0  0  0  0  0  0
    1.7425   -0.7487    0.5087 C   0  0  0  0  0  0  0  0  0  0  0  0
    1.8172   -0.4765   -0.8232 C   0  0  0  0  0  0  0  0  0  0  0  0
    1.3676   -1.4071   -1.9225 C   0  0  0  0  0  0  0  0  0  0  0  0
    2.3388    0.7358   -1.2905 N   0  0  0  0  0  0  0  0  0  0  0  0
    2.4986    1.6347   -0.3731 C   0  0  0  0  0  0  0  0  0  0  0  0
    1.4022    1.8608    0.9887 S   0  0  0  0  0  0  0  0  0  0  0  0
    2.1172    0.2689    1.5774 C   0  0  0  0  0  0  0  0  0  0  0  0
    3.6118    0.6729    1.6266 C   0  0  0  0  0  0  0  0  0  0  0  0
    4.5810   -0.4876    1.5094 C   0  0  0  0  0  0  0  0  0  0  0  0
    3.7616    1.6270    0.4545 C   0  0  0  0  0  0  0  0  0  0  0  0
    4.7392    2.2932    0.1663 O   0  0  0  0  0  0  0  0  0  0  0  0
   -3.9193    2.5665   -2.7770 H   0  0  0  0  0  0  0  0  0  0  0  0
   -3.1023    1.6732   -4.0660 H   0  0  0  0  0  0  0  0  0  0  0  0
   -2.2528    1.9770   -2.5494 H   0  0  0  0  0  0  0  0  0  0  0  0
   -4.5961    0.0894   -3.0779 H   0  0  0  0  0  0  0  0  0  0  0  0
   -2.9936   -0.3673   -2.4990 H   0  0  0  0  0  0  0  0  0  0  0  0
   -2.0025    0.7558   -0.4414 H   0  0  0  0  0  0  0  0  0  0  0  0
   -2.8979    2.7774    0.6147 H   0  0  0  0  0  0  0  0  0  0  0  0
   -2.0594    1.8212    1.8392 H   0  0  0  0  0  0  0  0  0  0  0  0
   -3.8210    1.8103    1.7900 H   0  0  0  0  0  0  0  0  0  0  0  0
   -0.9140   -3.2940    0.6068 H   0  0  0  0  0  0  0  0  0  0  0  0
   -1.7349   -2.7395    2.0675 H   0  0  0  0  0  0  0  0  0  0  0  0
    2.1899   -1.6056   -2.6153 H   0  0  0  0  0  0  0  0  0  0  0  0
    1.0090   -2.3724   -1.5658 H   0  0  0  0  0  0  0  0  0  0  0  0
    0.5418   -0.9511   -2.4778 H   0  0  0  0  0  0  0  0  0  0  0  0
    1.7313    0.0167    2.5704 H   0  0  0  0  0  0  0  0  0  0  0  0
    3.8063    1.2370    2.5462 H   0  0  0  0  0  0  0  0  0  0  0  0
    5.6133   -0.1434    1.6201 H   0  0  0  0  0  0  0  0  0  0  0  0
    4.5192   -0.9805    0.5338 H   0  0  0  0  0  0  0  0  0  0  0  0
    4.3925   -1.2335    2.2809 H   0  0  0  0  0  0  0  0  0  0  0  0
  2  1  1  0  0  0  0
  3  2  1  0  0  0  0
  4  3  1  0  0  0  0
  5  4  1  0  0  0  0
  6  4  1  0  0  0  0
  7  6  2  0  0  0  0
  8  6  1  0  0  0  0
  9  8  1  0  0  0  0
 10  9  1  0  0  0  0
 11 10  1  0  0  0  0
 12 11  2  0  0  0  0
 13 11  1  0  0  0  0
 14 13  2  0  0  0  0
 15 14  1  0  0  0  0
 16 14  1  0  0  0  0
 17 16  2  0  0  0  0
 18 17  1  0  0  0  0
 19 18  1  0  0  0  0
 19 13  1  0  0  0  0
 20 19  1  0  0  0  0
 21 20  1  0  0  0  0
 22 20  1  0  0  0  0
 22 17  1  0  0  0  0
 23 22  2  0  0  0  0
  1 24  1  0  0  0  0
  1 25  1  0  0  0  0
  1 26  1  0  0  0  0
  2 27  1  0  0  0  0
  2 28  1  0  0  0  0
  4 29  1  0  0  0  0
  5 30  1  0  0  0  0
  5 31  1  0  0  0  0
  5 32  1  0  0  0  0
  9 33  1  0  0  0  0
  9 34  1  0  0  0  0
 15 35  1  0  0  0  0
 15 36  1  0  0  0  0
 15 37  1  0  0  0  0
 19 38  1  0  0  0  0
 20 39  1  0  0  0  0
 21 40  1  0  0  0  0
 21 41  1  0  0  0  0
 21 42  1  0  0  0  0
M  END
>  <energy>
72.801425275852537

$$$$
