CCOC(OC)C1CCN(C23CC4CCC2=C(CO)C(N4)C3OCc2ccc(Cl)cc2Cl)CC1
                    3D

 70 74  0  0  0  0  0  0  0  0999 V2000
    4.6300   -2.4362    3.3338 C   0  0  0  0  0  0  0  0  0  0  0  0
    4.3030   -2.5775    1.8604 C   0  0  0  0  0  0  0  0  0  0  0  0
    4.5872   -1.3384    1.2223 O   0  0  0  0  0  0  0  0  0  0  0  0
    4.1443   -1.2827   -0.1332 C   0  0  0  0  0  0  0  0  0  0  0  0
    4.9456   -0.3620   -0.8734 O   0  0  0  0  0  0  0  0  0  0  0  0
    6.2958   -0.7876   -0.9790 C   0  0  0  0  0  0  0  0  0  0  0  0
    2.6782   -0.8111   -0.1829 C   0  0  0  0  0  0  0  0  0  0  0  0
    2.4708    0.5300    0.5317 C   0  0  0  0  0  0  0  0  0  0  0  0
    0.9978    0.9378    0.4950 C   0  0  0  0  0  0  0  0  0  0  0  0
    0.4735    1.0012   -0.8702 N   0  0  0  0  0  0  0  0  0  0  0  0
   -0.8708    1.5895   -1.0217 C   0  0  0  0  0  0  0  0  0  0  0  0
   -0.7955    2.6130   -2.2103 C   0  0  0  0  0  0  0  0  0  0  0  0
   -2.0008    3.5708   -2.1104 C   0  0  0  0  0  0  0  0  0  0  0  0
   -1.7068    4.5479   -0.9188 C   0  0  0  0  0  0  0  0  0  0  0  0
   -1.0171    3.8324    0.2794 C   0  0  0  0  0  0  0  0  0  0  0  0
   -1.4520    2.3903    0.1820 C   0  0  0  0  0  0  0  0  0  0  0  0
   -2.7849    2.1823    0.3014 C   0  0  0  0  0  0  0  0  0  0  0  0
   -3.7989    2.8126    1.2024 C   0  0  0  0  0  0  0  0  0  0  0  0
   -3.2124    3.2446    2.4244 O   0  0  0  0  0  0  0  0  0  0  0  0
   -3.2451    1.6525   -1.0354 C   0  0  0  0  0  0  0  0  0  0  0  0
   -3.2992    2.8195   -1.9789 N   0  0  0  0  0  0  0  0  0  0  0  0
   -2.0997    0.6893   -1.4024 C   0  0  0  0  0  0  0  0  0  0  0  0
   -2.2231   -0.6425   -0.9013 O   0  0  0  0  0  0  0  0  0  0  0  0
   -2.3968   -0.8652    0.4864 C   0  0  0  0  0  0  0  0  0  0  0  0
   -2.7708   -2.3213    0.6284 C   0  0  0  0  0  0  0  0  0  0  0  0
   -1.7670   -3.3001    0.5041 C   0  0  0  0  0  0  0  0  0  0  0  0
   -2.0811   -4.6599    0.5459 C   0  0  0  0  0  0  0  0  0  0  0  0
   -3.4066   -5.0550    0.7103 C   0  0  0  0  0  0  0  0  0  0  0  0
   -3.8029   -6.7300    0.7308 Cl  0  0  0  0  0  0  0  0  0  0  0  0
   -4.4147   -4.1063    0.8404 C   0  0  0  0  0  0  0  0  0  0  0  0
   -4.1013   -2.7454    0.7960 C   0  0  0  0  0  0  0  0  0  0  0  0
   -5.4133   -1.6282    0.9452 Cl  0  0  0  0  0  0  0  0  0  0  0  0
    0.6882   -0.2372   -1.6253 C   0  0  0  0  0  0  0  0  0  0  0  0
    2.1558   -0.6742   -1.6201 C   0  0  0  0  0  0  0  0  0  0  0  0
    5.6472   -2.0578    3.4739 H   0  0  0  0  0  0  0  0  0  0  0  0
    4.5316   -3.3947    3.8490 H   0  0  0  0  0  0  0  0  0  0  0  0
    3.9536   -1.7173    3.8066 H   0  0  0  0  0  0  0  0  0  0  0  0
    3.2471   -2.8449    1.7447 H   0  0  0  0  0  0  0  0  0  0  0  0
    4.9218   -3.3639    1.4159 H   0  0  0  0  0  0  0  0  0  0  0  0
    4.2236   -2.2699   -0.6090 H   0  0  0  0  0  0  0  0  0  0  0  0
    6.7861   -0.7779   -0.0008 H   0  0  0  0  0  0  0  0  0  0  0  0
    6.8256   -0.0890   -1.6330 H   0  0  0  0  0  0  0  0  0  0  0  0
    6.3571   -1.7870   -1.4220 H   0  0  0  0  0  0  0  0  0  0  0  0
    2.0613   -1.5545    0.3379 H   0  0  0  0  0  0  0  0  0  0  0  0
    2.7913    0.4617    1.5790 H   0  0  0  0  0  0  0  0  0  0  0  0
    3.0798    1.3136    0.0605 H   0  0  0  0  0  0  0  0  0  0  0  0
    0.4255    0.2365    1.1076 H   0  0  0  0  0  0  0  0  0  0  0  0
    0.9452    1.9166    0.9826 H   0  0  0  0  0  0  0  0  0  0  0  0
   -0.7951    2.1008   -3.1817 H   0  0  0  0  0  0  0  0  0  0  0  0
    0.1371    3.1934   -2.1750 H   0  0  0  0  0  0  0  0  0  0  0  0
   -2.0731    4.1787   -3.0192 H   0  0  0  0  0  0  0  0  0  0  0  0
   -1.0467    5.3539   -1.2665 H   0  0  0  0  0  0  0  0  0  0  0  0
   -2.6348    5.0359   -0.5956 H   0  0  0  0  0  0  0  0  0  0  0  0
    0.0707    3.9106    0.1778 H   0  0  0  0  0  0  0  0  0  0  0  0
   -1.2769    4.3065    1.2298 H   0  0  0  0  0  0  0  0  0  0  0  0
   -4.5678    2.0765    1.4606 H   0  0  0  0  0  0  0  0  0  0  0  0
   -4.2869    3.6685    0.7271 H   0  0  0  0  0  0  0  0  0  0  0  0
   -2.5259    2.5989    2.6580 H   0  0  0  0  0  0  0  0  0  0  0  0
   -4.2101    1.1411   -0.9732 H   0  0  0  0  0  0  0  0  0  0  0  0
   -3.5416    2.4512   -2.9005 H   0  0  0  0  0  0  0  0  0  0  0  0
   -2.1114    0.5227   -2.4884 H   0  0  0  0  0  0  0  0  0  0  0  0
   -1.4708   -0.6652    1.0287 H   0  0  0  0  0  0  0  0  0  0  0  0
   -3.1719   -0.2320    0.9155 H   0  0  0  0  0  0  0  0  0  0  0  0
   -0.7325   -3.0013    0.3474 H   0  0  0  0  0  0  0  0  0  0  0  0
   -1.2962   -5.4030    0.4372 H   0  0  0  0  0  0  0  0  0  0  0  0
   -5.4477   -4.4242    0.9663 H   0  0  0  0  0  0  0  0  0  0  0  0
    0.0990   -1.0588   -1.2089 H   0  0  0  0  0  0  0  0  0  0  0  0
    0.3786   -0.1038   -2.6681 H   0  0  0  0  0  0  0  0  0  0  0  0
    2.7495    0.0598   -2.1792 H   0  0  0  0  0  0  0  0  0  0  0  0
    2.2482   -1.6348   -2.1417 H   0  0  0  0  0  0  0  0  0  0  0  0
  2  1  1  0  0  0  0
  3  2  1  0  0  0  0
  4  3  1  0  0  0  0
  5  4  1  0  0  0  0
  6  5  1  0  0  0  0
  7  4  1  0  0  0  0
  8  7  1  0  0  0  0
  9  8  1  0  0  0  0
 10  9  1  0  0  0  0
 11 10  1  0  0  0  0
 12 11  1  0  0  0  0
 13 12  1  0  0  0  0
 14 13  1  0  0  0  0
 15 14  1  0  0  0  0
 16 15  1  0  0  0  0
 16 11  1  0  0  0  0
 17 16  2  0  0  0  0
 18 17  1  0  0  0  0
 19 18  1  0  0  0  0
 20 17  1  0  0  0  0
 21 20  1  0  0  0  0
 21 13  1  0  0  0  0
 22 20  1  0  0  0  0
 22 11  1  0  0  0  0
 23 22  1  0  0  0  0
 24 23  1  0  0  0  0
 25 24  1  0  0  0  0
 26 25  2  0  0  0  0
 27 26  1  0  0  0  0
 28 27  2  0  0  0  0
 29 28  1  0  0  0  0
 30 28  1  0  0  0  0
 31 30  2  0  0  0  0
 31 25  1  0  0  0  0
 32 31  1  0  0  0  0
 33 10  1  0  0  0  0
 34 33  1  0  0  0  0
 34  7  1  0  0  0  0
  1 35  1  0  0  0  0
  1 36  1  0  0  0  0
  1 37  1  0  0  0  0
  2 38  1  0  0  0  0
  2 39  1  0  0  0  0
  4 40  1  0  0  0  0
  6 41  1  0  0  0  0
  6 42  1  0  0  0  0
  6 43  1  0  0  0  0
  7 44  1  0  0  0  0
  8 45  1  0  0  0  0
  8 46  1  0  0  0  0
  9 47  1  0  0  0  0
  9 48  1  0  0  0  0
 12 49  1  0  0  0  0
 12 50  1  0  0  0  0
 13 51  1  0  0  0  0
 14 52  1  0  0  0  0
 14 53  1  0  0  0  0
 15 54  1  0  0  0  0
 15 55  1  0  0  0  0
 18 56  1  0  0  0  0
 18 57  1  0  0  0  0
 19 58  1  0  0  0  0
 20 59  1  0  0  0  0
 21 60  1  0  0  0  0
 22 61  1  0  0  0  0
 24 62  1  0  0  0  0
 24 63  1  0  0  0  0
 26 64  1  0  0  0  0
 27 65  1  0  0  0  0
 30 66  1  0  0  0  0
 33 67  1  0  0  0  0
 33 68  1  0  0  0  0
 34 69  1  0  0  0  0
 34 70  1  0  0  0  0
M  END
>  <energy>
103.66838992981039

$$$$
