N#CC1(C#N)CC2CC13CCC23
                    3D

 22 24  0  0  0  0  0  0  0  0999 V2000
   -1.3675   -3.1241   -0.1901 N   0  0  0  0  0  0  0  0  0  0  0  0
   -1.3382   -1.9687   -0.2962 C   0  0  0  0  0  0  0  0  0  0  0  0
   -1.2555   -0.5064   -0.4273 C   0  0  0  0  0  0  0  0  0  0  0  0
   -2.0625   -0.0151   -1.5532 C   0  0  0  0  0  0  0  0  0  0  0  0
   -2.6935    0.4050   -2.4323 N   0  0  0  0  0  0  0  0  0  0  0  0
   -1.6007    0.2430    0.9016 C   0  0  0  0  0  0  0  0  0  0  0  0
   -0.2340    0.9216    1.2006 C   0  0  0  0  0  0  0  0  0  0  0  0
    0.1791    1.5158   -0.1594 C   0  0  0  0  0  0  0  0  0  0  0  0
    0.1886   -0.0165   -0.5206 C   0  0  0  0  0  0  0  0  0  0  0  0
    1.5466   -0.5289   -1.0319 C   0  0  0  0  0  0  0  0  0  0  0  0
    2.1586   -0.1441    0.3453 C   0  0  0  0  0  0  0  0  0  0  0  0
    0.7490   -0.2407    0.9454 C   0  0  0  0  0  0  0  0  0  0  0  0
   -2.3873    0.9976    0.7884 H   0  0  0  0  0  0  0  0  0  0  0  0
   -1.8858   -0.4340    1.7161 H   0  0  0  0  0  0  0  0  0  0  0  0
   -0.1296    1.5242    2.0999 H   0  0  0  0  0  0  0  0  0  0  0  0
   -0.5708    2.1387   -0.6572 H   0  0  0  0  0  0  0  0  0  0  0  0
    1.1171    2.0797   -0.1821 H   0  0  0  0  0  0  0  0  0  0  0  0
    1.5583   -1.6035   -1.2401 H   0  0  0  0  0  0  0  0  0  0  0  0
    1.9607   -0.0009   -1.8947 H   0  0  0  0  0  0  0  0  0  0  0  0
    2.8679   -0.8834    0.7323 H   0  0  0  0  0  0  0  0  0  0  0  0
    2.6513    0.8302    0.4060 H   0  0  0  0  0  0  0  0  0  0  0  0
    0.5482   -1.1896    1.4494 H   0  0  0  0  0  0  0  0  0  0  0  0
  2  1  3  0  0  0  0
  3  2  1  0  0  0  0
  4  3  1  0  0  0  0
  5  4  3  0  0  0  0
  6  3  1  0  0  0  0
  7  6  1  0  0  0  0
  8  7  1  0  0  0  0
  9  8  1  0  0  0  0
  9  3  1  0  0  0  0
 10  9  1  0  0  0  0
 11 10  1  0  0  0  0
 12 11  1  0  0  0  0
 12  7  1  0  0  0  0
 12  9  1  0  0  0  0
  6 13  1  0  0  0  0
  6 14  1  0  0  0  0
  7 15  1  0  0  0  0
  8 16  1  0  0  0  0
  8 17  1  0  0  0  0
 10 18  1  0  0  0  0
 10 19  1  0  0  0  0
 11 20  1  0  0  0  0
 11 21  1  0  0  0  0
 12 22  1  0  0  0  0
M  END
>  <energy>
58.718987305791259

$$$$
