CN(C#N)NC(=S)NC1=CC=C2C(O)=C(C(F)F)C(=N1)C1CC2(CF)CC1(F)F
                    3D

 45 47  0  0  0  0  0  0  0  0999 V2000
   -2.9718   -3.1701   -1.5641 C   0  0  0  0  0  0  0  0  0  0  0  0
   -3.8122   -1.9512   -1.5865 N   0  0  0  0  0  0  0  0  0  0  0  0
   -4.7012   -1.7208   -2.5691 C   0  0  0  0  0  0  0  0  0  0  0  0
   -5.4419   -1.5459   -3.4458 N   0  0  0  0  0  0  0  0  0  0  0  0
   -3.1850   -0.7534   -1.0481 N   0  0  0  0  0  0  0  0  0  0  0  0
   -3.7016   -0.0214   -0.0104 C   0  0  0  0  0  0  0  0  0  0  0  0
   -5.2411   -0.1614    0.6336 S   0  0  0  0  0  0  0  0  0  0  0  0
   -2.8793    0.9387    0.5243 N   0  0  0  0  0  0  0  0  0  0  0  0
   -1.5374    1.1561    0.3367 C   0  0  0  0  0  0  0  0  0  0  0  0
   -0.9430    2.2131    0.9561 C   0  0  0  0  0  0  0  0  0  0  0  0
    0.4967    2.4900    0.8218 C   0  0  0  0  0  0  0  0  0  0  0  0
    1.4319    1.5645    1.1598 C   0  0  0  0  0  0  0  0  0  0  0  0
    1.0283    0.4512    2.0303 C   0  0  0  0  0  0  0  0  0  0  0  0
    1.4795    0.4686    3.3232 O   0  0  0  0  0  0  0  0  0  0  0  0
    0.3371   -0.5684    1.4974 C   0  0  0  0  0  0  0  0  0  0  0  0
   -0.0942   -1.8376    2.1099 C   0  0  0  0  0  0  0  0  0  0  0  0
    0.5602   -2.8792    1.5275 F   0  0  0  0  0  0  0  0  0  0  0  0
   -1.4155   -2.0682    1.8930 F   0  0  0  0  0  0  0  0  0  0  0  0
    0.1665   -0.3520    0.0228 C   0  0  0  0  0  0  0  0  0  0  0  0
   -0.8191    0.3213   -0.5126 N   0  0  0  0  0  0  0  0  0  0  0  0
    1.4316   -0.6529   -0.8280 C   0  0  0  0  0  0  0  0  0  0  0  0
    2.7260   -0.3555   -0.0013 C   0  0  0  0  0  0  0  0  0  0  0  0
    2.6273    1.2087    0.2057 C   0  0  0  0  0  0  0  0  0  0  0  0
    3.9190    1.7999    0.7674 C   0  0  0  0  0  0  0  0  0  0  0  0
    4.0876    1.3754    2.0525 F   0  0  0  0  0  0  0  0  0  0  0  0
    2.3594    1.6092   -1.2829 C   0  0  0  0  0  0  0  0  0  0  0  0
    1.6917    0.3798   -1.9305 C   0  0  0  0  0  0  0  0  0  0  0  0
    0.6273    0.6969   -2.6809 F   0  0  0  0  0  0  0  0  0  0  0  0
    2.6011   -0.1623   -2.7972 F   0  0  0  0  0  0  0  0  0  0  0  0
   -2.0760   -3.0196   -0.9550 H   0  0  0  0  0  0  0  0  0  0  0  0
   -3.5415   -4.0068   -1.1481 H   0  0  0  0  0  0  0  0  0  0  0  0
   -2.6548   -3.4342   -2.5809 H   0  0  0  0  0  0  0  0  0  0  0  0
   -2.2375   -0.5239   -1.3531 H   0  0  0  0  0  0  0  0  0  0  0  0
   -3.3472    1.5114    1.2166 H   0  0  0  0  0  0  0  0  0  0  0  0
   -1.5078    2.9134    1.5630 H   0  0  0  0  0  0  0  0  0  0  0  0
    0.7159    3.3159    0.1494 H   0  0  0  0  0  0  0  0  0  0  0  0
    2.1492    1.1759    3.4129 H   0  0  0  0  0  0  0  0  0  0  0  0
    0.0854   -1.8767    3.1884 H   0  0  0  0  0  0  0  0  0  0  0  0
    1.4013   -1.6794   -1.1991 H   0  0  0  0  0  0  0  0  0  0  0  0
    2.8164   -0.9381    0.9215 H   0  0  0  0  0  0  0  0  0  0  0  0
    3.6225   -0.6027   -0.5904 H   0  0  0  0  0  0  0  0  0  0  0  0
    4.7975    1.4839    0.1969 H   0  0  0  0  0  0  0  0  0  0  0  0
    3.8907    2.8944    0.7813 H   0  0  0  0  0  0  0  0  0  0  0  0
    3.3101    1.8136   -1.7881 H   0  0  0  0  0  0  0  0  0  0  0  0
    1.7480    2.5001   -1.4199 H   0  0  0  0  0  0  0  0  0  0  0  0
  2  1  1  0  0  0  0
  3  2  1  0  0  0  0
  4  3  3  0  0  0  0
  5  2  1  0  0  0  0
  6  5  1  0  0  0  0
  7  6  2  0  0  0  0
  8  6  1  0  0  0  0
  9  8  1  0  0  0  0
 10  9  2  0  0  0  0
 11 10  1  0  0  0  0
 12 11  2  0  0  0  0
 13 12  1  0  0  0  0
 14 13  1  0  0  0  0
 15 13  2  0  0  0  0
 16 15  1  0  0  0  0
 17 16  1  0  0  0  0
 18 16  1  0  0  0  0
 19 15  1  0  0  0  0
 20 19  2  0  0  0  0
 20  9  1  0  0  0  0
 21 19  1  0  0  0  0
 22 21  1  0  0  0  0
 23 22  1  0  0  0  0
 23 12  1  0  0  0  0
 24 23  1  0  0  0  0
 25 24  1  0  0  0  0
 26 23  1  0  0  0  0
 27 26  1  0  0  0  0
 27 21  1  0  0  0  0
 28 27  1  0  0  0  0
 29 27  1  0  0  0  0
  1 30  1  0  0  0  0
  1 31  1  0  0  0  0
  1 32  1  0  0  0  0
  5 33  1  0  0  0  0
  8 34  1  0  0  0  0
 10 35  1  0  0  0  0
 11 36  1  0  0  0  0
 14 37  1  0  0  0  0
 16 38  1  0  0  0  0
 21 39  1  0  0  0  0
 22 40  1  0  0  0  0
 22 41  1  0  0  0  0
 24 42  1  0  0  0  0
 24 43  1  0  0  0  0
 26 44  1  0  0  0  0
 26 45  1  0  0  0  0
M  END
>  <energy>
46.819169257632637

$$$$
