CCC(C)C(OCC(C)C)C12CC3(O)CC(C(C)C(O)C(C)C1=O)C32
                    3D

 61 63  0  0  0  0  0  0  0  0999 V2000
   -1.0834    4.9810    0.3280 C   0  0  0  0  0  0  0  0  0  0  0  0
   -0.3204    3.6985   -0.0075 C   0  0  0  0  0  0  0  0  0  0  0  0
   -1.1528    2.4244    0.2121 C   0  0  0  0  0  0  0  0  0  0  0  0
   -1.4604    2.1628    1.6933 C   0  0  0  0  0  0  0  0  0  0  0  0
   -0.6426    1.1726   -0.5650 C   0  0  0  0  0  0  0  0  0  0  0  0
   -1.4356    0.0125   -0.2151 O   0  0  0  0  0  0  0  0  0  0  0  0
   -2.7074   -0.0201   -0.8762 C   0  0  0  0  0  0  0  0  0  0  0  0
   -3.4714   -1.3110   -0.5432 C   0  0  0  0  0  0  0  0  0  0  0  0
   -2.7410   -2.5448   -1.0710 C   0  0  0  0  0  0  0  0  0  0  0  0
   -3.7261   -1.4469    0.9577 C   0  0  0  0  0  0  0  0  0  0  0  0
    0.8518    0.7661   -0.4157 C   0  0  0  0  0  0  0  0  0  0  0  0
    1.8732    1.5441   -1.3775 C   0  0  0  0  0  0  0  0  0  0  0  0
    1.7996    0.3762   -2.3939 C   0  0  0  0  0  0  0  0  0  0  0  0
    1.0605    0.5780   -3.6047 O   0  0  0  0  0  0  0  0  0  0  0  0
    2.9522   -0.6690   -2.3882 C   0  0  0  0  0  0  0  0  0  0  0  0
    2.5266   -1.0432   -0.9486 C   0  0  0  0  0  0  0  0  0  0  0  0
    2.2790   -2.3600   -0.2514 C   0  0  0  0  0  0  0  0  0  0  0  0
    3.6152   -2.9592    0.1836 C   0  0  0  0  0  0  0  0  0  0  0  0
    1.2608   -2.1053    0.9200 C   0  0  0  0  0  0  0  0  0  0  0  0
    1.2987   -3.2695    1.7543 O   0  0  0  0  0  0  0  0  0  0  0  0
    1.4641   -0.8136    1.7711 C   0  0  0  0  0  0  0  0  0  0  0  0
    0.5114   -0.7816    2.9796 C   0  0  0  0  0  0  0  0  0  0  0  0
    1.3603    0.5821    1.0744 C   0  0  0  0  0  0  0  0  0  0  0  0
    1.7525    1.5634    1.7246 O   0  0  0  0  0  0  0  0  0  0  0  0
    1.1455   -0.4543   -1.3136 C   0  0  0  0  0  0  0  0  0  0  0  0
   -1.5461    4.9549    1.3174 H   0  0  0  0  0  0  0  0  0  0  0  0
   -1.8742    5.1608   -0.4111 H   0  0  0  0  0  0  0  0  0  0  0  0
   -0.4037    5.8399    0.3026 H   0  0  0  0  0  0  0  0  0  0  0  0
    0.6005    3.6648    0.5835 H   0  0  0  0  0  0  0  0  0  0  0  0
   -0.0398    3.7785   -1.0622 H   0  0  0  0  0  0  0  0  0  0  0  0
   -2.1375    2.6433   -0.2272 H   0  0  0  0  0  0  0  0  0  0  0  0
   -0.5691    1.9322    2.2753 H   0  0  0  0  0  0  0  0  0  0  0  0
   -1.9301    3.0312    2.1646 H   0  0  0  0  0  0  0  0  0  0  0  0
   -2.1695    1.3372    1.8099 H   0  0  0  0  0  0  0  0  0  0  0  0
   -0.8084    1.3800   -1.6323 H   0  0  0  0  0  0  0  0  0  0  0  0
   -2.5556    0.0444   -1.9622 H   0  0  0  0  0  0  0  0  0  0  0  0
   -3.3065    0.8403   -0.5580 H   0  0  0  0  0  0  0  0  0  0  0  0
   -4.4443   -1.2552   -1.0477 H   0  0  0  0  0  0  0  0  0  0  0  0
   -2.6106   -2.4807   -2.1557 H   0  0  0  0  0  0  0  0  0  0  0  0
   -1.7541   -2.6577   -0.6149 H   0  0  0  0  0  0  0  0  0  0  0  0
   -3.3149   -3.4526   -0.8577 H   0  0  0  0  0  0  0  0  0  0  0  0
   -4.2875   -0.5857    1.3334 H   0  0  0  0  0  0  0  0  0  0  0  0
   -4.3149   -2.3455    1.1682 H   0  0  0  0  0  0  0  0  0  0  0  0
   -2.7917   -1.5173    1.5220 H   0  0  0  0  0  0  0  0  0  0  0  0
    2.8757    1.7248   -0.9625 H   0  0  0  0  0  0  0  0  0  0  0  0
    1.5199    2.4972   -1.7776 H   0  0  0  0  0  0  0  0  0  0  0  0
    0.8951   -0.3108   -3.9639 H   0  0  0  0  0  0  0  0  0  0  0  0
    3.9624   -0.2528   -2.4753 H   0  0  0  0  0  0  0  0  0  0  0  0
    2.8322   -1.4779   -3.1201 H   0  0  0  0  0  0  0  0  0  0  0  0
    3.1482   -0.4377   -0.2714 H   0  0  0  0  0  0  0  0  0  0  0  0
    1.8207   -3.0805   -0.9420 H   0  0  0  0  0  0  0  0  0  0  0  0
    4.3118   -3.0091   -0.6620 H   0  0  0  0  0  0  0  0  0  0  0  0
    3.4858   -3.9750    0.5702 H   0  0  0  0  0  0  0  0  0  0  0  0
    4.0869   -2.3526    0.9614 H   0  0  0  0  0  0  0  0  0  0  0  0
    0.2522   -2.0728    0.4923 H   0  0  0  0  0  0  0  0  0  0  0  0
    0.4192   -3.3799    2.1562 H   0  0  0  0  0  0  0  0  0  0  0  0
    2.4843   -0.8633    2.1752 H   0  0  0  0  0  0  0  0  0  0  0  0
    0.7824    0.0320    3.6649 H   0  0  0  0  0  0  0  0  0  0  0  0
    0.5480   -1.7073    3.5621 H   0  0  0  0  0  0  0  0  0  0  0  0
   -0.5229   -0.6104    2.6615 H   0  0  0  0  0  0  0  0  0  0  0  0
    0.3457   -1.1202   -1.6440 H   0  0  0  0  0  0  0  0  0  0  0  0
  2  1  1  0  0  0  0
  3  2  1  0  0  0  0
  4  3  1  0  0  0  0
  5  3  1  0  0  0  0
  6  5  1  0  0  0  0
  7  6  1  0  0  0  0
  8  7  1  0  0  0  0
  9  8  1  0  0  0  0
 10  8  1  0  0  0  0
 11  5  1  0  0  0  0
 12 11  1  0  0  0  0
 13 12  1  0  0  0  0
 14 13  1  0  0  0  0
 15 13  1  0  0  0  0
 16 15  1  0  0  0  0
 17 16  1  0  0  0  0
 18 17  1  0  0  0  0
 19 17  1  0  0  0  0
 20 19  1  0  0  0  0
 21 19  1  0  0  0  0
 22 21  1  0  0  0  0
 23 21  1  0  0  0  0
 23 11  1  0  0  0  0
 24 23  2  0  0  0  0
 25 16  1  0  0  0  0
 25 13  1  0  0  0  0
 25 11  1  0  0  0  0
  1 26  1  0  0  0  0
  1 27  1  0  0  0  0
  1 28  1  0  0  0  0
  2 29  1  0  0  0  0
  2 30  1  0  0  0  0
  3 31  1  0  0  0  0
  4 32  1  0  0  0  0
  4 33  1  0  0  0  0
  4 34  1  0  0  0  0
  5 35  1  0  0  0  0
  7 36  1  0  0  0  0
  7 37  1  0  0  0  0
  8 38  1  0  0  0  0
  9 39  1  0  0  0  0
  9 40  1  0  0  0  0
  9 41  1  0  0  0  0
 10 42  1  0  0  0  0
 10 43  1  0  0  0  0
 10 44  1  0  0  0  0
 12 45  1  0  0  0  0
 12 46  1  0  0  0  0
 14 47  1  0  0  0  0
 15 48  1  0  0  0  0
 15 49  1  0  0  0  0
 16 50  1  0  0  0  0
 17 51  1  0  0  0  0
 18 52  1  0  0  0  0
 18 53  1  0  0  0  0
 18 54  1  0  0  0  0
 19 55  1  0  0  0  0
 20 56  1  0  0  0  0
 21 57  1  0  0  0  0
 22 58  1  0  0  0  0
 22 59  1  0  0  0  0
 22 60  1  0  0  0  0
 25 61  1  0  0  0  0
M  END
>  <energy>
69.234453804983374

$$$$
