CC(C)=CCC12CCC3(OC4OC5OC6(CC4O)C3C1(O)C56OC(C)C(C)(C)C)C1C(C)CCC12
                    3D

 79 85  0  0  0  0  0  0  0  0999 V2000
    4.4712   -2.5607   -1.5620 C   0  0  0  0  0  0  0  0  0  0  0  0
    4.4667   -2.0622   -0.1397 C   0  0  0  0  0  0  0  0  0  0  0  0
    5.8187   -2.1305    0.5264 C   0  0  0  0  0  0  0  0  0  0  0  0
    3.3854   -1.5893    0.5239 C   0  0  0  0  0  0  0  0  0  0  0  0
    1.9709   -1.4564    0.0125 C   0  0  0  0  0  0  0  0  0  0  0  0
    1.3813   -0.0120   -0.0682 C   0  0  0  0  0  0  0  0  0  0  0  0
    2.4705    1.1257   -0.0799 C   0  0  0  0  0  0  0  0  0  0  0  0
    1.8163    2.5248   -0.2808 C   0  0  0  0  0  0  0  0  0  0  0  0
    0.2745    2.3686   -0.1573 C   0  0  0  0  0  0  0  0  0  0  0  0
   -0.4279    3.5950   -0.1392 O   0  0  0  0  0  0  0  0  0  0  0  0
   -1.7537    3.4525    0.4232 C   0  0  0  0  0  0  0  0  0  0  0  0
   -2.3887    2.2302    0.0698 O   0  0  0  0  0  0  0  0  0  0  0  0
   -2.3728    1.0400    0.8874 C   0  0  0  0  0  0  0  0  0  0  0  0
   -2.5041    1.3198    2.2786 O   0  0  0  0  0  0  0  0  0  0  0  0
   -1.0137    1.4193    2.3957 C   0  0  0  0  0  0  0  0  0  0  0  0
   -0.9839    2.8812    2.8920 C   0  0  0  0  0  0  0  0  0  0  0  0
   -1.7398    3.8330    1.9353 C   0  0  0  0  0  0  0  0  0  0  0  0
   -1.1428    5.1320    2.0927 O   0  0  0  0  0  0  0  0  0  0  0  0
    0.1509    1.7402    1.2661 C   0  0  0  0  0  0  0  0  0  0  0  0
    0.4328    0.2767    1.1645 C   0  0  0  0  0  0  0  0  0  0  0  0
    1.1168   -0.2282    2.3619 O   0  0  0  0  0  0  0  0  0  0  0  0
   -1.1578    0.0750    1.2396 C   0  0  0  0  0  0  0  0  0  0  0  0
   -1.4405   -1.2645    1.7797 O   0  0  0  0  0  0  0  0  0  0  0  0
   -2.7192   -1.9160    1.6952 C   0  0  0  0  0  0  0  0  0  0  0  0
   -2.6956   -2.9092    2.8709 C   0  0  0  0  0  0  0  0  0  0  0  0
   -3.0227   -2.6308    0.3195 C   0  0  0  0  0  0  0  0  0  0  0  0
   -1.8163   -3.4440   -0.1796 C   0  0  0  0  0  0  0  0  0  0  0  0
   -3.3705   -1.6063   -0.7775 C   0  0  0  0  0  0  0  0  0  0  0  0
   -4.2505   -3.5655    0.4412 C   0  0  0  0  0  0  0  0  0  0  0  0
   -0.1758    1.4754   -1.3702 C   0  0  0  0  0  0  0  0  0  0  0  0
   -0.1269    2.0083   -2.8404 C   0  0  0  0  0  0  0  0  0  0  0  0
    0.6879    3.2524   -3.1783 C   0  0  0  0  0  0  0  0  0  0  0  0
    0.3414    0.7996   -3.6578 C   0  0  0  0  0  0  0  0  0  0  0  0
    1.2388    0.0135   -2.7094 C   0  0  0  0  0  0  0  0  0  0  0  0
    0.5338    0.1171   -1.3518 C   0  0  0  0  0  0  0  0  0  0  0  0
    3.4760   -2.6737   -1.9927 H   0  0  0  0  0  0  0  0  0  0  0  0
    4.9517   -3.5444   -1.6152 H   0  0  0  0  0  0  0  0  0  0  0  0
    5.0385   -1.8755   -2.2027 H   0  0  0  0  0  0  0  0  0  0  0  0
    6.1779   -3.1644    0.5411 H   0  0  0  0  0  0  0  0  0  0  0  0
    5.7964   -1.7761    1.5612 H   0  0  0  0  0  0  0  0  0  0  0  0
    6.5502   -1.5252   -0.0187 H   0  0  0  0  0  0  0  0  0  0  0  0
    3.5252   -1.2550    1.5555 H   0  0  0  0  0  0  0  0  0  0  0  0
    1.8930   -1.9285   -0.9679 H   0  0  0  0  0  0  0  0  0  0  0  0
    1.3321   -2.0825    0.6497 H   0  0  0  0  0  0  0  0  0  0  0  0
    3.0107    1.1390    0.8740 H   0  0  0  0  0  0  0  0  0  0  0  0
    3.2240    0.9573   -0.8582 H   0  0  0  0  0  0  0  0  0  0  0  0
    2.1431    2.9544   -1.2251 H   0  0  0  0  0  0  0  0  0  0  0  0
    2.2043    3.2348    0.4656 H   0  0  0  0  0  0  0  0  0  0  0  0
   -2.3378    4.2340   -0.0800 H   0  0  0  0  0  0  0  0  0  0  0  0
   -3.2611    0.4838    0.5965 H   0  0  0  0  0  0  0  0  0  0  0  0
    0.0143    3.2705    3.1279 H   0  0  0  0  0  0  0  0  0  0  0  0
   -1.4706    2.9389    3.8770 H   0  0  0  0  0  0  0  0  0  0  0  0
   -2.7797    3.9127    2.2708 H   0  0  0  0  0  0  0  0  0  0  0  0
   -0.3526    5.1273    1.5103 H   0  0  0  0  0  0  0  0  0  0  0  0
    0.9793    2.2126    1.8312 H   0  0  0  0  0  0  0  0  0  0  0  0
    0.6189   -1.0328    2.6022 H   0  0  0  0  0  0  0  0  0  0  0  0
   -3.5100   -1.1900    1.9156 H   0  0  0  0  0  0  0  0  0  0  0  0
   -2.3493   -2.4173    3.7918 H   0  0  0  0  0  0  0  0  0  0  0  0
   -3.6847   -3.3355    3.0663 H   0  0  0  0  0  0  0  0  0  0  0  0
   -1.9920   -3.7317    2.6842 H   0  0  0  0  0  0  0  0  0  0  0  0
   -1.5312   -4.2221    0.5312 H   0  0  0  0  0  0  0  0  0  0  0  0
   -2.0452   -3.9418   -1.1316 H   0  0  0  0  0  0  0  0  0  0  0  0
   -0.9471   -2.8025   -0.3500 H   0  0  0  0  0  0  0  0  0  0  0  0
   -2.5357   -0.9317   -0.9833 H   0  0  0  0  0  0  0  0  0  0  0  0
   -3.6178   -2.0931   -1.7287 H   0  0  0  0  0  0  0  0  0  0  0  0
   -4.2485   -1.0151   -0.4944 H   0  0  0  0  0  0  0  0  0  0  0  0
   -4.6111   -3.8876   -0.5432 H   0  0  0  0  0  0  0  0  0  0  0  0
   -4.0162   -4.4755    1.0036 H   0  0  0  0  0  0  0  0  0  0  0  0
   -5.0846   -3.0592    0.9403 H   0  0  0  0  0  0  0  0  0  0  0  0
   -1.2231    1.1986   -1.2881 H   0  0  0  0  0  0  0  0  0  0  0  0
   -1.1540    2.2463   -3.1483 H   0  0  0  0  0  0  0  0  0  0  0  0
    0.5215    4.0599   -2.4604 H   0  0  0  0  0  0  0  0  0  0  0  0
    1.7591    3.0389   -3.2449 H   0  0  0  0  0  0  0  0  0  0  0  0
    0.3911    3.6368   -4.1602 H   0  0  0  0  0  0  0  0  0  0  0  0
   -0.5209    0.1808   -3.9329 H   0  0  0  0  0  0  0  0  0  0  0  0
    0.8603    1.0728   -4.5833 H   0  0  0  0  0  0  0  0  0  0  0  0
    1.3414   -1.0266   -3.0422 H   0  0  0  0  0  0  0  0  0  0  0  0
    2.2393    0.4540   -2.6966 H   0  0  0  0  0  0  0  0  0  0  0  0
   -0.2301   -0.6701   -1.3310 H   0  0  0  0  0  0  0  0  0  0  0  0
  2  1  1  0  0  0  0
  3  2  1  0  0  0  0
  4  2  2  0  0  0  0
  5  4  1  0  0  0  0
  6  5  1  0  0  0  0
  7  6  1  0  0  0  0
  8  7  1  0  0  0  0
  9  8  1  0  0  0  0
 10  9  1  0  0  0  0
 11 10  1  0  0  0  0
 12 11  1  0  0  0  0
 13 12  1  0  0  0  0
 14 13  1  0  0  0  0
 15 14  1  0  0  0  0
 16 15  1  0  0  0  0
 17 16  1  0  0  0  0
 17 11  1  0  0  0  0
 18 17  1  0  0  0  0
 19 15  1  0  0  0  0
 19  9  1  0  0  0  0
 20 19  1  0  0  0  0
 20  6  1  0  0  0  0
 21 20  1  0  0  0  0
 22 20  1  0  0  0  0
 22 13  1  0  0  0  0
 22 15  1  0  0  0  0
 23 22  1  0  0  0  0
 24 23  1  0  0  0  0
 25 24  1  0  0  0  0
 26 24  1  0  0  0  0
 27 26  1  0  0  0  0
 28 26  1  0  0  0  0
 29 26  1  0  0  0  0
 30  9  1  0  0  0  0
 31 30  1  0  0  0  0
 32 31  1  0  0  0  0
 33 31  1  0  0  0  0
 34 33  1  0  0  0  0
 35 34  1  0  0  0  0
 35 30  1  0  0  0  0
 35  6  1  0  0  0  0
  1 36  1  0  0  0  0
  1 37  1  0  0  0  0
  1 38  1  0  0  0  0
  3 39  1  0  0  0  0
  3 40  1  0  0  0  0
  3 41  1  0  0  0  0
  4 42  1  0  0  0  0
  5 43  1  0  0  0  0
  5 44  1  0  0  0  0
  7 45  1  0  0  0  0
  7 46  1  0  0  0  0
  8 47  1  0  0  0  0
  8 48  1  0  0  0  0
 11 49  1  0  0  0  0
 13 50  1  0  0  0  0
 16 51  1  0  0  0  0
 16 52  1  0  0  0  0
 17 53  1  0  0  0  0
 18 54  1  0  0  0  0
 19 55  1  0  0  0  0
 21 56  1  0  0  0  0
 24 57  1  0  0  0  0
 25 58  1  0  0  0  0
 25 59  1  0  0  0  0
 25 60  1  0  0  0  0
 27 61  1  0  0  0  0
 27 62  1  0  0  0  0
 27 63  1  0  0  0  0
 28 64  1  0  0  0  0
 28 65  1  0  0  0  0
 28 66  1  0  0  0  0
 29 67  1  0  0  0  0
 29 68  1  0  0  0  0
 29 69  1  0  0  0  0
 30 70  1  0  0  0  0
 31 71  1  0  0  0  0
 32 72  1  0  0  0  0
 32 73  1  0  0  0  0
 32 74  1  0  0  0  0
 33 75  1  0  0  0  0
 33 76  1  0  0  0  0
 34 77  1  0  0  0  0
 34 78  1  0  0  0  0
 35 79  1  0  0  0  0
M  END
>  <energy>
280.30644685601771

$$$$
