CCN(C(C)=O)C(C)C1OC23CC(O)C4(C)CC5(C)C(O)CCC5C1C(OC(C)=O)CC2C4(C)C3
                    3D

 80 84  0  0  0  0  0  0  0  0999 V2000
    2.2649   -4.8352    0.6894 C   0  0  0  0  0  0  0  0  0  0  0  0
    2.3126   -3.9447   -0.5355 C   0  0  0  0  0  0  0  0  0  0  0  0
    3.0174   -2.6902   -0.2583 N   0  0  0  0  0  0  0  0  0  0  0  0
    4.2734   -2.4032   -0.7982 C   0  0  0  0  0  0  0  0  0  0  0  0
    5.0272   -3.5473   -1.4369 C   0  0  0  0  0  0  0  0  0  0  0  0
    4.7823   -1.2846   -0.7677 O   0  0  0  0  0  0  0  0  0  0  0  0
    2.2150   -1.6248    0.4105 C   0  0  0  0  0  0  0  0  0  0  0  0
    3.0124   -0.8470    1.4541 C   0  0  0  0  0  0  0  0  0  0  0  0
    1.3786   -0.8060   -0.6404 C   0  0  0  0  0  0  0  0  0  0  0  0
    1.8689    0.4812   -1.0201 O   0  0  0  0  0  0  0  0  0  0  0  0
    1.0750    1.6380   -0.7021 C   0  0  0  0  0  0  0  0  0  0  0  0
    1.4676    2.0866    0.7110 C   0  0  0  0  0  0  0  0  0  0  0  0
    0.6785    3.3023    1.1600 C   0  0  0  0  0  0  0  0  0  0  0  0
    1.4889    4.4729    0.9862 O   0  0  0  0  0  0  0  0  0  0  0  0
   -0.6500    3.4169    0.3959 C   0  0  0  0  0  0  0  0  0  0  0  0
   -1.1594    4.8751    0.5385 C   0  0  0  0  0  0  0  0  0  0  0  0
   -1.7685    2.4511    0.9971 C   0  0  0  0  0  0  0  0  0  0  0  0
   -1.6003    0.9331    1.5930 C   0  0  0  0  0  0  0  0  0  0  0  0
   -1.1045    1.1227    3.0719 C   0  0  0  0  0  0  0  0  0  0  0  0
   -3.0681    0.4011    1.6832 C   0  0  0  0  0  0  0  0  0  0  0  0
   -3.6547    0.3689    0.3854 O   0  0  0  0  0  0  0  0  0  0  0  0
   -2.9699   -1.0107    2.2138 C   0  0  0  0  0  0  0  0  0  0  0  0
   -1.7693   -1.5958    1.4925 C   0  0  0  0  0  0  0  0  0  0  0  0
   -0.8065   -0.4344    1.0309 C   0  0  0  0  0  0  0  0  0  0  0  0
   -0.1714   -0.9501   -0.3911 C   0  0  0  0  0  0  0  0  0  0  0  0
   -0.9136   -0.7748   -1.7594 C   0  0  0  0  0  0  0  0  0  0  0  0
   -2.2699   -1.2101   -1.5548 O   0  0  0  0  0  0  0  0  0  0  0  0
   -2.7954   -2.0430   -2.4898 C   0  0  0  0  0  0  0  0  0  0  0  0
   -3.9110   -2.8548   -1.8922 C   0  0  0  0  0  0  0  0  0  0  0  0
   -2.3581   -2.2039   -3.6233 O   0  0  0  0  0  0  0  0  0  0  0  0
   -0.8032    0.6317   -2.3741 C   0  0  0  0  0  0  0  0  0  0  0  0
   -0.4358    1.5612   -1.2294 C   0  0  0  0  0  0  0  0  0  0  0  0
   -0.3946    3.0961   -1.1500 C   0  0  0  0  0  0  0  0  0  0  0  0
   -1.3168    3.7881   -2.1368 C   0  0  0  0  0  0  0  0  0  0  0  0
    1.1082    2.8877   -1.6404 C   0  0  0  0  0  0  0  0  0  0  0  0
    3.2764   -5.0693    1.0389 H   0  0  0  0  0  0  0  0  0  0  0  0
    1.7480   -5.7728    0.4633 H   0  0  0  0  0  0  0  0  0  0  0  0
    1.7280   -4.3531    1.5132 H   0  0  0  0  0  0  0  0  0  0  0  0
    1.2959   -3.7039   -0.8673 H   0  0  0  0  0  0  0  0  0  0  0  0
    2.7708   -4.4824   -1.3661 H   0  0  0  0  0  0  0  0  0  0  0  0
    4.9707   -4.4533   -0.8281 H   0  0  0  0  0  0  0  0  0  0  0  0
    6.0839   -3.2878   -1.5239 H   0  0  0  0  0  0  0  0  0  0  0  0
    4.6393   -3.7316   -2.4402 H   0  0  0  0  0  0  0  0  0  0  0  0
    1.5008   -2.1957    1.0211 H   0  0  0  0  0  0  0  0  0  0  0  0
    3.5801   -0.0215    1.0246 H   0  0  0  0  0  0  0  0  0  0  0  0
    2.3470   -0.4398    2.2203 H   0  0  0  0  0  0  0  0  0  0  0  0
    3.7224   -1.5032    1.9707 H   0  0  0  0  0  0  0  0  0  0  0  0
    1.5354   -1.3598   -1.5759 H   0  0  0  0  0  0  0  0  0  0  0  0
    2.5447    2.3046    0.7409 H   0  0  0  0  0  0  0  0  0  0  0  0
    1.2997    1.2751    1.4132 H   0  0  0  0  0  0  0  0  0  0  0  0
    0.5006    3.2620    2.2381 H   0  0  0  0  0  0  0  0  0  0  0  0
    2.2244    4.4122    1.6163 H   0  0  0  0  0  0  0  0  0  0  0  0
   -2.1695    4.9837    0.1349 H   0  0  0  0  0  0  0  0  0  0  0  0
   -1.1999    5.1769    1.5924 H   0  0  0  0  0  0  0  0  0  0  0  0
   -0.5102    5.5868    0.0148 H   0  0  0  0  0  0  0  0  0  0  0  0
   -2.5720    2.4399    0.2447 H   0  0  0  0  0  0  0  0  0  0  0  0
   -2.2255    3.0169    1.8249 H   0  0  0  0  0  0  0  0  0  0  0  0
   -1.0582    0.1789    3.6243 H   0  0  0  0  0  0  0  0  0  0  0  0
   -1.7722    1.7855    3.6316 H   0  0  0  0  0  0  0  0  0  0  0  0
   -0.0950    1.5355    3.1231 H   0  0  0  0  0  0  0  0  0  0  0  0
   -3.6980    1.0304    2.3199 H   0  0  0  0  0  0  0  0  0  0  0  0
   -4.6092    0.2355    0.4922 H   0  0  0  0  0  0  0  0  0  0  0  0
   -3.8697   -1.6007    2.0022 H   0  0  0  0  0  0  0  0  0  0  0  0
   -2.8134   -1.0196    3.2976 H   0  0  0  0  0  0  0  0  0  0  0  0
   -2.1474   -2.1858    0.6516 H   0  0  0  0  0  0  0  0  0  0  0  0
   -1.2358   -2.2994    2.1360 H   0  0  0  0  0  0  0  0  0  0  0  0
    0.0598   -0.5134    1.7022 H   0  0  0  0  0  0  0  0  0  0  0  0
   -0.2507   -2.0465   -0.2690 H   0  0  0  0  0  0  0  0  0  0  0  0
   -0.4449   -1.4669   -2.4749 H   0  0  0  0  0  0  0  0  0  0  0  0
   -4.5456   -3.2639   -2.6807 H   0  0  0  0  0  0  0  0  0  0  0  0
   -4.5417   -2.2464   -1.2384 H   0  0  0  0  0  0  0  0  0  0  0  0
   -3.4858   -3.6919   -1.3271 H   0  0  0  0  0  0  0  0  0  0  0  0
   -1.7590    0.9203   -2.8265 H   0  0  0  0  0  0  0  0  0  0  0  0
   -0.0351    0.6543   -3.1537 H   0  0  0  0  0  0  0  0  0  0  0  0
   -1.2035    1.2055   -0.5826 H   0  0  0  0  0  0  0  0  0  0  0  0
   -1.1132    4.8616   -2.1853 H   0  0  0  0  0  0  0  0  0  0  0  0
   -1.1951    3.3996   -3.1533 H   0  0  0  0  0  0  0  0  0  0  0  0
   -2.3647    3.6489   -1.8566 H   0  0  0  0  0  0  0  0  0  0  0  0
    1.8139    3.6825   -1.4070 H   0  0  0  0  0  0  0  0  0  0  0  0
    1.2234    2.6582   -2.7091 H   0  0  0  0  0  0  0  0  0  0  0  0
  2  1  1  0  0  0  0
  3  2  1  0  0  0  0
  4  3  1  0  0  0  0
  5  4  1  0  0  0  0
  6  4  2  0  0  0  0
  7  3  1  0  0  0  0
  8  7  1  0  0  0  0
  9  7  1  0  0  0  0
 10  9  1  0  0  0  0
 11 10  1  0  0  0  0
 12 11  1  0  0  0  0
 13 12  1  0  0  0  0
 14 13  1  0  0  0  0
 15 13  1  0  0  0  0
 16 15  1  0  0  0  0
 17 15  1  0  0  0  0
 18 17  1  0  0  0  0
 19 18  1  0  0  0  0
 20 18  1  0  0  0  0
 21 20  1  0  0  0  0
 22 20  1  0  0  0  0
 23 22  1  0  0  0  0
 24 23  1  0  0  0  0
 24 18  1  0  0  0  0
 25 24  1  0  0  0  0
 25  9  1  0  0  0  0
 26 25  1  0  0  0  0
 27 26  1  0  0  0  0
 28 27  1  0  0  0  0
 29 28  1  0  0  0  0
 30 28  2  0  0  0  0
 31 26  1  0  0  0  0
 32 31  1  0  0  0  0
 32 11  1  0  0  0  0
 33 32  1  0  0  0  0
 33 15  1  0  0  0  0
 34 33  1  0  0  0  0
 35 33  1  0  0  0  0
 35 11  1  0  0  0  0
  1 36  1  0  0  0  0
  1 37  1  0  0  0  0
  1 38  1  0  0  0  0
  2 39  1  0  0  0  0
  2 40  1  0  0  0  0
  5 41  1  0  0  0  0
  5 42  1  0  0  0  0
  5 43  1  0  0  0  0
  7 44  1  0  0  0  0
  8 45  1  0  0  0  0
  8 46  1  0  0  0  0
  8 47  1  0  0  0  0
  9 48  1  0  0  0  0
 12 49  1  0  0  0  0
 12 50  1  0  0  0  0
 13 51  1  0  0  0  0
 14 52  1  0  0  0  0
 16 53  1  0  0  0  0
 16 54  1  0  0  0  0
 16 55  1  0  0  0  0
 17 56  1  0  0  0  0
 17 57  1  0  0  0  0
 19 58  1  0  0  0  0
 19 59  1  0  0  0  0
 19 60  1  0  0  0  0
 20 61  1  0  0  0  0
 21 62  1  0  0  0  0
 22 63  1  0  0  0  0
 22 64  1  0  0  0  0
 23 65  1  0  0  0  0
 23 66  1  0  0  0  0
 24 67  1  0  0  0  0
 25 68  1  0  0  0  0
 26 69  1  0  0  0  0
 29 70  1  0  0  0  0
 29 71  1  0  0  0  0
 29 72  1  0  0  0  0
 31 73  1  0  0  0  0
 31 74  1  0  0  0  0
 32 75  1  0  0  0  0
 34 76  1  0  0  0  0
 34 77  1  0  0  0  0
 34 78  1  0  0  0  0
 35 79  1  0  0  0  0
 35 80  1  0  0  0  0
M  END
>  <energy>
209.44764365535784

$$$$
