CN(C)CCCN(C(=O)C1(C(=O)N2CCCCC2)C2CCC(=C(Br)C2=O)C1C(=O)NC1CCCCC1)C(C)(C)C(C)(C)
                    3D

 98101  0  0  0  0  0  0  0  0999 V2000
   -2.8440    4.4563    0.1324 C   0  0  0  0  0  0  0  0  0  0  0  0
   -2.0992    4.7218    1.3664 N   0  0  0  0  0  0  0  0  0  0  0  0
   -3.0177    5.1702    2.4169 C   0  0  0  0  0  0  0  0  0  0  0  0
   -1.3360    3.5451    1.8190 C   0  0  0  0  0  0  0  0  0  0  0  0
   -0.1465    3.2265    0.8956 C   0  0  0  0  0  0  0  0  0  0  0  0
    0.7454    2.1563    1.5081 C   0  0  0  0  0  0  0  0  0  0  0  0
    1.7042    1.3995    0.6475 N   0  0  0  0  0  0  0  0  0  0  0  0
    1.9856    0.2160    1.3802 C   0  0  0  0  0  0  0  0  0  0  0  0
    2.4507    0.3259    2.5193 O   0  0  0  0  0  0  0  0  0  0  0  0
    1.5488   -1.1843    0.8500 C   0  0  0  0  0  0  0  0  0  0  0  0
    1.2321   -1.1980   -0.6584 C   0  0  0  0  0  0  0  0  0  0  0  0
    2.1588   -1.5073   -1.4328 O   0  0  0  0  0  0  0  0  0  0  0  0
    0.0037   -0.9296   -1.2359 N   0  0  0  0  0  0  0  0  0  0  0  0
   -0.0941   -1.2409   -2.6702 C   0  0  0  0  0  0  0  0  0  0  0  0
   -1.4761   -1.0132   -3.2584 C   0  0  0  0  0  0  0  0  0  0  0  0
   -1.9477    0.4154   -3.0267 C   0  0  0  0  0  0  0  0  0  0  0  0
   -1.5834    0.9424   -1.6353 C   0  0  0  0  0  0  0  0  0  0  0  0
   -1.1055   -0.1520   -0.6788 C   0  0  0  0  0  0  0  0  0  0  0  0
    2.8869   -2.1135    0.9927 C   0  0  0  0  0  0  0  0  0  0  0  0
    2.5794   -3.5939    0.6259 C   0  0  0  0  0  0  0  0  0  0  0  0
    1.5643   -4.1474    1.6277 C   0  0  0  0  0  0  0  0  0  0  0  0
    1.2116   -3.0224    2.5999 C   0  0  0  0  0  0  0  0  0  0  0  0
    2.2488   -2.6913    3.4049 C   0  0  0  0  0  0  0  0  0  0  0  0
    2.1159   -1.8295    5.0452 Br  0  0  0  0  0  0  0  0  0  0  0  0
    3.3431   -2.2149    2.4672 C   0  0  0  0  0  0  0  0  0  0  0  0
    4.4953   -2.0154    2.8269 O   0  0  0  0  0  0  0  0  0  0  0  0
    0.5400   -1.8026    1.8913 C   0  0  0  0  0  0  0  0  0  0  0  0
   -0.9281   -2.1582    1.6406 C   0  0  0  0  0  0  0  0  0  0  0  0
   -1.7981   -1.6975    2.3856 O   0  0  0  0  0  0  0  0  0  0  0  0
   -1.2407   -3.0624    0.6576 N   0  0  0  0  0  0  0  0  0  0  0  0
   -2.4723   -3.8603    0.7430 C   0  0  0  0  0  0  0  0  0  0  0  0
   -3.7529   -3.0063    0.6769 C   0  0  0  0  0  0  0  0  0  0  0  0
   -4.9107   -3.7453    0.0161 C   0  0  0  0  0  0  0  0  0  0  0  0
   -4.5709   -4.1195   -1.4250 C   0  0  0  0  0  0  0  0  0  0  0  0
   -3.1253   -4.5871   -1.6036 C   0  0  0  0  0  0  0  0  0  0  0  0
   -2.4662   -5.0004   -0.2912 C   0  0  0  0  0  0  0  0  0  0  0  0
    2.9864    2.1619    0.1532 C   0  0  0  0  0  0  0  0  0  0  0  0
    3.4413    3.2285    1.1870 C   0  0  0  0  0  0  0  0  0  0  0  0
    4.1951    1.1642    0.0934 C   0  0  0  0  0  0  0  0  0  0  0  0
    2.8311    2.8072   -1.3328 C   0  0  0  0  0  0  0  0  0  0  0  0
    1.9078    4.0360   -1.4222 C   0  0  0  0  0  0  0  0  0  0  0  0
    2.2868    1.7709   -2.3363 C   0  0  0  0  0  0  0  0  0  0  0  0
    4.1925    3.2914   -1.9126 C   0  0  0  0  0  0  0  0  0  0  0  0
   -3.5062    3.5868    0.2222 H   0  0  0  0  0  0  0  0  0  0  0  0
   -2.1649    4.2911   -0.7105 H   0  0  0  0  0  0  0  0  0  0  0  0
   -3.4596    5.3228   -0.1433 H   0  0  0  0  0  0  0  0  0  0  0  0
   -2.4655    5.4487    3.3208 H   0  0  0  0  0  0  0  0  0  0  0  0
   -3.5564    6.0704    2.0968 H   0  0  0  0  0  0  0  0  0  0  0  0
   -3.7567    4.4043    2.6769 H   0  0  0  0  0  0  0  0  0  0  0  0
   -0.9313    3.7407    2.8207 H   0  0  0  0  0  0  0  0  0  0  0  0
   -1.9908    2.6666    1.9061 H   0  0  0  0  0  0  0  0  0  0  0  0
   -0.5254    2.8907   -0.0669 H   0  0  0  0  0  0  0  0  0  0  0  0
    0.4284    4.1444    0.7477 H   0  0  0  0  0  0  0  0  0  0  0  0
    1.2797    2.5738    2.3706 H   0  0  0  0  0  0  0  0  0  0  0  0
    0.0705    1.4092    1.9523 H   0  0  0  0  0  0  0  0  0  0  0  0
    0.1992   -2.2903   -2.8103 H   0  0  0  0  0  0  0  0  0  0  0  0
    0.6413   -0.6282   -3.2021 H   0  0  0  0  0  0  0  0  0  0  0  0
   -1.4692   -1.2391   -4.3314 H   0  0  0  0  0  0  0  0  0  0  0  0
   -2.1858   -1.7079   -2.8008 H   0  0  0  0  0  0  0  0  0  0  0  0
   -1.5026    1.0742   -3.7846 H   0  0  0  0  0  0  0  0  0  0  0  0
   -3.0314    0.4602   -3.1862 H   0  0  0  0  0  0  0  0  0  0  0  0
   -2.4415    1.4676   -1.2015 H   0  0  0  0  0  0  0  0  0  0  0  0
   -0.7962    1.6877   -1.7677 H   0  0  0  0  0  0  0  0  0  0  0  0
   -0.8370    0.2648    0.2912 H   0  0  0  0  0  0  0  0  0  0  0  0
   -1.9383   -0.8398   -0.5273 H   0  0  0  0  0  0  0  0  0  0  0  0
    3.7169   -1.7288    0.3928 H   0  0  0  0  0  0  0  0  0  0  0  0
    3.4966   -4.1920    0.6836 H   0  0  0  0  0  0  0  0  0  0  0  0
    2.2018   -3.7032   -0.3953 H   0  0  0  0  0  0  0  0  0  0  0  0
    2.0069   -4.9885    2.1803 H   0  0  0  0  0  0  0  0  0  0  0  0
    0.6936   -4.5812    1.1347 H   0  0  0  0  0  0  0  0  0  0  0  0
    0.4130   -1.0407    2.6766 H   0  0  0  0  0  0  0  0  0  0  0  0
   -0.5273   -3.3657    0.0098 H   0  0  0  0  0  0  0  0  0  0  0  0
   -2.4358   -4.3278    1.7339 H   0  0  0  0  0  0  0  0  0  0  0  0
   -4.0535   -2.7114    1.6901 H   0  0  0  0  0  0  0  0  0  0  0  0
   -3.5754   -2.0749    0.1284 H   0  0  0  0  0  0  0  0  0  0  0  0
   -5.1467   -4.6491    0.5929 H   0  0  0  0  0  0  0  0  0  0  0  0
   -5.8156   -3.1268    0.0331 H   0  0  0  0  0  0  0  0  0  0  0  0
   -5.2620   -4.9020   -1.7588 H   0  0  0  0  0  0  0  0  0  0  0  0
   -4.7462   -3.2572   -2.0801 H   0  0  0  0  0  0  0  0  0  0  0  0
   -3.0976   -5.4194   -2.3152 H   0  0  0  0  0  0  0  0  0  0  0  0
   -2.5338   -3.7819   -2.0521 H   0  0  0  0  0  0  0  0  0  0  0  0
   -1.4437   -5.3483   -0.4847 H   0  0  0  0  0  0  0  0  0  0  0  0
   -3.0118   -5.8619    0.1197 H   0  0  0  0  0  0  0  0  0  0  0  0
    4.3781    3.7114    0.8955 H   0  0  0  0  0  0  0  0  0  0  0  0
    3.6200    2.7758    2.1684 H   0  0  0  0  0  0  0  0  0  0  0  0
    2.7037    4.0219    1.3332 H   0  0  0  0  0  0  0  0  0  0  0  0
    4.4189    0.7195    1.0667 H   0  0  0  0  0  0  0  0  0  0  0  0
    4.0195    0.3540   -0.6150 H   0  0  0  0  0  0  0  0  0  0  0  0
    5.1285    1.6580   -0.1902 H   0  0  0  0  0  0  0  0  0  0  0  0
    2.0282    4.5613   -2.3784 H   0  0  0  0  0  0  0  0  0  0  0  0
    0.8548    3.7608   -1.3957 H   0  0  0  0  0  0  0  0  0  0  0  0
    2.1182    4.7731   -0.6470 H   0  0  0  0  0  0  0  0  0  0  0  0
    1.3215    1.3875   -2.0127 H   0  0  0  0  0  0  0  0  0  0  0  0
    2.1358    2.2113   -3.3309 H   0  0  0  0  0  0  0  0  0  0  0  0
    2.9629    0.9216   -2.4675 H   0  0  0  0  0  0  0  0  0  0  0  0
    4.6847    4.0092   -1.2512 H   0  0  0  0  0  0  0  0  0  0  0  0
    4.0653    3.7910   -2.8817 H   0  0  0  0  0  0  0  0  0  0  0  0
    4.8802    2.4634   -2.1054 H   0  0  0  0  0  0  0  0  0  0  0  0
  2  1  1  0  0  0  0
  3  2  1  0  0  0  0
  4  2  1  0  0  0  0
  5  4  1  0  0  0  0
  6  5  1  0  0  0  0
  7  6  1  0  0  0  0
  8  7  1  0  0  0  0
  9  8  2  0  0  0  0
 10  8  1  0  0  0  0
 11 10  1  0  0  0  0
 12 11  2  0  0  0  0
 13 11  1  0  0  0  0
 14 13  1  0  0  0  0
 15 14  1  0  0  0  0
 16 15  1  0  0  0  0
 17 16  1  0  0  0  0
 18 17  1  0  0  0  0
 18 13  1  0  0  0  0
 19 10  1  0  0  0  0
 20 19  1  0  0  0  0
 21 20  1  0  0  0  0
 22 21  1  0  0  0  0
 23 22  2  0  0  0  0
 24 23  1  0  0  0  0
 25 23  1  0  0  0  0
 25 19  1  0  0  0  0
 26 25  2  0  0  0  0
 27 22  1  0  0  0  0
 27 10  1  0  0  0  0
 28 27  1  0  0  0  0
 29 28  2  0  0  0  0
 30 28  1  0  0  0  0
 31 30  1  0  0  0  0
 32 31  1  0  0  0  0
 33 32  1  0  0  0  0
 34 33  1  0  0  0  0
 35 34  1  0  0  0  0
 36 35  1  0  0  0  0
 36 31  1  0  0  0  0
 37  7  1  0  0  0  0
 38 37  1  0  0  0  0
 39 37  1  0  0  0  0
 40 37  1  0  0  0  0
 41 40  1  0  0  0  0
 42 40  1  0  0  0  0
 43 40  1  0  0  0  0
  1 44  1  0  0  0  0
  1 45  1  0  0  0  0
  1 46  1  0  0  0  0
  3 47  1  0  0  0  0
  3 48  1  0  0  0  0
  3 49  1  0  0  0  0
  4 50  1  0  0  0  0
  4 51  1  0  0  0  0
  5 52  1  0  0  0  0
  5 53  1  0  0  0  0
  6 54  1  0  0  0  0
  6 55  1  0  0  0  0
 14 56  1  0  0  0  0
 14 57  1  0  0  0  0
 15 58  1  0  0  0  0
 15 59  1  0  0  0  0
 16 60  1  0  0  0  0
 16 61  1  0  0  0  0
 17 62  1  0  0  0  0
 17 63  1  0  0  0  0
 18 64  1  0  0  0  0
 18 65  1  0  0  0  0
 19 66  1  0  0  0  0
 20 67  1  0  0  0  0
 20 68  1  0  0  0  0
 21 69  1  0  0  0  0
 21 70  1  0  0  0  0
 27 71  1  0  0  0  0
 30 72  1  0  0  0  0
 31 73  1  0  0  0  0
 32 74  1  0  0  0  0
 32 75  1  0  0  0  0
 33 76  1  0  0  0  0
 33 77  1  0  0  0  0
 34 78  1  0  0  0  0
 34 79  1  0  0  0  0
 35 80  1  0  0  0  0
 35 81  1  0  0  0  0
 36 82  1  0  0  0  0
 36 83  1  0  0  0  0
 38 84  1  0  0  0  0
 38 85  1  0  0  0  0
 38 86  1  0  0  0  0
 39 87  1  0  0  0  0
 39 88  1  0  0  0  0
 39 89  1  0  0  0  0
 41 90  1  0  0  0  0
 41 91  1  0  0  0  0
 41 92  1  0  0  0  0
 42 93  1  0  0  0  0
 42 94  1  0  0  0  0
 42 95  1  0  0  0  0
 43 96  1  0  0  0  0
 43 97  1  0  0  0  0
 43 98  1  0  0  0  0
M  END
>  <energy>
135.65279987958837

$$$$
