C=C(C)NC1C2CC3(O)CC45C(C(=O)O)C2C3C4C15
                    3D

 38 42  0  0  0  0  0  0  0  0999 V2000
    3.6133    1.2543    0.8549 C   0  0  0  0  0  0  0  0  0  0  0  0
    3.2786    0.2669    0.0165 C   0  0  0  0  0  0  0  0  0  0  0  0
    4.1064   -0.9852   -0.0956 C   0  0  0  0  0  0  0  0  0  0  0  0
    2.1603    0.3875   -0.7987 N   0  0  0  0  0  0  0  0  0  0  0  0
    1.0045   -0.4918   -0.6343 C   0  0  0  0  0  0  0  0  0  0  0  0
   -0.2368    0.0512   -1.5975 C   0  0  0  0  0  0  0  0  0  0  0  0
   -1.1744    1.5240   -1.5326 C   0  0  0  0  0  0  0  0  0  0  0  0
   -1.8785    1.6746    0.0629 C   0  0  0  0  0  0  0  0  0  0  0  0
   -1.9156    3.0063    0.5067 O   0  0  0  0  0  0  0  0  0  0  0  0
   -2.4445    0.5730    1.1722 C   0  0  0  0  0  0  0  0  0  0  0  0
   -1.1635   -0.6884    1.4196 C   0  0  0  0  0  0  0  0  0  0  0  0
   -1.4455   -1.5491    0.2162 C   0  0  0  0  0  0  0  0  0  0  0  0
   -2.7897   -2.2411    0.1890 C   0  0  0  0  0  0  0  0  0  0  0  0
   -3.5093   -2.5038    1.1369 O   0  0  0  0  0  0  0  0  0  0  0  0
   -3.1384   -2.6288   -1.0563 O   0  0  0  0  0  0  0  0  0  0  0  0
   -1.2883   -0.3721   -0.7206 C   0  0  0  0  0  0  0  0  0  0  0  0
   -0.6242    1.0598    0.3087 C   0  0  0  0  0  0  0  0  0  0  0  0
   -0.2129    0.3945    1.4971 C   0  0  0  0  0  0  0  0  0  0  0  0
    0.5636   -0.6624    0.9956 C   0  0  0  0  0  0  0  0  0  0  0  0
    4.4809    1.1911    1.5024 H   0  0  0  0  0  0  0  0  0  0  0  0
    3.0044    2.1517    0.9133 H   0  0  0  0  0  0  0  0  0  0  0  0
    5.0207   -0.9296    0.5048 H   0  0  0  0  0  0  0  0  0  0  0  0
    4.4016   -1.1537   -1.1362 H   0  0  0  0  0  0  0  0  0  0  0  0
    3.5358   -1.8540    0.2477 H   0  0  0  0  0  0  0  0  0  0  0  0
    2.4643    0.3120   -1.7702 H   0  0  0  0  0  0  0  0  0  0  0  0
    1.2557   -1.5099   -0.9641 H   0  0  0  0  0  0  0  0  0  0  0  0
   -0.2101   -0.3613   -2.6074 H   0  0  0  0  0  0  0  0  0  0  0  0
   -1.9934    1.4858   -2.2669 H   0  0  0  0  0  0  0  0  0  0  0  0
   -0.5437    2.3883   -1.7875 H   0  0  0  0  0  0  0  0  0  0  0  0
   -2.8468    3.2841    0.4968 H   0  0  0  0  0  0  0  0  0  0  0  0
   -3.3896    0.1197    0.8606 H   0  0  0  0  0  0  0  0  0  0  0  0
   -2.5855    1.0476    2.1551 H   0  0  0  0  0  0  0  0  0  0  0  0
   -0.7182   -2.3539    0.0492 H   0  0  0  0  0  0  0  0  0  0  0  0
   -3.9939   -3.0907   -0.9283 H   0  0  0  0  0  0  0  0  0  0  0  0
   -2.2798   -0.2324   -1.1940 H   0  0  0  0  0  0  0  0  0  0  0  0
    0.2307    1.6950   -0.0044 H   0  0  0  0  0  0  0  0  0  0  0  0
    0.0185    0.9664    2.3741 H   0  0  0  0  0  0  0  0  0  0  0  0
    1.2432   -1.2256    1.6144 H   0  0  0  0  0  0  0  0  0  0  0  0
  2  1  2  0  0  0  0
  3  2  1  0  0  0  0
  4  2  1  0  0  0  0
  5  4  1  0  0  0  0
  6  5  1  0  0  0  0
  7  6  1  0  0  0  0
  8  7  1  0  0  0  0
  9  8  1  0  0  0  0
 10  8  1  0  0  0  0
 11 10  1  0  0  0  0
 12 11  1  0  0  0  0
 13 12  1  0  0  0  0
 14 13  2  0  0  0  0
 15 13  1  0  0  0  0
 16 12  1  0  0  0  0
 16  6  1  0  0  0  0
 17 16  1  0  0  0  0
 17  8  1  0  0  0  0
 18 17  1  0  0  0  0
 18 11  1  0  0  0  0
 19 18  1  0  0  0  0
 19  5  1  0  0  0  0
 19 11  1  0  0  0  0
  1 20  1  0  0  0  0
  1 21  1  0  0  0  0
  3 22  1  0  0  0  0
  3 23  1  0  0  0  0
  3 24  1  0  0  0  0
  4 25  1  0  0  0  0
  5 26  1  0  0  0  0
  6 27  1  0  0  0  0
  7 28  1  0  0  0  0
  7 29  1  0  0  0  0
  9 30  1  0  0  0  0
 10 31  1  0  0  0  0
 10 32  1  0  0  0  0
 12 33  1  0  0  0  0
 15 34  1  0  0  0  0
 16 35  1  0  0  0  0
 17 36  1  0  0  0  0
 18 37  1  0  0  0  0
 19 38  1  0  0  0  0
M  END
>  <energy>
404.00779887020309

$$$$
