C=C(N)C1NC2CC3N4C5CC(C14)C(CC25)C3(C)O
                    3D

 42 46  0  0  0  0  0  0  0  0999 V2000
   -3.9873    1.4465    1.0592 C   0  0  0  0  0  0  0  0  0  0  0  0
   -3.0227    0.9584    0.2648 C   0  0  0  0  0  0  0  0  0  0  0  0
   -3.0608    1.1468   -1.1056 N   0  0  0  0  0  0  0  0  0  0  0  0
   -1.8474    0.1476    0.8633 C   0  0  0  0  0  0  0  0  0  0  0  0
   -1.8995   -1.4154    0.1227 N   0  0  0  0  0  0  0  0  0  0  0  0
   -0.5115   -2.0649   -0.4636 C   0  0  0  0  0  0  0  0  0  0  0  0
   -0.0610   -1.2556   -1.6846 C   0  0  0  0  0  0  0  0  0  0  0  0
    0.3450    0.1020   -1.1323 C   0  0  0  0  0  0  0  0  0  0  0  0
    0.0002    0.0060    0.2888 N   0  0  0  0  0  0  0  0  0  0  0  0
    0.2955   -1.0167    1.4158 C   0  0  0  0  0  0  0  0  0  0  0  0
    1.1071   -0.2106    2.3879 C   0  0  0  0  0  0  0  0  0  0  0  0
    1.2253    0.9047    1.4057 C   0  0  0  0  0  0  0  0  0  0  0  0
   -0.4043    1.1394    0.9401 C   0  0  0  0  0  0  0  0  0  0  0  0
    2.3089    0.1613    0.2079 C   0  0  0  0  0  0  0  0  0  0  0  0
    2.2192   -1.4998    0.2217 C   0  0  0  0  0  0  0  0  0  0  0  0
    0.7804   -2.0775    0.5487 C   0  0  0  0  0  0  0  0  0  0  0  0
    1.8016    0.6019   -1.1762 C   0  0  0  0  0  0  0  0  0  0  0  0
    1.9163    2.1263   -1.3246 C   0  0  0  0  0  0  0  0  0  0  0  0
    2.5668    0.0799   -2.2585 O   0  0  0  0  0  0  0  0  0  0  0  0
   -3.9687    1.2949    2.1333 H   0  0  0  0  0  0  0  0  0  0  0  0
   -4.8167    2.0203    0.6603 H   0  0  0  0  0  0  0  0  0  0  0  0
   -2.5209    0.4622   -1.6255 H   0  0  0  0  0  0  0  0  0  0  0  0
   -3.9962    1.2860   -1.4778 H   0  0  0  0  0  0  0  0  0  0  0  0
   -2.1137   -0.0827    1.9082 H   0  0  0  0  0  0  0  0  0  0  0  0
   -2.5180   -1.2802   -0.6720 H   0  0  0  0  0  0  0  0  0  0  0  0
   -0.7600   -3.0907   -0.7559 H   0  0  0  0  0  0  0  0  0  0  0  0
   -0.8937   -1.1558   -2.3914 H   0  0  0  0  0  0  0  0  0  0  0  0
    0.7403   -1.7729   -2.2175 H   0  0  0  0  0  0  0  0  0  0  0  0
   -0.2805    0.8412   -1.6496 H   0  0  0  0  0  0  0  0  0  0  0  0
   -0.5408   -1.4151    2.0073 H   0  0  0  0  0  0  0  0  0  0  0  0
    2.0482   -0.6544    2.7178 H   0  0  0  0  0  0  0  0  0  0  0  0
    0.5252    0.1035    3.2609 H   0  0  0  0  0  0  0  0  0  0  0  0
    1.6657    1.8270    1.7947 H   0  0  0  0  0  0  0  0  0  0  0  0
   -0.5164    2.0214    0.3027 H   0  0  0  0  0  0  0  0  0  0  0  0
    3.3429    0.4606    0.4117 H   0  0  0  0  0  0  0  0  0  0  0  0
    2.8942   -1.8250    1.0262 H   0  0  0  0  0  0  0  0  0  0  0  0
    2.6275   -1.9594   -0.6805 H   0  0  0  0  0  0  0  0  0  0  0  0
    0.8509   -3.0447    1.0570 H   0  0  0  0  0  0  0  0  0  0  0  0
    1.4039    2.6929   -0.5458 H   0  0  0  0  0  0  0  0  0  0  0  0
    1.5148    2.4477   -2.2924 H   0  0  0  0  0  0  0  0  0  0  0  0
    2.9702    2.4294   -1.3134 H   0  0  0  0  0  0  0  0  0  0  0  0
    2.5700   -0.8865   -2.2395 H   0  0  0  0  0  0  0  0  0  0  0  0
  2  1  2  0  0  0  0
  3  2  1  0  0  0  0
  4  2  1  0  0  0  0
  5  4  1  0  0  0  0
  6  5  1  0  0  0  0
  7  6  1  0  0  0  0
  8  7  1  0  0  0  0
  9  8  1  0  0  0  0
 10  9  1  0  0  0  0
 11 10  1  0  0  0  0
 12 11  1  0  0  0  0
 13 12  1  0  0  0  0
 13  4  1  0  0  0  0
 13  9  1  0  0  0  0
 14 12  1  0  0  0  0
 15 14  1  0  0  0  0
 16 15  1  0  0  0  0
 16  6  1  0  0  0  0
 16 10  1  0  0  0  0
 17 14  1  0  0  0  0
 17  8  1  0  0  0  0
 18 17  1  0  0  0  0
 19 17  1  0  0  0  0
  1 20  1  0  0  0  0
  1 21  1  0  0  0  0
  3 22  1  0  0  0  0
  3 23  1  0  0  0  0
  4 24  1  0  0  0  0
  5 25  1  0  0  0  0
  6 26  1  0  0  0  0
  7 27  1  0  0  0  0
  7 28  1  0  0  0  0
  8 29  1  0  0  0  0
 10 30  1  0  0  0  0
 11 31  1  0  0  0  0
 11 32  1  0  0  0  0
 12 33  1  0  0  0  0
 13 34  1  0  0  0  0
 14 35  1  0  0  0  0
 15 36  1  0  0  0  0
 15 37  1  0  0  0  0
 16 38  1  0  0  0  0
 18 39  1  0  0  0  0
 18 40  1  0  0  0  0
 18 41  1  0  0  0  0
 19 42  1  0  0  0  0
M  END
>  <energy>
377.14170895390077

$$$$
