NC(=O)c1c2nc(c(=O)[nH]c1=O)NC(=O)N2
                    3D

 21 22  0  0  0  0  0  0  0  0999 V2000
   -3.0482    0.4661   -0.5959 N   0  0  0  0  0  0  0  0  0  0  0  0
   -1.9896    0.9342    0.1181 C   0  0  0  0  0  0  0  0  0  0  0  0
   -1.9261    2.1203    0.4306 O   0  0  0  0  0  0  0  0  0  0  0  0
   -0.9372   -0.0524    0.4856 C   0  0  0  0  0  0  0  0  0  0  0  0
    0.1732    0.3408    1.1448 C   0  0  0  0  0  0  0  0  0  0  0  0
    1.1021   -0.5980    1.4792 N   0  0  0  0  0  0  0  0  0  0  0  0
    1.8764   -0.6340    0.4496 C   0  0  0  0  0  0  0  0  0  0  0  0
    1.5717   -1.7608   -0.5052 C   0  0  0  0  0  0  0  0  0  0  0  0
    2.4446   -2.2890   -1.1704 O   0  0  0  0  0  0  0  0  0  0  0  0
    0.2012   -2.0856   -0.5401 N   0  0  0  0  0  0  0  0  0  0  0  0
   -0.9640   -1.4758   -0.0287 C   0  0  0  0  0  0  0  0  0  0  0  0
   -2.0393   -2.0716   -0.1386 O   0  0  0  0  0  0  0  0  0  0  0  0
    2.4814    0.5028   -0.0075 N   0  0  0  0  0  0  0  0  0  0  0  0
    1.9059    1.7110    0.3391 C   0  0  0  0  0  0  0  0  0  0  0  0
    2.3255    2.7772   -0.0942 O   0  0  0  0  0  0  0  0  0  0  0  0
    0.7020    1.6076    1.0354 N   0  0  0  0  0  0  0  0  0  0  0  0
   -3.8308    1.0941   -0.7379 H   0  0  0  0  0  0  0  0  0  0  0  0
   -3.2158   -0.5309   -0.7203 H   0  0  0  0  0  0  0  0  0  0  0  0
    0.0090   -2.9603   -1.0112 H   0  0  0  0  0  0  0  0  0  0  0  0
    3.0815    0.5041   -0.8215 H   0  0  0  0  0  0  0  0  0  0  0  0
    0.0764    2.4003    0.8889 H   0  0  0  0  0  0  0  0  0  0  0  0
  2  1  1  0  0  0  0
  3  2  2  0  0  0  0
  4  2  1  0  0  0  0
  5  4  2  0  0  0  0
  6  5  1  0  0  0  0
  7  6  2  0  0  0  0
  8  7  1  0  0  0  0
  9  8  2  0  0  0  0
 10  8  1  0  0  0  0
 11 10  1  0  0  0  0
 11  4  1  0  0  0  0
 12 11  2  0  0  0  0
 13  7  1  0  0  0  0
 14 13  1  0  0  0  0
 15 14  2  0  0  0  0
 16 14  1  0  0  0  0
 16  5  1  0  0  0  0
  1 17  1  0  0  0  0
  1 18  1  0  0  0  0
 10 19  1  0  0  0  0
 13 20  1  0  0  0  0
 16 21  1  0  0  0  0
M  END
>  <energy>
-85.841752165871583

$$$$
