CC(C)=C1SSC2C34OC5C(O)CC(C)(O)CC5C2(O3)N1C4O
                    3D

 44 48  0  0  0  0  0  0  0  0999 V2000
    5.1868   -0.1048    0.0262 C   0  0  0  0  0  0  0  0  0  0  0  0
    3.8185    0.2231   -0.5230 C   0  0  0  0  0  0  0  0  0  0  0  0
    3.7324   -0.0345   -2.0126 C   0  0  0  0  0  0  0  0  0  0  0  0
    2.7502    0.6604    0.1967 C   0  0  0  0  0  0  0  0  0  0  0  0
    2.9362    1.0541    1.9168 S   0  0  0  0  0  0  0  0  0  0  0  0
    1.6815    2.6877    1.9186 S   0  0  0  0  0  0  0  0  0  0  0  0
    0.1621    1.9527    1.2219 C   0  0  0  0  0  0  0  0  0  0  0  0
   -0.3086    2.3119   -0.2000 C   0  0  0  0  0  0  0  0  0  0  0  0
   -1.7641    2.3657   -0.1820 O   0  0  0  0  0  0  0  0  0  0  0  0
   -2.2778    1.0092    0.5450 C   0  0  0  0  0  0  0  0  0  0  0  0
   -3.3331    0.3534   -0.3567 C   0  0  0  0  0  0  0  0  0  0  0  0
   -2.8615    0.1671   -1.6882 O   0  0  0  0  0  0  0  0  0  0  0  0
   -3.7417   -0.9940    0.2395 C   0  0  0  0  0  0  0  0  0  0  0  0
   -2.6082   -2.0489    0.3373 C   0  0  0  0  0  0  0  0  0  0  0  0
   -2.7815   -2.8408    1.6429 C   0  0  0  0  0  0  0  0  0  0  0  0
   -2.8096   -3.0017   -0.7193 O   0  0  0  0  0  0  0  0  0  0  0  0
   -1.1755   -1.4859    0.2058 C   0  0  0  0  0  0  0  0  0  0  0  0
   -0.9634   -0.1420    0.9020 C   0  0  0  0  0  0  0  0  0  0  0  0
    0.2880    0.6204    0.4666 C   0  0  0  0  0  0  0  0  0  0  0  0
   -0.4607    0.9710   -0.6736 O   0  0  0  0  0  0  0  0  0  0  0  0
    1.4797    0.7527   -0.3960 N   0  0  0  0  0  0  0  0  0  0  0  0
    0.9820    2.1923   -1.0844 C   0  0  0  0  0  0  0  0  0  0  0  0
    1.9311    3.2257   -0.9437 O   0  0  0  0  0  0  0  0  0  0  0  0
    5.9594    0.4669   -0.4997 H   0  0  0  0  0  0  0  0  0  0  0  0
    5.3884   -1.1728   -0.1219 H   0  0  0  0  0  0  0  0  0  0  0  0
    5.3044    0.0980    1.0946 H   0  0  0  0  0  0  0  0  0  0  0  0
    2.7416    0.1504   -2.4373 H   0  0  0  0  0  0  0  0  0  0  0  0
    4.4360    0.6222   -2.5425 H   0  0  0  0  0  0  0  0  0  0  0  0
    3.9954   -1.0738   -2.2379 H   0  0  0  0  0  0  0  0  0  0  0  0
   -0.6085    2.0241    1.9993 H   0  0  0  0  0  0  0  0  0  0  0  0
   -2.7030    1.3417    1.5006 H   0  0  0  0  0  0  0  0  0  0  0  0
   -4.2055    1.0156   -0.4261 H   0  0  0  0  0  0  0  0  0  0  0  0
   -2.1087    0.7808   -1.8024 H   0  0  0  0  0  0  0  0  0  0  0  0
   -4.1390   -0.7881    1.2427 H   0  0  0  0  0  0  0  0  0  0  0  0
   -4.5744   -1.4083   -0.3450 H   0  0  0  0  0  0  0  0  0  0  0  0
   -2.0273   -3.6324    1.7397 H   0  0  0  0  0  0  0  0  0  0  0  0
   -3.7574   -3.3474    1.6520 H   0  0  0  0  0  0  0  0  0  0  0  0
   -2.7202   -2.1914    2.5231 H   0  0  0  0  0  0  0  0  0  0  0  0
   -2.0872   -3.6511   -0.6919 H   0  0  0  0  0  0  0  0  0  0  0  0
   -0.9072   -1.4228   -0.8574 H   0  0  0  0  0  0  0  0  0  0  0  0
   -0.4483   -2.2076    0.6028 H   0  0  0  0  0  0  0  0  0  0  0  0
   -0.9889   -0.3018    1.9889 H   0  0  0  0  0  0  0  0  0  0  0  0
    0.7957    2.0182   -2.1541 H   0  0  0  0  0  0  0  0  0  0  0  0
    2.7920    2.7849   -1.0677 H   0  0  0  0  0  0  0  0  0  0  0  0
  2  1  1  0  0  0  0
  3  2  1  0  0  0  0
  4  2  2  0  0  0  0
  5  4  1  0  0  0  0
  6  5  1  0  0  0  0
  7  6  1  0  0  0  0
  8  7  1  0  0  0  0
  9  8  1  0  0  0  0
 10  9  1  0  0  0  0
 11 10  1  0  0  0  0
 12 11  1  0  0  0  0
 13 11  1  0  0  0  0
 14 13  1  0  0  0  0
 15 14  1  0  0  0  0
 16 14  1  0  0  0  0
 17 14  1  0  0  0  0
 18 17  1  0  0  0  0
 18 10  1  0  0  0  0
 19 18  1  0  0  0  0
 19  7  1  0  0  0  0
 20 19  1  0  0  0  0
 20  8  1  0  0  0  0
 21 19  1  0  0  0  0
 21  4  1  0  0  0  0
 22 21  1  0  0  0  0
 22  8  1  0  0  0  0
 23 22  1  0  0  0  0
  1 24  1  0  0  0  0
  1 25  1  0  0  0  0
  1 26  1  0  0  0  0
  3 27  1  0  0  0  0
  3 28  1  0  0  0  0
  3 29  1  0  0  0  0
  7 30  1  0  0  0  0
 10 31  1  0  0  0  0
 11 32  1  0  0  0  0
 12 33  1  0  0  0  0
 13 34  1  0  0  0  0
 13 35  1  0  0  0  0
 15 36  1  0  0  0  0
 15 37  1  0  0  0  0
 15 38  1  0  0  0  0
 16 39  1  0  0  0  0
 17 40  1  0  0  0  0
 17 41  1  0  0  0  0
 18 42  1  0  0  0  0
 22 43  1  0  0  0  0
 23 44  1  0  0  0  0
M  END
>  <energy>
313.91715286279413

$$$$
