CCC1CC23CCC4C1C(O)CC2C(O)C(OC)C3CC4(C)COC
                    3D

 61 64  0  0  0  0  0  0  0  0999 V2000
    1.2107   -3.0745    2.6954 C   0  0  0  0  0  0  0  0  0  0  0  0
   -0.0498   -2.4933    2.0413 C   0  0  0  0  0  0  0  0  0  0  0  0
    0.3528   -1.4446    0.9885 C   0  0  0  0  0  0  0  0  0  0  0  0
   -0.6970   -0.4263    0.6261 C   0  0  0  0  0  0  0  0  0  0  0  0
   -0.9874    0.0005   -1.0046 C   0  0  0  0  0  0  0  0  0  0  0  0
   -0.2201   -0.2239   -2.4232 C   0  0  0  0  0  0  0  0  0  0  0  0
    1.2192   -0.6181   -2.4362 C   0  0  0  0  0  0  0  0  0  0  0  0
    1.5844   -0.5976   -0.9993 C   0  0  0  0  0  0  0  0  0  0  0  0
    0.7694   -1.9079   -0.3537 C   0  0  0  0  0  0  0  0  0  0  0  0
   -0.5258   -2.7108   -1.0310 C   0  0  0  0  0  0  0  0  0  0  0  0
   -0.2696   -3.1433   -2.3704 O   0  0  0  0  0  0  0  0  0  0  0  0
   -2.0534   -2.1731   -0.9522 C   0  0  0  0  0  0  0  0  0  0  0  0
   -2.3104   -0.6683   -1.2853 C   0  0  0  0  0  0  0  0  0  0  0  0
   -3.3245    0.2587   -0.5746 C   0  0  0  0  0  0  0  0  0  0  0  0
   -3.9707   -0.3563    0.5272 O   0  0  0  0  0  0  0  0  0  0  0  0
   -2.5448    1.6175   -0.2233 C   0  0  0  0  0  0  0  0  0  0  0  0
   -2.4459    1.8149    1.1847 O   0  0  0  0  0  0  0  0  0  0  0  0
   -2.6764    3.1633    1.5684 C   0  0  0  0  0  0  0  0  0  0  0  0
   -1.1607    1.4887   -0.9316 C   0  0  0  0  0  0  0  0  0  0  0  0
    0.2054    2.0068   -0.3627 C   0  0  0  0  0  0  0  0  0  0  0  0
    1.5808    1.0602   -0.4636 C   0  0  0  0  0  0  0  0  0  0  0  0
    2.4785    1.8279   -1.5016 C   0  0  0  0  0  0  0  0  0  0  0  0
    2.3495    1.1775    0.9051 C   0  0  0  0  0  0  0  0  0  0  0  0
    2.7774    2.5217    1.1539 O   0  0  0  0  0  0  0  0  0  0  0  0
    3.6522    2.6104    2.2699 C   0  0  0  0  0  0  0  0  0  0  0  0
    1.6167   -2.3573    3.4225 H   0  0  0  0  0  0  0  0  0  0  0  0
    0.9996   -4.0101    3.2223 H   0  0  0  0  0  0  0  0  0  0  0  0
    2.0032   -3.2648    1.9625 H   0  0  0  0  0  0  0  0  0  0  0  0
   -0.6582   -3.2982    1.6157 H   0  0  0  0  0  0  0  0  0  0  0  0
   -0.6526   -2.0245    2.8327 H   0  0  0  0  0  0  0  0  0  0  0  0
    1.2057   -0.9486    1.4464 H   0  0  0  0  0  0  0  0  0  0  0  0
   -0.4537    0.4434    1.2389 H   0  0  0  0  0  0  0  0  0  0  0  0
   -1.6366   -0.7338    1.0997 H   0  0  0  0  0  0  0  0  0  0  0  0
   -0.7448   -0.9443   -3.0608 H   0  0  0  0  0  0  0  0  0  0  0  0
   -0.2967    0.6804   -3.0421 H   0  0  0  0  0  0  0  0  0  0  0  0
    1.8131    0.0363   -3.0774 H   0  0  0  0  0  0  0  0  0  0  0  0
    1.3928   -1.6056   -2.8754 H   0  0  0  0  0  0  0  0  0  0  0  0
    2.6444   -0.8866   -0.9182 H   0  0  0  0  0  0  0  0  0  0  0  0
    1.5489   -2.6809   -0.2855 H   0  0  0  0  0  0  0  0  0  0  0  0
   -0.5704   -3.6659   -0.4886 H   0  0  0  0  0  0  0  0  0  0  0  0
    0.5348   -3.6828   -2.3604 H   0  0  0  0  0  0  0  0  0  0  0  0
   -2.6571   -2.7682   -1.6562 H   0  0  0  0  0  0  0  0  0  0  0  0
   -2.4497   -2.4151    0.0406 H   0  0  0  0  0  0  0  0  0  0  0  0
   -2.5812   -0.6091   -2.3496 H   0  0  0  0  0  0  0  0  0  0  0  0
   -4.1144    0.5131   -1.2907 H   0  0  0  0  0  0  0  0  0  0  0  0
   -4.4177   -1.1507    0.1967 H   0  0  0  0  0  0  0  0  0  0  0  0
   -3.1017    2.4453   -0.6828 H   0  0  0  0  0  0  0  0  0  0  0  0
   -2.5870    3.2307    2.6564 H   0  0  0  0  0  0  0  0  0  0  0  0
   -3.6917    3.4628    1.2854 H   0  0  0  0  0  0  0  0  0  0  0  0
   -1.9388    3.8283    1.1067 H   0  0  0  0  0  0  0  0  0  0  0  0
   -1.3118    1.9460   -1.9194 H   0  0  0  0  0  0  0  0  0  0  0  0
    0.4094    2.9625   -0.8683 H   0  0  0  0  0  0  0  0  0  0  0  0
    0.0763    2.3169    0.6855 H   0  0  0  0  0  0  0  0  0  0  0  0
    1.9429    1.9843   -2.4430 H   0  0  0  0  0  0  0  0  0  0  0  0
    3.4055    1.2796   -1.7059 H   0  0  0  0  0  0  0  0  0  0  0  0
    2.7575    2.8290   -1.1611 H   0  0  0  0  0  0  0  0  0  0  0  0
    1.7022    0.9161    1.7437 H   0  0  0  0  0  0  0  0  0  0  0  0
    3.2191    0.5108    0.9113 H   0  0  0  0  0  0  0  0  0  0  0  0
    3.7612    3.6658    2.5351 H   0  0  0  0  0  0  0  0  0  0  0  0
    4.6383    2.2153    2.0042 H   0  0  0  0  0  0  0  0  0  0  0  0
    3.2489    2.0701    3.1321 H   0  0  0  0  0  0  0  0  0  0  0  0
  2  1  1  0  0  0  0
  3  2  1  0  0  0  0
  4  3  1  0  0  0  0
  5  4  1  0  0  0  0
  6  5  1  0  0  0  0
  7  6  1  0  0  0  0
  8  7  1  0  0  0  0
  9  8  1  0  0  0  0
  9  3  1  0  0  0  0
 10  9  1  0  0  0  0
 11 10  1  0  0  0  0
 12 10  1  0  0  0  0
 13 12  1  0  0  0  0
 13  5  1  0  0  0  0
 14 13  1  0  0  0  0
 15 14  1  0  0  0  0
 16 14  1  0  0  0  0
 17 16  1  0  0  0  0
 18 17  1  0  0  0  0
 19 16  1  0  0  0  0
 19  5  1  0  0  0  0
 20 19  1  0  0  0  0
 21 20  1  0  0  0  0
 21  8  1  0  0  0  0
 22 21  1  0  0  0  0
 23 21  1  0  0  0  0
 24 23  1  0  0  0  0
 25 24  1  0  0  0  0
  1 26  1  0  0  0  0
  1 27  1  0  0  0  0
  1 28  1  0  0  0  0
  2 29  1  0  0  0  0
  2 30  1  0  0  0  0
  3 31  1  0  0  0  0
  4 32  1  0  0  0  0
  4 33  1  0  0  0  0
  6 34  1  0  0  0  0
  6 35  1  0  0  0  0
  7 36  1  0  0  0  0
  7 37  1  0  0  0  0
  8 38  1  0  0  0  0
  9 39  1  0  0  0  0
 10 40  1  0  0  0  0
 11 41  1  0  0  0  0
 12 42  1  0  0  0  0
 12 43  1  0  0  0  0
 13 44  1  0  0  0  0
 14 45  1  0  0  0  0
 15 46  1  0  0  0  0
 16 47  1  0  0  0  0
 18 48  1  0  0  0  0
 18 49  1  0  0  0  0
 18 50  1  0  0  0  0
 19 51  1  0  0  0  0
 20 52  1  0  0  0  0
 20 53  1  0  0  0  0
 22 54  1  0  0  0  0
 22 55  1  0  0  0  0
 22 56  1  0  0  0  0
 23 57  1  0  0  0  0
 23 58  1  0  0  0  0
 25 59  1  0  0  0  0
 25 60  1  0  0  0  0
 25 61  1  0  0  0  0
M  END
>  <energy>
296.41249688222575

$$$$
