CC(C)COC1C2CC3(CO)CCCN4CCCC3[N+]3([O-])CCC4(C1C)C21CC3O1
                    3D

 70 75  0  0  0  0  0  0  0  0999 V2000
    5.3304    0.6878    0.3119 C   0  0  0  0  0  0  0  0  0  0  0  0
    4.4226    0.4782    1.5231 C   0  0  0  0  0  0  0  0  0  0  0  0
    5.2551    0.5433    2.8049 C   0  0  0  0  0  0  0  0  0  0  0  0
    3.6777   -0.8634    1.4311 C   0  0  0  0  0  0  0  0  0  0  0  0
    2.2912   -0.6251    1.2088 O   0  0  0  0  0  0  0  0  0  0  0  0
    1.8729   -0.6052   -0.1463 C   0  0  0  0  0  0  0  0  0  0  0  0
    1.1035    0.6776   -0.5088 C   0  0  0  0  0  0  0  0  0  0  0  0
    0.2083    1.5100    0.5070 C   0  0  0  0  0  0  0  0  0  0  0  0
   -1.5061    1.6059    0.4799 C   0  0  0  0  0  0  0  0  0  0  0  0
   -1.8163    3.1614    0.3298 C   0  0  0  0  0  0  0  0  0  0  0  0
   -1.1127    3.9666    1.2750 O   0  0  0  0  0  0  0  0  0  0  0  0
   -1.9442    1.2880    1.9691 C   0  0  0  0  0  0  0  0  0  0  0  0
   -1.5376   -0.0489    2.6069 C   0  0  0  0  0  0  0  0  0  0  0  0
   -0.7736   -1.0104    1.7069 C   0  0  0  0  0  0  0  0  0  0  0  0
   -1.3591   -1.1079    0.3653 N   0  0  0  0  0  0  0  0  0  0  0  0
   -2.6015   -1.8974    0.4795 C   0  0  0  0  0  0  0  0  0  0  0  0
   -3.8421   -1.0267    0.6856 C   0  0  0  0  0  0  0  0  0  0  0  0
   -3.9452    0.2648   -0.1211 C   0  0  0  0  0  0  0  0  0  0  0  0
   -2.6581    0.9018   -0.7090 C   0  0  0  0  0  0  0  0  0  0  0  0
   -2.4211    0.3231   -2.2888 N   0  3  0  0  0  0  0  0  0  0  0  0
   -3.5004    0.7647   -3.0714 O   0  5  0  0  0  0  0  0  0  0  0  0
   -2.4183   -1.1786   -2.4746 C   0  0  0  0  0  0  0  0  0  0  0  0
   -1.2077   -1.9537   -1.9643 C   0  0  0  0  0  0  0  0  0  0  0  0
   -0.4652   -1.1917   -0.8596 C   0  0  0  0  0  0  0  0  0  0  0  0
    0.9380   -1.8236   -0.4634 C   0  0  0  0  0  0  0  0  0  0  0  0
    1.6001   -2.7013   -1.5356 C   0  0  0  0  0  0  0  0  0  0  0  0
    0.1332    0.2116   -1.5333 C   0  0  0  0  0  0  0  0  0  0  0  0
    0.1443    0.1976   -3.1111 C   0  0  0  0  0  0  0  0  0  0  0  0
   -1.2159    0.9490   -2.8918 C   0  0  0  0  0  0  0  0  0  0  0  0
   -0.5675    1.5231   -1.7743 O   0  0  0  0  0  0  0  0  0  0  0  0
    4.7522    0.6894   -0.6173 H   0  0  0  0  0  0  0  0  0  0  0  0
    5.8512    1.6481    0.3810 H   0  0  0  0  0  0  0  0  0  0  0  0
    6.0864   -0.1022    0.2434 H   0  0  0  0  0  0  0  0  0  0  0  0
    3.6974    1.3017    1.5502 H   0  0  0  0  0  0  0  0  0  0  0  0
    4.6122    0.4550    3.6876 H   0  0  0  0  0  0  0  0  0  0  0  0
    5.9947   -0.2638    2.8399 H   0  0  0  0  0  0  0  0  0  0  0  0
    5.7863    1.4976    2.8763 H   0  0  0  0  0  0  0  0  0  0  0  0
    4.0937   -1.5395    0.6735 H   0  0  0  0  0  0  0  0  0  0  0  0
    3.7343   -1.3963    2.3874 H   0  0  0  0  0  0  0  0  0  0  0  0
    2.7478   -0.6495   -0.8088 H   0  0  0  0  0  0  0  0  0  0  0  0
    1.8352    1.3833   -0.9266 H   0  0  0  0  0  0  0  0  0  0  0  0
    0.5390    2.5420    0.3108 H   0  0  0  0  0  0  0  0  0  0  0  0
    0.5637    1.3710    1.5338 H   0  0  0  0  0  0  0  0  0  0  0  0
   -2.8844    3.3534    0.4835 H   0  0  0  0  0  0  0  0  0  0  0  0
   -1.5495    3.5169   -0.6702 H   0  0  0  0  0  0  0  0  0  0  0  0
   -1.2802    4.8912    1.0332 H   0  0  0  0  0  0  0  0  0  0  0  0
   -1.5248    2.0571    2.6318 H   0  0  0  0  0  0  0  0  0  0  0  0
   -3.0236    1.4249    2.0811 H   0  0  0  0  0  0  0  0  0  0  0  0
   -2.4128   -0.5401    3.0445 H   0  0  0  0  0  0  0  0  0  0  0  0
   -0.9029    0.1646    3.4786 H   0  0  0  0  0  0  0  0  0  0  0  0
   -0.6917   -1.9958    2.1865 H   0  0  0  0  0  0  0  0  0  0  0  0
    0.2338   -0.6471    1.7122 H   0  0  0  0  0  0  0  0  0  0  0  0
   -2.8128   -2.5804   -0.3381 H   0  0  0  0  0  0  0  0  0  0  0  0
   -2.5392   -2.5980    1.3246 H   0  0  0  0  0  0  0  0  0  0  0  0
   -3.9647   -0.7874    1.7447 H   0  0  0  0  0  0  0  0  0  0  0  0
   -4.7271   -1.6400    0.4658 H   0  0  0  0  0  0  0  0  0  0  0  0
   -4.6484    0.0711   -0.9411 H   0  0  0  0  0  0  0  0  0  0  0  0
   -4.4653    1.0106    0.4923 H   0  0  0  0  0  0  0  0  0  0  0  0
   -3.0788    1.8505   -1.0784 H   0  0  0  0  0  0  0  0  0  0  0  0
   -3.3651   -1.5387   -2.0658 H   0  0  0  0  0  0  0  0  0  0  0  0
   -2.4929   -1.3311   -3.5606 H   0  0  0  0  0  0  0  0  0  0  0  0
   -0.5686   -2.2008   -2.8144 H   0  0  0  0  0  0  0  0  0  0  0  0
   -1.4857   -2.9667   -1.6529 H   0  0  0  0  0  0  0  0  0  0  0  0
    0.8388   -2.4801    0.4093 H   0  0  0  0  0  0  0  0  0  0  0  0
    0.9952   -3.5892   -1.7452 H   0  0  0  0  0  0  0  0  0  0  0  0
    1.7667   -2.1622   -2.4727 H   0  0  0  0  0  0  0  0  0  0  0  0
    2.5748   -3.0587   -1.1824 H   0  0  0  0  0  0  0  0  0  0  0  0
    0.1192   -0.7049   -3.7127 H   0  0  0  0  0  0  0  0  0  0  0  0
    0.9307    0.8308   -3.5455 H   0  0  0  0  0  0  0  0  0  0  0  0
   -1.4194    1.6925   -3.6711 H   0  0  0  0  0  0  0  0  0  0  0  0
  2  1  1  0  0  0  0
  3  2  1  0  0  0  0
  4  2  1  0  0  0  0
  5  4  1  0  0  0  0
  6  5  1  0  0  0  0
  7  6  1  0  0  0  0
  8  7  1  0  0  0  0
  9  8  1  0  0  0  0
 10  9  1  0  0  0  0
 11 10  1  0  0  0  0
 12  9  1  0  0  0  0
 13 12  1  0  0  0  0
 14 13  1  0  0  0  0
 15 14  1  0  0  0  0
 16 15  1  0  0  0  0
 17 16  1  0  0  0  0
 18 17  1  0  0  0  0
 19 18  1  0  0  0  0
 19  9  1  0  0  0  0
 20 19  1  0  0  0  0
 21 20  1  0  0  0  0
 22 20  1  0  0  0  0
 23 22  1  0  0  0  0
 24 23  1  0  0  0  0
 24 15  1  0  0  0  0
 25 24  1  0  0  0  0
 25  6  1  0  0  0  0
 26 25  1  0  0  0  0
 27 24  1  0  0  0  0
 27  7  1  0  0  0  0
 28 27  1  0  0  0  0
 29 28  1  0  0  0  0
 29 20  1  0  0  0  0
 30 29  1  0  0  0  0
 30 27  1  0  0  0  0
  1 31  1  0  0  0  0
  1 32  1  0  0  0  0
  1 33  1  0  0  0  0
  2 34  1  0  0  0  0
  3 35  1  0  0  0  0
  3 36  1  0  0  0  0
  3 37  1  0  0  0  0
  4 38  1  0  0  0  0
  4 39  1  0  0  0  0
  6 40  1  0  0  0  0
  7 41  1  0  0  0  0
  8 42  1  0  0  0  0
  8 43  1  0  0  0  0
 10 44  1  0  0  0  0
 10 45  1  0  0  0  0
 11 46  1  0  0  0  0
 12 47  1  0  0  0  0
 12 48  1  0  0  0  0
 13 49  1  0  0  0  0
 13 50  1  0  0  0  0
 14 51  1  0  0  0  0
 14 52  1  0  0  0  0
 16 53  1  0  0  0  0
 16 54  1  0  0  0  0
 17 55  1  0  0  0  0
 17 56  1  0  0  0  0
 18 57  1  0  0  0  0
 18 58  1  0  0  0  0
 19 59  1  0  0  0  0
 22 60  1  0  0  0  0
 22 61  1  0  0  0  0
 23 62  1  0  0  0  0
 23 63  1  0  0  0  0
 25 64  1  0  0  0  0
 26 65  1  0  0  0  0
 26 66  1  0  0  0  0
 26 67  1  0  0  0  0
 28 68  1  0  0  0  0
 28 69  1  0  0  0  0
 29 70  1  0  0  0  0
M  CHG  2  20   1  21  -1
M  END
>  <energy>
320.1201204101431

$$$$
