CC(O)CCOC(=O)N1CC2C(NC(=O)OCCl)CCC23C2CC4(C)OOC3(C2)C(C1=O)C4C
                    3D

 67 71  0  0  0  0  0  0  0  0999 V2000
    5.3790   -0.1330   -1.9954 C   0  0  0  0  0  0  0  0  0  0  0  0
    4.7974   -0.5813   -0.6542 C   0  0  0  0  0  0  0  0  0  0  0  0
    4.0909    0.5224   -0.0932 O   0  0  0  0  0  0  0  0  0  0  0  0
    3.8539   -1.7845   -0.8016 C   0  0  0  0  0  0  0  0  0  0  0  0
    3.5419   -2.4557    0.5373 C   0  0  0  0  0  0  0  0  0  0  0  0
    2.6870   -1.5803    1.2926 O   0  0  0  0  0  0  0  0  0  0  0  0
    1.5801   -2.1760    1.8187 C   0  0  0  0  0  0  0  0  0  0  0  0
    1.4928   -3.3814    2.0273 O   0  0  0  0  0  0  0  0  0  0  0  0
    0.5317   -1.2822    1.9372 N   0  0  0  0  0  0  0  0  0  0  0  0
   -0.8160   -1.8237    1.7085 C   0  0  0  0  0  0  0  0  0  0  0  0
   -1.4084   -1.4902    0.2827 C   0  0  0  0  0  0  0  0  0  0  0  0
   -2.4464   -2.5523   -0.1739 C   0  0  0  0  0  0  0  0  0  0  0  0
   -2.1600   -3.0015   -1.5334 N   0  0  0  0  0  0  0  0  0  0  0  0
   -2.0989   -2.1545   -2.6068 C   0  0  0  0  0  0  0  0  0  0  0  0
   -2.6415   -1.0615   -2.6817 O   0  0  0  0  0  0  0  0  0  0  0  0
   -1.2474   -2.6466   -3.5301 O   0  0  0  0  0  0  0  0  0  0  0  0
   -0.8854   -1.7058   -4.5425 C   0  0  0  0  0  0  0  0  0  0  0  0
    0.7317   -2.1365   -5.1420 Cl  0  0  0  0  0  0  0  0  0  0  0  0
   -3.8391   -1.9277    0.0414 C   0  0  0  0  0  0  0  0  0  0  0  0
   -3.5961   -0.7022    0.9199 C   0  0  0  0  0  0  0  0  0  0  0  0
   -2.2547   -0.1955    0.3813 C   0  0  0  0  0  0  0  0  0  0  0  0
   -2.5377    1.3354   -0.4110 C   0  0  0  0  0  0  0  0  0  0  0  0
   -2.5066    2.8280    0.1752 C   0  0  0  0  0  0  0  0  0  0  0  0
   -1.4566    3.1838    1.4062 C   0  0  0  0  0  0  0  0  0  0  0  0
   -1.5103    4.6999    1.6250 C   0  0  0  0  0  0  0  0  0  0  0  0
   -2.1107    2.5686    2.5012 O   0  0  0  0  0  0  0  0  0  0  0  0
   -2.0340    1.1454    2.2634 O   0  0  0  0  0  0  0  0  0  0  0  0
   -1.2394    0.7540    1.0775 C   0  0  0  0  0  0  0  0  0  0  0  0
   -1.0872    1.2534   -0.5085 C   0  0  0  0  0  0  0  0  0  0  0  0
    0.1836    1.0593    1.3475 C   0  0  0  0  0  0  0  0  0  0  0  0
    0.7744    0.0442    2.3039 C   0  0  0  0  0  0  0  0  0  0  0  0
    1.5162    0.3665    3.2264 O   0  0  0  0  0  0  0  0  0  0  0  0
    0.0684    2.6098    1.6497 C   0  0  0  0  0  0  0  0  0  0  0  0
    1.1487    3.4228    0.9412 C   0  0  0  0  0  0  0  0  0  0  0  0
    6.0467    0.7244   -1.8512 H   0  0  0  0  0  0  0  0  0  0  0  0
    4.5919    0.1987   -2.6812 H   0  0  0  0  0  0  0  0  0  0  0  0
    5.9538   -0.9317   -2.4766 H   0  0  0  0  0  0  0  0  0  0  0  0
    5.6301   -0.8311    0.0130 H   0  0  0  0  0  0  0  0  0  0  0  0
    3.7702    0.2373    0.7837 H   0  0  0  0  0  0  0  0  0  0  0  0
    2.9109   -1.4456   -1.2454 H   0  0  0  0  0  0  0  0  0  0  0  0
    4.2968   -2.5299   -1.4718 H   0  0  0  0  0  0  0  0  0  0  0  0
    3.0576   -3.4158    0.3233 H   0  0  0  0  0  0  0  0  0  0  0  0
    4.4575   -2.6522    1.1030 H   0  0  0  0  0  0  0  0  0  0  0  0
   -0.7891   -2.9082    1.8331 H   0  0  0  0  0  0  0  0  0  0  0  0
   -1.4523   -1.4475    2.5132 H   0  0  0  0  0  0  0  0  0  0  0  0
   -0.5837   -1.4204   -0.4312 H   0  0  0  0  0  0  0  0  0  0  0  0
   -2.3602   -3.4572    0.4350 H   0  0  0  0  0  0  0  0  0  0  0  0
   -1.5581   -3.8138   -1.6342 H   0  0  0  0  0  0  0  0  0  0  0  0
   -0.8200   -0.6807   -4.1668 H   0  0  0  0  0  0  0  0  0  0  0  0
   -1.5848   -1.7611   -5.3797 H   0  0  0  0  0  0  0  0  0  0  0  0
   -4.3039   -1.6168   -0.9011 H   0  0  0  0  0  0  0  0  0  0  0  0
   -4.5266   -2.6326    0.5188 H   0  0  0  0  0  0  0  0  0  0  0  0
   -4.4064    0.0283    0.8784 H   0  0  0  0  0  0  0  0  0  0  0  0
   -3.5097   -1.0184    1.9674 H   0  0  0  0  0  0  0  0  0  0  0  0
   -3.0721    1.2783   -1.3627 H   0  0  0  0  0  0  0  0  0  0  0  0
   -2.3053    3.5206   -0.6538 H   0  0  0  0  0  0  0  0  0  0  0  0
   -3.5226    3.0447    0.5323 H   0  0  0  0  0  0  0  0  0  0  0  0
   -0.9772    4.9824    2.5359 H   0  0  0  0  0  0  0  0  0  0  0  0
   -1.0838    5.2446    0.7794 H   0  0  0  0  0  0  0  0  0  0  0  0
   -2.5431    5.0322    1.7697 H   0  0  0  0  0  0  0  0  0  0  0  0
   -0.6990    0.5194   -1.2289 H   0  0  0  0  0  0  0  0  0  0  0  0
   -0.5506    2.1572   -0.8104 H   0  0  0  0  0  0  0  0  0  0  0  0
    0.8606    0.9395    0.4858 H   0  0  0  0  0  0  0  0  0  0  0  0
    0.2627    2.7227    2.7290 H   0  0  0  0  0  0  0  0  0  0  0  0
    1.2136    4.4370    1.3537 H   0  0  0  0  0  0  0  0  0  0  0  0
    2.1334    2.9619    1.0827 H   0  0  0  0  0  0  0  0  0  0  0  0
    0.9611    3.5127   -0.1320 H   0  0  0  0  0  0  0  0  0  0  0  0
  2  1  1  0  0  0  0
  3  2  1  0  0  0  0
  4  2  1  0  0  0  0
  5  4  1  0  0  0  0
  6  5  1  0  0  0  0
  7  6  1  0  0  0  0
  8  7  2  0  0  0  0
  9  7  1  0  0  0  0
 10  9  1  0  0  0  0
 11 10  1  0  0  0  0
 12 11  1  0  0  0  0
 13 12  1  0  0  0  0
 14 13  1  0  0  0  0
 15 14  2  0  0  0  0
 16 14  1  0  0  0  0
 17 16  1  0  0  0  0
 18 17  1  0  0  0  0
 19 12  1  0  0  0  0
 20 19  1  0  0  0  0
 21 20  1  0  0  0  0
 21 11  1  0  0  0  0
 22 21  1  0  0  0  0
 23 22  1  0  0  0  0
 24 23  1  0  0  0  0
 25 24  1  0  0  0  0
 26 24  1  0  0  0  0
 27 26  1  0  0  0  0
 28 27  1  0  0  0  0
 28 21  1  0  0  0  0
 29 28  1  0  0  0  0
 29 22  1  0  0  0  0
 30 28  1  0  0  0  0
 31 30  1  0  0  0  0
 31  9  1  0  0  0  0
 32 31  2  0  0  0  0
 33 30  1  0  0  0  0
 33 24  1  0  0  0  0
 34 33  1  0  0  0  0
  1 35  1  0  0  0  0
  1 36  1  0  0  0  0
  1 37  1  0  0  0  0
  2 38  1  0  0  0  0
  3 39  1  0  0  0  0
  4 40  1  0  0  0  0
  4 41  1  0  0  0  0
  5 42  1  0  0  0  0
  5 43  1  0  0  0  0
 10 44  1  0  0  0  0
 10 45  1  0  0  0  0
 11 46  1  0  0  0  0
 12 47  1  0  0  0  0
 13 48  1  0  0  0  0
 17 49  1  0  0  0  0
 17 50  1  0  0  0  0
 19 51  1  0  0  0  0
 19 52  1  0  0  0  0
 20 53  1  0  0  0  0
 20 54  1  0  0  0  0
 22 55  1  0  0  0  0
 23 56  1  0  0  0  0
 23 57  1  0  0  0  0
 25 58  1  0  0  0  0
 25 59  1  0  0  0  0
 25 60  1  0  0  0  0
 29 61  1  0  0  0  0
 29 62  1  0  0  0  0
 30 63  1  0  0  0  0
 33 64  1  0  0  0  0
 34 65  1  0  0  0  0
 34 66  1  0  0  0  0
 34 67  1  0  0  0  0
M  END
>  <energy>
73.059548064154825

$$$$
