[N-]=[NH+]N=CC1C(=O)C2CNC2CC2C3C4C5C4C12C35
                    3D

 35 40  0  0  0  0  0  0  0  0999 V2000
   -0.4019    2.6224    2.0542 N   0  5  0  0  0  0  0  0  0  0  0  0
   -1.3458    2.6141    1.2345 N   0  3  0  0  0  0  0  0  0  0  0  0
   -1.0462    2.7708   -0.1471 N   0  0  0  0  0  0  0  0  0  0  0  0
    0.0307    2.2732   -0.6477 C   0  0  0  0  0  0  0  0  0  0  0  0
    0.0658    0.9456   -1.3373 C   0  0  0  0  0  0  0  0  0  0  0  0
   -1.2856    0.2667   -1.4948 C   0  0  0  0  0  0  0  0  0  0  0  0
   -1.6506   -0.0699   -2.6388 O   0  0  0  0  0  0  0  0  0  0  0  0
   -2.1488   -0.0244   -0.2470 C   0  0  0  0  0  0  0  0  0  0  0  0
   -3.1016   -1.2445   -0.3199 C   0  0  0  0  0  0  0  0  0  0  0  0
   -2.1396   -2.0191    0.4877 N   0  0  0  0  0  0  0  0  0  0  0  0
   -1.5853   -0.7427    1.0129 C   0  0  0  0  0  0  0  0  0  0  0  0
   -0.1518   -0.8838    1.4963 C   0  0  0  0  0  0  0  0  0  0  0  0
    0.7138   -1.1834    0.2890 C   0  0  0  0  0  0  0  0  0  0  0  0
    2.2958   -1.1735    0.5894 C   0  0  0  0  0  0  0  0  0  0  0  0
    3.1281   -1.1805   -0.6661 C   0  0  0  0  0  0  0  0  0  0  0  0
    3.1936    0.2927   -0.6715 C   0  0  0  0  0  0  0  0  0  0  0  0
    2.2855   -0.3787   -1.6120 C   0  0  0  0  0  0  0  0  0  0  0  0
    1.0833   -0.0041   -0.7599 C   0  0  0  0  0  0  0  0  0  0  0  0
    2.1765    0.3854    0.3388 C   0  0  0  0  0  0  0  0  0  0  0  0
   -2.2830    2.7970    1.5708 H   0  0  0  0  0  0  0  0  0  0  0  0
    0.9747    2.8494   -0.5950 H   0  0  0  0  0  0  0  0  0  0  0  0
    0.3772    1.2028   -2.3595 H   0  0  0  0  0  0  0  0  0  0  0  0
   -2.7220    0.8720    0.0188 H   0  0  0  0  0  0  0  0  0  0  0  0
   -3.3052   -1.6649   -1.3059 H   0  0  0  0  0  0  0  0  0  0  0  0
   -4.0664   -1.0829    0.1794 H   0  0  0  0  0  0  0  0  0  0  0  0
   -2.5558   -2.6079    1.2061 H   0  0  0  0  0  0  0  0  0  0  0  0
   -2.1492   -0.4015    1.8981 H   0  0  0  0  0  0  0  0  0  0  0  0
    0.1668    0.0286    2.0090 H   0  0  0  0  0  0  0  0  0  0  0  0
   -0.0766   -1.6931    2.2352 H   0  0  0  0  0  0  0  0  0  0  0  0
    0.4234   -2.1198   -0.2102 H   0  0  0  0  0  0  0  0  0  0  0  0
    2.6778   -1.5106    1.5438 H   0  0  0  0  0  0  0  0  0  0  0  0
    4.0371   -1.7354   -0.7733 H   0  0  0  0  0  0  0  0  0  0  0  0
    4.0226    0.9327   -0.8509 H   0  0  0  0  0  0  0  0  0  0  0  0
    2.3365   -0.2138   -2.6673 H   0  0  0  0  0  0  0  0  0  0  0  0
    2.0262    1.0811    1.1404 H   0  0  0  0  0  0  0  0  0  0  0  0
  2  1  2  0  0  0  0
  3  2  1  0  0  0  0
  4  3  2  0  0  0  0
  5  4  1  0  0  0  0
  6  5  1  0  0  0  0
  7  6  2  0  0  0  0
  8  6  1  0  0  0  0
  9  8  1  0  0  0  0
 10  9  1  0  0  0  0
 11 10  1  0  0  0  0
 11  8  1  0  0  0  0
 12 11  1  0  0  0  0
 13 12  1  0  0  0  0
 14 13  1  0  0  0  0
 15 14  1  0  0  0  0
 16 15  1  0  0  0  0
 17 16  1  0  0  0  0
 17 15  1  0  0  0  0
 18 17  1  0  0  0  0
 18  5  1  0  0  0  0
 18 13  1  0  0  0  0
 19 18  1  0  0  0  0
 19 14  1  0  0  0  0
 19 16  1  0  0  0  0
  2 20  1  0  0  0  0
  4 21  1  0  0  0  0
  5 22  1  0  0  0  0
  8 23  1  0  0  0  0
  9 24  1  0  0  0  0
  9 25  1  0  0  0  0
 10 26  1  0  0  0  0
 11 27  1  0  0  0  0
 12 28  1  0  0  0  0
 12 29  1  0  0  0  0
 13 30  1  0  0  0  0
 14 31  1  0  0  0  0
 15 32  1  0  0  0  0
 16 33  1  0  0  0  0
 17 34  1  0  0  0  0
 19 35  1  0  0  0  0
M  CHG  2   1  -1   2   1
M  END
>  <energy>
59.491722867023185

$$$$
