COc1ccc2[nH]c3c(cc4c5ccc4c(c4c(O)c(-c6ccccc6)c6c-4c5C(=O)NC6)[n+]3C)c2c1
                    3D

 59 66  0  0  0  0  0  0  0  0999 V2000
    4.0925    2.6074    3.4377 C   0  0  0  0  0  0  0  0  0  0  0  0
    4.1272    1.1782    3.4745 O   0  0  0  0  0  0  0  0  0  0  0  0
    3.9394    0.6281    2.2316 C   0  0  0  0  0  0  0  0  0  0  0  0
    4.7683    0.9295    1.1551 C   0  0  0  0  0  0  0  0  0  0  0  0
    4.5259    0.3998   -0.1151 C   0  0  0  0  0  0  0  0  0  0  0  0
    3.4295   -0.4516   -0.2481 C   0  0  0  0  0  0  0  0  0  0  0  0
    2.8815   -1.0550   -1.3715 N   0  0  0  0  0  0  0  0  0  0  0  0
    1.7602   -1.8067   -1.0907 C   0  0  0  0  0  0  0  0  0  0  0  0
    1.6392   -1.7670    0.3009 C   0  0  0  0  0  0  0  0  0  0  0  0
    0.7483   -2.4311    1.0616 C   0  0  0  0  0  0  0  0  0  0  0  0
   -0.3123   -3.3402    0.5771 C   0  0  0  0  0  0  0  0  0  0  0  0
   -1.5745   -3.3994    1.0712 C   0  0  0  0  0  0  0  0  0  0  0  0
   -2.2371   -4.3344    0.3513 C   0  0  0  0  0  0  0  0  0  0  0  0
   -1.5657   -4.4638   -0.8029 C   0  0  0  0  0  0  0  0  0  0  0  0
   -0.5259   -3.6151   -0.7216 C   0  0  0  0  0  0  0  0  0  0  0  0
   -0.4435   -2.5518   -1.5676 C   0  0  0  0  0  0  0  0  0  0  0  0
   -1.3393   -1.4093   -1.1602 C   0  0  0  0  0  0  0  0  0  0  0  0
   -1.4077   -0.2130   -1.7751 C   0  0  0  0  0  0  0  0  0  0  0  0
   -0.8269    0.1131   -2.9667 O   0  0  0  0  0  0  0  0  0  0  0  0
   -2.1706    0.7777   -0.9827 C   0  0  0  0  0  0  0  0  0  0  0  0
   -2.1165    2.2461   -1.1241 C   0  0  0  0  0  0  0  0  0  0  0  0
   -3.2521    3.0445   -0.9426 C   0  0  0  0  0  0  0  0  0  0  0  0
   -3.1483    4.4407   -0.9407 C   0  0  0  0  0  0  0  0  0  0  0  0
   -1.9139    5.0532   -1.1604 C   0  0  0  0  0  0  0  0  0  0  0  0
   -0.7838    4.2711   -1.3964 C   0  0  0  0  0  0  0  0  0  0  0  0
   -0.8809    2.8782   -1.3666 C   0  0  0  0  0  0  0  0  0  0  0  0
   -2.6794    0.1397    0.1002 C   0  0  0  0  0  0  0  0  0  0  0  0
   -2.1489   -1.2244    0.0890 C   0  0  0  0  0  0  0  0  0  0  0  0
   -2.2765   -2.0626    1.1492 C   0  0  0  0  0  0  0  0  0  0  0  0
   -3.1110   -1.6243    2.3004 C   0  0  0  0  0  0  0  0  0  0  0  0
   -3.1737   -2.2426    3.3559 O   0  0  0  0  0  0  0  0  0  0  0  0
   -3.8793   -0.4982    2.1058 N   0  0  0  0  0  0  0  0  0  0  0  0
   -3.3747    0.6221    1.3281 C   0  0  0  0  0  0  0  0  0  0  0  0
    0.8944   -2.1713   -1.9541 N   0  3  0  0  0  0  0  0  0  0  0  0
    1.2493   -2.3360   -3.3789 C   0  0  0  0  0  0  0  0  0  0  0  0
    2.6215   -0.8448    0.8433 C   0  0  0  0  0  0  0  0  0  0  0  0
    2.8860   -0.2870    2.1081 C   0  0  0  0  0  0  0  0  0  0  0  0
    3.8727    2.9680    4.4496 H   0  0  0  0  0  0  0  0  0  0  0  0
    5.0686    3.0030    3.1389 H   0  0  0  0  0  0  0  0  0  0  0  0
    3.3037    2.9732    2.7695 H   0  0  0  0  0  0  0  0  0  0  0  0
    5.6161    1.5973    1.2933 H   0  0  0  0  0  0  0  0  0  0  0  0
    5.1568    0.6515   -0.9615 H   0  0  0  0  0  0  0  0  0  0  0  0
    3.1936   -0.9145   -2.3189 H   0  0  0  0  0  0  0  0  0  0  0  0
    0.7477   -2.3064    2.1425 H   0  0  0  0  0  0  0  0  0  0  0  0
   -3.2869   -4.5720    0.4520 H   0  0  0  0  0  0  0  0  0  0  0  0
   -1.9909   -4.8475   -1.7157 H   0  0  0  0  0  0  0  0  0  0  0  0
   -1.1898    0.9690   -3.2479 H   0  0  0  0  0  0  0  0  0  0  0  0
   -4.2314    2.5930   -0.7855 H   0  0  0  0  0  0  0  0  0  0  0  0
   -4.0254    5.0538   -0.7500 H   0  0  0  0  0  0  0  0  0  0  0  0
   -1.8270    6.1350   -1.1277 H   0  0  0  0  0  0  0  0  0  0  0  0
    0.1796    4.7457   -1.5773 H   0  0  0  0  0  0  0  0  0  0  0  0
    0.0337    2.2962   -1.5016 H   0  0  0  0  0  0  0  0  0  0  0  0
   -4.4189   -0.2873    2.9390 H   0  0  0  0  0  0  0  0  0  0  0  0
   -4.2218    1.2880    1.1210 H   0  0  0  0  0  0  0  0  0  0  0  0
   -2.6633    1.1316    1.9852 H   0  0  0  0  0  0  0  0  0  0  0  0
    0.4284   -2.8084   -3.9293 H   0  0  0  0  0  0  0  0  0  0  0  0
    2.1273   -2.9824   -3.4597 H   0  0  0  0  0  0  0  0  0  0  0  0
    1.4509   -1.3628   -3.8518 H   0  0  0  0  0  0  0  0  0  0  0  0
    2.2555   -0.5238    2.9610 H   0  0  0  0  0  0  0  0  0  0  0  0
  2  1  1  0  0  0  0
  3  2  1  0  0  0  0
  4  3  2  0  0  0  0
  5  4  1  0  0  0  0
  6  5  2  0  0  0  0
  7  6  1  0  0  0  0
  8  7  1  0  0  0  0
  9  8  1  0  0  0  0
 10  9  2  0  0  0  0
 11 10  1  0  0  0  0
 12 11  2  0  0  0  0
 13 12  1  0  0  0  0
 14 13  2  0  0  0  0
 15 14  1  0  0  0  0
 15 11  1  0  0  0  0
 16 15  2  0  0  0  0
 17 16  1  0  0  0  0
 18 17  2  0  0  0  0
 19 18  1  0  0  0  0
 20 18  1  0  0  0  0
 21 20  1  0  0  0  0
 22 21  2  0  0  0  0
 23 22  1  0  0  0  0
 24 23  2  0  0  0  0
 25 24  1  0  0  0  0
 26 25  2  0  0  0  0
 26 21  1  0  0  0  0
 27 20  2  0  0  0  0
 28 27  1  0  0  0  0
 28 17  1  0  0  0  0
 29 28  2  0  0  0  0
 29 12  1  0  0  0  0
 30 29  1  0  0  0  0
 31 30  2  0  0  0  0
 32 30  1  0  0  0  0
 33 32  1  0  0  0  0
 33 27  1  0  0  0  0
 34 16  1  0  0  0  0
 34  8  2  0  0  0  0
 35 34  1  0  0  0  0
 36  9  1  0  0  0  0
 36  6  1  0  0  0  0
 37 36  2  0  0  0  0
 37  3  1  0  0  0  0
  1 38  1  0  0  0  0
  1 39  1  0  0  0  0
  1 40  1  0  0  0  0
  4 41  1  0  0  0  0
  5 42  1  0  0  0  0
  7 43  1  0  0  0  0
 10 44  1  0  0  0  0
 13 45  1  0  0  0  0
 14 46  1  0  0  0  0
 19 47  1  0  0  0  0
 22 48  1  0  0  0  0
 23 49  1  0  0  0  0
 24 50  1  0  0  0  0
 25 51  1  0  0  0  0
 26 52  1  0  0  0  0
 32 53  1  0  0  0  0
 33 54  1  0  0  0  0
 33 55  1  0  0  0  0
 35 56  1  0  0  0  0
 35 57  1  0  0  0  0
 35 58  1  0  0  0  0
 37 59  1  0  0  0  0
M  CHG  1  34   1
M  END
>  <energy>
201.76702717766847

$$$$
