CC(C)CC1NCC2C1(C=O)C(O)C21CC2COC21
                    3D

 42 45  0  0  0  0  0  0  0  0999 V2000
   -3.0539    1.7049   -0.2306 C   0  0  0  0  0  0  0  0  0  0  0  0
   -2.9697    0.2488   -0.6938 C   0  0  0  0  0  0  0  0  0  0  0  0
   -4.3494   -0.2143   -1.1696 C   0  0  0  0  0  0  0  0  0  0  0  0
   -2.4567   -0.6869    0.4225 C   0  0  0  0  0  0  0  0  0  0  0  0
   -0.9746   -0.4962    0.7719 C   0  0  0  0  0  0  0  0  0  0  0  0
   -0.5970   -1.3322    1.9160 N   0  0  0  0  0  0  0  0  0  0  0  0
    0.8665   -1.2675    1.9540 C   0  0  0  0  0  0  0  0  0  0  0  0
    1.3243   -1.1812    0.4998 C   0  0  0  0  0  0  0  0  0  0  0  0
    0.0203   -0.9258   -0.3244 C   0  0  0  0  0  0  0  0  0  0  0  0
   -0.4537   -2.1197   -1.2015 C   0  0  0  0  0  0  0  0  0  0  0  0
   -1.0121   -2.0194   -2.2974 O   0  0  0  0  0  0  0  0  0  0  0  0
    0.7418    0.2426   -1.0793 C   0  0  0  0  0  0  0  0  0  0  0  0
    1.0330    0.0257   -2.4759 O   0  0  0  0  0  0  0  0  0  0  0  0
    1.9055    0.0770   -0.1160 C   0  0  0  0  0  0  0  0  0  0  0  0
    3.3141    0.0062   -0.6780 C   0  0  0  0  0  0  0  0  0  0  0  0
    3.5451    1.4235   -0.1146 C   0  0  0  0  0  0  0  0  0  0  0  0
    4.2610    1.4600    1.2281 C   0  0  0  0  0  0  0  0  0  0  0  0
    3.0463    1.1059    1.9339 O   0  0  0  0  0  0  0  0  0  0  0  0
    2.2674    1.2753    0.7250 C   0  0  0  0  0  0  0  0  0  0  0  0
   -2.0740    2.0923    0.0616 H   0  0  0  0  0  0  0  0  0  0  0  0
   -3.4283    2.3443   -1.0377 H   0  0  0  0  0  0  0  0  0  0  0  0
   -3.7316    1.8109    0.6236 H   0  0  0  0  0  0  0  0  0  0  0  0
   -2.2919    0.2054   -1.5534 H   0  0  0  0  0  0  0  0  0  0  0  0
   -5.0741   -0.2193   -0.3479 H   0  0  0  0  0  0  0  0  0  0  0  0
   -4.2978   -1.2272   -1.5833 H   0  0  0  0  0  0  0  0  0  0  0  0
   -4.7328    0.4452   -1.9557 H   0  0  0  0  0  0  0  0  0  0  0  0
   -3.0615   -0.5165    1.3246 H   0  0  0  0  0  0  0  0  0  0  0  0
   -2.6412   -1.7305    0.1356 H   0  0  0  0  0  0  0  0  0  0  0  0
   -0.8046    0.5493    1.0596 H   0  0  0  0  0  0  0  0  0  0  0  0
   -0.9923   -0.9695    2.7836 H   0  0  0  0  0  0  0  0  0  0  0  0
    1.2637   -2.1629    2.4424 H   0  0  0  0  0  0  0  0  0  0  0  0
    1.1769   -0.4009    2.5419 H   0  0  0  0  0  0  0  0  0  0  0  0
    1.8539   -2.0935    0.1926 H   0  0  0  0  0  0  0  0  0  0  0  0
   -0.2441   -3.1220   -0.7845 H   0  0  0  0  0  0  0  0  0  0  0  0
    0.2139    1.1986   -0.9825 H   0  0  0  0  0  0  0  0  0  0  0  0
    0.1901   -0.2711   -2.8775 H   0  0  0  0  0  0  0  0  0  0  0  0
    3.4135   -0.0682   -1.7645 H   0  0  0  0  0  0  0  0  0  0  0  0
    3.9504   -0.7681   -0.2324 H   0  0  0  0  0  0  0  0  0  0  0  0
    3.5887    2.2768   -0.7911 H   0  0  0  0  0  0  0  0  0  0  0  0
    5.0536    0.7205    1.3749 H   0  0  0  0  0  0  0  0  0  0  0  0
    4.6204    2.4475    1.5336 H   0  0  0  0  0  0  0  0  0  0  0  0
    1.5908    2.1322    0.7661 H   0  0  0  0  0  0  0  0  0  0  0  0
  2  1  1  0  0  0  0
  3  2  1  0  0  0  0
  4  2  1  0  0  0  0
  5  4  1  0  0  0  0
  6  5  1  0  0  0  0
  7  6  1  0  0  0  0
  8  7  1  0  0  0  0
  9  8  1  0  0  0  0
  9  5  1  0  0  0  0
 10  9  1  0  0  0  0
 11 10  2  0  0  0  0
 12  9  1  0  0  0  0
 13 12  1  0  0  0  0
 14 12  1  0  0  0  0
 14  8  1  0  0  0  0
 15 14  1  0  0  0  0
 16 15  1  0  0  0  0
 17 16  1  0  0  0  0
 18 17  1  0  0  0  0
 19 18  1  0  0  0  0
 19 16  1  0  0  0  0
 19 14  1  0  0  0  0
  1 20  1  0  0  0  0
  1 21  1  0  0  0  0
  1 22  1  0  0  0  0
  2 23  1  0  0  0  0
  3 24  1  0  0  0  0
  3 25  1  0  0  0  0
  3 26  1  0  0  0  0
  4 27  1  0  0  0  0
  4 28  1  0  0  0  0
  5 29  1  0  0  0  0
  6 30  1  0  0  0  0
  7 31  1  0  0  0  0
  7 32  1  0  0  0  0
  8 33  1  0  0  0  0
 10 34  1  0  0  0  0
 12 35  1  0  0  0  0
 13 36  1  0  0  0  0
 15 37  1  0  0  0  0
 15 38  1  0  0  0  0
 16 39  1  0  0  0  0
 17 40  1  0  0  0  0
 17 41  1  0  0  0  0
 19 42  1  0  0  0  0
M  END
>  <energy>
40.871237839950737

$$$$
