CC(O)(O)C(O)C1OCC23COC2(C(=O)O)C2(COCC#N)CC1(O)CC32
                    3D

 50 53  0  0  0  0  0  0  0  0999 V2000
   -5.0027    2.0260   -2.1353 C   0  0  0  0  0  0  0  0  0  0  0  0
   -3.8744    1.8419   -1.1162 C   0  0  0  0  0  0  0  0  0  0  0  0
   -4.4770    1.4301    0.1016 O   0  0  0  0  0  0  0  0  0  0  0  0
   -3.3082    3.1300   -0.8933 O   0  0  0  0  0  0  0  0  0  0  0  0
   -2.8156    0.8262   -1.6609 C   0  0  0  0  0  0  0  0  0  0  0  0
   -3.4422   -0.3657   -2.1575 O   0  0  0  0  0  0  0  0  0  0  0  0
   -1.7190    0.4154   -0.6336 C   0  0  0  0  0  0  0  0  0  0  0  0
   -1.2516    1.6951    0.0269 O   0  0  0  0  0  0  0  0  0  0  0  0
   -0.3950    1.6929    1.2475 C   0  0  0  0  0  0  0  0  0  0  0  0
    1.0450    1.1967    0.9941 C   0  0  0  0  0  0  0  0  0  0  0  0
    2.2954    2.0198    0.8136 C   0  0  0  0  0  0  0  0  0  0  0  0
    3.1235    0.9853    1.3971 O   0  0  0  0  0  0  0  0  0  0  0  0
    1.9664    0.0952    1.5822 C   0  0  0  0  0  0  0  0  0  0  0  0
    1.7391   -0.4196    3.0560 C   0  0  0  0  0  0  0  0  0  0  0  0
    2.2907   -1.3242    3.6724 O   0  0  0  0  0  0  0  0  0  0  0  0
    0.7637    0.2664    3.7065 O   0  0  0  0  0  0  0  0  0  0  0  0
    1.6787   -0.9654    0.2149 C   0  0  0  0  0  0  0  0  0  0  0  0
    2.3251   -2.2409    0.7250 C   0  0  0  0  0  0  0  0  0  0  0  0
    3.6816   -1.9493    1.0600 O   0  0  0  0  0  0  0  0  0  0  0  0
    4.4406   -3.1044    1.4384 C   0  0  0  0  0  0  0  0  0  0  0  0
    4.9246   -3.8435    0.2586 C   0  0  0  0  0  0  0  0  0  0  0  0
    5.2794   -4.4354   -0.6749 N   0  0  0  0  0  0  0  0  0  0  0  0
    0.3190   -1.6523   -0.6771 C   0  0  0  0  0  0  0  0  0  0  0  0
   -0.5229   -0.4614   -1.4480 C   0  0  0  0  0  0  0  0  0  0  0  0
   -0.8935   -0.8834   -2.7439 O   0  0  0  0  0  0  0  0  0  0  0  0
    0.6165    0.4918   -1.4356 C   0  0  0  0  0  0  0  0  0  0  0  0
    0.7662    0.1757    0.0201 C   0  0  0  0  0  0  0  0  0  0  0  0
   -5.6122    1.1208   -2.2372 H   0  0  0  0  0  0  0  0  0  0  0  0
   -4.6033    2.2987   -3.1205 H   0  0  0  0  0  0  0  0  0  0  0  0
   -5.6751    2.8344   -1.8295 H   0  0  0  0  0  0  0  0  0  0  0  0
   -3.7553    1.2826    0.7301 H   0  0  0  0  0  0  0  0  0  0  0  0
   -2.4191    2.9821   -0.5234 H   0  0  0  0  0  0  0  0  0  0  0  0
   -2.3201    1.3260   -2.5027 H   0  0  0  0  0  0  0  0  0  0  0  0
   -2.7344   -0.8549   -2.6295 H   0  0  0  0  0  0  0  0  0  0  0  0
   -2.1681   -0.2293    0.1349 H   0  0  0  0  0  0  0  0  0  0  0  0
   -0.9261    1.0988    2.0013 H   0  0  0  0  0  0  0  0  0  0  0  0
   -0.3656    2.7246    1.6102 H   0  0  0  0  0  0  0  0  0  0  0  0
    2.3310    2.9337    1.4138 H   0  0  0  0  0  0  0  0  0  0  0  0
    2.5844    2.2551   -0.2146 H   0  0  0  0  0  0  0  0  0  0  0  0
    0.7771   -0.1220    4.6071 H   0  0  0  0  0  0  0  0  0  0  0  0
    2.3349   -3.0075   -0.0582 H   0  0  0  0  0  0  0  0  0  0  0  0
    1.7922   -2.6652    1.5840 H   0  0  0  0  0  0  0  0  0  0  0  0
    5.2982   -2.7406    2.0127 H   0  0  0  0  0  0  0  0  0  0  0  0
    3.8502   -3.7470    2.1022 H   0  0  0  0  0  0  0  0  0  0  0  0
    0.7408   -2.3371   -1.4243 H   0  0  0  0  0  0  0  0  0  0  0  0
   -0.3172   -2.2239    0.0119 H   0  0  0  0  0  0  0  0  0  0  0  0
   -0.0824   -1.0405   -3.2641 H   0  0  0  0  0  0  0  0  0  0  0  0
    0.3440    1.5129   -1.6957 H   0  0  0  0  0  0  0  0  0  0  0  0
    1.4699    0.1974   -2.0545 H   0  0  0  0  0  0  0  0  0  0  0  0
   -0.0973   -0.2420    0.6075 H   0  0  0  0  0  0  0  0  0  0  0  0
  2  1  1  0  0  0  0
  3  2  1  0  0  0  0
  4  2  1  0  0  0  0
  5  2  1  0  0  0  0
  6  5  1  0  0  0  0
  7  5  1  0  0  0  0
  8  7  1  0  0  0  0
  9  8  1  0  0  0  0
 10  9  1  0  0  0  0
 11 10  1  0  0  0  0
 12 11  1  0  0  0  0
 13 12  1  0  0  0  0
 13 10  1  0  0  0  0
 14 13  1  0  0  0  0
 15 14  2  0  0  0  0
 16 14  1  0  0  0  0
 17 13  1  0  0  0  0
 18 17  1  0  0  0  0
 19 18  1  0  0  0  0
 20 19  1  0  0  0  0
 21 20  1  0  0  0  0
 22 21  3  0  0  0  0
 23 17  1  0  0  0  0
 24 23  1  0  0  0  0
 24  7  1  0  0  0  0
 25 24  1  0  0  0  0
 26 24  1  0  0  0  0
 27 26  1  0  0  0  0
 27 10  1  0  0  0  0
 27 17  1  0  0  0  0
  1 28  1  0  0  0  0
  1 29  1  0  0  0  0
  1 30  1  0  0  0  0
  3 31  1  0  0  0  0
  4 32  1  0  0  0  0
  5 33  1  0  0  0  0
  6 34  1  0  0  0  0
  7 35  1  0  0  0  0
  9 36  1  0  0  0  0
  9 37  1  0  0  0  0
 11 38  1  0  0  0  0
 11 39  1  0  0  0  0
 16 40  1  0  0  0  0
 18 41  1  0  0  0  0
 18 42  1  0  0  0  0
 20 43  1  0  0  0  0
 20 44  1  0  0  0  0
 23 45  1  0  0  0  0
 23 46  1  0  0  0  0
 25 47  1  0  0  0  0
 26 48  1  0  0  0  0
 26 49  1  0  0  0  0
 27 50  1  0  0  0  0
M  END
>  <energy>
292.22606883320441

$$$$
