CC1(O)CC2C3CC4CC5(O)C6(C)OC45C6C2N3C1
                    3D

 40 45  0  0  0  0  0  0  0  0999 V2000
    4.4247   -0.2629   -0.0948 C   0  0  0  0  0  0  0  0  0  0  0  0
    2.9577   -0.6755   -0.2468 C   0  0  0  0  0  0  0  0  0  0  0  0
    2.9437   -2.0984   -0.4541 O   0  0  0  0  0  0  0  0  0  0  0  0
    2.3194   -0.0185   -1.4907 C   0  0  0  0  0  0  0  0  0  0  0  0
    0.8542    0.3272   -1.1987 C   0  0  0  0  0  0  0  0  0  0  0  0
    0.7494    1.3045    0.0215 C   0  0  0  0  0  0  0  0  0  0  0  0
   -0.3758    2.3681    0.2525 C   0  0  0  0  0  0  0  0  0  0  0  0
   -1.7170    1.7967    0.7504 C   0  0  0  0  0  0  0  0  0  0  0  0
   -2.9028    1.6494   -0.2766 C   0  0  0  0  0  0  0  0  0  0  0  0
   -3.2744    0.2673    0.3650 C   0  0  0  0  0  0  0  0  0  0  0  0
   -4.2967    0.3482    1.3939 O   0  0  0  0  0  0  0  0  0  0  0  0
   -2.5519   -1.1958    0.2177 C   0  0  0  0  0  0  0  0  0  0  0  0
   -3.1360   -2.5502    0.1005 C   0  0  0  0  0  0  0  0  0  0  0  0
   -2.0318   -0.8331    1.6298 O   0  0  0  0  0  0  0  0  0  0  0  0
   -1.7396    0.3478    0.8178 C   0  0  0  0  0  0  0  0  0  0  0  0
   -1.3697   -0.4600   -0.4176 C   0  0  0  0  0  0  0  0  0  0  0  0
    0.1350   -0.7183   -0.2675 C   0  0  0  0  0  0  0  0  0  0  0  0
    0.7496    0.0756    0.8769 N   0  0  0  0  0  0  0  0  0  0  0  0
    2.1589   -0.3681    1.0626 C   0  0  0  0  0  0  0  0  0  0  0  0
    4.5266    0.8205    0.0235 H   0  0  0  0  0  0  0  0  0  0  0  0
    4.8793   -0.7516    0.7742 H   0  0  0  0  0  0  0  0  0  0  0  0
    5.0111   -0.5709   -0.9678 H   0  0  0  0  0  0  0  0  0  0  0  0
    3.5208   -2.2994   -1.2103 H   0  0  0  0  0  0  0  0  0  0  0  0
    2.3680   -0.6915   -2.3544 H   0  0  0  0  0  0  0  0  0  0  0  0
    2.8472    0.9022   -1.7667 H   0  0  0  0  0  0  0  0  0  0  0  0
    0.3306    0.6526   -2.1017 H   0  0  0  0  0  0  0  0  0  0  0  0
    1.6656    1.9095    0.1211 H   0  0  0  0  0  0  0  0  0  0  0  0
   -0.0133    3.0715    1.0142 H   0  0  0  0  0  0  0  0  0  0  0  0
   -0.5164    2.9521   -0.6652 H   0  0  0  0  0  0  0  0  0  0  0  0
   -2.0283    2.2747    1.6893 H   0  0  0  0  0  0  0  0  0  0  0  0
   -3.6726    2.4190   -0.1451 H   0  0  0  0  0  0  0  0  0  0  0  0
   -2.6504    1.6464   -1.3419 H   0  0  0  0  0  0  0  0  0  0  0  0
   -3.8721   -0.1079    2.1491 H   0  0  0  0  0  0  0  0  0  0  0  0
   -3.8961   -2.7296    0.8683 H   0  0  0  0  0  0  0  0  0  0  0  0
   -3.6155   -2.6844   -0.8739 H   0  0  0  0  0  0  0  0  0  0  0  0
   -2.3697   -3.3242    0.2064 H   0  0  0  0  0  0  0  0  0  0  0  0
   -1.6372   -0.1700   -1.4419 H   0  0  0  0  0  0  0  0  0  0  0  0
    0.4168   -1.7688   -0.3647 H   0  0  0  0  0  0  0  0  0  0  0  0
    2.1402   -1.2624    1.6981 H   0  0  0  0  0  0  0  0  0  0  0  0
    2.6683    0.4084    1.6476 H   0  0  0  0  0  0  0  0  0  0  0  0
  2  1  1  0  0  0  0
  3  2  1  0  0  0  0
  4  2  1  0  0  0  0
  5  4  1  0  0  0  0
  6  5  1  0  0  0  0
  7  6  1  0  0  0  0
  8  7  1  0  0  0  0
  9  8  1  0  0  0  0
 10  9  1  0  0  0  0
 11 10  1  0  0  0  0
 12 10  1  0  0  0  0
 13 12  1  0  0  0  0
 14 12  1  0  0  0  0
 15 14  1  0  0  0  0
 15  8  1  0  0  0  0
 15 10  1  0  0  0  0
 16 15  1  0  0  0  0
 16 12  1  0  0  0  0
 17 16  1  0  0  0  0
 17  5  1  0  0  0  0
 18 17  1  0  0  0  0
 18  6  1  0  0  0  0
 19 18  1  0  0  0  0
 19  2  1  0  0  0  0
  1 20  1  0  0  0  0
  1 21  1  0  0  0  0
  1 22  1  0  0  0  0
  3 23  1  0  0  0  0
  4 24  1  0  0  0  0
  4 25  1  0  0  0  0
  5 26  1  0  0  0  0
  6 27  1  0  0  0  0
  7 28  1  0  0  0  0
  7 29  1  0  0  0  0
  8 30  1  0  0  0  0
  9 31  1  0  0  0  0
  9 32  1  0  0  0  0
 11 33  1  0  0  0  0
 13 34  1  0  0  0  0
 13 35  1  0  0  0  0
 13 36  1  0  0  0  0
 16 37  1  0  0  0  0
 17 38  1  0  0  0  0
 19 39  1  0  0  0  0
 19 40  1  0  0  0  0
M  END
>  <energy>
204.37223113881976

$$$$
