COC1CC2CCC3CCC1(CC2)C1(C)CC(O)C(Br)=CC31
                    3D

 51 54  0  0  0  0  0  0  0  0999 V2000
   -1.5731   -3.5952    0.2060 C   0  0  0  0  0  0  0  0  0  0  0  0
   -1.7032   -2.3219    0.8224 O   0  0  0  0  0  0  0  0  0  0  0  0
   -1.7222   -1.2482   -0.1126 C   0  0  0  0  0  0  0  0  0  0  0  0
   -2.9896   -0.3203    0.1977 C   0  0  0  0  0  0  0  0  0  0  0  0
   -2.8374    1.2149   -0.1992 C   0  0  0  0  0  0  0  0  0  0  0  0
   -2.0683    2.3066    0.6779 C   0  0  0  0  0  0  0  0  0  0  0  0
   -0.5339    2.7546    0.4602 C   0  0  0  0  0  0  0  0  0  0  0  0
    0.7395    1.9661    1.0284 C   0  0  0  0  0  0  0  0  0  0  0  0
    0.2773    1.1406    2.1793 C   0  0  0  0  0  0  0  0  0  0  0  0
   -0.6336    0.0806    1.5962 C   0  0  0  0  0  0  0  0  0  0  0  0
   -0.5148   -0.2866   -0.0112 C   0  0  0  0  0  0  0  0  0  0  0  0
   -0.8423    0.5673   -1.3656 C   0  0  0  0  0  0  0  0  0  0  0  0
   -2.2100    1.1875   -1.5524 C   0  0  0  0  0  0  0  0  0  0  0  0
    1.0453   -0.4928   -0.1243 C   0  0  0  0  0  0  0  0  0  0  0  0
    1.5676   -1.5289    0.9291 C   0  0  0  0  0  0  0  0  0  0  0  0
    1.6642   -0.9575   -1.4856 C   0  0  0  0  0  0  0  0  0  0  0  0
    3.2216   -0.8199   -1.5282 C   0  0  0  0  0  0  0  0  0  0  0  0
    3.7864   -2.1216   -1.3496 O   0  0  0  0  0  0  0  0  0  0  0  0
    3.8243    0.1547   -0.5182 C   0  0  0  0  0  0  0  0  0  0  0  0
    5.6968    0.1950   -0.4340 Br  0  0  0  0  0  0  0  0  0  0  0  0
    3.0855    0.9762    0.2565 C   0  0  0  0  0  0  0  0  0  0  0  0
    1.5931    1.0226    0.0638 C   0  0  0  0  0  0  0  0  0  0  0  0
   -1.4909   -4.3508    0.9919 H   0  0  0  0  0  0  0  0  0  0  0  0
   -2.4591   -3.8146   -0.3975 H   0  0  0  0  0  0  0  0  0  0  0  0
   -0.6738   -3.6367   -0.4160 H   0  0  0  0  0  0  0  0  0  0  0  0
   -1.8310   -1.6528   -1.1279 H   0  0  0  0  0  0  0  0  0  0  0  0
   -3.3411   -0.4245    1.2311 H   0  0  0  0  0  0  0  0  0  0  0  0
   -3.8157   -0.7371   -0.3980 H   0  0  0  0  0  0  0  0  0  0  0  0
   -3.8680    1.5882   -0.2836 H   0  0  0  0  0  0  0  0  0  0  0  0
   -2.2938    2.1795    1.7422 H   0  0  0  0  0  0  0  0  0  0  0  0
   -2.6101    3.2370    0.4380 H   0  0  0  0  0  0  0  0  0  0  0  0
   -0.3616    3.0712   -0.5733 H   0  0  0  0  0  0  0  0  0  0  0  0
   -0.4951    3.7106    1.0086 H   0  0  0  0  0  0  0  0  0  0  0  0
    1.4261    2.7422    1.3940 H   0  0  0  0  0  0  0  0  0  0  0  0
   -0.2560    1.7441    2.9236 H   0  0  0  0  0  0  0  0  0  0  0  0
    1.1259    0.7083    2.7187 H   0  0  0  0  0  0  0  0  0  0  0  0
   -1.6363    0.3029    1.9473 H   0  0  0  0  0  0  0  0  0  0  0  0
   -0.4483   -0.8334    2.1788 H   0  0  0  0  0  0  0  0  0  0  0  0
   -0.1217    1.3333   -1.6292 H   0  0  0  0  0  0  0  0  0  0  0  0
   -0.7445   -0.1309   -2.2119 H   0  0  0  0  0  0  0  0  0  0  0  0
   -2.1391    2.1876   -1.9959 H   0  0  0  0  0  0  0  0  0  0  0  0
   -2.8113    0.5906   -2.2507 H   0  0  0  0  0  0  0  0  0  0  0  0
    2.5843   -1.8785    0.7399 H   0  0  0  0  0  0  0  0  0  0  0  0
    0.9461   -2.4284    0.9217 H   0  0  0  0  0  0  0  0  0  0  0  0
    1.6080   -1.1508    1.9502 H   0  0  0  0  0  0  0  0  0  0  0  0
    1.3504   -1.9861   -1.7040 H   0  0  0  0  0  0  0  0  0  0  0  0
    1.2995   -0.3415   -2.3126 H   0  0  0  0  0  0  0  0  0  0  0  0
    3.5110   -0.4921   -2.5348 H   0  0  0  0  0  0  0  0  0  0  0  0
    3.5674   -2.6414   -2.1403 H   0  0  0  0  0  0  0  0  0  0  0  0
    3.5550    1.6705    0.9460 H   0  0  0  0  0  0  0  0  0  0  0  0
    1.5508    1.5599   -0.8927 H   0  0  0  0  0  0  0  0  0  0  0  0
  2  1  1  0  0  0  0
  3  2  1  0  0  0  0
  4  3  1  0  0  0  0
  5  4  1  0  0  0  0
  6  5  1  0  0  0  0
  7  6  1  0  0  0  0
  8  7  1  0  0  0  0
  9  8  1  0  0  0  0
 10  9  1  0  0  0  0
 11 10  1  0  0  0  0
 11  3  1  0  0  0  0
 12 11  1  0  0  0  0
 13 12  1  0  0  0  0
 13  5  1  0  0  0  0
 14 11  1  0  0  0  0
 15 14  1  0  0  0  0
 16 14  1  0  0  0  0
 17 16  1  0  0  0  0
 18 17  1  0  0  0  0
 19 17  1  0  0  0  0
 20 19  1  0  0  0  0
 21 19  2  0  0  0  0
 22 21  1  0  0  0  0
 22  8  1  0  0  0  0
 22 14  1  0  0  0  0
  1 23  1  0  0  0  0
  1 24  1  0  0  0  0
  1 25  1  0  0  0  0
  3 26  1  0  0  0  0
  4 27  1  0  0  0  0
  4 28  1  0  0  0  0
  5 29  1  0  0  0  0
  6 30  1  0  0  0  0
  6 31  1  0  0  0  0
  7 32  1  0  0  0  0
  7 33  1  0  0  0  0
  8 34  1  0  0  0  0
  9 35  1  0  0  0  0
  9 36  1  0  0  0  0
 10 37  1  0  0  0  0
 10 38  1  0  0  0  0
 12 39  1  0  0  0  0
 12 40  1  0  0  0  0
 13 41  1  0  0  0  0
 13 42  1  0  0  0  0
 15 43  1  0  0  0  0
 15 44  1  0  0  0  0
 15 45  1  0  0  0  0
 16 46  1  0  0  0  0
 16 47  1  0  0  0  0
 17 48  1  0  0  0  0
 18 49  1  0  0  0  0
 21 50  1  0  0  0  0
 22 51  1  0  0  0  0
M  END
>  <energy>
210.10266693864537

$$$$
