COC(=O)C1(O)C(=O)CCC23CCC1(C)C(C1CC(F)(F)C1)(C(=O)C2)C1CC3C1O
                    3D

 58 62  0  0  0  0  0  0  0  0999 V2000
   -2.3718   -3.2958   -0.9541 C   0  0  0  0  0  0  0  0  0  0  0  0
   -1.6400   -2.3260   -0.1978 O   0  0  0  0  0  0  0  0  0  0  0  0
   -0.5138   -2.7973    0.4025 C   0  0  0  0  0  0  0  0  0  0  0  0
   -0.0959   -3.9431    0.2685 O   0  0  0  0  0  0  0  0  0  0  0  0
    0.1990   -1.7215    1.2533 C   0  0  0  0  0  0  0  0  0  0  0  0
   -0.2998   -2.2385    2.5866 O   0  0  0  0  0  0  0  0  0  0  0  0
    1.7924   -2.1145    1.5077 C   0  0  0  0  0  0  0  0  0  0  0  0
    2.0467   -2.8511    2.4865 O   0  0  0  0  0  0  0  0  0  0  0  0
    3.0520   -1.7140    0.6291 C   0  0  0  0  0  0  0  0  0  0  0  0
    3.5592   -0.2181    0.4700 C   0  0  0  0  0  0  0  0  0  0  0  0
    2.3103    0.6433    0.2476 C   0  0  0  0  0  0  0  0  0  0  0  0
    1.8279    0.6025    1.7774 C   0  0  0  0  0  0  0  0  0  0  0  0
    0.3939    0.6023    2.2166 C   0  0  0  0  0  0  0  0  0  0  0  0
   -0.4389   -0.1824    1.2146 C   0  0  0  0  0  0  0  0  0  0  0  0
   -1.8531   -0.1999    1.9034 C   0  0  0  0  0  0  0  0  0  0  0  0
   -0.4680    0.8008   -0.1323 C   0  0  0  0  0  0  0  0  0  0  0  0
   -1.9471    1.2223   -0.5355 C   0  0  0  0  0  0  0  0  0  0  0  0
   -2.1558    2.1436   -1.7890 C   0  0  0  0  0  0  0  0  0  0  0  0
   -3.4509    2.6642   -1.1361 C   0  0  0  0  0  0  0  0  0  0  0  0
   -3.7134    3.9768   -1.3095 F   0  0  0  0  0  0  0  0  0  0  0  0
   -4.5730    1.9913   -1.4844 F   0  0  0  0  0  0  0  0  0  0  0  0
   -2.8430    2.2636    0.2245 C   0  0  0  0  0  0  0  0  0  0  0  0
    0.4650    2.2080    0.0366 C   0  0  0  0  0  0  0  0  0  0  0  0
   -0.0594    3.3164    0.1454 O   0  0  0  0  0  0  0  0  0  0  0  0
    2.0460    2.1180    0.0203 C   0  0  0  0  0  0  0  0  0  0  0  0
   -0.1296    0.0240   -1.4500 C   0  0  0  0  0  0  0  0  0  0  0  0
    0.9890   -1.0559   -1.5189 C   0  0  0  0  0  0  0  0  0  0  0  0
    1.9245    0.1232   -1.2370 C   0  0  0  0  0  0  0  0  0  0  0  0
    0.9024    0.8634   -2.2623 C   0  0  0  0  0  0  0  0  0  0  0  0
    1.0628    0.5220   -3.6578 O   0  0  0  0  0  0  0  0  0  0  0  0
   -2.5059   -4.2261   -0.3913 H   0  0  0  0  0  0  0  0  0  0  0  0
   -1.8611   -3.4860   -1.9031 H   0  0  0  0  0  0  0  0  0  0  0  0
   -3.3609   -2.8796   -1.1675 H   0  0  0  0  0  0  0  0  0  0  0  0
    0.2478   -3.0279    2.7990 H   0  0  0  0  0  0  0  0  0  0  0  0
    3.8975   -2.2403    1.0972 H   0  0  0  0  0  0  0  0  0  0  0  0
    2.9745   -2.2070   -0.3433 H   0  0  0  0  0  0  0  0  0  0  0  0
    4.2863   -0.1624   -0.3501 H   0  0  0  0  0  0  0  0  0  0  0  0
    4.1321    0.0874    1.3564 H   0  0  0  0  0  0  0  0  0  0  0  0
    2.2834    1.4688    2.2916 H   0  0  0  0  0  0  0  0  0  0  0  0
    2.3225   -0.1603    2.3902 H   0  0  0  0  0  0  0  0  0  0  0  0
    0.0231    1.6265    2.3557 H   0  0  0  0  0  0  0  0  0  0  0  0
    0.3343    0.1649    3.2239 H   0  0  0  0  0  0  0  0  0  0  0  0
   -2.1787    0.8126    2.1548 H   0  0  0  0  0  0  0  0  0  0  0  0
   -2.6175   -0.6775    1.2879 H   0  0  0  0  0  0  0  0  0  0  0  0
   -1.8633   -0.7124    2.8713 H   0  0  0  0  0  0  0  0  0  0  0  0
   -2.5353    0.2968   -0.6718 H   0  0  0  0  0  0  0  0  0  0  0  0
   -2.3034    1.6174   -2.7367 H   0  0  0  0  0  0  0  0  0  0  0  0
   -1.4110    2.9297   -1.9449 H   0  0  0  0  0  0  0  0  0  0  0  0
   -3.5868    1.8461    0.9101 H   0  0  0  0  0  0  0  0  0  0  0  0
   -2.3290    3.0807    0.7354 H   0  0  0  0  0  0  0  0  0  0  0  0
    2.4484    2.7791    0.7956 H   0  0  0  0  0  0  0  0  0  0  0  0
    2.4433    2.4984   -0.9260 H   0  0  0  0  0  0  0  0  0  0  0  0
   -0.9911   -0.3248   -2.0332 H   0  0  0  0  0  0  0  0  0  0  0  0
    1.1075   -1.5185   -2.5124 H   0  0  0  0  0  0  0  0  0  0  0  0
    1.0316   -1.9088   -0.8804 H   0  0  0  0  0  0  0  0  0  0  0  0
    2.8711    0.0136   -1.7938 H   0  0  0  0  0  0  0  0  0  0  0  0
    0.8145    1.9485   -2.2241 H   0  0  0  0  0  0  0  0  0  0  0  0
    0.3088    0.9335   -4.1164 H   0  0  0  0  0  0  0  0  0  0  0  0
  2  1  1  0  0  0  0
  3  2  1  0  0  0  0
  4  3  2  0  0  0  0
  5  3  1  0  0  0  0
  6  5  1  0  0  0  0
  7  5  1  0  0  0  0
  8  7  2  0  0  0  0
  9  7  1  0  0  0  0
 10  9  1  0  0  0  0
 11 10  1  0  0  0  0
 12 11  1  0  0  0  0
 13 12  1  0  0  0  0
 14 13  1  0  0  0  0
 14  5  1  0  0  0  0
 15 14  1  0  0  0  0
 16 14  1  0  0  0  0
 17 16  1  0  0  0  0
 18 17  1  0  0  0  0
 19 18  1  0  0  0  0
 20 19  1  0  0  0  0
 21 19  1  0  0  0  0
 22 19  1  0  0  0  0
 22 17  1  0  0  0  0
 23 16  1  0  0  0  0
 24 23  2  0  0  0  0
 25 23  1  0  0  0  0
 25 11  1  0  0  0  0
 26 16  1  0  0  0  0
 27 26  1  0  0  0  0
 28 27  1  0  0  0  0
 28 11  1  0  0  0  0
 29 28  1  0  0  0  0
 29 26  1  0  0  0  0
 30 29  1  0  0  0  0
  1 31  1  0  0  0  0
  1 32  1  0  0  0  0
  1 33  1  0  0  0  0
  6 34  1  0  0  0  0
  9 35  1  0  0  0  0
  9 36  1  0  0  0  0
 10 37  1  0  0  0  0
 10 38  1  0  0  0  0
 12 39  1  0  0  0  0
 12 40  1  0  0  0  0
 13 41  1  0  0  0  0
 13 42  1  0  0  0  0
 15 43  1  0  0  0  0
 15 44  1  0  0  0  0
 15 45  1  0  0  0  0
 17 46  1  0  0  0  0
 18 47  1  0  0  0  0
 18 48  1  0  0  0  0
 22 49  1  0  0  0  0
 22 50  1  0  0  0  0
 25 51  1  0  0  0  0
 25 52  1  0  0  0  0
 26 53  1  0  0  0  0
 27 54  1  0  0  0  0
 27 55  1  0  0  0  0
 28 56  1  0  0  0  0
 29 57  1  0  0  0  0
 30 58  1  0  0  0  0
M  END
>  <energy>
305.93037209760382

$$$$
