CC(C)C12CC3C(C)C4(C5OC3(CC5CO)C4(C)OC(=O)C1O)C(C)(CCl)O2
                    3D

 59 63  0  0  0  0  0  0  0  0999 V2000
    4.4034   -0.7738    0.1472 C   0  0  0  0  0  0  0  0  0  0  0  0
    3.0748   -1.5223    0.3769 C   0  0  0  0  0  0  0  0  0  0  0  0
    2.9489   -1.6887    1.8988 C   0  0  0  0  0  0  0  0  0  0  0  0
    1.8161   -0.8516   -0.3735 C   0  0  0  0  0  0  0  0  0  0  0  0
    0.5880   -1.9101   -0.3619 C   0  0  0  0  0  0  0  0  0  0  0  0
   -0.9198   -1.4800   -0.2934 C   0  0  0  0  0  0  0  0  0  0  0  0
   -0.9987   -0.5051    0.8144 C   0  0  0  0  0  0  0  0  0  0  0  0
   -0.3336   -0.7351    2.1636 C   0  0  0  0  0  0  0  0  0  0  0  0
   -0.9072    0.7891   -0.0683 C   0  0  0  0  0  0  0  0  0  0  0  0
   -2.4204    1.2116   -0.0895 C   0  0  0  0  0  0  0  0  0  0  0  0
   -2.6877    0.6720   -1.4331 O   0  0  0  0  0  0  0  0  0  0  0  0
   -1.9127   -0.6925   -1.5008 C   0  0  0  0  0  0  0  0  0  0  0  0
   -3.3383   -0.9741   -0.6769 C   0  0  0  0  0  0  0  0  0  0  0  0
   -3.6362    0.3186    0.2452 C   0  0  0  0  0  0  0  0  0  0  0  0
   -4.0928    0.1104    1.6857 C   0  0  0  0  0  0  0  0  0  0  0  0
   -3.7702    1.2599    2.4553 O   0  0  0  0  0  0  0  0  0  0  0  0
   -0.8809    0.4551   -1.6660 C   0  0  0  0  0  0  0  0  0  0  0  0
   -1.1731    1.6310   -2.7309 C   0  0  0  0  0  0  0  0  0  0  0  0
    0.4411    0.2601   -2.0412 O   0  0  0  0  0  0  0  0  0  0  0  0
    1.0166   -0.7215   -2.7065 C   0  0  0  0  0  0  0  0  0  0  0  0
    0.5486   -1.4585   -3.5506 O   0  0  0  0  0  0  0  0  0  0  0  0
    2.3045   -0.7815   -1.9257 C   0  0  0  0  0  0  0  0  0  0  0  0
    3.1512    0.3324   -2.1884 O   0  0  0  0  0  0  0  0  0  0  0  0
    0.4779    1.4557    0.2929 C   0  0  0  0  0  0  0  0  0  0  0  0
    0.3620    2.0750    1.7263 C   0  0  0  0  0  0  0  0  0  0  0  0
    0.9472    2.6147   -0.6422 C   0  0  0  0  0  0  0  0  0  0  0  0
    2.4484    3.4469   -0.0933 Cl  0  0  0  0  0  0  0  0  0  0  0  0
    1.5858    0.4300    0.3545 O   0  0  0  0  0  0  0  0  0  0  0  0
    4.2978    0.2976    0.3455 H   0  0  0  0  0  0  0  0  0  0  0  0
    4.7695   -0.9150   -0.8721 H   0  0  0  0  0  0  0  0  0  0  0  0
    5.1978   -1.1573    0.7988 H   0  0  0  0  0  0  0  0  0  0  0  0
    3.2038   -2.5344   -0.0303 H   0  0  0  0  0  0  0  0  0  0  0  0
    2.0730   -2.2718    2.1887 H   0  0  0  0  0  0  0  0  0  0  0  0
    3.8153   -2.2365    2.2911 H   0  0  0  0  0  0  0  0  0  0  0  0
    2.9254   -0.7195    2.4092 H   0  0  0  0  0  0  0  0  0  0  0  0
    0.7338   -2.5410    0.5254 H   0  0  0  0  0  0  0  0  0  0  0  0
    0.7093   -2.6378   -1.1751 H   0  0  0  0  0  0  0  0  0  0  0  0
   -1.4256   -2.4287   -0.0679 H   0  0  0  0  0  0  0  0  0  0  0  0
   -1.9827   -0.6496    1.2043 H   0  0  0  0  0  0  0  0  0  0  0  0
    0.7318   -0.5665    2.1960 H   0  0  0  0  0  0  0  0  0  0  0  0
   -0.7799   -0.0795    2.9212 H   0  0  0  0  0  0  0  0  0  0  0  0
   -0.5082   -1.7603    2.5055 H   0  0  0  0  0  0  0  0  0  0  0  0
   -2.6094    2.2885   -0.0853 H   0  0  0  0  0  0  0  0  0  0  0  0
   -3.3594   -1.9075   -0.1059 H   0  0  0  0  0  0  0  0  0  0  0  0
   -4.1508   -1.0837   -1.4126 H   0  0  0  0  0  0  0  0  0  0  0  0
   -4.5111    0.8091   -0.2200 H   0  0  0  0  0  0  0  0  0  0  0  0
   -5.1797   -0.0306    1.7110 H   0  0  0  0  0  0  0  0  0  0  0  0
   -3.6616   -0.7688    2.1722 H   0  0  0  0  0  0  0  0  0  0  0  0
   -4.1900    1.1440    3.3278 H   0  0  0  0  0  0  0  0  0  0  0  0
   -1.7558    1.2269   -3.5690 H   0  0  0  0  0  0  0  0  0  0  0  0
   -1.7091    2.4856   -2.3072 H   0  0  0  0  0  0  0  0  0  0  0  0
   -0.2600    2.0405   -3.1798 H   0  0  0  0  0  0  0  0  0  0  0  0
    2.8230   -1.7038   -2.2136 H   0  0  0  0  0  0  0  0  0  0  0  0
    3.3825    0.3100   -3.1288 H   0  0  0  0  0  0  0  0  0  0  0  0
   -0.6763    2.0677    2.0782 H   0  0  0  0  0  0  0  0  0  0  0  0
    0.9903    1.5527    2.4557 H   0  0  0  0  0  0  0  0  0  0  0  0
    0.6586    3.1269    1.7878 H   0  0  0  0  0  0  0  0  0  0  0  0
    1.2320    2.2931   -1.6393 H   0  0  0  0  0  0  0  0  0  0  0  0
    0.1728    3.3820   -0.7299 H   0  0  0  0  0  0  0  0  0  0  0  0
  2  1  1  0  0  0  0
  3  2  1  0  0  0  0
  4  2  1  0  0  0  0
  5  4  1  0  0  0  0
  6  5  1  0  0  0  0
  7  6  1  0  0  0  0
  8  7  1  0  0  0  0
  9  7  1  0  0  0  0
 10  9  1  0  0  0  0
 11 10  1  0  0  0  0
 12 11  1  0  0  0  0
 12  6  1  0  0  0  0
 13 12  1  0  0  0  0
 14 13  1  0  0  0  0
 14 10  1  0  0  0  0
 15 14  1  0  0  0  0
 16 15  1  0  0  0  0
 17 12  1  0  0  0  0
 17  9  1  0  0  0  0
 18 17  1  0  0  0  0
 19 17  1  0  0  0  0
 20 19  1  0  0  0  0
 21 20  2  0  0  0  0
 22 20  1  0  0  0  0
 22  4  1  0  0  0  0
 23 22  1  0  0  0  0
 24  9  1  0  0  0  0
 25 24  1  0  0  0  0
 26 24  1  0  0  0  0
 27 26  1  0  0  0  0
 28 24  1  0  0  0  0
 28  4  1  0  0  0  0
  1 29  1  0  0  0  0
  1 30  1  0  0  0  0
  1 31  1  0  0  0  0
  2 32  1  0  0  0  0
  3 33  1  0  0  0  0
  3 34  1  0  0  0  0
  3 35  1  0  0  0  0
  5 36  1  0  0  0  0
  5 37  1  0  0  0  0
  6 38  1  0  0  0  0
  7 39  1  0  0  0  0
  8 40  1  0  0  0  0
  8 41  1  0  0  0  0
  8 42  1  0  0  0  0
 10 43  1  0  0  0  0
 13 44  1  0  0  0  0
 13 45  1  0  0  0  0
 14 46  1  0  0  0  0
 15 47  1  0  0  0  0
 15 48  1  0  0  0  0
 16 49  1  0  0  0  0
 18 50  1  0  0  0  0
 18 51  1  0  0  0  0
 18 52  1  0  0  0  0
 22 53  1  0  0  0  0
 23 54  1  0  0  0  0
 25 55  1  0  0  0  0
 25 56  1  0  0  0  0
 25 57  1  0  0  0  0
 26 58  1  0  0  0  0
 26 59  1  0  0  0  0
M  END
>  <energy>
492.07290086707502

$$$$
