COC12CCC3CN(C)C3C(CO)C3CC14CCC3C4C2
                    3D

 50 54  0  0  0  0  0  0  0  0999 V2000
    4.2478   -0.5940    0.7508 C   0  0  0  0  0  0  0  0  0  0  0  0
    3.3332    0.4155    1.1604 O   0  0  0  0  0  0  0  0  0  0  0  0
    1.9240    0.2266    0.8191 C   0  0  0  0  0  0  0  0  0  0  0  0
    1.3363   -0.7414    1.8853 C   0  0  0  0  0  0  0  0  0  0  0  0
   -0.1126   -1.2687    1.8508 C   0  0  0  0  0  0  0  0  0  0  0  0
   -1.2300   -0.2464    1.7105 C   0  0  0  0  0  0  0  0  0  0  0  0
   -2.6614   -0.7858    1.9216 C   0  0  0  0  0  0  0  0  0  0  0  0
   -3.1896    0.2177    0.9747 N   0  0  0  0  0  0  0  0  0  0  0  0
   -3.6324    1.4238    1.6744 C   0  0  0  0  0  0  0  0  0  0  0  0
   -1.8233    0.4003    0.3826 C   0  0  0  0  0  0  0  0  0  0  0  0
   -1.8063   -0.0796   -1.0905 C   0  0  0  0  0  0  0  0  0  0  0  0
   -2.5124   -1.4326   -1.3263 C   0  0  0  0  0  0  0  0  0  0  0  0
   -1.7750   -2.5390   -0.8324 O   0  0  0  0  0  0  0  0  0  0  0  0
   -0.4358   -0.0175   -1.8110 C   0  0  0  0  0  0  0  0  0  0  0  0
    0.6789   -0.8696   -1.2430 C   0  0  0  0  0  0  0  0  0  0  0  0
    1.6959    0.1750   -0.7571 C   0  0  0  0  0  0  0  0  0  0  0  0
    2.5661    0.5146   -1.9872 C   0  0  0  0  0  0  0  0  0  0  0  0
    1.4986    1.1889   -2.9138 C   0  0  0  0  0  0  0  0  0  0  0  0
    0.2692    1.3503   -1.9400 C   0  0  0  0  0  0  0  0  0  0  0  0
    1.0763    1.6046   -0.6778 C   0  0  0  0  0  0  0  0  0  0  0  0
    1.1440    1.5662    0.8488 C   0  0  0  0  0  0  0  0  0  0  0  0
    4.8604   -0.8784    1.6101 H   0  0  0  0  0  0  0  0  0  0  0  0
    4.8979   -0.1865   -0.0277 H   0  0  0  0  0  0  0  0  0  0  0  0
    3.7387   -1.4825    0.3658 H   0  0  0  0  0  0  0  0  0  0  0  0
    1.4729   -0.2572    2.8635 H   0  0  0  0  0  0  0  0  0  0  0  0
    1.9729   -1.6352    1.9205 H   0  0  0  0  0  0  0  0  0  0  0  0
   -0.2369   -2.1044    1.1633 H   0  0  0  0  0  0  0  0  0  0  0  0
   -0.2543   -1.7549    2.8287 H   0  0  0  0  0  0  0  0  0  0  0  0
   -1.0468    0.5162    2.4859 H   0  0  0  0  0  0  0  0  0  0  0  0
   -2.8115   -1.8171    1.5811 H   0  0  0  0  0  0  0  0  0  0  0  0
   -3.0381   -0.7288    2.9496 H   0  0  0  0  0  0  0  0  0  0  0  0
   -2.9001    1.8297    2.3811 H   0  0  0  0  0  0  0  0  0  0  0  0
   -3.8677    2.2077    0.9461 H   0  0  0  0  0  0  0  0  0  0  0  0
   -4.5540    1.2134    2.2281 H   0  0  0  0  0  0  0  0  0  0  0  0
   -1.5605    1.4665    0.3157 H   0  0  0  0  0  0  0  0  0  0  0  0
   -2.4346    0.6464   -1.6319 H   0  0  0  0  0  0  0  0  0  0  0  0
   -2.6418   -1.5876   -2.4039 H   0  0  0  0  0  0  0  0  0  0  0  0
   -3.5134   -1.4571   -0.8853 H   0  0  0  0  0  0  0  0  0  0  0  0
   -2.3271   -3.3273   -0.9727 H   0  0  0  0  0  0  0  0  0  0  0  0
   -0.6408   -0.3691   -2.8331 H   0  0  0  0  0  0  0  0  0  0  0  0
    1.1100   -1.4985   -2.0343 H   0  0  0  0  0  0  0  0  0  0  0  0
    0.3820   -1.5792   -0.4963 H   0  0  0  0  0  0  0  0  0  0  0  0
    3.0147   -0.3681   -2.4540 H   0  0  0  0  0  0  0  0  0  0  0  0
    3.3763    1.2131   -1.7453 H   0  0  0  0  0  0  0  0  0  0  0  0
    1.8673    2.1610   -3.2602 H   0  0  0  0  0  0  0  0  0  0  0  0
    1.2622    0.5772   -3.7903 H   0  0  0  0  0  0  0  0  0  0  0  0
   -0.3977    2.1631   -2.2365 H   0  0  0  0  0  0  0  0  0  0  0  0
    1.7092    2.4823   -0.9129 H   0  0  0  0  0  0  0  0  0  0  0  0
    0.2106    1.6648    1.3841 H   0  0  0  0  0  0  0  0  0  0  0  0
    1.7586    2.3819    1.2609 H   0  0  0  0  0  0  0  0  0  0  0  0
  2  1  1  0  0  0  0
  3  2  1  0  0  0  0
  4  3  1  0  0  0  0
  5  4  1  0  0  0  0
  6  5  1  0  0  0  0
  7  6  1  0  0  0  0
  8  7  1  0  0  0  0
  9  8  1  0  0  0  0
 10  8  1  0  0  0  0
 10  6  1  0  0  0  0
 11 10  1  0  0  0  0
 12 11  1  0  0  0  0
 13 12  1  0  0  0  0
 14 11  1  0  0  0  0
 15 14  1  0  0  0  0
 16 15  1  0  0  0  0
 16  3  1  0  0  0  0
 17 16  1  0  0  0  0
 18 17  1  0  0  0  0
 19 18  1  0  0  0  0
 19 14  1  0  0  0  0
 20 19  1  0  0  0  0
 20 16  1  0  0  0  0
 21 20  1  0  0  0  0
 21  3  1  0  0  0  0
  1 22  1  0  0  0  0
  1 23  1  0  0  0  0
  1 24  1  0  0  0  0
  4 25  1  0  0  0  0
  4 26  1  0  0  0  0
  5 27  1  0  0  0  0
  5 28  1  0  0  0  0
  6 29  1  0  0  0  0
  7 30  1  0  0  0  0
  7 31  1  0  0  0  0
  9 32  1  0  0  0  0
  9 33  1  0  0  0  0
  9 34  1  0  0  0  0
 10 35  1  0  0  0  0
 11 36  1  0  0  0  0
 12 37  1  0  0  0  0
 12 38  1  0  0  0  0
 13 39  1  0  0  0  0
 14 40  1  0  0  0  0
 15 41  1  0  0  0  0
 15 42  1  0  0  0  0
 17 43  1  0  0  0  0
 17 44  1  0  0  0  0
 18 45  1  0  0  0  0
 18 46  1  0  0  0  0
 19 47  1  0  0  0  0
 20 48  1  0  0  0  0
 21 49  1  0  0  0  0
 21 50  1  0  0  0  0
M  END
>  <energy>
142.25139837158935

$$$$
