CC1OC1CN1C2C3CCC(C)C4(C)C2C2C3CC4(O)C21
                    3D

 48 53  0  0  0  0  0  0  0  0999 V2000
    4.8083   -0.6324   -0.5607 C   0  0  0  0  0  0  0  0  0  0  0  0
    4.2512    0.3277    0.4242 C   0  0  0  0  0  0  0  0  0  0  0  0
    4.5870    1.6996    0.1906 O   0  0  0  0  0  0  0  0  0  0  0  0
    3.2029    1.3396    0.0279 C   0  0  0  0  0  0  0  0  0  0  0  0
    2.2842    1.9163    1.0533 C   0  0  0  0  0  0  0  0  0  0  0  0
    1.0561    1.1697    1.2708 N   0  0  0  0  0  0  0  0  0  0  0  0
   -0.3055    1.7220    0.7024 C   0  0  0  0  0  0  0  0  0  0  0  0
   -0.2172    1.6328   -0.7835 C   0  0  0  0  0  0  0  0  0  0  0  0
   -1.5774    1.8431   -1.5270 C   0  0  0  0  0  0  0  0  0  0  0  0
   -2.8047    0.8884   -1.2162 C   0  0  0  0  0  0  0  0  0  0  0  0
   -2.6312   -0.6656   -0.8421 C   0  0  0  0  0  0  0  0  0  0  0  0
   -4.0581   -1.2134   -0.6463 C   0  0  0  0  0  0  0  0  0  0  0  0
   -1.6569   -0.9214    0.4230 C   0  0  0  0  0  0  0  0  0  0  0  0
   -2.2743   -1.9020    1.4644 C   0  0  0  0  0  0  0  0  0  0  0  0
   -1.4234    0.6051    1.0418 C   0  0  0  0  0  0  0  0  0  0  0  0
   -0.2945   -0.2135    1.2726 C   0  0  0  0  0  0  0  0  0  0  0  0
    0.0280    0.1951   -0.6083 C   0  0  0  0  0  0  0  0  0  0  0  0
    0.7725   -0.9689   -1.0918 C   0  0  0  0  0  0  0  0  0  0  0  0
    0.1746   -1.4718    0.1863 C   0  0  0  0  0  0  0  0  0  0  0  0
    0.4130   -2.8331    0.4316 O   0  0  0  0  0  0  0  0  0  0  0  0
    1.1010   -0.3806    1.1487 C   0  0  0  0  0  0  0  0  0  0  0  0
    4.8913   -0.1938   -1.5606 H   0  0  0  0  0  0  0  0  0  0  0  0
    5.8047   -0.9598   -0.2465 H   0  0  0  0  0  0  0  0  0  0  0  0
    4.1670   -1.5174   -0.6239 H   0  0  0  0  0  0  0  0  0  0  0  0
    4.2749   -0.0420    1.4396 H   0  0  0  0  0  0  0  0  0  0  0  0
    2.8136    1.3677   -0.9784 H   0  0  0  0  0  0  0  0  0  0  0  0
    2.8061    1.9688    2.0182 H   0  0  0  0  0  0  0  0  0  0  0  0
    2.0545    2.9574    0.7971 H   0  0  0  0  0  0  0  0  0  0  0  0
   -0.5555    2.7077    1.1050 H   0  0  0  0  0  0  0  0  0  0  0  0
    0.5969    2.2029   -1.2347 H   0  0  0  0  0  0  0  0  0  0  0  0
   -1.9051    2.8804   -1.3850 H   0  0  0  0  0  0  0  0  0  0  0  0
   -1.3691    1.7386   -2.6005 H   0  0  0  0  0  0  0  0  0  0  0  0
   -3.4587    0.9417   -2.0983 H   0  0  0  0  0  0  0  0  0  0  0  0
   -3.3852    1.3644   -0.4138 H   0  0  0  0  0  0  0  0  0  0  0  0
   -2.2393   -1.2123   -1.7120 H   0  0  0  0  0  0  0  0  0  0  0  0
   -4.0562   -2.2945   -0.4764 H   0  0  0  0  0  0  0  0  0  0  0  0
   -4.5633   -0.7223    0.1909 H   0  0  0  0  0  0  0  0  0  0  0  0
   -4.6622   -1.0403   -1.5431 H   0  0  0  0  0  0  0  0  0  0  0  0
   -2.4394   -2.8867    1.0155 H   0  0  0  0  0  0  0  0  0  0  0  0
   -3.2209   -1.5208    1.8577 H   0  0  0  0  0  0  0  0  0  0  0  0
   -1.6171   -2.0521    2.3285 H   0  0  0  0  0  0  0  0  0  0  0  0
   -2.0325    0.8043    1.9292 H   0  0  0  0  0  0  0  0  0  0  0  0
   -0.2319    0.0933    2.3531 H   0  0  0  0  0  0  0  0  0  0  0  0
   -0.7297   -0.0839   -1.3249 H   0  0  0  0  0  0  0  0  0  0  0  0
    1.8604   -0.9063   -1.1080 H   0  0  0  0  0  0  0  0  0  0  0  0
    0.4057   -1.5029   -1.9751 H   0  0  0  0  0  0  0  0  0  0  0  0
   -0.2045   -3.3416   -0.1213 H   0  0  0  0  0  0  0  0  0  0  0  0
    1.5598   -0.8870    2.0061 H   0  0  0  0  0  0  0  0  0  0  0  0
  2  1  1  0  0  0  0
  3  2  1  0  0  0  0
  4  3  1  0  0  0  0
  4  2  1  0  0  0  0
  5  4  1  0  0  0  0
  6  5  1  0  0  0  0
  7  6  1  0  0  0  0
  8  7  1  0  0  0  0
  9  8  1  0  0  0  0
 10  9  1  0  0  0  0
 11 10  1  0  0  0  0
 12 11  1  0  0  0  0
 13 11  1  0  0  0  0
 14 13  1  0  0  0  0
 15 13  1  0  0  0  0
 15  7  1  0  0  0  0
 16 15  1  0  0  0  0
 17 16  1  0  0  0  0
 17  8  1  0  0  0  0
 18 17  1  0  0  0  0
 19 18  1  0  0  0  0
 19 13  1  0  0  0  0
 20 19  1  0  0  0  0
 21 19  1  0  0  0  0
 21 16  1  0  0  0  0
 21  6  1  0  0  0  0
  1 22  1  0  0  0  0
  1 23  1  0  0  0  0
  1 24  1  0  0  0  0
  2 25  1  0  0  0  0
  4 26  1  0  0  0  0
  5 27  1  0  0  0  0
  5 28  1  0  0  0  0
  7 29  1  0  0  0  0
  8 30  1  0  0  0  0
  9 31  1  0  0  0  0
  9 32  1  0  0  0  0
 10 33  1  0  0  0  0
 10 34  1  0  0  0  0
 11 35  1  0  0  0  0
 12 36  1  0  0  0  0
 12 37  1  0  0  0  0
 12 38  1  0  0  0  0
 14 39  1  0  0  0  0
 14 40  1  0  0  0  0
 14 41  1  0  0  0  0
 15 42  1  0  0  0  0
 16 43  1  0  0  0  0
 17 44  1  0  0  0  0
 18 45  1  0  0  0  0
 18 46  1  0  0  0  0
 20 47  1  0  0  0  0
 21 48  1  0  0  0  0
M  END
>  <energy>
569.57722684528801

$$$$
