CC1C2(Cl)CC13OOCC1(O)C(O)C(COCCN(C)C)CC1C(OCC3(C)C)O2
                    3D

 66 69  0  0  0  0  0  0  0  0999 V2000
   -0.3826   -1.8503    2.2824 C   0  0  0  0  0  0  0  0  0  0  0  0
    0.9169   -2.3893    1.6983 C   0  0  0  0  0  0  0  0  0  0  0  0
    2.1503   -1.3878    1.7549 C   0  0  0  0  0  0  0  0  0  0  0  0
    2.9797   -1.2393    3.3202 Cl  0  0  0  0  0  0  0  0  0  0  0  0
    2.7028   -2.3827    0.8142 C   0  0  0  0  0  0  0  0  0  0  0  0
    1.2415   -2.4728    0.0478 C   0  0  0  0  0  0  0  0  0  0  0  0
    0.1489   -1.6546   -0.5256 O   0  0  0  0  0  0  0  0  0  0  0  0
    0.1607   -0.2726   -0.1347 O   0  0  0  0  0  0  0  0  0  0  0  0
   -0.1337    0.5141   -1.2875 C   0  0  0  0  0  0  0  0  0  0  0  0
    0.9668    1.5637   -1.5605 C   0  0  0  0  0  0  0  0  0  0  0  0
    1.4547    1.3732   -2.9148 O   0  0  0  0  0  0  0  0  0  0  0  0
    0.4477    3.0295   -1.5199 C   0  0  0  0  0  0  0  0  0  0  0  0
   -0.8599    3.2050   -2.0410 O   0  0  0  0  0  0  0  0  0  0  0  0
    0.6223    3.5367   -0.0784 C   0  0  0  0  0  0  0  0  0  0  0  0
   -0.6718    3.6646    0.7410 C   0  0  0  0  0  0  0  0  0  0  0  0
   -1.2232    2.3879    1.0450 O   0  0  0  0  0  0  0  0  0  0  0  0
   -2.6535    2.3643    0.9475 C   0  0  0  0  0  0  0  0  0  0  0  0
   -3.1458    0.9268    1.1976 C   0  0  0  0  0  0  0  0  0  0  0  0
   -4.5448    0.6914    0.7837 N   0  0  0  0  0  0  0  0  0  0  0  0
   -4.7946   -0.7465    0.6572 C   0  0  0  0  0  0  0  0  0  0  0  0
   -5.4964    1.2825    1.7226 C   0  0  0  0  0  0  0  0  0  0  0  0
    1.6728    2.5955    0.5394 C   0  0  0  0  0  0  0  0  0  0  0  0
    2.1591    1.6361   -0.5795 C   0  0  0  0  0  0  0  0  0  0  0  0
    2.7768    0.3193   -0.0288 C   0  0  0  0  0  0  0  0  0  0  0  0
    3.2684   -0.6056   -1.0409 O   0  0  0  0  0  0  0  0  0  0  0  0
    2.5054   -1.4945   -1.8799 C   0  0  0  0  0  0  0  0  0  0  0  0
    1.9640   -2.8663   -1.2805 C   0  0  0  0  0  0  0  0  0  0  0  0
    0.9086   -3.4565   -2.2730 C   0  0  0  0  0  0  0  0  0  0  0  0
    3.0348   -3.9908   -1.2225 C   0  0  0  0  0  0  0  0  0  0  0  0
    2.0478   -0.0858    1.1520 O   0  0  0  0  0  0  0  0  0  0  0  0
   -0.3843   -1.9649    3.3712 H   0  0  0  0  0  0  0  0  0  0  0  0
   -0.5276   -0.7859    2.0850 H   0  0  0  0  0  0  0  0  0  0  0  0
   -1.2427   -2.4002    1.8882 H   0  0  0  0  0  0  0  0  0  0  0  0
    1.0691   -3.3719    2.1785 H   0  0  0  0  0  0  0  0  0  0  0  0
    2.9966   -3.3380    1.2966 H   0  0  0  0  0  0  0  0  0  0  0  0
    3.6582   -2.0717    0.3876 H   0  0  0  0  0  0  0  0  0  0  0  0
   -0.2890   -0.1240   -2.1646 H   0  0  0  0  0  0  0  0  0  0  0  0
   -1.1037    0.9782   -1.1115 H   0  0  0  0  0  0  0  0  0  0  0  0
    2.3380    0.9740   -2.8741 H   0  0  0  0  0  0  0  0  0  0  0  0
    1.1074    3.6276   -2.1663 H   0  0  0  0  0  0  0  0  0  0  0  0
   -0.8861    4.0759   -2.4766 H   0  0  0  0  0  0  0  0  0  0  0  0
    1.0505    4.5482   -0.1353 H   0  0  0  0  0  0  0  0  0  0  0  0
   -0.4510    4.1613    1.6923 H   0  0  0  0  0  0  0  0  0  0  0  0
   -1.3898    4.3023    0.2119 H   0  0  0  0  0  0  0  0  0  0  0  0
   -3.0813    3.0604    1.6772 H   0  0  0  0  0  0  0  0  0  0  0  0
   -2.9402    2.6821   -0.0609 H   0  0  0  0  0  0  0  0  0  0  0  0
   -2.4894    0.2597    0.6251 H   0  0  0  0  0  0  0  0  0  0  0  0
   -2.9822    0.6523    2.2497 H   0  0  0  0  0  0  0  0  0  0  0  0
   -5.8163   -0.9306    0.3061 H   0  0  0  0  0  0  0  0  0  0  0  0
   -4.1282   -1.1902   -0.0927 H   0  0  0  0  0  0  0  0  0  0  0  0
   -4.6520   -1.2780    1.6049 H   0  0  0  0  0  0  0  0  0  0  0  0
   -6.5235    1.1170    1.3763 H   0  0  0  0  0  0  0  0  0  0  0  0
   -5.3673    2.3680    1.7878 H   0  0  0  0  0  0  0  0  0  0  0  0
   -5.4045    0.8591    2.7295 H   0  0  0  0  0  0  0  0  0  0  0  0
    2.5237    3.1734    0.9211 H   0  0  0  0  0  0  0  0  0  0  0  0
    1.2518    2.0631    1.3960 H   0  0  0  0  0  0  0  0  0  0  0  0
    2.9743    2.1371   -1.1235 H   0  0  0  0  0  0  0  0  0  0  0  0
    3.7256    0.6547    0.4092 H   0  0  0  0  0  0  0  0  0  0  0  0
    1.7001   -0.9473   -2.3551 H   0  0  0  0  0  0  0  0  0  0  0  0
    3.1799   -1.7574   -2.7051 H   0  0  0  0  0  0  0  0  0  0  0  0
    0.1546   -2.7268   -2.5833 H   0  0  0  0  0  0  0  0  0  0  0  0
    0.3791   -4.2987   -1.8129 H   0  0  0  0  0  0  0  0  0  0  0  0
    1.3830   -3.8130   -3.1961 H   0  0  0  0  0  0  0  0  0  0  0  0
    2.6816   -4.8316   -0.6143 H   0  0  0  0  0  0  0  0  0  0  0  0
    4.0077   -3.6752   -0.8346 H   0  0  0  0  0  0  0  0  0  0  0  0
    3.2541   -4.3844   -2.2239 H   0  0  0  0  0  0  0  0  0  0  0  0
  2  1  1  0  0  0  0
  3  2  1  0  0  0  0
  4  3  1  0  0  0  0
  5  3  1  0  0  0  0
  6  5  1  0  0  0  0
  6  2  1  0  0  0  0
  7  6  1  0  0  0  0
  8  7  1  0  0  0  0
  9  8  1  0  0  0  0
 10  9  1  0  0  0  0
 11 10  1  0  0  0  0
 12 10  1  0  0  0  0
 13 12  1  0  0  0  0
 14 12  1  0  0  0  0
 15 14  1  0  0  0  0
 16 15  1  0  0  0  0
 17 16  1  0  0  0  0
 18 17  1  0  0  0  0
 19 18  1  0  0  0  0
 20 19  1  0  0  0  0
 21 19  1  0  0  0  0
 22 14  1  0  0  0  0
 23 22  1  0  0  0  0
 23 10  1  0  0  0  0
 24 23  1  0  0  0  0
 25 24  1  0  0  0  0
 26 25  1  0  0  0  0
 27 26  1  0  0  0  0
 27  6  1  0  0  0  0
 28 27  1  0  0  0  0
 29 27  1  0  0  0  0
 30 24  1  0  0  0  0
 30  3  1  0  0  0  0
  1 31  1  0  0  0  0
  1 32  1  0  0  0  0
  1 33  1  0  0  0  0
  2 34  1  0  0  0  0
  5 35  1  0  0  0  0
  5 36  1  0  0  0  0
  9 37  1  0  0  0  0
  9 38  1  0  0  0  0
 11 39  1  0  0  0  0
 12 40  1  0  0  0  0
 13 41  1  0  0  0  0
 14 42  1  0  0  0  0
 15 43  1  0  0  0  0
 15 44  1  0  0  0  0
 17 45  1  0  0  0  0
 17 46  1  0  0  0  0
 18 47  1  0  0  0  0
 18 48  1  0  0  0  0
 20 49  1  0  0  0  0
 20 50  1  0  0  0  0
 20 51  1  0  0  0  0
 21 52  1  0  0  0  0
 21 53  1  0  0  0  0
 21 54  1  0  0  0  0
 22 55  1  0  0  0  0
 22 56  1  0  0  0  0
 23 57  1  0  0  0  0
 24 58  1  0  0  0  0
 26 59  1  0  0  0  0
 26 60  1  0  0  0  0
 28 61  1  0  0  0  0
 28 62  1  0  0  0  0
 28 63  1  0  0  0  0
 29 64  1  0  0  0  0
 29 65  1  0  0  0  0
 29 66  1  0  0  0  0
M  END
>  <energy>
249.44070862190875

$$$$
