C=C1C2C3(C)CC4(O)OC(CCCCO)CC2(O)C3(COC2C(O)C(O)C(O)C(C)(C)C2CO)C14CO
                    3D

 81 85  0  0  0  0  0  0  0  0999 V2000
    4.4317   -2.2613   -2.1499 C   0  0  0  0  0  0  0  0  0  0  0  0
    3.4399   -2.2674   -1.2626 C   0  0  0  0  0  0  0  0  0  0  0  0
    2.1990   -2.9791   -1.4458 C   0  0  0  0  0  0  0  0  0  0  0  0
    1.3957   -3.0107    0.0932 C   0  0  0  0  0  0  0  0  0  0  0  0
    0.3311   -4.0739    0.2001 C   0  0  0  0  0  0  0  0  0  0  0  0
    1.6244   -2.1201    1.5234 C   0  0  0  0  0  0  0  0  0  0  0  0
    2.5619   -0.7511    1.0957 C   0  0  0  0  0  0  0  0  0  0  0  0
    3.3799   -0.3130    2.1501 O   0  0  0  0  0  0  0  0  0  0  0  0
    2.0785    0.4425    0.4245 O   0  0  0  0  0  0  0  0  0  0  0  0
    2.4647    0.6603   -0.9918 C   0  0  0  0  0  0  0  0  0  0  0  0
    2.1436    2.1400   -1.3121 C   0  0  0  0  0  0  0  0  0  0  0  0
    2.6479    3.1069   -0.2390 C   0  0  0  0  0  0  0  0  0  0  0  0
    2.5218    4.5648   -0.6927 C   0  0  0  0  0  0  0  0  0  0  0  0
    2.6377    5.5297    0.4813 C   0  0  0  0  0  0  0  0  0  0  0  0
    1.4865    5.4285    1.3117 O   0  0  0  0  0  0  0  0  0  0  0  0
    1.7676   -0.2607   -2.1636 C   0  0  0  0  0  0  0  0  0  0  0  0
    1.3055   -1.7516   -1.8194 C   0  0  0  0  0  0  0  0  0  0  0  0
    0.0977   -2.0899   -2.5285 O   0  0  0  0  0  0  0  0  0  0  0  0
    1.3229   -1.6438   -0.3482 C   0  0  0  0  0  0  0  0  0  0  0  0
    0.0245   -0.7538    0.0621 C   0  0  0  0  0  0  0  0  0  0  0  0
   -1.1008   -1.6190    0.2089 O   0  0  0  0  0  0  0  0  0  0  0  0
   -2.4161   -1.0603    0.2341 C   0  0  0  0  0  0  0  0  0  0  0  0
   -2.9902   -0.6683   -1.1483 C   0  0  0  0  0  0  0  0  0  0  0  0
   -2.0123   -0.5746   -2.1922 O   0  0  0  0  0  0  0  0  0  0  0  0
   -3.7877    0.6299   -1.1552 C   0  0  0  0  0  0  0  0  0  0  0  0
   -4.4665    0.7426   -2.4285 O   0  0  0  0  0  0  0  0  0  0  0  0
   -4.8324    0.7461   -0.0392 C   0  0  0  0  0  0  0  0  0  0  0  0
   -5.2249    2.1275    0.0556 O   0  0  0  0  0  0  0  0  0  0  0  0
   -4.4087    0.1616    1.3475 C   0  0  0  0  0  0  0  0  0  0  0  0
   -4.8864    1.0605    2.5145 C   0  0  0  0  0  0  0  0  0  0  0  0
   -5.1938   -1.1754    1.5199 C   0  0  0  0  0  0  0  0  0  0  0  0
   -2.8550   -0.1640    1.4419 C   0  0  0  0  0  0  0  0  0  0  0  0
   -1.9761    1.0668    1.7519 C   0  0  0  0  0  0  0  0  0  0  0  0
   -1.6019    1.7885    0.5970 O   0  0  0  0  0  0  0  0  0  0  0  0
    3.2014   -1.5373    0.0273 C   0  0  0  0  0  0  0  0  0  0  0  0
    4.1026   -2.5796    0.8780 C   0  0  0  0  0  0  0  0  0  0  0  0
    5.4940   -2.2253    0.7331 O   0  0  0  0  0  0  0  0  0  0  0  0
    4.3931   -2.8589   -3.0598 H   0  0  0  0  0  0  0  0  0  0  0  0
    5.3285   -1.6713   -1.9713 H   0  0  0  0  0  0  0  0  0  0  0  0
    2.1440   -3.8776   -2.0668 H   0  0  0  0  0  0  0  0  0  0  0  0
   -0.2460   -4.1631   -0.7277 H   0  0  0  0  0  0  0  0  0  0  0  0
   -0.3699   -3.8945    1.0209 H   0  0  0  0  0  0  0  0  0  0  0  0
    0.7959   -5.0488    0.3800 H   0  0  0  0  0  0  0  0  0  0  0  0
    2.1005   -2.7764    2.2596 H   0  0  0  0  0  0  0  0  0  0  0  0
    0.6806   -1.8567    2.0226 H   0  0  0  0  0  0  0  0  0  0  0  0
    2.9151    0.4836    2.4747 H   0  0  0  0  0  0  0  0  0  0  0  0
    3.5591    0.5702   -1.0539 H   0  0  0  0  0  0  0  0  0  0  0  0
    2.5736    2.3936   -2.2893 H   0  0  0  0  0  0  0  0  0  0  0  0
    1.0560    2.2672   -1.3917 H   0  0  0  0  0  0  0  0  0  0  0  0
    2.0741    2.9539    0.6817 H   0  0  0  0  0  0  0  0  0  0  0  0
    3.6960    2.8935   -0.0004 H   0  0  0  0  0  0  0  0  0  0  0  0
    3.3106    4.7760   -1.4231 H   0  0  0  0  0  0  0  0  0  0  0  0
    1.5570    4.7128   -1.1916 H   0  0  0  0  0  0  0  0  0  0  0  0
    3.5228    5.3086    1.0871 H   0  0  0  0  0  0  0  0  0  0  0  0
    2.7158    6.5616    0.1244 H   0  0  0  0  0  0  0  0  0  0  0  0
    0.7234    5.7134    0.7781 H   0  0  0  0  0  0  0  0  0  0  0  0
    0.8843    0.2850   -2.5279 H   0  0  0  0  0  0  0  0  0  0  0  0
    2.4438   -0.2821   -3.0289 H   0  0  0  0  0  0  0  0  0  0  0  0
    0.3929   -2.2879   -3.4351 H   0  0  0  0  0  0  0  0  0  0  0  0
    0.1325   -0.2465    1.0177 H   0  0  0  0  0  0  0  0  0  0  0  0
   -0.1954    0.0166   -0.6791 H   0  0  0  0  0  0  0  0  0  0  0  0
   -2.9752   -1.9826    0.4439 H   0  0  0  0  0  0  0  0  0  0  0  0
   -3.6554   -1.4769   -1.4835 H   0  0  0  0  0  0  0  0  0  0  0  0
   -1.4101   -1.3458   -2.0837 H   0  0  0  0  0  0  0  0  0  0  0  0
   -3.1221    1.4948   -1.1382 H   0  0  0  0  0  0  0  0  0  0  0  0
   -3.8003    0.4366   -3.0788 H   0  0  0  0  0  0  0  0  0  0  0  0
   -5.7477    0.2397   -0.3696 H   0  0  0  0  0  0  0  0  0  0  0  0
   -5.4058    2.4033   -0.8652 H   0  0  0  0  0  0  0  0  0  0  0  0
   -4.5635    0.6578    3.4812 H   0  0  0  0  0  0  0  0  0  0  0  0
   -4.5133    2.0857    2.4349 H   0  0  0  0  0  0  0  0  0  0  0  0
   -5.9802    1.1282    2.5343 H   0  0  0  0  0  0  0  0  0  0  0  0
   -4.8839   -1.7119    2.4229 H   0  0  0  0  0  0  0  0  0  0  0  0
   -5.0652   -1.8463    0.6652 H   0  0  0  0  0  0  0  0  0  0  0  0
   -6.2715   -0.9891    1.6014 H   0  0  0  0  0  0  0  0  0  0  0  0
   -2.7290   -0.7894    2.3423 H   0  0  0  0  0  0  0  0  0  0  0  0
   -2.4569    1.7616    2.4424 H   0  0  0  0  0  0  0  0  0  0  0  0
   -1.0670    0.7499    2.2732 H   0  0  0  0  0  0  0  0  0  0  0  0
   -1.0209    2.5145    0.8902 H   0  0  0  0  0  0  0  0  0  0  0  0
    4.0034   -3.6281    0.5597 H   0  0  0  0  0  0  0  0  0  0  0  0
    3.9669   -2.5973    1.9610 H   0  0  0  0  0  0  0  0  0  0  0  0
    5.6015   -1.3932    1.2314 H   0  0  0  0  0  0  0  0  0  0  0  0
  2  1  2  0  0  0  0
  3  2  1  0  0  0  0
  4  3  1  0  0  0  0
  5  4  1  0  0  0  0
  6  4  1  0  0  0  0
  7  6  1  0  0  0  0
  8  7  1  0  0  0  0
  9  7  1  0  0  0  0
 10  9  1  0  0  0  0
 11 10  1  0  0  0  0
 12 11  1  0  0  0  0
 13 12  1  0  0  0  0
 14 13  1  0  0  0  0
 15 14  1  0  0  0  0
 16 10  1  0  0  0  0
 17 16  1  0  0  0  0
 17  3  1  0  0  0  0
 18 17  1  0  0  0  0
 19 17  1  0  0  0  0
 19  4  1  0  0  0  0
 20 19  1  0  0  0  0
 21 20  1  0  0  0  0
 22 21  1  0  0  0  0
 23 22  1  0  0  0  0
 24 23  1  0  0  0  0
 25 23  1  0  0  0  0
 26 25  1  0  0  0  0
 27 25  1  0  0  0  0
 28 27  1  0  0  0  0
 29 27  1  0  0  0  0
 30 29  1  0  0  0  0
 31 29  1  0  0  0  0
 32 29  1  0  0  0  0
 32 22  1  0  0  0  0
 33 32  1  0  0  0  0
 34 33  1  0  0  0  0
 35 19  1  0  0  0  0
 35  2  1  0  0  0  0
 35  7  1  0  0  0  0
 36 35  1  0  0  0  0
 37 36  1  0  0  0  0
  1 38  1  0  0  0  0
  1 39  1  0  0  0  0
  3 40  1  0  0  0  0
  5 41  1  0  0  0  0
  5 42  1  0  0  0  0
  5 43  1  0  0  0  0
  6 44  1  0  0  0  0
  6 45  1  0  0  0  0
  8 46  1  0  0  0  0
 10 47  1  0  0  0  0
 11 48  1  0  0  0  0
 11 49  1  0  0  0  0
 12 50  1  0  0  0  0
 12 51  1  0  0  0  0
 13 52  1  0  0  0  0
 13 53  1  0  0  0  0
 14 54  1  0  0  0  0
 14 55  1  0  0  0  0
 15 56  1  0  0  0  0
 16 57  1  0  0  0  0
 16 58  1  0  0  0  0
 18 59  1  0  0  0  0
 20 60  1  0  0  0  0
 20 61  1  0  0  0  0
 22 62  1  0  0  0  0
 23 63  1  0  0  0  0
 24 64  1  0  0  0  0
 25 65  1  0  0  0  0
 26 66  1  0  0  0  0
 27 67  1  0  0  0  0
 28 68  1  0  0  0  0
 30 69  1  0  0  0  0
 30 70  1  0  0  0  0
 30 71  1  0  0  0  0
 31 72  1  0  0  0  0
 31 73  1  0  0  0  0
 31 74  1  0  0  0  0
 32 75  1  0  0  0  0
 33 76  1  0  0  0  0
 33 77  1  0  0  0  0
 34 78  1  0  0  0  0
 36 79  1  0  0  0  0
 36 80  1  0  0  0  0
 37 81  1  0  0  0  0
M  END
>  <energy>
472.15338050529363

$$$$
