CCC1C(O)C(O)C2(OCc3ccccc3)C3C4C[N+](C)([O-])CC3(CCN4C)[N+]12Cc1ccccc1
                    3D

 76 81  0  0  0  0  0  0  0  0999 V2000
    1.9370    3.5402    0.3649 C   0  0  0  0  0  0  0  0  0  0  0  0
    2.4138    2.8166   -0.8824 C   0  0  0  0  0  0  0  0  0  0  0  0
    1.5291    1.6935   -1.5024 C   0  0  0  0  0  0  0  0  0  0  0  0
    0.0836    2.1566   -1.7901 C   0  0  0  0  0  0  0  0  0  0  0  0
   -0.0238    3.5259   -2.1470 O   0  0  0  0  0  0  0  0  0  0  0  0
   -0.6474    1.8699   -0.4975 C   0  0  0  0  0  0  0  0  0  0  0  0
   -2.0455    1.7277   -0.7605 O   0  0  0  0  0  0  0  0  0  0  0  0
    0.0420    0.5912    0.0451 C   0  0  0  0  0  0  0  0  0  0  0  0
    0.2101    0.5943    1.4712 O   0  0  0  0  0  0  0  0  0  0  0  0
   -0.5545    1.3651    2.3922 C   0  0  0  0  0  0  0  0  0  0  0  0
   -2.0092    0.9997    2.4562 C   0  0  0  0  0  0  0  0  0  0  0  0
   -2.9808    2.0040    2.6105 C   0  0  0  0  0  0  0  0  0  0  0  0
   -4.3286    1.6743    2.7187 C   0  0  0  0  0  0  0  0  0  0  0  0
   -4.7269    0.3395    2.6951 C   0  0  0  0  0  0  0  0  0  0  0  0
   -3.7708   -0.6676    2.5801 C   0  0  0  0  0  0  0  0  0  0  0  0
   -2.4204   -0.3393    2.4722 C   0  0  0  0  0  0  0  0  0  0  0  0
   -0.4200   -0.7716   -0.5168 C   0  0  0  0  0  0  0  0  0  0  0  0
   -1.5799   -1.3510   -1.2990 C   0  0  0  0  0  0  0  0  0  0  0  0
   -1.3555   -2.8925   -1.3419 C   0  0  0  0  0  0  0  0  0  0  0  0
    0.0891   -3.3838   -1.0926 N   0  3  0  0  0  0  0  0  0  0  0  0
    0.3818   -4.5501   -2.0012 C   0  0  0  0  0  0  0  0  0  0  0  0
    0.1377   -3.8531    0.2151 O   0  5  0  0  0  0  0  0  0  0  0  0
    1.2077   -2.3345   -1.2062 C   0  0  0  0  0  0  0  0  0  0  0  0
    0.7876   -0.8467   -1.4543 C   0  0  0  0  0  0  0  0  0  0  0  0
    0.7156   -0.6776   -2.9997 C   0  0  0  0  0  0  0  0  0  0  0  0
   -0.6098   -1.1735   -3.5593 C   0  0  0  0  0  0  0  0  0  0  0  0
   -1.6652   -0.7442   -2.6462 N   0  0  0  0  0  0  0  0  0  0  0  0
   -3.0013   -0.9191   -3.2219 C   0  0  0  0  0  0  0  0  0  0  0  0
    1.4076    0.3854   -0.6658 N   0  3  0  0  0  0  0  0  0  0  0  0
    2.6489   -0.0582    0.1150 C   0  0  0  0  0  0  0  0  0  0  0  0
    2.8055   -0.0081    1.6161 C   0  0  0  0  0  0  0  0  0  0  0  0
    3.4612    1.0667    2.2364 C   0  0  0  0  0  0  0  0  0  0  0  0
    3.6328    1.1148    3.6207 C   0  0  0  0  0  0  0  0  0  0  0  0
    3.1782    0.0632    4.4072 C   0  0  0  0  0  0  0  0  0  0  0  0
    2.5650   -1.0344    3.8148 C   0  0  0  0  0  0  0  0  0  0  0  0
    2.3829   -1.0756    2.4269 C   0  0  0  0  0  0  0  0  0  0  0  0
    1.6559    2.8515    1.1610 H   0  0  0  0  0  0  0  0  0  0  0  0
    2.7320    4.1830    0.7540 H   0  0  0  0  0  0  0  0  0  0  0  0
    1.0882    4.1995    0.1587 H   0  0  0  0  0  0  0  0  0  0  0  0
    3.4296    2.4540   -0.7058 H   0  0  0  0  0  0  0  0  0  0  0  0
    2.5438    3.5852   -1.6561 H   0  0  0  0  0  0  0  0  0  0  0  0
    2.0705    1.4302   -2.4153 H   0  0  0  0  0  0  0  0  0  0  0  0
   -0.3815    1.6202   -2.6137 H   0  0  0  0  0  0  0  0  0  0  0  0
   -0.9749    3.6912   -2.3066 H   0  0  0  0  0  0  0  0  0  0  0  0
   -0.5584    2.7268    0.1669 H   0  0  0  0  0  0  0  0  0  0  0  0
   -2.5472    2.0143    0.0288 H   0  0  0  0  0  0  0  0  0  0  0  0
   -0.1227    1.1866    3.3849 H   0  0  0  0  0  0  0  0  0  0  0  0
   -0.4065    2.4298    2.1915 H   0  0  0  0  0  0  0  0  0  0  0  0
   -2.6933    3.0537    2.6684 H   0  0  0  0  0  0  0  0  0  0  0  0
   -5.0766    2.4558    2.8522 H   0  0  0  0  0  0  0  0  0  0  0  0
   -5.7763    0.0801    2.8017 H   0  0  0  0  0  0  0  0  0  0  0  0
   -4.0769   -1.7126    2.6070 H   0  0  0  0  0  0  0  0  0  0  0  0
   -1.6846   -1.1426    2.4321 H   0  0  0  0  0  0  0  0  0  0  0  0
   -0.3621   -1.4169    0.3776 H   0  0  0  0  0  0  0  0  0  0  0  0
   -2.5089   -1.1529   -0.7502 H   0  0  0  0  0  0  0  0  0  0  0  0
   -1.7091   -3.3512   -2.2725 H   0  0  0  0  0  0  0  0  0  0  0  0
   -1.9541   -3.3594   -0.5467 H   0  0  0  0  0  0  0  0  0  0  0  0
   -0.4029   -5.2956   -1.8522 H   0  0  0  0  0  0  0  0  0  0  0  0
    1.3620   -4.9489   -1.7267 H   0  0  0  0  0  0  0  0  0  0  0  0
    0.3836   -4.1773   -3.0282 H   0  0  0  0  0  0  0  0  0  0  0  0
    1.7448   -2.4684   -0.2645 H   0  0  0  0  0  0  0  0  0  0  0  0
    1.8970   -2.6827   -1.9856 H   0  0  0  0  0  0  0  0  0  0  0  0
    1.5516   -1.2014   -3.4856 H   0  0  0  0  0  0  0  0  0  0  0  0
    0.8311    0.3328   -3.3735 H   0  0  0  0  0  0  0  0  0  0  0  0
   -0.5856   -2.2534   -3.7190 H   0  0  0  0  0  0  0  0  0  0  0  0
   -0.7472   -0.7311   -4.5533 H   0  0  0  0  0  0  0  0  0  0  0  0
   -3.3224   -1.9642   -3.2479 H   0  0  0  0  0  0  0  0  0  0  0  0
   -3.7284   -0.3489   -2.6340 H   0  0  0  0  0  0  0  0  0  0  0  0
   -3.0468   -0.5247   -4.2414 H   0  0  0  0  0  0  0  0  0  0  0  0
    3.4735    0.5173   -0.3156 H   0  0  0  0  0  0  0  0  0  0  0  0
    2.9617   -1.0481   -0.2172 H   0  0  0  0  0  0  0  0  0  0  0  0
    3.8747    1.8856    1.6504 H   0  0  0  0  0  0  0  0  0  0  0  0
    4.1356    1.9629    4.0820 H   0  0  0  0  0  0  0  0  0  0  0  0
    3.3242    0.0888    5.4850 H   0  0  0  0  0  0  0  0  0  0  0  0
    2.2328   -1.8672    4.4322 H   0  0  0  0  0  0  0  0  0  0  0  0
    1.8963   -1.9498    2.0033 H   0  0  0  0  0  0  0  0  0  0  0  0
  2  1  1  0  0  0  0
  3  2  1  0  0  0  0
  4  3  1  0  0  0  0
  5  4  1  0  0  0  0
  6  4  1  0  0  0  0
  7  6  1  0  0  0  0
  8  6  1  0  0  0  0
  9  8  1  0  0  0  0
 10  9  1  0  0  0  0
 11 10  1  0  0  0  0
 12 11  2  0  0  0  0
 13 12  1  0  0  0  0
 14 13  2  0  0  0  0
 15 14  1  0  0  0  0
 16 15  2  0  0  0  0
 16 11  1  0  0  0  0
 17  8  1  0  0  0  0
 18 17  1  0  0  0  0
 19 18  1  0  0  0  0
 20 19  1  0  0  0  0
 21 20  1  0  0  0  0
 22 20  1  0  0  0  0
 23 20  1  0  0  0  0
 24 23  1  0  0  0  0
 24 17  1  0  0  0  0
 25 24  1  0  0  0  0
 26 25  1  0  0  0  0
 27 26  1  0  0  0  0
 27 18  1  0  0  0  0
 28 27  1  0  0  0  0
 29 24  1  0  0  0  0
 29  3  1  0  0  0  0
 29  8  1  0  0  0  0
 30 29  1  0  0  0  0
 31 30  1  0  0  0  0
 32 31  2  0  0  0  0
 33 32  1  0  0  0  0
 34 33  2  0  0  0  0
 35 34  1  0  0  0  0
 36 35  2  0  0  0  0
 36 31  1  0  0  0  0
  1 37  1  0  0  0  0
  1 38  1  0  0  0  0
  1 39  1  0  0  0  0
  2 40  1  0  0  0  0
  2 41  1  0  0  0  0
  3 42  1  0  0  0  0
  4 43  1  0  0  0  0
  5 44  1  0  0  0  0
  6 45  1  0  0  0  0
  7 46  1  0  0  0  0
 10 47  1  0  0  0  0
 10 48  1  0  0  0  0
 12 49  1  0  0  0  0
 13 50  1  0  0  0  0
 14 51  1  0  0  0  0
 15 52  1  0  0  0  0
 16 53  1  0  0  0  0
 17 54  1  0  0  0  0
 18 55  1  0  0  0  0
 19 56  1  0  0  0  0
 19 57  1  0  0  0  0
 21 58  1  0  0  0  0
 21 59  1  0  0  0  0
 21 60  1  0  0  0  0
 23 61  1  0  0  0  0
 23 62  1  0  0  0  0
 25 63  1  0  0  0  0
 25 64  1  0  0  0  0
 26 65  1  0  0  0  0
 26 66  1  0  0  0  0
 28 67  1  0  0  0  0
 28 68  1  0  0  0  0
 28 69  1  0  0  0  0
 30 70  1  0  0  0  0
 30 71  1  0  0  0  0
 32 72  1  0  0  0  0
 33 73  1  0  0  0  0
 34 74  1  0  0  0  0
 35 75  1  0  0  0  0
 36 76  1  0  0  0  0
M  CHG  3  20   1  22  -1  29   1
M  END
>  <energy>
210.83134090684595

$$$$
