C#CC(O)C1C2CC13CC[N+]2(CC#CC)CC1(C(C)C)C3C(C(=O)NBr)C(=O)N1CO
                    3D

 62 65  0  0  0  0  0  0  0  0999 V2000
   -1.6354   -0.6243   -5.6949 C   0  0  0  0  0  0  0  0  0  0  0  0
   -0.9555   -0.1847   -4.8106 C   0  0  0  0  0  0  0  0  0  0  0  0
   -0.0679    0.3143   -3.7398 C   0  0  0  0  0  0  0  0  0  0  0  0
    0.9257   -0.6765   -3.5145 O   0  0  0  0  0  0  0  0  0  0  0  0
   -0.8654    0.5881   -2.4189 C   0  0  0  0  0  0  0  0  0  0  0  0
   -0.8108   -0.4495   -1.2717 C   0  0  0  0  0  0  0  0  0  0  0  0
   -0.6417    1.1104   -0.1868 C   0  0  0  0  0  0  0  0  0  0  0  0
   -0.3634    1.6945   -1.4514 C   0  0  0  0  0  0  0  0  0  0  0  0
   -1.9488    2.0139   -1.0434 C   0  0  0  0  0  0  0  0  0  0  0  0
   -2.8257    0.6279   -0.4731 C   0  0  0  0  0  0  0  0  0  0  0  0
   -1.7827   -0.7271   -0.2447 N   0  3  0  0  0  0  0  0  0  0  0  0
   -2.6422   -1.9636   -0.3175 C   0  0  0  0  0  0  0  0  0  0  0  0
   -3.3923   -1.9720    0.9540 C   0  0  0  0  0  0  0  0  0  0  0  0
   -3.8772   -1.8221    2.0454 C   0  0  0  0  0  0  0  0  0  0  0  0
   -4.3393   -1.5256    3.4088 C   0  0  0  0  0  0  0  0  0  0  0  0
   -0.4657   -1.0976    0.7989 C   0  0  0  0  0  0  0  0  0  0  0  0
    1.0222   -0.1989    0.5990 C   0  0  0  0  0  0  0  0  0  0  0  0
    1.3887    0.2953    2.1111 C   0  0  0  0  0  0  0  0  0  0  0  0
    0.3428    1.0666    2.9513 C   0  0  0  0  0  0  0  0  0  0  0  0
    1.8172   -0.9007    2.9995 C   0  0  0  0  0  0  0  0  0  0  0  0
    1.0774    0.9065   -0.7766 C   0  0  0  0  0  0  0  0  0  0  0  0
    2.4672    1.5146   -0.6968 C   0  0  0  0  0  0  0  0  0  0  0  0
    2.6297    2.6897    0.2267 C   0  0  0  0  0  0  0  0  0  0  0  0
    1.6808    3.4098    0.4979 O   0  0  0  0  0  0  0  0  0  0  0  0
    3.9238    2.9022    0.6617 N   0  0  0  0  0  0  0  0  0  0  0  0
    4.3378    4.3351    1.8266 Br  0  0  0  0  0  0  0  0  0  0  0  0
    3.2121    0.2223   -0.2922 C   0  0  0  0  0  0  0  0  0  0  0  0
    4.4262    0.0798   -0.3862 O   0  0  0  0  0  0  0  0  0  0  0  0
    2.3028   -0.7864    0.1344 N   0  0  0  0  0  0  0  0  0  0  0  0
    2.7186   -2.1585    0.2298 C   0  0  0  0  0  0  0  0  0  0  0  0
    2.5125   -2.7014   -1.0519 O   0  0  0  0  0  0  0  0  0  0  0  0
   -2.1960   -1.0397   -6.5104 H   0  0  0  0  0  0  0  0  0  0  0  0
    0.4165    1.2408   -4.0706 H   0  0  0  0  0  0  0  0  0  0  0  0
    1.0773   -1.1626   -4.3528 H   0  0  0  0  0  0  0  0  0  0  0  0
   -1.8895    0.6929   -2.8090 H   0  0  0  0  0  0  0  0  0  0  0  0
   -1.1720   -1.2297   -1.9501 H   0  0  0  0  0  0  0  0  0  0  0  0
   -0.0085    1.6749    0.5433 H   0  0  0  0  0  0  0  0  0  0  0  0
   -1.3334    1.2267    0.7005 H   0  0  0  0  0  0  0  0  0  0  0  0
   -2.0274    2.8608   -0.3399 H   0  0  0  0  0  0  0  0  0  0  0  0
   -2.4783    2.4058   -1.9270 H   0  0  0  0  0  0  0  0  0  0  0  0
   -3.5708    0.3282   -1.2244 H   0  0  0  0  0  0  0  0  0  0  0  0
   -3.3085    0.8223    0.4935 H   0  0  0  0  0  0  0  0  0  0  0  0
   -3.3043   -1.8754   -1.1849 H   0  0  0  0  0  0  0  0  0  0  0  0
   -2.0125   -2.8520   -0.4180 H   0  0  0  0  0  0  0  0  0  0  0  0
   -5.4303   -1.5119    3.4818 H   0  0  0  0  0  0  0  0  0  0  0  0
   -3.9564   -2.2716    4.1134 H   0  0  0  0  0  0  0  0  0  0  0  0
   -3.9712   -0.5407    3.7184 H   0  0  0  0  0  0  0  0  0  0  0  0
   -0.9001   -1.0037    1.7924 H   0  0  0  0  0  0  0  0  0  0  0  0
   -0.2227   -2.1543    0.5985 H   0  0  0  0  0  0  0  0  0  0  0  0
    2.2635    0.9557    2.0571 H   0  0  0  0  0  0  0  0  0  0  0  0
    0.1668    2.0768    2.5792 H   0  0  0  0  0  0  0  0  0  0  0  0
   -0.6132    0.5420    3.0475 H   0  0  0  0  0  0  0  0  0  0  0  0
    0.7184    1.1910    3.9758 H   0  0  0  0  0  0  0  0  0  0  0  0
    2.7694   -1.3153    2.6704 H   0  0  0  0  0  0  0  0  0  0  0  0
    1.0599   -1.6908    3.0059 H   0  0  0  0  0  0  0  0  0  0  0  0
    1.9718   -0.5849    4.0354 H   0  0  0  0  0  0  0  0  0  0  0  0
    1.2897    0.2185   -1.6040 H   0  0  0  0  0  0  0  0  0  0  0  0
    2.8109    1.8186   -1.6889 H   0  0  0  0  0  0  0  0  0  0  0  0
    4.7003    2.2996    0.3925 H   0  0  0  0  0  0  0  0  0  0  0  0
    2.1212   -2.7243    0.9504 H   0  0  0  0  0  0  0  0  0  0  0  0
    3.7797   -2.2130    0.4877 H   0  0  0  0  0  0  0  0  0  0  0  0
    3.0782   -2.1672   -1.6380 H   0  0  0  0  0  0  0  0  0  0  0  0
  2  1  3  0  0  0  0
  3  2  1  0  0  0  0
  4  3  1  0  0  0  0
  5  3  1  0  0  0  0
  6  5  1  0  0  0  0
  7  6  1  0  0  0  0
  8  7  1  0  0  0  0
  8  5  1  0  0  0  0
  9  8  1  0  0  0  0
 10  9  1  0  0  0  0
 11 10  1  0  0  0  0
 11  6  1  0  0  0  0
 12 11  1  0  0  0  0
 13 12  1  0  0  0  0
 14 13  3  0  0  0  0
 15 14  1  0  0  0  0
 16 11  1  0  0  0  0
 17 16  1  0  0  0  0
 18 17  1  0  0  0  0
 19 18  1  0  0  0  0
 20 18  1  0  0  0  0
 21 17  1  0  0  0  0
 21  8  1  0  0  0  0
 22 21  1  0  0  0  0
 23 22  1  0  0  0  0
 24 23  2  0  0  0  0
 25 23  1  0  0  0  0
 26 25  1  0  0  0  0
 27 22  1  0  0  0  0
 28 27  2  0  0  0  0
 29 27  1  0  0  0  0
 29 17  1  0  0  0  0
 30 29  1  0  0  0  0
 31 30  1  0  0  0  0
  1 32  1  0  0  0  0
  3 33  1  0  0  0  0
  4 34  1  0  0  0  0
  5 35  1  0  0  0  0
  6 36  1  0  0  0  0
  7 37  1  0  0  0  0
  7 38  1  0  0  0  0
  9 39  1  0  0  0  0
  9 40  1  0  0  0  0
 10 41  1  0  0  0  0
 10 42  1  0  0  0  0
 12 43  1  0  0  0  0
 12 44  1  0  0  0  0
 15 45  1  0  0  0  0
 15 46  1  0  0  0  0
 15 47  1  0  0  0  0
 16 48  1  0  0  0  0
 16 49  1  0  0  0  0
 18 50  1  0  0  0  0
 19 51  1  0  0  0  0
 19 52  1  0  0  0  0
 19 53  1  0  0  0  0
 20 54  1  0  0  0  0
 20 55  1  0  0  0  0
 20 56  1  0  0  0  0
 21 57  1  0  0  0  0
 22 58  1  0  0  0  0
 25 59  1  0  0  0  0
 30 60  1  0  0  0  0
 30 61  1  0  0  0  0
 31 62  1  0  0  0  0
M  CHG  1  11   1
M  END
>  <energy>
454.83961254732662

$$$$
