CN(C)C1C2C=CC3C(O)C1C32C(N)=NC(C)(C)N
                    3D

 43 45  0  0  0  0  0  0  0  0999 V2000
   -1.4534    3.1713    0.6649 C   0  0  0  0  0  0  0  0  0  0  0  0
   -1.3076    2.2822   -0.4967 N   0  0  0  0  0  0  0  0  0  0  0  0
   -1.8966    2.9619   -1.6621 C   0  0  0  0  0  0  0  0  0  0  0  0
   -2.0268    1.0012   -0.2608 C   0  0  0  0  0  0  0  0  0  0  0  0
   -1.3386    0.1732    0.8735 C   0  0  0  0  0  0  0  0  0  0  0  0
   -2.2605   -0.7208    1.6471 C   0  0  0  0  0  0  0  0  0  0  0  0
   -2.4251   -1.9017    1.0252 C   0  0  0  0  0  0  0  0  0  0  0  0
   -1.6437   -1.9452   -0.2466 C   0  0  0  0  0  0  0  0  0  0  0  0
   -2.3655   -1.2985   -1.4654 C   0  0  0  0  0  0  0  0  0  0  0  0
   -2.1869   -1.9967   -2.7187 O   0  0  0  0  0  0  0  0  0  0  0  0
   -1.4996   -0.0279   -1.3028 C   0  0  0  0  0  0  0  0  0  0  0  0
   -0.6792   -0.7257   -0.2193 C   0  0  0  0  0  0  0  0  0  0  0  0
    0.8607   -0.8683   -0.2643 C   0  0  0  0  0  0  0  0  0  0  0  0
    1.3749   -1.1145   -1.5006 N   0  0  0  0  0  0  0  0  0  0  0  0
    1.5235   -0.6983    0.8201 N   0  0  0  0  0  0  0  0  0  0  0  0
    2.9745   -0.7483    0.8841 C   0  0  0  0  0  0  0  0  0  0  0  0
    3.4971   -2.1839    0.7460 C   0  0  0  0  0  0  0  0  0  0  0  0
    3.3487   -0.2190    2.2835 C   0  0  0  0  0  0  0  0  0  0  0  0
    3.5958    0.1127   -0.1242 N   0  0  0  0  0  0  0  0  0  0  0  0
   -2.5018    3.3282    0.9431 H   0  0  0  0  0  0  0  0  0  0  0  0
   -1.0063    4.1484    0.4494 H   0  0  0  0  0  0  0  0  0  0  0  0
   -0.9151    2.7909    1.5376 H   0  0  0  0  0  0  0  0  0  0  0  0
   -2.9695    3.1578   -1.5304 H   0  0  0  0  0  0  0  0  0  0  0  0
   -1.7633    2.3764   -2.5781 H   0  0  0  0  0  0  0  0  0  0  0  0
   -1.3944    3.9227   -1.8376 H   0  0  0  0  0  0  0  0  0  0  0  0
   -3.1168    1.0914   -0.1937 H   0  0  0  0  0  0  0  0  0  0  0  0
   -0.6356    0.6877    1.5328 H   0  0  0  0  0  0  0  0  0  0  0  0
   -2.7029   -0.4525    2.5934 H   0  0  0  0  0  0  0  0  0  0  0  0
   -3.0320   -2.7182    1.3848 H   0  0  0  0  0  0  0  0  0  0  0  0
   -1.1874   -2.9197   -0.4508 H   0  0  0  0  0  0  0  0  0  0  0  0
   -3.4375   -1.1254   -1.3076 H   0  0  0  0  0  0  0  0  0  0  0  0
   -2.7039   -1.4881   -3.3664 H   0  0  0  0  0  0  0  0  0  0  0  0
   -0.9929    0.3231   -2.2034 H   0  0  0  0  0  0  0  0  0  0  0  0
    2.3321   -0.7630   -1.5647 H   0  0  0  0  0  0  0  0  0  0  0  0
    0.8174   -0.8528   -2.3013 H   0  0  0  0  0  0  0  0  0  0  0  0
    4.5920   -2.2124    0.8232 H   0  0  0  0  0  0  0  0  0  0  0  0
    3.2207   -2.6400   -0.2106 H   0  0  0  0  0  0  0  0  0  0  0  0
    3.0947   -2.8239    1.5402 H   0  0  0  0  0  0  0  0  0  0  0  0
    4.4349   -0.1707    2.4245 H   0  0  0  0  0  0  0  0  0  0  0  0
    2.9365    0.7834    2.4555 H   0  0  0  0  0  0  0  0  0  0  0  0
    2.9382   -0.8690    3.0667 H   0  0  0  0  0  0  0  0  0  0  0  0
    3.2972    1.0656    0.0903 H   0  0  0  0  0  0  0  0  0  0  0  0
    4.6039    0.1068    0.0201 H   0  0  0  0  0  0  0  0  0  0  0  0
  2  1  1  0  0  0  0
  3  2  1  0  0  0  0
  4  2  1  0  0  0  0
  5  4  1  0  0  0  0
  6  5  1  0  0  0  0
  7  6  2  0  0  0  0
  8  7  1  0  0  0  0
  9  8  1  0  0  0  0
 10  9  1  0  0  0  0
 11  9  1  0  0  0  0
 11  4  1  0  0  0  0
 12 11  1  0  0  0  0
 12  8  1  0  0  0  0
 12  5  1  0  0  0  0
 13 12  1  0  0  0  0
 14 13  1  0  0  0  0
 15 13  2  0  0  0  0
 16 15  1  0  0  0  0
 17 16  1  0  0  0  0
 18 16  1  0  0  0  0
 19 16  1  0  0  0  0
  1 20  1  0  0  0  0
  1 21  1  0  0  0  0
  1 22  1  0  0  0  0
  3 23  1  0  0  0  0
  3 24  1  0  0  0  0
  3 25  1  0  0  0  0
  4 26  1  0  0  0  0
  5 27  1  0  0  0  0
  6 28  1  0  0  0  0
  7 29  1  0  0  0  0
  8 30  1  0  0  0  0
  9 31  1  0  0  0  0
 10 32  1  0  0  0  0
 11 33  1  0  0  0  0
 14 34  1  0  0  0  0
 14 35  1  0  0  0  0
 17 36  1  0  0  0  0
 17 37  1  0  0  0  0
 17 38  1  0  0  0  0
 18 39  1  0  0  0  0
 18 40  1  0  0  0  0
 18 41  1  0  0  0  0
 19 42  1  0  0  0  0
 19 43  1  0  0  0  0
M  END
>  <energy>
-18.290246282649292

$$$$
