COC1(O)CC2C34CC5CC2(CC(C)=O)C5(C)CC2C(C)(C)C(=O)C3C21O4
                    3D

 57 62  0  0  0  0  0  0  0  0999 V2000
    1.4302    2.1554   -2.7086 C   0  0  0  0  0  0  0  0  0  0  0  0
    0.5947    1.6895   -1.6626 O   0  0  0  0  0  0  0  0  0  0  0  0
    1.0821    1.8982   -0.3372 C   0  0  0  0  0  0  0  0  0  0  0  0
    2.1108    2.8831   -0.2693 O   0  0  0  0  0  0  0  0  0  0  0  0
   -0.1053    2.4165    0.5146 C   0  0  0  0  0  0  0  0  0  0  0  0
   -0.9176    1.2807    1.1766 C   0  0  0  0  0  0  0  0  0  0  0  0
    0.1078    0.3117    1.8358 C   0  0  0  0  0  0  0  0  0  0  0  0
   -0.5520   -0.9436    2.4266 C   0  0  0  0  0  0  0  0  0  0  0  0
   -1.3161   -1.5633    1.1698 C   0  0  0  0  0  0  0  0  0  0  0  0
   -2.5748   -0.6685    0.9758 C   0  0  0  0  0  0  0  0  0  0  0  0
   -1.6936    0.3095    0.1046 C   0  0  0  0  0  0  0  0  0  0  0  0
   -2.5567    1.0778   -0.9047 C   0  0  0  0  0  0  0  0  0  0  0  0
   -3.6533    1.9272   -0.2883 C   0  0  0  0  0  0  0  0  0  0  0  0
   -5.0752    1.4778   -0.5083 C   0  0  0  0  0  0  0  0  0  0  0  0
   -3.4043    2.9328    0.3762 O   0  0  0  0  0  0  0  0  0  0  0  0
   -0.9572   -1.1997   -0.4924 C   0  0  0  0  0  0  0  0  0  0  0  0
   -1.8143   -2.0298   -1.4802 C   0  0  0  0  0  0  0  0  0  0  0  0
    0.6321   -1.3034   -1.2251 C   0  0  0  0  0  0  0  0  0  0  0  0
    2.0416   -0.5699   -0.5515 C   0  0  0  0  0  0  0  0  0  0  0  0
    2.8867   -1.4127    0.5157 C   0  0  0  0  0  0  0  0  0  0  0  0
    2.4801   -2.8830    0.6004 C   0  0  0  0  0  0  0  0  0  0  0  0
    4.3779   -1.3064    0.1633 C   0  0  0  0  0  0  0  0  0  0  0  0
    2.7072   -0.7386    1.9457 C   0  0  0  0  0  0  0  0  0  0  0  0
    3.2576   -1.1771    2.9551 O   0  0  0  0  0  0  0  0  0  0  0  0
    1.7883    0.5574    1.8688 C   0  0  0  0  0  0  0  0  0  0  0  0
    1.5666    0.5910    0.3021 C   0  0  0  0  0  0  0  0  0  0  0  0
    0.5238   -0.2440    0.6571 O   0  0  0  0  0  0  0  0  0  0  0  0
    2.4306    1.7198   -2.6398 H   0  0  0  0  0  0  0  0  0  0  0  0
    1.4862    3.2475   -2.6961 H   0  0  0  0  0  0  0  0  0  0  0  0
    0.9883    1.8491   -3.6605 H   0  0  0  0  0  0  0  0  0  0  0  0
    2.9546    2.4484   -0.4701 H   0  0  0  0  0  0  0  0  0  0  0  0
    0.2929    3.0429    1.3251 H   0  0  0  0  0  0  0  0  0  0  0  0
   -0.7488    3.0701   -0.0824 H   0  0  0  0  0  0  0  0  0  0  0  0
   -1.6210    1.6853    1.9126 H   0  0  0  0  0  0  0  0  0  0  0  0
    0.1912   -1.6607    2.7889 H   0  0  0  0  0  0  0  0  0  0  0  0
   -1.2400   -0.7109    3.2455 H   0  0  0  0  0  0  0  0  0  0  0  0
   -1.5399   -2.6199    1.3536 H   0  0  0  0  0  0  0  0  0  0  0  0
   -3.4115   -1.1565    0.4655 H   0  0  0  0  0  0  0  0  0  0  0  0
   -3.0143   -0.2412    1.8860 H   0  0  0  0  0  0  0  0  0  0  0  0
   -3.0415    0.3794   -1.5961 H   0  0  0  0  0  0  0  0  0  0  0  0
   -1.9497    1.7286   -1.5394 H   0  0  0  0  0  0  0  0  0  0  0  0
   -5.2006    0.4519   -0.1550 H   0  0  0  0  0  0  0  0  0  0  0  0
   -5.7554    2.1237    0.0540 H   0  0  0  0  0  0  0  0  0  0  0  0
   -5.3187    1.5430   -1.5711 H   0  0  0  0  0  0  0  0  0  0  0  0
   -2.8710   -2.0867   -1.2188 H   0  0  0  0  0  0  0  0  0  0  0  0
   -1.4433   -3.0587   -1.5290 H   0  0  0  0  0  0  0  0  0  0  0  0
   -1.7567   -1.6011   -2.4864 H   0  0  0  0  0  0  0  0  0  0  0  0
    0.5026   -0.8237   -2.2042 H   0  0  0  0  0  0  0  0  0  0  0  0
    0.8400   -2.3629   -1.4060 H   0  0  0  0  0  0  0  0  0  0  0  0
    2.6787   -0.2671   -1.3879 H   0  0  0  0  0  0  0  0  0  0  0  0
    1.4331   -2.9958    0.8984 H   0  0  0  0  0  0  0  0  0  0  0  0
    3.0782   -3.4148    1.3491 H   0  0  0  0  0  0  0  0  0  0  0  0
    2.6275   -3.3924   -0.3577 H   0  0  0  0  0  0  0  0  0  0  0  0
    4.5834   -1.7468   -0.8186 H   0  0  0  0  0  0  0  0  0  0  0  0
    4.7067   -0.2616    0.1447 H   0  0  0  0  0  0  0  0  0  0  0  0
    4.9982   -1.8284    0.9009 H   0  0  0  0  0  0  0  0  0  0  0  0
    2.1530    1.4707    2.3352 H   0  0  0  0  0  0  0  0  0  0  0  0
  2  1  1  0  0  0  0
  3  2  1  0  0  0  0
  4  3  1  0  0  0  0
  5  3  1  0  0  0  0
  6  5  1  0  0  0  0
  7  6  1  0  0  0  0
  8  7  1  0  0  0  0
  9  8  1  0  0  0  0
 10  9  1  0  0  0  0
 11 10  1  0  0  0  0
 11  6  1  0  0  0  0
 12 11  1  0  0  0  0
 13 12  1  0  0  0  0
 14 13  1  0  0  0  0
 15 13  2  0  0  0  0
 16 11  1  0  0  0  0
 16  9  1  0  0  0  0
 17 16  1  0  0  0  0
 18 16  1  0  0  0  0
 19 18  1  0  0  0  0
 20 19  1  0  0  0  0
 21 20  1  0  0  0  0
 22 20  1  0  0  0  0
 23 20  1  0  0  0  0
 24 23  2  0  0  0  0
 25 23  1  0  0  0  0
 25  7  1  0  0  0  0
 26 25  1  0  0  0  0
 26 19  1  0  0  0  0
 26  3  1  0  0  0  0
 27 26  1  0  0  0  0
 27  7  1  0  0  0  0
  1 28  1  0  0  0  0
  1 29  1  0  0  0  0
  1 30  1  0  0  0  0
  4 31  1  0  0  0  0
  5 32  1  0  0  0  0
  5 33  1  0  0  0  0
  6 34  1  0  0  0  0
  8 35  1  0  0  0  0
  8 36  1  0  0  0  0
  9 37  1  0  0  0  0
 10 38  1  0  0  0  0
 10 39  1  0  0  0  0
 12 40  1  0  0  0  0
 12 41  1  0  0  0  0
 14 42  1  0  0  0  0
 14 43  1  0  0  0  0
 14 44  1  0  0  0  0
 17 45  1  0  0  0  0
 17 46  1  0  0  0  0
 17 47  1  0  0  0  0
 18 48  1  0  0  0  0
 18 49  1  0  0  0  0
 19 50  1  0  0  0  0
 21 51  1  0  0  0  0
 21 52  1  0  0  0  0
 21 53  1  0  0  0  0
 22 54  1  0  0  0  0
 22 55  1  0  0  0  0
 22 56  1  0  0  0  0
 25 57  1  0  0  0  0
M  END
>  <energy>
254.34771178605189

$$$$
