CC(C)(C)C1CC2C3(O)C1C14CCN(CC5CC5)C5CC5(CC(=O)O)C21CCN(CC1CC1)C34
                    3D

 78 85  0  0  0  0  0  0  0  0999 V2000
    3.5184   -3.4594    0.8017 C   0  0  0  0  0  0  0  0  0  0  0  0
    2.7952   -2.1780    1.2662 C   0  0  0  0  0  0  0  0  0  0  0  0
    1.4251   -2.5966    1.8147 C   0  0  0  0  0  0  0  0  0  0  0  0
    3.6234   -1.5777    2.4235 C   0  0  0  0  0  0  0  0  0  0  0  0
    2.7442   -1.1724    0.0894 C   0  0  0  0  0  0  0  0  0  0  0  0
    2.1645   -1.6416   -1.2270 C   0  0  0  0  0  0  0  0  0  0  0  0
    1.4378   -0.4081   -1.8048 C   0  0  0  0  0  0  0  0  0  0  0  0
    2.1013    0.7996   -1.0810 C   0  0  0  0  0  0  0  0  0  0  0  0
    3.3536    1.2157   -1.6283 O   0  0  0  0  0  0  0  0  0  0  0  0
    2.0093    0.1358    0.3184 C   0  0  0  0  0  0  0  0  0  0  0  0
    0.4181    0.5389    0.0101 C   0  0  0  0  0  0  0  0  0  0  0  0
   -0.3521    0.6777    1.2980 C   0  0  0  0  0  0  0  0  0  0  0  0
   -1.8363    0.4664    1.2216 C   0  0  0  0  0  0  0  0  0  0  0  0
   -2.1324   -0.9561    1.2105 N   0  0  0  0  0  0  0  0  0  0  0  0
   -3.4442   -1.2556    1.8246 C   0  0  0  0  0  0  0  0  0  0  0  0
   -4.6143   -0.4503    1.3264 C   0  0  0  0  0  0  0  0  0  0  0  0
   -5.1244    0.7594    2.0866 C   0  0  0  0  0  0  0  0  0  0  0  0
   -5.9176   -0.5171    2.0900 C   0  0  0  0  0  0  0  0  0  0  0  0
   -1.8477   -1.7486   -0.0059 C   0  0  0  0  0  0  0  0  0  0  0  0
   -2.4977   -1.2659   -1.2394 C   0  0  0  0  0  0  0  0  0  0  0  0
   -0.9697   -1.4408   -1.2427 C   0  0  0  0  0  0  0  0  0  0  0  0
   -0.6731   -2.4979   -2.3501 C   0  0  0  0  0  0  0  0  0  0  0  0
   -0.9974   -3.9269   -1.9959 C   0  0  0  0  0  0  0  0  0  0  0  0
   -1.9566   -4.5621   -2.3955 O   0  0  0  0  0  0  0  0  0  0  0  0
   -0.1106   -4.4751   -1.1449 O   0  0  0  0  0  0  0  0  0  0  0  0
   -0.0508   -0.1806   -1.3059 C   0  0  0  0  0  0  0  0  0  0  0  0
   -0.6710    0.8082   -2.3529 C   0  0  0  0  0  0  0  0  0  0  0  0
   -0.7903    2.2213   -1.8434 C   0  0  0  0  0  0  0  0  0  0  0  0
    0.5322    2.7021   -1.4803 N   0  0  0  0  0  0  0  0  0  0  0  0
    0.3900    4.0894   -0.9872 C   0  0  0  0  0  0  0  0  0  0  0  0
    1.7096    4.7939   -0.9285 C   0  0  0  0  0  0  0  0  0  0  0  0
    1.7741    6.1888   -0.3535 C   0  0  0  0  0  0  0  0  0  0  0  0
    2.3990    5.0402    0.3906 C   0  0  0  0  0  0  0  0  0  0  0  0
    1.1502    1.8726   -0.4341 C   0  0  0  0  0  0  0  0  0  0  0  0
    2.9173   -4.0221    0.0802 H   0  0  0  0  0  0  0  0  0  0  0  0
    3.7174   -4.1333    1.6425 H   0  0  0  0  0  0  0  0  0  0  0  0
    4.4800   -3.2297    0.3318 H   0  0  0  0  0  0  0  0  0  0  0  0
    0.9475   -1.7892    2.3682 H   0  0  0  0  0  0  0  0  0  0  0  0
    1.5276   -3.4294    2.5202 H   0  0  0  0  0  0  0  0  0  0  0  0
    0.7516   -2.9275    1.0219 H   0  0  0  0  0  0  0  0  0  0  0  0
    3.1518   -0.6851    2.8439 H   0  0  0  0  0  0  0  0  0  0  0  0
    3.7409   -2.2936    3.2453 H   0  0  0  0  0  0  0  0  0  0  0  0
    4.6291   -1.2980    2.0910 H   0  0  0  0  0  0  0  0  0  0  0  0
    3.7980   -0.9146   -0.1095 H   0  0  0  0  0  0  0  0  0  0  0  0
    1.5306   -2.5140   -1.0902 H   0  0  0  0  0  0  0  0  0  0  0  0
    2.9820   -1.9422   -1.8973 H   0  0  0  0  0  0  0  0  0  0  0  0
    1.5373   -0.3791   -2.8947 H   0  0  0  0  0  0  0  0  0  0  0  0
    3.0878    1.8679   -2.3020 H   0  0  0  0  0  0  0  0  0  0  0  0
    2.4660    0.6934    1.1474 H   0  0  0  0  0  0  0  0  0  0  0  0
   -0.1790    1.6764    1.7138 H   0  0  0  0  0  0  0  0  0  0  0  0
    0.0547    0.0132    2.0621 H   0  0  0  0  0  0  0  0  0  0  0  0
   -2.2364    0.8999    2.1471 H   0  0  0  0  0  0  0  0  0  0  0  0
   -2.3130    1.0133    0.4091 H   0  0  0  0  0  0  0  0  0  0  0  0
   -3.6791   -2.3162    1.6893 H   0  0  0  0  0  0  0  0  0  0  0  0
   -3.3309   -1.1180    2.9045 H   0  0  0  0  0  0  0  0  0  0  0  0
   -4.7089   -0.4499    0.2490 H   0  0  0  0  0  0  0  0  0  0  0  0
   -4.6207    1.0488    3.0001 H   0  0  0  0  0  0  0  0  0  0  0  0
   -5.5216    1.5973    1.5231 H   0  0  0  0  0  0  0  0  0  0  0  0
   -5.9472   -1.1090    2.9982 H   0  0  0  0  0  0  0  0  0  0  0  0
   -6.8407   -0.5452    1.5193 H   0  0  0  0  0  0  0  0  0  0  0  0
   -1.9252   -2.8140    0.2193 H   0  0  0  0  0  0  0  0  0  0  0  0
   -3.1356   -1.9848   -1.7491 H   0  0  0  0  0  0  0  0  0  0  0  0
   -2.9283   -0.2753   -1.2691 H   0  0  0  0  0  0  0  0  0  0  0  0
   -1.2716   -2.2404   -3.2370 H   0  0  0  0  0  0  0  0  0  0  0  0
    0.3437   -2.4909   -2.7401 H   0  0  0  0  0  0  0  0  0  0  0  0
   -0.4553   -5.3750   -0.9686 H   0  0  0  0  0  0  0  0  0  0  0  0
   -1.6515    0.4901   -2.7086 H   0  0  0  0  0  0  0  0  0  0  0  0
   -0.0770    0.8134   -3.2788 H   0  0  0  0  0  0  0  0  0  0  0  0
   -1.1970    2.8384   -2.6523 H   0  0  0  0  0  0  0  0  0  0  0  0
   -1.4993    2.2928   -1.0149 H   0  0  0  0  0  0  0  0  0  0  0  0
   -0.1119    4.1087   -0.0132 H   0  0  0  0  0  0  0  0  0  0  0  0
   -0.2394    4.6627   -1.6808 H   0  0  0  0  0  0  0  0  0  0  0  0
    2.3209    4.6111   -1.8033 H   0  0  0  0  0  0  0  0  0  0  0  0
    0.8701    6.6264    0.0476 H   0  0  0  0  0  0  0  0  0  0  0  0
    2.4406    6.9062   -0.8157 H   0  0  0  0  0  0  0  0  0  0  0  0
    1.9188    4.7037    1.2977 H   0  0  0  0  0  0  0  0  0  0  0  0
    3.4783    4.9663    0.4090 H   0  0  0  0  0  0  0  0  0  0  0  0
    1.6178    2.4474    0.3722 H   0  0  0  0  0  0  0  0  0  0  0  0
  2  1  1  0  0  0  0
  3  2  1  0  0  0  0
  4  2  1  0  0  0  0
  5  2  1  0  0  0  0
  6  5  1  0  0  0  0
  7  6  1  0  0  0  0
  8  7  1  0  0  0  0
  9  8  1  0  0  0  0
 10  8  1  0  0  0  0
 10  5  1  0  0  0  0
 11 10  1  0  0  0  0
 12 11  1  0  0  0  0
 13 12  1  0  0  0  0
 14 13  1  0  0  0  0
 15 14  1  0  0  0  0
 16 15  1  0  0  0  0
 17 16  1  0  0  0  0
 18 17  1  0  0  0  0
 18 16  1  0  0  0  0
 19 14  1  0  0  0  0
 20 19  1  0  0  0  0
 21 20  1  0  0  0  0
 21 19  1  0  0  0  0
 22 21  1  0  0  0  0
 23 22  1  0  0  0  0
 24 23  2  0  0  0  0
 25 23  1  0  0  0  0
 26 21  1  0  0  0  0
 26  7  1  0  0  0  0
 26 11  1  0  0  0  0
 27 26  1  0  0  0  0
 28 27  1  0  0  0  0
 29 28  1  0  0  0  0
 30 29  1  0  0  0  0
 31 30  1  0  0  0  0
 32 31  1  0  0  0  0
 33 32  1  0  0  0  0
 33 31  1  0  0  0  0
 34 29  1  0  0  0  0
 34  8  1  0  0  0  0
 34 11  1  0  0  0  0
  1 35  1  0  0  0  0
  1 36  1  0  0  0  0
  1 37  1  0  0  0  0
  3 38  1  0  0  0  0
  3 39  1  0  0  0  0
  3 40  1  0  0  0  0
  4 41  1  0  0  0  0
  4 42  1  0  0  0  0
  4 43  1  0  0  0  0
  5 44  1  0  0  0  0
  6 45  1  0  0  0  0
  6 46  1  0  0  0  0
  7 47  1  0  0  0  0
  9 48  1  0  0  0  0
 10 49  1  0  0  0  0
 12 50  1  0  0  0  0
 12 51  1  0  0  0  0
 13 52  1  0  0  0  0
 13 53  1  0  0  0  0
 15 54  1  0  0  0  0
 15 55  1  0  0  0  0
 16 56  1  0  0  0  0
 17 57  1  0  0  0  0
 17 58  1  0  0  0  0
 18 59  1  0  0  0  0
 18 60  1  0  0  0  0
 19 61  1  0  0  0  0
 20 62  1  0  0  0  0
 20 63  1  0  0  0  0
 22 64  1  0  0  0  0
 22 65  1  0  0  0  0
 25 66  1  0  0  0  0
 27 67  1  0  0  0  0
 27 68  1  0  0  0  0
 28 69  1  0  0  0  0
 28 70  1  0  0  0  0
 30 71  1  0  0  0  0
 30 72  1  0  0  0  0
 31 73  1  0  0  0  0
 32 74  1  0  0  0  0
 32 75  1  0  0  0  0
 33 76  1  0  0  0  0
 33 77  1  0  0  0  0
 34 78  1  0  0  0  0
M  END
>  <energy>
182.21302959859801

$$$$
