CCCCCCCC(=O)OC1C2OC3(OC(CO)C(O)C(O)C3O)C13CC(O)C2CC3O
                    3D

 68 71  0  0  0  0  0  0  0  0999 V2000
   -5.2843   -4.0046   -1.1812 C   0  0  0  0  0  0  0  0  0  0  0  0
   -5.6768   -2.8634   -0.2587 C   0  0  0  0  0  0  0  0  0  0  0  0
   -5.3313   -1.5025   -0.8640 C   0  0  0  0  0  0  0  0  0  0  0  0
   -5.6067   -0.3688    0.1291 C   0  0  0  0  0  0  0  0  0  0  0  0
   -4.5306   -0.2091    1.2094 C   0  0  0  0  0  0  0  0  0  0  0  0
   -3.2617    0.4389    0.6588 C   0  0  0  0  0  0  0  0  0  0  0  0
   -2.2308    0.7172    1.7545 C   0  0  0  0  0  0  0  0  0  0  0  0
   -1.1962    1.6723    1.2230 C   0  0  0  0  0  0  0  0  0  0  0  0
   -1.2895    2.8970    1.2628 O   0  0  0  0  0  0  0  0  0  0  0  0
   -0.2095    0.9855    0.5917 O   0  0  0  0  0  0  0  0  0  0  0  0
    0.5599    1.7491   -0.3402 C   0  0  0  0  0  0  0  0  0  0  0  0
    1.5590    2.5321    0.3381 C   0  0  0  0  0  0  0  0  0  0  0  0
    2.3233    1.2999    0.8475 O   0  0  0  0  0  0  0  0  0  0  0  0
    2.2510    0.1310   -0.1321 C   0  0  0  0  0  0  0  0  0  0  0  0
    3.5986   -0.4033   -0.1947 O   0  0  0  0  0  0  0  0  0  0  0  0
    4.0908   -1.0550    1.0030 C   0  0  0  0  0  0  0  0  0  0  0  0
    4.4405   -0.0909    2.1609 C   0  0  0  0  0  0  0  0  0  0  0  0
    3.3240    0.3069    2.9482 O   0  0  0  0  0  0  0  0  0  0  0  0
    3.1887   -2.2349    1.3943 C   0  0  0  0  0  0  0  0  0  0  0  0
    3.4939   -2.8066    2.6686 O   0  0  0  0  0  0  0  0  0  0  0  0
    1.7062   -1.8601    1.3512 C   0  0  0  0  0  0  0  0  0  0  0  0
    0.9257   -3.0690    1.4787 O   0  0  0  0  0  0  0  0  0  0  0  0
    1.4068   -1.1893    0.0113 C   0  0  0  0  0  0  0  0  0  0  0  0
    0.0109   -1.2033   -0.2851 O   0  0  0  0  0  0  0  0  0  0  0  0
    1.7973    1.0138   -1.2454 C   0  0  0  0  0  0  0  0  0  0  0  0
    3.3662    1.7372   -1.5764 C   0  0  0  0  0  0  0  0  0  0  0  0
    3.4419    3.1664   -1.1182 C   0  0  0  0  0  0  0  0  0  0  0  0
    4.0151    4.0099   -2.0960 O   0  0  0  0  0  0  0  0  0  0  0  0
    1.9909    3.4334   -0.9465 C   0  0  0  0  0  0  0  0  0  0  0  0
    1.2848    2.9602   -2.4555 C   0  0  0  0  0  0  0  0  0  0  0  0
    1.1643    1.3435   -2.5572 C   0  0  0  0  0  0  0  0  0  0  0  0
    1.8169    0.8206   -3.6947 O   0  0  0  0  0  0  0  0  0  0  0  0
   -5.7208   -3.8743   -2.1759 H   0  0  0  0  0  0  0  0  0  0  0  0
   -5.6347   -4.9577   -0.7675 H   0  0  0  0  0  0  0  0  0  0  0  0
   -4.1937   -4.0568   -1.2786 H   0  0  0  0  0  0  0  0  0  0  0  0
   -6.7552   -2.9122   -0.0585 H   0  0  0  0  0  0  0  0  0  0  0  0
   -5.1748   -3.0049    0.7043 H   0  0  0  0  0  0  0  0  0  0  0  0
   -5.9534   -1.3457   -1.7553 H   0  0  0  0  0  0  0  0  0  0  0  0
   -4.2888   -1.4846   -1.2005 H   0  0  0  0  0  0  0  0  0  0  0  0
   -5.7052    0.5740   -0.4234 H   0  0  0  0  0  0  0  0  0  0  0  0
   -6.5772   -0.5409    0.6172 H   0  0  0  0  0  0  0  0  0  0  0  0
   -4.2912   -1.1730    1.6666 H   0  0  0  0  0  0  0  0  0  0  0  0
   -4.9386    0.4296    2.0015 H   0  0  0  0  0  0  0  0  0  0  0  0
   -2.8018   -0.2057   -0.1025 H   0  0  0  0  0  0  0  0  0  0  0  0
   -3.5313    1.3751    0.1490 H   0  0  0  0  0  0  0  0  0  0  0  0
   -2.6919    1.1861    2.6304 H   0  0  0  0  0  0  0  0  0  0  0  0
   -1.7460   -0.2076    2.0963 H   0  0  0  0  0  0  0  0  0  0  0  0
   -0.1799    2.3286   -0.8975 H   0  0  0  0  0  0  0  0  0  0  0  0
    1.2797    3.1266    1.2066 H   0  0  0  0  0  0  0  0  0  0  0  0
    5.0577   -1.4797    0.6930 H   0  0  0  0  0  0  0  0  0  0  0  0
    4.9248    0.8173    1.7866 H   0  0  0  0  0  0  0  0  0  0  0  0
    5.1360   -0.5873    2.8472 H   0  0  0  0  0  0  0  0  0  0  0  0
    2.8416    0.9692    2.4122 H   0  0  0  0  0  0  0  0  0  0  0  0
    3.3483   -3.0359    0.6618 H   0  0  0  0  0  0  0  0  0  0  0  0
    3.9940   -3.6283    2.5304 H   0  0  0  0  0  0  0  0  0  0  0  0
    1.4002   -1.2216    2.1825 H   0  0  0  0  0  0  0  0  0  0  0  0
    1.2181   -3.4569    2.3286 H   0  0  0  0  0  0  0  0  0  0  0  0
    1.7946   -1.8612   -0.7734 H   0  0  0  0  0  0  0  0  0  0  0  0
   -0.3259   -2.0216    0.1386 H   0  0  0  0  0  0  0  0  0  0  0  0
    3.6175    1.6360   -2.6402 H   0  0  0  0  0  0  0  0  0  0  0  0
    4.2259    1.2475   -1.1193 H   0  0  0  0  0  0  0  0  0  0  0  0
    4.0056    3.2772   -0.1873 H   0  0  0  0  0  0  0  0  0  0  0  0
    4.8034    3.5602   -2.4474 H   0  0  0  0  0  0  0  0  0  0  0  0
    1.7403    4.4923   -0.8054 H   0  0  0  0  0  0  0  0  0  0  0  0
    1.8807    3.3662   -3.2823 H   0  0  0  0  0  0  0  0  0  0  0  0
    0.2873    3.4165   -2.5207 H   0  0  0  0  0  0  0  0  0  0  0  0
    0.1088    1.0467   -2.6219 H   0  0  0  0  0  0  0  0  0  0  0  0
    1.7065   -0.1474   -3.6806 H   0  0  0  0  0  0  0  0  0  0  0  0
  2  1  1  0  0  0  0
  3  2  1  0  0  0  0
  4  3  1  0  0  0  0
  5  4  1  0  0  0  0
  6  5  1  0  0  0  0
  7  6  1  0  0  0  0
  8  7  1  0  0  0  0
  9  8  2  0  0  0  0
 10  8  1  0  0  0  0
 11 10  1  0  0  0  0
 12 11  1  0  0  0  0
 13 12  1  0  0  0  0
 14 13  1  0  0  0  0
 15 14  1  0  0  0  0
 16 15  1  0  0  0  0
 17 16  1  0  0  0  0
 18 17  1  0  0  0  0
 19 16  1  0  0  0  0
 20 19  1  0  0  0  0
 21 19  1  0  0  0  0
 22 21  1  0  0  0  0
 23 21  1  0  0  0  0
 23 14  1  0  0  0  0
 24 23  1  0  0  0  0
 25 14  1  0  0  0  0
 25 11  1  0  0  0  0
 26 25  1  0  0  0  0
 27 26  1  0  0  0  0
 28 27  1  0  0  0  0
 29 27  1  0  0  0  0
 29 12  1  0  0  0  0
 30 29  1  0  0  0  0
 31 30  1  0  0  0  0
 31 25  1  0  0  0  0
 32 31  1  0  0  0  0
  1 33  1  0  0  0  0
  1 34  1  0  0  0  0
  1 35  1  0  0  0  0
  2 36  1  0  0  0  0
  2 37  1  0  0  0  0
  3 38  1  0  0  0  0
  3 39  1  0  0  0  0
  4 40  1  0  0  0  0
  4 41  1  0  0  0  0
  5 42  1  0  0  0  0
  5 43  1  0  0  0  0
  6 44  1  0  0  0  0
  6 45  1  0  0  0  0
  7 46  1  0  0  0  0
  7 47  1  0  0  0  0
 11 48  1  0  0  0  0
 12 49  1  0  0  0  0
 16 50  1  0  0  0  0
 17 51  1  0  0  0  0
 17 52  1  0  0  0  0
 18 53  1  0  0  0  0
 19 54  1  0  0  0  0
 20 55  1  0  0  0  0
 21 56  1  0  0  0  0
 22 57  1  0  0  0  0
 23 58  1  0  0  0  0
 24 59  1  0  0  0  0
 26 60  1  0  0  0  0
 26 61  1  0  0  0  0
 27 62  1  0  0  0  0
 28 63  1  0  0  0  0
 29 64  1  0  0  0  0
 30 65  1  0  0  0  0
 30 66  1  0  0  0  0
 31 67  1  0  0  0  0
 32 68  1  0  0  0  0
M  END
>  <energy>
320.41069250440779

$$$$
