C=c1c(O)c(C)c(O)c2c1=C1C=C(CCCN1CCCCCCN1CCSCC1)C1(NC3CCCN31)O2
                    3D

 79 84  0  0  0  0  0  0  0  0999 V2000
    4.2763   -2.2201   -1.3624 C   0  0  0  0  0  0  0  0  0  0  0  0
    3.3906   -1.7616   -0.4544 C   0  0  0  0  0  0  0  0  0  0  0  0
    3.1515   -2.4728    0.8052 C   0  0  0  0  0  0  0  0  0  0  0  0
    3.1675   -3.8523    0.7874 O   0  0  0  0  0  0  0  0  0  0  0  0
    2.9011   -1.7732    1.9346 C   0  0  0  0  0  0  0  0  0  0  0  0
    2.6096   -2.4466    3.2452 C   0  0  0  0  0  0  0  0  0  0  0  0
    2.8793   -0.3015    1.8749 C   0  0  0  0  0  0  0  0  0  0  0  0
    2.9058    0.3755    3.0832 O   0  0  0  0  0  0  0  0  0  0  0  0
    2.8193    0.3864    0.7093 C   0  0  0  0  0  0  0  0  0  0  0  0
    2.8264   -0.3942   -0.5945 C   0  0  0  0  0  0  0  0  0  0  0  0
    2.2486    0.0981   -1.7384 C   0  0  0  0  0  0  0  0  0  0  0  0
    2.2100    1.5736   -1.8059 C   0  0  0  0  0  0  0  0  0  0  0  0
    1.2053    2.0836   -1.0792 C   0  0  0  0  0  0  0  0  0  0  0  0
   -0.1834    1.5028   -1.2570 C   0  0  0  0  0  0  0  0  0  0  0  0
   -0.5243    0.9782   -2.6827 C   0  0  0  0  0  0  0  0  0  0  0  0
    0.5748    0.3148   -3.5475 C   0  0  0  0  0  0  0  0  0  0  0  0
    1.5161   -0.5294   -2.7659 N   0  0  0  0  0  0  0  0  0  0  0  0
    1.4382   -1.9648   -3.0729 C   0  0  0  0  0  0  0  0  0  0  0  0
    0.0580   -2.5928   -2.8420 C   0  0  0  0  0  0  0  0  0  0  0  0
   -0.3963   -2.6222   -1.3804 C   0  0  0  0  0  0  0  0  0  0  0  0
   -1.8357   -3.1431   -1.2870 C   0  0  0  0  0  0  0  0  0  0  0  0
   -2.4631   -3.0186    0.1051 C   0  0  0  0  0  0  0  0  0  0  0  0
   -2.8123   -1.5700    0.4749 C   0  0  0  0  0  0  0  0  0  0  0  0
   -3.3961   -1.5280    1.8214 N   0  0  0  0  0  0  0  0  0  0  0  0
   -4.8672   -1.6457    1.8346 C   0  0  0  0  0  0  0  0  0  0  0  0
   -5.6680   -0.4292    1.3353 C   0  0  0  0  0  0  0  0  0  0  0  0
   -5.2761    1.1071    2.2281 S   0  0  0  0  0  0  0  0  0  0  0  0
   -3.4650    1.0074    2.1038 C   0  0  0  0  0  0  0  0  0  0  0  0
   -2.9522   -0.3537    2.5922 C   0  0  0  0  0  0  0  0  0  0  0  0
    1.7189    2.5424    0.2554 C   0  0  0  0  0  0  0  0  0  0  0  0
    0.6918    2.6988    1.2734 N   0  0  0  0  0  0  0  0  0  0  0  0
    1.1251    4.0599    1.5589 C   0  0  0  0  0  0  0  0  0  0  0  0
    0.0579    5.1087    1.2965 C   0  0  0  0  0  0  0  0  0  0  0  0
    0.0377    5.2359   -0.2148 C   0  0  0  0  0  0  0  0  0  0  0  0
    1.4648    4.8899   -0.6064 C   0  0  0  0  0  0  0  0  0  0  0  0
    2.0149    3.9744    0.3979 N   0  0  0  0  0  0  0  0  0  0  0  0
    2.8642    1.7942    0.7477 O   0  0  0  0  0  0  0  0  0  0  0  0
    4.8158   -3.1526   -1.2452 H   0  0  0  0  0  0  0  0  0  0  0  0
    4.5246   -1.6374   -2.2453 H   0  0  0  0  0  0  0  0  0  0  0  0
    3.1757   -4.1385   -0.1395 H   0  0  0  0  0  0  0  0  0  0  0  0
    2.4329   -3.5210    3.1432 H   0  0  0  0  0  0  0  0  0  0  0  0
    3.4476   -2.3243    3.9412 H   0  0  0  0  0  0  0  0  0  0  0  0
    1.7068   -2.0270    3.7030 H   0  0  0  0  0  0  0  0  0  0  0  0
    3.5319   -0.0903    3.6634 H   0  0  0  0  0  0  0  0  0  0  0  0
    3.2158    2.0025   -1.7315 H   0  0  0  0  0  0  0  0  0  0  0  0
   -0.9275    2.2672   -1.0066 H   0  0  0  0  0  0  0  0  0  0  0  0
   -0.3346    0.6926   -0.5326 H   0  0  0  0  0  0  0  0  0  0  0  0
   -0.9246    1.8178   -3.2656 H   0  0  0  0  0  0  0  0  0  0  0  0
   -1.3621    0.2793   -2.5805 H   0  0  0  0  0  0  0  0  0  0  0  0
    1.1455    1.0756   -4.0935 H   0  0  0  0  0  0  0  0  0  0  0  0
    0.0930   -0.2662   -4.3435 H   0  0  0  0  0  0  0  0  0  0  0  0
    1.6884   -2.0835   -4.1354 H   0  0  0  0  0  0  0  0  0  0  0  0
    2.1687   -2.5686   -2.5427 H   0  0  0  0  0  0  0  0  0  0  0  0
    0.0852   -3.6233   -3.2227 H   0  0  0  0  0  0  0  0  0  0  0  0
   -0.6955   -2.0762   -3.4435 H   0  0  0  0  0  0  0  0  0  0  0  0
   -0.3271   -1.6219   -0.9524 H   0  0  0  0  0  0  0  0  0  0  0  0
    0.2707   -3.2674   -0.7950 H   0  0  0  0  0  0  0  0  0  0  0  0
   -2.4709   -2.6216   -2.0112 H   0  0  0  0  0  0  0  0  0  0  0  0
   -1.8355   -4.2023   -1.5775 H   0  0  0  0  0  0  0  0  0  0  0  0
   -3.3762   -3.6281    0.1150 H   0  0  0  0  0  0  0  0  0  0  0  0
   -1.7873   -3.4495    0.8552 H   0  0  0  0  0  0  0  0  0  0  0  0
   -3.4767   -1.1347   -0.2782 H   0  0  0  0  0  0  0  0  0  0  0  0
   -1.8895   -0.9803    0.4450 H   0  0  0  0  0  0  0  0  0  0  0  0
   -5.1851   -1.8758    2.8623 H   0  0  0  0  0  0  0  0  0  0  0  0
   -5.1678   -2.5202    1.2443 H   0  0  0  0  0  0  0  0  0  0  0  0
   -5.4982   -0.2582    0.2699 H   0  0  0  0  0  0  0  0  0  0  0  0
   -6.7376   -0.6242    1.4598 H   0  0  0  0  0  0  0  0  0  0  0  0
   -3.0382    1.8055    2.7195 H   0  0  0  0  0  0  0  0  0  0  0  0
   -3.1704    1.1981    1.0666 H   0  0  0  0  0  0  0  0  0  0  0  0
   -3.2411   -0.4955    3.6424 H   0  0  0  0  0  0  0  0  0  0  0  0
   -1.8558   -0.3295    2.6122 H   0  0  0  0  0  0  0  0  0  0  0  0
    0.9285    2.0742    2.0435 H   0  0  0  0  0  0  0  0  0  0  0  0
    1.6333    4.1799    2.5212 H   0  0  0  0  0  0  0  0  0  0  0  0
    0.3470    6.0684    1.7449 H   0  0  0  0  0  0  0  0  0  0  0  0
   -0.9202    4.8332    1.7030 H   0  0  0  0  0  0  0  0  0  0  0  0
   -0.6618    4.5147   -0.6452 H   0  0  0  0  0  0  0  0  0  0  0  0
   -0.2598    6.2378   -0.5450 H   0  0  0  0  0  0  0  0  0  0  0  0
    1.5533    4.5502   -1.6420 H   0  0  0  0  0  0  0  0  0  0  0  0
    2.0648    5.8090   -0.5545 H   0  0  0  0  0  0  0  0  0  0  0  0
  2  1  2  0  0  0  0
  3  2  1  0  0  0  0
  4  3  1  0  0  0  0
  5  3  2  0  0  0  0
  6  5  1  0  0  0  0
  7  5  1  0  0  0  0
  8  7  1  0  0  0  0
  9  7  2  0  0  0  0
 10  9  1  0  0  0  0
 10  2  1  0  0  0  0
 11 10  2  0  0  0  0
 12 11  1  0  0  0  0
 13 12  2  0  0  0  0
 14 13  1  0  0  0  0
 15 14  1  0  0  0  0
 16 15  1  0  0  0  0
 17 16  1  0  0  0  0
 17 11  1  0  0  0  0
 18 17  1  0  0  0  0
 19 18  1  0  0  0  0
 20 19  1  0  0  0  0
 21 20  1  0  0  0  0
 22 21  1  0  0  0  0
 23 22  1  0  0  0  0
 24 23  1  0  0  0  0
 25 24  1  0  0  0  0
 26 25  1  0  0  0  0
 27 26  1  0  0  0  0
 28 27  1  0  0  0  0
 29 28  1  0  0  0  0
 29 24  1  0  0  0  0
 30 13  1  0  0  0  0
 31 30  1  0  0  0  0
 32 31  1  0  0  0  0
 33 32  1  0  0  0  0
 34 33  1  0  0  0  0
 35 34  1  0  0  0  0
 36 35  1  0  0  0  0
 36 32  1  0  0  0  0
 36 30  1  0  0  0  0
 37 30  1  0  0  0  0
 37  9  1  0  0  0  0
  1 38  1  0  0  0  0
  1 39  1  0  0  0  0
  4 40  1  0  0  0  0
  6 41  1  0  0  0  0
  6 42  1  0  0  0  0
  6 43  1  0  0  0  0
  8 44  1  0  0  0  0
 12 45  1  0  0  0  0
 14 46  1  0  0  0  0
 14 47  1  0  0  0  0
 15 48  1  0  0  0  0
 15 49  1  0  0  0  0
 16 50  1  0  0  0  0
 16 51  1  0  0  0  0
 18 52  1  0  0  0  0
 18 53  1  0  0  0  0
 19 54  1  0  0  0  0
 19 55  1  0  0  0  0
 20 56  1  0  0  0  0
 20 57  1  0  0  0  0
 21 58  1  0  0  0  0
 21 59  1  0  0  0  0
 22 60  1  0  0  0  0
 22 61  1  0  0  0  0
 23 62  1  0  0  0  0
 23 63  1  0  0  0  0
 25 64  1  0  0  0  0
 25 65  1  0  0  0  0
 26 66  1  0  0  0  0
 26 67  1  0  0  0  0
 28 68  1  0  0  0  0
 28 69  1  0  0  0  0
 29 70  1  0  0  0  0
 29 71  1  0  0  0  0
 31 72  1  0  0  0  0
 32 73  1  0  0  0  0
 33 74  1  0  0  0  0
 33 75  1  0  0  0  0
 34 76  1  0  0  0  0
 34 77  1  0  0  0  0
 35 78  1  0  0  0  0
 35 79  1  0  0  0  0
M  END
>  <energy>
118.16811634522753

$$$$
