CC(=O)OC1=C2CCC(C)(CC1=O)OOC2(C)CCl
                    3D

 36 37  0  0  0  0  0  0  0  0999 V2000
   -4.5611    0.1318   -0.3374 C   0  0  0  0  0  0  0  0  0  0  0  0
   -3.1898   -0.4502   -0.1549 C   0  0  0  0  0  0  0  0  0  0  0  0
   -2.9186   -1.6236   -0.3644 O   0  0  0  0  0  0  0  0  0  0  0  0
   -2.3273    0.5226    0.2760 O   0  0  0  0  0  0  0  0  0  0  0  0
   -1.0766    0.1802    0.8220 C   0  0  0  0  0  0  0  0  0  0  0  0
    0.0419    0.9302    0.6734 C   0  0  0  0  0  0  0  0  0  0  0  0
    1.1899    0.6767    1.6405 C   0  0  0  0  0  0  0  0  0  0  0  0
    2.0259   -0.5702    1.3450 C   0  0  0  0  0  0  0  0  0  0  0  0
    1.6064   -1.3353    0.0699 C   0  0  0  0  0  0  0  0  0  0  0  0
    2.6084   -2.4864   -0.1315 C   0  0  0  0  0  0  0  0  0  0  0  0
    0.1849   -1.9499    0.1536 C   0  0  0  0  0  0  0  0  0  0  0  0
   -0.7355   -1.2424    1.1535 C   0  0  0  0  0  0  0  0  0  0  0  0
   -1.1669   -1.7755    2.1720 O   0  0  0  0  0  0  0  0  0  0  0  0
    1.8625   -0.4398   -1.0468 O   0  0  0  0  0  0  0  0  0  0  0  0
    0.6297    0.2240   -1.4940 O   0  0  0  0  0  0  0  0  0  0  0  0
    0.4203    1.4430   -0.7247 C   0  0  0  0  0  0  0  0  0  0  0  0
    1.7087    2.2987   -0.7584 C   0  0  0  0  0  0  0  0  0  0  0  0
   -0.6749    2.3114   -1.4215 C   0  0  0  0  0  0  0  0  0  0  0  0
   -1.7547    1.4491   -2.5562 Cl  0  0  0  0  0  0  0  0  0  0  0  0
   -5.2121   -0.2202    0.4644 H   0  0  0  0  0  0  0  0  0  0  0  0
   -4.5363    1.2263   -0.3111 H   0  0  0  0  0  0  0  0  0  0  0  0
   -4.9521   -0.1700   -1.3103 H   0  0  0  0  0  0  0  0  0  0  0  0
    0.7871    0.5938    2.6606 H   0  0  0  0  0  0  0  0  0  0  0  0
    1.8280    1.5648    1.7084 H   0  0  0  0  0  0  0  0  0  0  0  0
    1.9866   -1.2405    2.2137 H   0  0  0  0  0  0  0  0  0  0  0  0
    3.0710   -0.2480    1.2527 H   0  0  0  0  0  0  0  0  0  0  0  0
    3.6328   -2.1099   -0.2116 H   0  0  0  0  0  0  0  0  0  0  0  0
    2.5726   -3.2027    0.6953 H   0  0  0  0  0  0  0  0  0  0  0  0
    2.4001   -3.0198   -1.0656 H   0  0  0  0  0  0  0  0  0  0  0  0
   -0.3058   -1.9616   -0.8247 H   0  0  0  0  0  0  0  0  0  0  0  0
    0.2315   -2.9962    0.4841 H   0  0  0  0  0  0  0  0  0  0  0  0
    1.9704    2.5596   -1.7903 H   0  0  0  0  0  0  0  0  0  0  0  0
    2.5895    1.7786   -0.3697 H   0  0  0  0  0  0  0  0  0  0  0  0
    1.5801    3.2244   -0.1891 H   0  0  0  0  0  0  0  0  0  0  0  0
   -1.3002    2.8312   -0.6867 H   0  0  0  0  0  0  0  0  0  0  0  0
   -0.2165    3.0957   -2.0360 H   0  0  0  0  0  0  0  0  0  0  0  0
  2  1  1  0  0  0  0
  3  2  2  0  0  0  0
  4  2  1  0  0  0  0
  5  4  1  0  0  0  0
  6  5  2  0  0  0  0
  7  6  1  0  0  0  0
  8  7  1  0  0  0  0
  9  8  1  0  0  0  0
 10  9  1  0  0  0  0
 11  9  1  0  0  0  0
 12 11  1  0  0  0  0
 12  5  1  0  0  0  0
 13 12  2  0  0  0  0
 14  9  1  0  0  0  0
 15 14  1  0  0  0  0
 16 15  1  0  0  0  0
 16  6  1  0  0  0  0
 17 16  1  0  0  0  0
 18 16  1  0  0  0  0
 19 18  1  0  0  0  0
  1 20  1  0  0  0  0
  1 21  1  0  0  0  0
  1 22  1  0  0  0  0
  7 23  1  0  0  0  0
  7 24  1  0  0  0  0
  8 25  1  0  0  0  0
  8 26  1  0  0  0  0
 10 27  1  0  0  0  0
 10 28  1  0  0  0  0
 10 29  1  0  0  0  0
 11 30  1  0  0  0  0
 11 31  1  0  0  0  0
 17 32  1  0  0  0  0
 17 33  1  0  0  0  0
 17 34  1  0  0  0  0
 18 35  1  0  0  0  0
 18 36  1  0  0  0  0
M  END
>  <energy>
111.94478672249447

$$$$
