CC1(C)CCC2C3CC4CC5(CC(O)(C3)C45)N3CCC2(O)C1N(CC1CC1)CC3CO
                    3D

 73 79  0  0  0  0  0  0  0  0999 V2000
   -4.2581   -1.2452    0.1547 C   0  0  0  0  0  0  0  0  0  0  0  0
   -3.2885   -0.0862    0.5574 C   0  0  0  0  0  0  0  0  0  0  0  0
   -4.2730    1.1107    0.7544 C   0  0  0  0  0  0  0  0  0  0  0  0
   -2.5716   -0.4726    1.8745 C   0  0  0  0  0  0  0  0  0  0  0  0
   -1.4710   -1.5421    1.7219 C   0  0  0  0  0  0  0  0  0  0  0  0
   -0.4463   -1.3259    0.5333 C   0  0  0  0  0  0  0  0  0  0  0  0
    0.7154   -2.3745    0.6936 C   0  0  0  0  0  0  0  0  0  0  0  0
    1.6934   -1.8602    1.7711 C   0  0  0  0  0  0  0  0  0  0  0  0
    2.8374   -1.0165    1.2495 C   0  0  0  0  0  0  0  0  0  0  0  0
    2.9916    0.3374    0.5022 C   0  0  0  0  0  0  0  0  0  0  0  0
    2.8087   -0.2684   -0.9239 C   0  0  0  0  0  0  0  0  0  0  0  0
    3.4210   -1.2818   -1.9076 C   0  0  0  0  0  0  0  0  0  0  0  0
    2.8806   -2.5184   -0.9309 C   0  0  0  0  0  0  0  0  0  0  0  0
    3.6930   -3.6953   -1.2070 O   0  0  0  0  0  0  0  0  0  0  0  0
    1.4786   -3.0501   -0.4816 C   0  0  0  0  0  0  0  0  0  0  0  0
    3.4640   -1.5652    0.0419 C   0  0  0  0  0  0  0  0  0  0  0  0
    1.3681   -0.0406   -1.2711 N   0  0  0  0  0  0  0  0  0  0  0  0
    0.7949   -0.8443   -2.3706 C   0  0  0  0  0  0  0  0  0  0  0  0
   -0.6696   -1.1576   -2.1960 C   0  0  0  0  0  0  0  0  0  0  0  0
   -1.2838   -1.1703   -0.7819 C   0  0  0  0  0  0  0  0  0  0  0  0
   -2.1227   -2.3381   -0.8847 O   0  0  0  0  0  0  0  0  0  0  0  0
   -2.1538    0.1970   -0.5618 C   0  0  0  0  0  0  0  0  0  0  0  0
   -1.1752    1.3578   -0.3356 N   0  0  0  0  0  0  0  0  0  0  0  0
   -1.6503    2.5180    0.4225 C   0  0  0  0  0  0  0  0  0  0  0  0
   -0.5489    3.3191    1.0700 C   0  0  0  0  0  0  0  0  0  0  0  0
   -0.7298    3.8279    2.4875 C   0  0  0  0  0  0  0  0  0  0  0  0
    0.2586    2.7361    2.2099 C   0  0  0  0  0  0  0  0  0  0  0  0
   -0.4532    1.7965   -1.5623 C   0  0  0  0  0  0  0  0  0  0  0  0
    1.0827    1.4019   -1.6987 C   0  0  0  0  0  0  0  0  0  0  0  0
    1.9784    2.5482   -1.1641 C   0  0  0  0  0  0  0  0  0  0  0  0
    1.7629    3.7504   -1.9128 O   0  0  0  0  0  0  0  0  0  0  0  0
   -4.4974   -1.2044   -0.9140 H   0  0  0  0  0  0  0  0  0  0  0  0
   -5.2102   -1.2016    0.6991 H   0  0  0  0  0  0  0  0  0  0  0  0
   -3.8831   -2.2399    0.4072 H   0  0  0  0  0  0  0  0  0  0  0  0
   -4.0101    1.7693    1.5842 H   0  0  0  0  0  0  0  0  0  0  0  0
   -5.2875    0.7912    1.0136 H   0  0  0  0  0  0  0  0  0  0  0  0
   -4.3617    1.6986   -0.1632 H   0  0  0  0  0  0  0  0  0  0  0  0
   -2.1112    0.4079    2.3336 H   0  0  0  0  0  0  0  0  0  0  0  0
   -3.3073   -0.8265    2.6100 H   0  0  0  0  0  0  0  0  0  0  0  0
   -0.9364   -1.5868    2.6773 H   0  0  0  0  0  0  0  0  0  0  0  0
   -1.9478   -2.5233    1.6166 H   0  0  0  0  0  0  0  0  0  0  0  0
    0.0200   -0.3621    0.7620 H   0  0  0  0  0  0  0  0  0  0  0  0
    0.2098   -3.2325    1.1655 H   0  0  0  0  0  0  0  0  0  0  0  0
    2.1246   -2.7402    2.2701 H   0  0  0  0  0  0  0  0  0  0  0  0
    1.1846   -1.3060    2.5663 H   0  0  0  0  0  0  0  0  0  0  0  0
    3.5404   -0.9834    2.0986 H   0  0  0  0  0  0  0  0  0  0  0  0
    3.9812    0.8065    0.6260 H   0  0  0  0  0  0  0  0  0  0  0  0
    2.2617    1.0544    0.8814 H   0  0  0  0  0  0  0  0  0  0  0  0
    3.1014   -1.2952   -2.9542 H   0  0  0  0  0  0  0  0  0  0  0  0
    4.5190   -1.2092   -2.0046 H   0  0  0  0  0  0  0  0  0  0  0  0
    3.8465   -4.1059   -0.3381 H   0  0  0  0  0  0  0  0  0  0  0  0
    0.8174   -3.2775   -1.3210 H   0  0  0  0  0  0  0  0  0  0  0  0
    1.6760   -4.0622   -0.0870 H   0  0  0  0  0  0  0  0  0  0  0  0
    4.5645   -1.6030    0.1327 H   0  0  0  0  0  0  0  0  0  0  0  0
    0.9446   -0.3841   -3.3582 H   0  0  0  0  0  0  0  0  0  0  0  0
    1.2520   -1.8140   -2.5415 H   0  0  0  0  0  0  0  0  0  0  0  0
   -0.8269   -2.1364   -2.6788 H   0  0  0  0  0  0  0  0  0  0  0  0
   -1.2653   -0.5083   -2.8499 H   0  0  0  0  0  0  0  0  0  0  0  0
   -1.5589   -3.1224   -0.7834 H   0  0  0  0  0  0  0  0  0  0  0  0
   -2.7242    0.4066   -1.4776 H   0  0  0  0  0  0  0  0  0  0  0  0
   -2.2208    2.1928    1.2754 H   0  0  0  0  0  0  0  0  0  0  0  0
   -2.2943    3.1674   -0.1824 H   0  0  0  0  0  0  0  0  0  0  0  0
   -0.0733    4.0038    0.3788 H   0  0  0  0  0  0  0  0  0  0  0  0
   -0.3403    4.8081    2.7375 H   0  0  0  0  0  0  0  0  0  0  0  0
   -1.6248    3.5597    3.0376 H   0  0  0  0  0  0  0  0  0  0  0  0
    0.0174    1.7309    2.5392 H   0  0  0  0  0  0  0  0  0  0  0  0
    1.3115    2.9810    2.2749 H   0  0  0  0  0  0  0  0  0  0  0  0
   -0.5339    2.8854   -1.6741 H   0  0  0  0  0  0  0  0  0  0  0  0
   -0.9900    1.4572   -2.4525 H   0  0  0  0  0  0  0  0  0  0  0  0
    1.2873    1.4662   -2.7789 H   0  0  0  0  0  0  0  0  0  0  0  0
    1.7903    2.7766   -0.1178 H   0  0  0  0  0  0  0  0  0  0  0  0
    3.0353    2.3048   -1.2974 H   0  0  0  0  0  0  0  0  0  0  0  0
    2.3863    4.4092   -1.5666 H   0  0  0  0  0  0  0  0  0  0  0  0
  2  1  1  0  0  0  0
  3  2  1  0  0  0  0
  4  2  1  0  0  0  0
  5  4  1  0  0  0  0
  6  5  1  0  0  0  0
  7  6  1  0  0  0  0
  8  7  1  0  0  0  0
  9  8  1  0  0  0  0
 10  9  1  0  0  0  0
 11 10  1  0  0  0  0
 12 11  1  0  0  0  0
 13 12  1  0  0  0  0
 14 13  1  0  0  0  0
 15 13  1  0  0  0  0
 15  7  1  0  0  0  0
 16 13  1  0  0  0  0
 16  9  1  0  0  0  0
 16 11  1  0  0  0  0
 17 11  1  0  0  0  0
 18 17  1  0  0  0  0
 19 18  1  0  0  0  0
 20 19  1  0  0  0  0
 20  6  1  0  0  0  0
 21 20  1  0  0  0  0
 22 20  1  0  0  0  0
 22  2  1  0  0  0  0
 23 22  1  0  0  0  0
 24 23  1  0  0  0  0
 25 24  1  0  0  0  0
 26 25  1  0  0  0  0
 27 26  1  0  0  0  0
 27 25  1  0  0  0  0
 28 23  1  0  0  0  0
 29 28  1  0  0  0  0
 29 17  1  0  0  0  0
 30 29  1  0  0  0  0
 31 30  1  0  0  0  0
  1 32  1  0  0  0  0
  1 33  1  0  0  0  0
  1 34  1  0  0  0  0
  3 35  1  0  0  0  0
  3 36  1  0  0  0  0
  3 37  1  0  0  0  0
  4 38  1  0  0  0  0
  4 39  1  0  0  0  0
  5 40  1  0  0  0  0
  5 41  1  0  0  0  0
  6 42  1  0  0  0  0
  7 43  1  0  0  0  0
  8 44  1  0  0  0  0
  8 45  1  0  0  0  0
  9 46  1  0  0  0  0
 10 47  1  0  0  0  0
 10 48  1  0  0  0  0
 12 49  1  0  0  0  0
 12 50  1  0  0  0  0
 14 51  1  0  0  0  0
 15 52  1  0  0  0  0
 15 53  1  0  0  0  0
 16 54  1  0  0  0  0
 18 55  1  0  0  0  0
 18 56  1  0  0  0  0
 19 57  1  0  0  0  0
 19 58  1  0  0  0  0
 21 59  1  0  0  0  0
 22 60  1  0  0  0  0
 24 61  1  0  0  0  0
 24 62  1  0  0  0  0
 25 63  1  0  0  0  0
 26 64  1  0  0  0  0
 26 65  1  0  0  0  0
 27 66  1  0  0  0  0
 27 67  1  0  0  0  0
 28 68  1  0  0  0  0
 28 69  1  0  0  0  0
 29 70  1  0  0  0  0
 30 71  1  0  0  0  0
 30 72  1  0  0  0  0
 31 73  1  0  0  0  0
M  END
>  <energy>
349.80198296395508

$$$$
