CC(C)CC(C)(C)NC(=O)OCC1C2CC13CCN(C)C2O3
                    3D

 52 54  0  0  0  0  0  0  0  0999 V2000
   -3.8244    1.9915   -1.4264 C   0  0  0  0  0  0  0  0  0  0  0  0
   -3.6259    1.3813   -0.0349 C   0  0  0  0  0  0  0  0  0  0  0  0
   -3.1517    2.4821    0.9216 C   0  0  0  0  0  0  0  0  0  0  0  0
   -2.6190    0.2193   -0.1225 C   0  0  0  0  0  0  0  0  0  0  0  0
   -2.8782   -1.0298    0.7707 C   0  0  0  0  0  0  0  0  0  0  0  0
   -3.0718   -0.6378    2.2443 C   0  0  0  0  0  0  0  0  0  0  0  0
   -4.1187   -1.8177    0.3076 C   0  0  0  0  0  0  0  0  0  0  0  0
   -1.6885   -1.8967    0.7127 N   0  0  0  0  0  0  0  0  0  0  0  0
   -1.1294   -2.3469   -0.4465 C   0  0  0  0  0  0  0  0  0  0  0  0
   -1.6636   -2.3720   -1.5465 O   0  0  0  0  0  0  0  0  0  0  0  0
    0.1664   -2.6295   -0.2101 O   0  0  0  0  0  0  0  0  0  0  0  0
    1.0525   -2.5028   -1.3394 C   0  0  0  0  0  0  0  0  0  0  0  0
    2.3320   -1.9147   -0.7507 C   0  0  0  0  0  0  0  0  0  0  0  0
    3.5598   -1.0516   -1.3621 C   0  0  0  0  0  0  0  0  0  0  0  0
    2.4545   -0.0333   -1.5353 C   0  0  0  0  0  0  0  0  0  0  0  0
    2.2117   -0.5017    0.1003 C   0  0  0  0  0  0  0  0  0  0  0  0
    1.9075    0.9439    0.4510 C   0  0  0  0  0  0  0  0  0  0  0  0
    3.3080    1.7010    0.5119 C   0  0  0  0  0  0  0  0  0  0  0  0
    4.4859    1.0338   -0.1794 N   0  0  0  0  0  0  0  0  0  0  0  0
    5.7251    1.4732    0.4575 C   0  0  0  0  0  0  0  0  0  0  0  0
    4.3696   -0.4468   -0.1350 C   0  0  0  0  0  0  0  0  0  0  0  0
    3.4394   -0.7009    0.8826 O   0  0  0  0  0  0  0  0  0  0  0  0
   -2.8725    2.3335   -1.8498 H   0  0  0  0  0  0  0  0  0  0  0  0
   -4.5046    2.8490   -1.3860 H   0  0  0  0  0  0  0  0  0  0  0  0
   -4.2563    1.2561   -2.1148 H   0  0  0  0  0  0  0  0  0  0  0  0
   -4.6009    1.0173    0.3081 H   0  0  0  0  0  0  0  0  0  0  0  0
   -3.8821    3.3002    0.9507 H   0  0  0  0  0  0  0  0  0  0  0  0
   -2.1897    2.9026    0.6003 H   0  0  0  0  0  0  0  0  0  0  0  0
   -3.0325    2.1116    1.9440 H   0  0  0  0  0  0  0  0  0  0  0  0
   -2.5648   -0.1125   -1.1691 H   0  0  0  0  0  0  0  0  0  0  0  0
   -1.6122    0.6101    0.0935 H   0  0  0  0  0  0  0  0  0  0  0  0
   -3.9907   -0.0646    2.4025 H   0  0  0  0  0  0  0  0  0  0  0  0
   -3.1209   -1.5316    2.8773 H   0  0  0  0  0  0  0  0  0  0  0  0
   -2.2232   -0.0402    2.5978 H   0  0  0  0  0  0  0  0  0  0  0  0
   -4.0755   -2.0850   -0.7552 H   0  0  0  0  0  0  0  0  0  0  0  0
   -5.0430   -1.2524    0.4647 H   0  0  0  0  0  0  0  0  0  0  0  0
   -4.2104   -2.7591    0.8658 H   0  0  0  0  0  0  0  0  0  0  0  0
   -1.0393   -1.8671    1.4869 H   0  0  0  0  0  0  0  0  0  0  0  0
    0.6109   -1.8891   -2.1300 H   0  0  0  0  0  0  0  0  0  0  0  0
    1.2461   -3.4946   -1.7685 H   0  0  0  0  0  0  0  0  0  0  0  0
    2.7384   -2.7365   -0.1328 H   0  0  0  0  0  0  0  0  0  0  0  0
    4.0843   -1.4011   -2.2487 H   0  0  0  0  0  0  0  0  0  0  0  0
    1.6425   -0.2157   -2.2476 H   0  0  0  0  0  0  0  0  0  0  0  0
    2.7976    0.9665   -1.8282 H   0  0  0  0  0  0  0  0  0  0  0  0
    1.2027    1.4284   -0.2364 H   0  0  0  0  0  0  0  0  0  0  0  0
    1.4459    1.0035    1.4482 H   0  0  0  0  0  0  0  0  0  0  0  0
    3.5370    1.8138    1.5825 H   0  0  0  0  0  0  0  0  0  0  0  0
    3.1840    2.7118    0.1053 H   0  0  0  0  0  0  0  0  0  0  0  0
    5.7743    2.5658    0.4721 H   0  0  0  0  0  0  0  0  0  0  0  0
    6.5919    1.1248   -0.1128 H   0  0  0  0  0  0  0  0  0  0  0  0
    5.8173    1.1119    1.4871 H   0  0  0  0  0  0  0  0  0  0  0  0
    5.3047   -1.0009    0.0219 H   0  0  0  0  0  0  0  0  0  0  0  0
  2  1  1  0  0  0  0
  3  2  1  0  0  0  0
  4  2  1  0  0  0  0
  5  4  1  0  0  0  0
  6  5  1  0  0  0  0
  7  5  1  0  0  0  0
  8  5  1  0  0  0  0
  9  8  1  0  0  0  0
 10  9  2  0  0  0  0
 11  9  1  0  0  0  0
 12 11  1  0  0  0  0
 13 12  1  0  0  0  0
 14 13  1  0  0  0  0
 15 14  1  0  0  0  0
 16 15  1  0  0  0  0
 16 13  1  0  0  0  0
 17 16  1  0  0  0  0
 18 17  1  0  0  0  0
 19 18  1  0  0  0  0
 20 19  1  0  0  0  0
 21 19  1  0  0  0  0
 21 14  1  0  0  0  0
 22 21  1  0  0  0  0
 22 16  1  0  0  0  0
  1 23  1  0  0  0  0
  1 24  1  0  0  0  0
  1 25  1  0  0  0  0
  2 26  1  0  0  0  0
  3 27  1  0  0  0  0
  3 28  1  0  0  0  0
  3 29  1  0  0  0  0
  4 30  1  0  0  0  0
  4 31  1  0  0  0  0
  6 32  1  0  0  0  0
  6 33  1  0  0  0  0
  6 34  1  0  0  0  0
  7 35  1  0  0  0  0
  7 36  1  0  0  0  0
  7 37  1  0  0  0  0
  8 38  1  0  0  0  0
 12 39  1  0  0  0  0
 12 40  1  0  0  0  0
 13 41  1  0  0  0  0
 14 42  1  0  0  0  0
 15 43  1  0  0  0  0
 15 44  1  0  0  0  0
 17 45  1  0  0  0  0
 17 46  1  0  0  0  0
 18 47  1  0  0  0  0
 18 48  1  0  0  0  0
 20 49  1  0  0  0  0
 20 50  1  0  0  0  0
 20 51  1  0  0  0  0
 21 52  1  0  0  0  0
M  END
>  <energy>
49.041657958962105

$$$$
