COC(=O)C1C2CC3CCC4C(C)(CC15OCCO5)C1CC(C1)(O2)C4(C)C3
                    3D

 59 64  0  0  0  0  0  0  0  0999 V2000
    4.5486    0.1994   -1.0664 C   0  0  0  0  0  0  0  0  0  0  0  0
    3.1412    0.1378   -0.8473 O   0  0  0  0  0  0  0  0  0  0  0  0
    2.4532   -0.6498   -1.7222 C   0  0  0  0  0  0  0  0  0  0  0  0
    2.9570   -1.2006   -2.6945 O   0  0  0  0  0  0  0  0  0  0  0  0
    0.9685   -0.7331   -1.3704 C   0  0  0  0  0  0  0  0  0  0  0  0
    0.3076    0.6222   -1.9103 C   0  0  0  0  0  0  0  0  0  0  0  0
    0.9446    1.9887   -1.5832 C   0  0  0  0  0  0  0  0  0  0  0  0
    0.4331    2.8157   -0.4080 C   0  0  0  0  0  0  0  0  0  0  0  0
    0.9529    2.4583    0.9786 C   0  0  0  0  0  0  0  0  0  0  0  0
    0.4540    1.1172    1.4783 C   0  0  0  0  0  0  0  0  0  0  0  0
   -1.0569    0.8426    1.3090 C   0  0  0  0  0  0  0  0  0  0  0  0
   -1.5057   -0.6728    1.2906 C   0  0  0  0  0  0  0  0  0  0  0  0
   -2.1234   -0.9953    2.6799 C   0  0  0  0  0  0  0  0  0  0  0  0
   -0.2808   -1.6502    1.1150 C   0  0  0  0  0  0  0  0  0  0  0  0
    0.8410   -1.6627   -0.0416 C   0  0  0  0  0  0  0  0  0  0  0  0
    2.1072   -1.6821    0.6929 O   0  0  0  0  0  0  0  0  0  0  0  0
    2.4493   -3.0537    0.8931 C   0  0  0  0  0  0  0  0  0  0  0  0
    1.9337   -3.7125   -0.3468 C   0  0  0  0  0  0  0  0  0  0  0  0
    0.7075   -3.0355   -0.5867 O   0  0  0  0  0  0  0  0  0  0  0  0
   -2.6965   -1.0098    0.2362 C   0  0  0  0  0  0  0  0  0  0  0  0
   -3.4521    0.0621   -0.7996 C   0  0  0  0  0  0  0  0  0  0  0  0
   -1.9586    0.4909   -0.9828 C   0  0  0  0  0  0  0  0  0  0  0  0
   -1.9696   -1.1995   -1.0583 C   0  0  0  0  0  0  0  0  0  0  0  0
   -1.1360    0.7852   -2.1142 O   0  0  0  0  0  0  0  0  0  0  0  0
   -1.7485    1.5776    0.1613 C   0  0  0  0  0  0  0  0  0  0  0  0
   -3.0677    2.1882    0.7756 C   0  0  0  0  0  0  0  0  0  0  0  0
   -1.0742    2.8612   -0.3773 C   0  0  0  0  0  0  0  0  0  0  0  0
    4.9799   -0.8052   -1.0858 H   0  0  0  0  0  0  0  0  0  0  0  0
    4.9949    0.7488   -0.2317 H   0  0  0  0  0  0  0  0  0  0  0  0
    4.7688    0.7367   -1.9935 H   0  0  0  0  0  0  0  0  0  0  0  0
    0.5913   -1.4209   -2.1491 H   0  0  0  0  0  0  0  0  0  0  0  0
    0.5994    0.5352   -2.9714 H   0  0  0  0  0  0  0  0  0  0  0  0
    2.0345    1.9697   -1.5687 H   0  0  0  0  0  0  0  0  0  0  0  0
    0.7236    2.6154   -2.4641 H   0  0  0  0  0  0  0  0  0  0  0  0
    0.7813    3.8407   -0.6025 H   0  0  0  0  0  0  0  0  0  0  0  0
    0.6420    3.2357    1.6889 H   0  0  0  0  0  0  0  0  0  0  0  0
    2.0504    2.4689    0.9789 H   0  0  0  0  0  0  0  0  0  0  0  0
    0.7217    1.0029    2.5372 H   0  0  0  0  0  0  0  0  0  0  0  0
    1.0685    0.4019    0.9627 H   0  0  0  0  0  0  0  0  0  0  0  0
   -1.4563    1.2848    2.2364 H   0  0  0  0  0  0  0  0  0  0  0  0
   -2.4065   -2.0525    2.7508 H   0  0  0  0  0  0  0  0  0  0  0  0
   -1.4121   -0.7900    3.4875 H   0  0  0  0  0  0  0  0  0  0  0  0
   -3.0286   -0.4056    2.8617 H   0  0  0  0  0  0  0  0  0  0  0  0
   -0.7072   -2.6658    1.1474 H   0  0  0  0  0  0  0  0  0  0  0  0
    0.2716   -1.5856    2.0660 H   0  0  0  0  0  0  0  0  0  0  0  0
    3.5264   -3.1754    1.0277 H   0  0  0  0  0  0  0  0  0  0  0  0
    1.9325   -3.4113    1.7901 H   0  0  0  0  0  0  0  0  0  0  0  0
    2.5933   -3.5476   -1.2035 H   0  0  0  0  0  0  0  0  0  0  0  0
    1.7593   -4.7838   -0.2307 H   0  0  0  0  0  0  0  0  0  0  0  0
   -3.3062   -1.8737    0.5271 H   0  0  0  0  0  0  0  0  0  0  0  0
   -4.2383    0.6624   -0.3509 H   0  0  0  0  0  0  0  0  0  0  0  0
   -3.9665   -0.3432   -1.6883 H   0  0  0  0  0  0  0  0  0  0  0  0
   -1.1197   -1.8370   -1.0674 H   0  0  0  0  0  0  0  0  0  0  0  0
   -2.5287   -1.6408   -1.9058 H   0  0  0  0  0  0  0  0  0  0  0  0
   -2.8450    2.9949    1.4844 H   0  0  0  0  0  0  0  0  0  0  0  0
   -3.6471    1.4680    1.3628 H   0  0  0  0  0  0  0  0  0  0  0  0
   -3.7034    2.6321    0.0012 H   0  0  0  0  0  0  0  0  0  0  0  0
   -1.3195    3.7208    0.2629 H   0  0  0  0  0  0  0  0  0  0  0  0
   -1.4836    3.1300   -1.3615 H   0  0  0  0  0  0  0  0  0  0  0  0
  2  1  1  0  0  0  0
  3  2  1  0  0  0  0
  4  3  2  0  0  0  0
  5  3  1  0  0  0  0
  6  5  1  0  0  0  0
  7  6  1  0  0  0  0
  8  7  1  0  0  0  0
  9  8  1  0  0  0  0
 10  9  1  0  0  0  0
 11 10  1  0  0  0  0
 12 11  1  0  0  0  0
 13 12  1  0  0  0  0
 14 12  1  0  0  0  0
 15 14  1  0  0  0  0
 15  5  1  0  0  0  0
 16 15  1  0  0  0  0
 17 16  1  0  0  0  0
 18 17  1  0  0  0  0
 19 18  1  0  0  0  0
 19 15  1  0  0  0  0
 20 12  1  0  0  0  0
 21 20  1  0  0  0  0
 22 21  1  0  0  0  0
 23 22  1  0  0  0  0
 23 20  1  0  0  0  0
 24 22  1  0  0  0  0
 24  6  1  0  0  0  0
 25 22  1  0  0  0  0
 25 11  1  0  0  0  0
 26 25  1  0  0  0  0
 27 25  1  0  0  0  0
 27  8  1  0  0  0  0
  1 28  1  0  0  0  0
  1 29  1  0  0  0  0
  1 30  1  0  0  0  0
  5 31  1  0  0  0  0
  6 32  1  0  0  0  0
  7 33  1  0  0  0  0
  7 34  1  0  0  0  0
  8 35  1  0  0  0  0
  9 36  1  0  0  0  0
  9 37  1  0  0  0  0
 10 38  1  0  0  0  0
 10 39  1  0  0  0  0
 11 40  1  0  0  0  0
 13 41  1  0  0  0  0
 13 42  1  0  0  0  0
 13 43  1  0  0  0  0
 14 44  1  0  0  0  0
 14 45  1  0  0  0  0
 17 46  1  0  0  0  0
 17 47  1  0  0  0  0
 18 48  1  0  0  0  0
 18 49  1  0  0  0  0
 20 50  1  0  0  0  0
 21 51  1  0  0  0  0
 21 52  1  0  0  0  0
 23 53  1  0  0  0  0
 23 54  1  0  0  0  0
 26 55  1  0  0  0  0
 26 56  1  0  0  0  0
 26 57  1  0  0  0  0
 27 58  1  0  0  0  0
 27 59  1  0  0  0  0
M  END
>  <energy>
235.11698076820443

$$$$
