CCC1C2=CC(CC2c2ccc3c(Br)coc3c2)c2c1c(O)n(C(CO)C(O)CC)c2O
                    3D

 60 64  0  0  0  0  0  0  0  0999 V2000
    2.4274    1.5373    2.9765 C   0  0  0  0  0  0  0  0  0  0  0  0
    1.0713    1.5963    2.2796 C   0  0  0  0  0  0  0  0  0  0  0  0
    1.1375    2.3388    0.9394 C   0  0  0  0  0  0  0  0  0  0  0  0
    0.0175    3.3977    0.7240 C   0  0  0  0  0  0  0  0  0  0  0  0
    0.3102    4.1316   -0.3869 C   0  0  0  0  0  0  0  0  0  0  0  0
   -0.3351    3.3120   -1.5033 C   0  0  0  0  0  0  0  0  0  0  0  0
   -1.7394    3.2084   -0.9063 C   0  0  0  0  0  0  0  0  0  0  0  0
   -1.4728    2.9732    0.6081 C   0  0  0  0  0  0  0  0  0  0  0  0
   -1.9280    1.6226    1.1576 C   0  0  0  0  0  0  0  0  0  0  0  0
   -2.2315    1.5164    2.5288 C   0  0  0  0  0  0  0  0  0  0  0  0
   -2.6953    0.3176    3.1036 C   0  0  0  0  0  0  0  0  0  0  0  0
   -2.9064   -0.7976    2.2750 C   0  0  0  0  0  0  0  0  0  0  0  0
   -3.3797   -2.1235    2.4191 C   0  0  0  0  0  0  0  0  0  0  0  0
   -3.9292   -2.9190    4.0209 Br  0  0  0  0  0  0  0  0  0  0  0  0
   -3.3648   -2.7072    1.1798 C   0  0  0  0  0  0  0  0  0  0  0  0
   -2.8770   -1.8340    0.2593 O   0  0  0  0  0  0  0  0  0  0  0  0
   -2.6079   -0.6730    0.9243 C   0  0  0  0  0  0  0  0  0  0  0  0
   -2.1103    0.4904    0.3385 C   0  0  0  0  0  0  0  0  0  0  0  0
    0.3876    1.9571   -1.5096 C   0  0  0  0  0  0  0  0  0  0  0  0
    1.1094    1.4752   -0.3362 C   0  0  0  0  0  0  0  0  0  0  0  0
    1.6634    0.2660   -0.6927 C   0  0  0  0  0  0  0  0  0  0  0  0
    2.4886   -0.5452   -0.0500 O   0  0  0  0  0  0  0  0  0  0  0  0
    1.1544   -0.0855   -1.9302 N   0  0  0  0  0  0  0  0  0  0  0  0
    1.2386   -1.4258   -2.5093 C   0  0  0  0  0  0  0  0  0  0  0  0
    2.6606   -1.8221   -2.9282 C   0  0  0  0  0  0  0  0  0  0  0  0
    2.6322   -2.8992   -3.8678 O   0  0  0  0  0  0  0  0  0  0  0  0
    0.4578   -2.5012   -1.6993 C   0  0  0  0  0  0  0  0  0  0  0  0
    0.0740   -3.5339   -2.6373 O   0  0  0  0  0  0  0  0  0  0  0  0
    1.2034   -3.2180   -0.5577 C   0  0  0  0  0  0  0  0  0  0  0  0
    0.4738   -3.0984    0.7748 C   0  0  0  0  0  0  0  0  0  0  0  0
    0.4505    0.9815   -2.4746 C   0  0  0  0  0  0  0  0  0  0  0  0
   -0.0992    0.9961   -3.6856 O   0  0  0  0  0  0  0  0  0  0  0  0
    3.1948    1.0721    2.3538 H   0  0  0  0  0  0  0  0  0  0  0  0
    2.3516    0.9660    3.9080 H   0  0  0  0  0  0  0  0  0  0  0  0
    2.7687    2.5460    3.2304 H   0  0  0  0  0  0  0  0  0  0  0  0
    0.4034    2.1204    2.9726 H   0  0  0  0  0  0  0  0  0  0  0  0
    0.6962    0.5740    2.1586 H   0  0  0  0  0  0  0  0  0  0  0  0
    2.0953    2.8815    0.9143 H   0  0  0  0  0  0  0  0  0  0  0  0
    1.3158    4.4836   -0.6142 H   0  0  0  0  0  0  0  0  0  0  0  0
   -0.3062    3.8081   -2.4769 H   0  0  0  0  0  0  0  0  0  0  0  0
   -2.3602    2.4531   -1.3956 H   0  0  0  0  0  0  0  0  0  0  0  0
   -2.2644    4.1668   -1.0390 H   0  0  0  0  0  0  0  0  0  0  0  0
   -2.0607    3.7295    1.1526 H   0  0  0  0  0  0  0  0  0  0  0  0
   -2.1035    2.3830    3.1789 H   0  0  0  0  0  0  0  0  0  0  0  0
   -2.9033    0.2677    4.1679 H   0  0  0  0  0  0  0  0  0  0  0  0
   -3.6382   -3.6810    0.7985 H   0  0  0  0  0  0  0  0  0  0  0  0
   -1.9021    0.4901   -0.7236 H   0  0  0  0  0  0  0  0  0  0  0  0
    2.7130   -0.1288    0.7968 H   0  0  0  0  0  0  0  0  0  0  0  0
    0.6886   -1.3628   -3.4554 H   0  0  0  0  0  0  0  0  0  0  0  0
    3.2903   -2.1190   -2.0861 H   0  0  0  0  0  0  0  0  0  0  0  0
    3.1654   -0.9821   -3.4193 H   0  0  0  0  0  0  0  0  0  0  0  0
    1.9039   -3.5010   -3.6071 H   0  0  0  0  0  0  0  0  0  0  0  0
   -0.4782   -2.0551   -1.3405 H   0  0  0  0  0  0  0  0  0  0  0  0
   -0.6174   -4.0649   -2.1975 H   0  0  0  0  0  0  0  0  0  0  0  0
    2.2148   -2.8381   -0.4164 H   0  0  0  0  0  0  0  0  0  0  0  0
    1.3215   -4.2865   -0.7814 H   0  0  0  0  0  0  0  0  0  0  0  0
   -0.5119   -3.5687    0.7209 H   0  0  0  0  0  0  0  0  0  0  0  0
    0.3459   -2.0508    1.0679 H   0  0  0  0  0  0  0  0  0  0  0  0
    1.0436   -3.6016    1.5628 H   0  0  0  0  0  0  0  0  0  0  0  0
    0.3518    0.3641   -4.2654 H   0  0  0  0  0  0  0  0  0  0  0  0
  2  1  1  0  0  0  0
  3  2  1  0  0  0  0
  4  3  1  0  0  0  0
  5  4  2  0  0  0  0
  6  5  1  0  0  0  0
  7  6  1  0  0  0  0
  8  7  1  0  0  0  0
  8  4  1  0  0  0  0
  9  8  1  0  0  0  0
 10  9  2  0  0  0  0
 11 10  1  0  0  0  0
 12 11  2  0  0  0  0
 13 12  1  0  0  0  0
 14 13  1  0  0  0  0
 15 13  2  0  0  0  0
 16 15  1  0  0  0  0
 17 16  1  0  0  0  0
 17 12  1  0  0  0  0
 18 17  2  0  0  0  0
 18  9  1  0  0  0  0
 19  6  1  0  0  0  0
 20 19  1  0  0  0  0
 20  3  1  0  0  0  0
 21 20  2  0  0  0  0
 22 21  1  0  0  0  0
 23 21  1  0  0  0  0
 24 23  1  0  0  0  0
 25 24  1  0  0  0  0
 26 25  1  0  0  0  0
 27 24  1  0  0  0  0
 28 27  1  0  0  0  0
 29 27  1  0  0  0  0
 30 29  1  0  0  0  0
 31 23  1  0  0  0  0
 31 19  2  0  0  0  0
 32 31  1  0  0  0  0
  1 33  1  0  0  0  0
  1 34  1  0  0  0  0
  1 35  1  0  0  0  0
  2 36  1  0  0  0  0
  2 37  1  0  0  0  0
  3 38  1  0  0  0  0
  5 39  1  0  0  0  0
  6 40  1  0  0  0  0
  7 41  1  0  0  0  0
  7 42  1  0  0  0  0
  8 43  1  0  0  0  0
 10 44  1  0  0  0  0
 11 45  1  0  0  0  0
 15 46  1  0  0  0  0
 18 47  1  0  0  0  0
 22 48  1  0  0  0  0
 24 49  1  0  0  0  0
 25 50  1  0  0  0  0
 25 51  1  0  0  0  0
 26 52  1  0  0  0  0
 27 53  1  0  0  0  0
 28 54  1  0  0  0  0
 29 55  1  0  0  0  0
 29 56  1  0  0  0  0
 30 57  1  0  0  0  0
 30 58  1  0  0  0  0
 30 59  1  0  0  0  0
 32 60  1  0  0  0  0
M  END
>  <energy>
149.78830155213265

$$$$
