CCOC(=O)C1(c2cc(CC)c3c(c2C)C2CCC4C5C6C(OC4(CO)C(O)C6(C)O3)C25C)CCO1
                    3D

 74 80  0  0  0  0  0  0  0  0999 V2000
    5.1070   -3.0112    0.2746 C   0  0  0  0  0  0  0  0  0  0  0  0
    3.9158   -2.2656   -0.3029 C   0  0  0  0  0  0  0  0  0  0  0  0
    4.0815   -0.8469   -0.4320 O   0  0  0  0  0  0  0  0  0  0  0  0
    4.3703   -0.0911    0.6710 C   0  0  0  0  0  0  0  0  0  0  0  0
    4.8219   -0.5628    1.7124 O   0  0  0  0  0  0  0  0  0  0  0  0
    3.9634    1.4423    0.4487 C   0  0  0  0  0  0  0  0  0  0  0  0
    2.3290    1.5854    0.5958 C   0  0  0  0  0  0  0  0  0  0  0  0
    1.6941    2.5975   -0.1641 C   0  0  0  0  0  0  0  0  0  0  0  0
    0.3580    2.5142   -0.6160 C   0  0  0  0  0  0  0  0  0  0  0  0
   -0.2495    3.6851   -1.3511 C   0  0  0  0  0  0  0  0  0  0  0  0
    0.5610    4.3088   -2.4818 C   0  0  0  0  0  0  0  0  0  0  0  0
   -0.3788    1.3504   -0.3142 C   0  0  0  0  0  0  0  0  0  0  0  0
    0.1516    0.4440    0.7340 C   0  0  0  0  0  0  0  0  0  0  0  0
    1.4594    0.6741    1.2446 C   0  0  0  0  0  0  0  0  0  0  0  0
    1.9164   -0.1759    2.4131 C   0  0  0  0  0  0  0  0  0  0  0  0
   -0.4458   -0.9797    1.1969 C   0  0  0  0  0  0  0  0  0  0  0  0
   -0.4243   -2.6176    0.8980 C   0  0  0  0  0  0  0  0  0  0  0  0
   -1.5392   -3.0360   -0.2003 C   0  0  0  0  0  0  0  0  0  0  0  0
   -2.7967   -2.2131    0.1052 C   0  0  0  0  0  0  0  0  0  0  0  0
   -2.2276   -0.8496    0.3524 C   0  0  0  0  0  0  0  0  0  0  0  0
   -2.8907    0.6121    0.5155 C   0  0  0  0  0  0  0  0  0  0  0  0
   -3.7314   -0.2373    1.4043 C   0  0  0  0  0  0  0  0  0  0  0  0
   -4.6451   -1.0485    0.5075 O   0  0  0  0  0  0  0  0  0  0  0  0
   -3.9377   -1.6158   -0.6885 C   0  0  0  0  0  0  0  0  0  0  0  0
   -4.7224   -2.6995   -1.4180 C   0  0  0  0  0  0  0  0  0  0  0  0
   -3.8826   -3.4371   -2.2999 O   0  0  0  0  0  0  0  0  0  0  0  0
   -3.5591   -0.3618   -1.6928 C   0  0  0  0  0  0  0  0  0  0  0  0
   -2.7388   -0.8287   -2.7821 O   0  0  0  0  0  0  0  0  0  0  0  0
   -2.8517    0.9036   -0.9320 C   0  0  0  0  0  0  0  0  0  0  0  0
   -3.6029    2.1861   -1.2449 C   0  0  0  0  0  0  0  0  0  0  0  0
   -1.4169    1.1070   -1.2690 O   0  0  0  0  0  0  0  0  0  0  0  0
   -1.9481   -0.7214    1.7878 C   0  0  0  0  0  0  0  0  0  0  0  0
   -2.0832   -1.4195    3.1287 C   0  0  0  0  0  0  0  0  0  0  0  0
    4.8570    2.5096    1.1261 C   0  0  0  0  0  0  0  0  0  0  0  0
    5.5079    2.6593   -0.2429 C   0  0  0  0  0  0  0  0  0  0  0  0
    4.4288    1.9421   -0.8747 O   0  0  0  0  0  0  0  0  0  0  0  0
    4.9808   -3.1564    1.3547 H   0  0  0  0  0  0  0  0  0  0  0  0
    5.1847   -4.0072   -0.1723 H   0  0  0  0  0  0  0  0  0  0  0  0
    6.0464   -2.4738    0.1095 H   0  0  0  0  0  0  0  0  0  0  0  0
    3.7374   -2.6258   -1.3232 H   0  0  0  0  0  0  0  0  0  0  0  0
    2.9952   -2.4653    0.2534 H   0  0  0  0  0  0  0  0  0  0  0  0
    2.2981    3.4409   -0.4834 H   0  0  0  0  0  0  0  0  0  0  0  0
   -0.4856    4.4609   -0.6150 H   0  0  0  0  0  0  0  0  0  0  0  0
   -1.2072    3.4031   -1.7913 H   0  0  0  0  0  0  0  0  0  0  0  0
    0.0699    5.2248   -2.8380 H   0  0  0  0  0  0  0  0  0  0  0  0
    1.5783    4.6031   -2.1830 H   0  0  0  0  0  0  0  0  0  0  0  0
    0.6420    3.6232   -3.3354 H   0  0  0  0  0  0  0  0  0  0  0  0
    2.7522    0.2629    2.9656 H   0  0  0  0  0  0  0  0  0  0  0  0
    2.1743   -1.1886    2.0905 H   0  0  0  0  0  0  0  0  0  0  0  0
    1.1007   -0.2476    3.1476 H   0  0  0  0  0  0  0  0  0  0  0  0
   -0.1334   -1.0729    0.1303 H   0  0  0  0  0  0  0  0  0  0  0  0
    0.5715   -2.9563    0.5939 H   0  0  0  0  0  0  0  0  0  0  0  0
   -0.6553   -3.1655    1.8221 H   0  0  0  0  0  0  0  0  0  0  0  0
   -1.1609   -2.8365   -1.2134 H   0  0  0  0  0  0  0  0  0  0  0  0
   -1.7362   -4.1118   -0.1304 H   0  0  0  0  0  0  0  0  0  0  0  0
   -3.2272   -2.7058    0.9937 H   0  0  0  0  0  0  0  0  0  0  0  0
   -1.6060   -0.8325   -0.5521 H   0  0  0  0  0  0  0  0  0  0  0  0
   -2.4144    1.4072    1.1033 H   0  0  0  0  0  0  0  0  0  0  0  0
   -4.2935    0.2748    2.1955 H   0  0  0  0  0  0  0  0  0  0  0  0
   -5.1817   -3.3981   -0.7060 H   0  0  0  0  0  0  0  0  0  0  0  0
   -5.5333   -2.2663   -2.0107 H   0  0  0  0  0  0  0  0  0  0  0  0
   -3.4265   -2.7856   -2.8750 H   0  0  0  0  0  0  0  0  0  0  0  0
   -4.5026   -0.0130   -2.1361 H   0  0  0  0  0  0  0  0  0  0  0  0
   -2.2177   -0.0600   -3.1009 H   0  0  0  0  0  0  0  0  0  0  0  0
   -3.4792    2.4641   -2.2975 H   0  0  0  0  0  0  0  0  0  0  0  0
   -3.2168    3.0194   -0.6498 H   0  0  0  0  0  0  0  0  0  0  0  0
   -4.6743    2.0753   -1.0349 H   0  0  0  0  0  0  0  0  0  0  0  0
   -2.4587   -2.4409    3.0448 H   0  0  0  0  0  0  0  0  0  0  0  0
   -1.1270   -1.4467    3.6674 H   0  0  0  0  0  0  0  0  0  0  0  0
   -2.7716   -0.8787    3.7888 H   0  0  0  0  0  0  0  0  0  0  0  0
    5.5412    2.1505    1.8960 H   0  0  0  0  0  0  0  0  0  0  0  0
    4.3223    3.3996    1.4713 H   0  0  0  0  0  0  0  0  0  0  0  0
    5.5992    3.6796   -0.6175 H   0  0  0  0  0  0  0  0  0  0  0  0
    6.4643    2.1430   -0.3720 H   0  0  0  0  0  0  0  0  0  0  0  0
  2  1  1  0  0  0  0
  3  2  1  0  0  0  0
  4  3  1  0  0  0  0
  5  4  2  0  0  0  0
  6  4  1  0  0  0  0
  7  6  1  0  0  0  0
  8  7  2  0  0  0  0
  9  8  1  0  0  0  0
 10  9  1  0  0  0  0
 11 10  1  0  0  0  0
 12  9  2  0  0  0  0
 13 12  1  0  0  0  0
 14 13  2  0  0  0  0
 14  7  1  0  0  0  0
 15 14  1  0  0  0  0
 16 13  1  0  0  0  0
 17 16  1  0  0  0  0
 18 17  1  0  0  0  0
 19 18  1  0  0  0  0
 20 19  1  0  0  0  0
 21 20  1  0  0  0  0
 22 21  1  0  0  0  0
 23 22  1  0  0  0  0
 24 23  1  0  0  0  0
 24 19  1  0  0  0  0
 25 24  1  0  0  0  0
 26 25  1  0  0  0  0
 27 24  1  0  0  0  0
 28 27  1  0  0  0  0
 29 27  1  0  0  0  0
 29 21  1  0  0  0  0
 30 29  1  0  0  0  0
 31 29  1  0  0  0  0
 31 12  1  0  0  0  0
 32 22  1  0  0  0  0
 32 16  1  0  0  0  0
 32 20  1  0  0  0  0
 33 32  1  0  0  0  0
 34  6  1  0  0  0  0
 35 34  1  0  0  0  0
 36 35  1  0  0  0  0
 36  6  1  0  0  0  0
  1 37  1  0  0  0  0
  1 38  1  0  0  0  0
  1 39  1  0  0  0  0
  2 40  1  0  0  0  0
  2 41  1  0  0  0  0
  8 42  1  0  0  0  0
 10 43  1  0  0  0  0
 10 44  1  0  0  0  0
 11 45  1  0  0  0  0
 11 46  1  0  0  0  0
 11 47  1  0  0  0  0
 15 48  1  0  0  0  0
 15 49  1  0  0  0  0
 15 50  1  0  0  0  0
 16 51  1  0  0  0  0
 17 52  1  0  0  0  0
 17 53  1  0  0  0  0
 18 54  1  0  0  0  0
 18 55  1  0  0  0  0
 19 56  1  0  0  0  0
 20 57  1  0  0  0  0
 21 58  1  0  0  0  0
 22 59  1  0  0  0  0
 25 60  1  0  0  0  0
 25 61  1  0  0  0  0
 26 62  1  0  0  0  0
 27 63  1  0  0  0  0
 28 64  1  0  0  0  0
 30 65  1  0  0  0  0
 30 66  1  0  0  0  0
 30 67  1  0  0  0  0
 33 68  1  0  0  0  0
 33 69  1  0  0  0  0
 33 70  1  0  0  0  0
 34 71  1  0  0  0  0
 34 72  1  0  0  0  0
 35 73  1  0  0  0  0
 35 74  1  0  0  0  0
M  END
>  <energy>
508.22250268397966

$$$$
