ClC12CCC(C1)C2NC1CC23C=CC2C1C3
                    3D

 34 38  0  0  0  0  0  0  0  0999 V2000
   -1.8109   -0.6710   -2.3171 Cl  0  0  0  0  0  0  0  0  0  0  0  0
   -2.3880   -0.2363   -0.7261 C   0  0  0  0  0  0  0  0  0  0  0  0
   -3.7545    0.4807   -0.6910 C   0  0  0  0  0  0  0  0  0  0  0  0
   -3.9162    0.6461    0.8255 C   0  0  0  0  0  0  0  0  0  0  0  0
   -2.6143   -0.0122    1.2827 C   0  0  0  0  0  0  0  0  0  0  0  0
   -2.5437   -1.3046    0.4063 C   0  0  0  0  0  0  0  0  0  0  0  0
   -1.5386    0.5936    0.3183 C   0  0  0  0  0  0  0  0  0  0  0  0
   -0.2249    0.0098    0.6305 N   0  0  0  0  0  0  0  0  0  0  0  0
    0.7991    0.4845   -0.2993 C   0  0  0  0  0  0  0  0  0  0  0  0
    1.9619    1.2713    0.3890 C   0  0  0  0  0  0  0  0  0  0  0  0
    3.0925    0.4286   -0.1455 C   0  0  0  0  0  0  0  0  0  0  0  0
    4.4054   -0.0128    0.4152 C   0  0  0  0  0  0  0  0  0  0  0  0
    4.0937   -1.3225    0.2305 C   0  0  0  0  0  0  0  0  0  0  0  0
    2.6054   -1.0208    0.2811 C   0  0  0  0  0  0  0  0  0  0  0  0
    1.6237   -0.7084   -0.8749 C   0  0  0  0  0  0  0  0  0  0  0  0
    2.7782   -0.0017   -1.6135 C   0  0  0  0  0  0  0  0  0  0  0  0
   -3.7301    1.4471   -1.2048 H   0  0  0  0  0  0  0  0  0  0  0  0
   -4.5557   -0.1310   -1.1183 H   0  0  0  0  0  0  0  0  0  0  0  0
   -3.9753    1.6986    1.1193 H   0  0  0  0  0  0  0  0  0  0  0  0
   -4.7993    0.1206    1.2017 H   0  0  0  0  0  0  0  0  0  0  0  0
   -2.4096   -0.0811    2.3506 H   0  0  0  0  0  0  0  0  0  0  0  0
   -3.4454   -1.9258    0.3779 H   0  0  0  0  0  0  0  0  0  0  0  0
   -1.6927   -1.9719    0.5815 H   0  0  0  0  0  0  0  0  0  0  0  0
   -1.5423    1.6856    0.2247 H   0  0  0  0  0  0  0  0  0  0  0  0
    0.0733    0.1579    1.5939 H   0  0  0  0  0  0  0  0  0  0  0  0
    0.3790    1.0812   -1.1198 H   0  0  0  0  0  0  0  0  0  0  0  0
    1.9068    1.2739    1.4828 H   0  0  0  0  0  0  0  0  0  0  0  0
    2.0033    2.3065    0.0366 H   0  0  0  0  0  0  0  0  0  0  0  0
    5.3357    0.5148    0.6053 H   0  0  0  0  0  0  0  0  0  0  0  0
    4.6507   -2.2511    0.3117 H   0  0  0  0  0  0  0  0  0  0  0  0
    2.1461   -1.1708    1.2668 H   0  0  0  0  0  0  0  0  0  0  0  0
    1.1081   -1.5233   -1.3810 H   0  0  0  0  0  0  0  0  0  0  0  0
    3.4826   -0.6574   -2.1390 H   0  0  0  0  0  0  0  0  0  0  0  0
    2.4961    0.8020   -2.3017 H   0  0  0  0  0  0  0  0  0  0  0  0
  2  1  1  0  0  0  0
  3  2  1  0  0  0  0
  4  3  1  0  0  0  0
  5  4  1  0  0  0  0
  6  5  1  0  0  0  0
  6  2  1  0  0  0  0
  7  5  1  0  0  0  0
  7  2  1  0  0  0  0
  8  7  1  0  0  0  0
  9  8  1  0  0  0  0
 10  9  1  0  0  0  0
 11 10  1  0  0  0  0
 12 11  1  0  0  0  0
 13 12  2  0  0  0  0
 14 13  1  0  0  0  0
 14 11  1  0  0  0  0
 15 14  1  0  0  0  0
 15  9  1  0  0  0  0
 16 15  1  0  0  0  0
 16 11  1  0  0  0  0
  3 17  1  0  0  0  0
  3 18  1  0  0  0  0
  4 19  1  0  0  0  0
  4 20  1  0  0  0  0
  5 21  1  0  0  0  0
  6 22  1  0  0  0  0
  6 23  1  0  0  0  0
  7 24  1  0  0  0  0
  8 25  1  0  0  0  0
  9 26  1  0  0  0  0
 10 27  1  0  0  0  0
 10 28  1  0  0  0  0
 12 29  1  0  0  0  0
 13 30  1  0  0  0  0
 14 31  1  0  0  0  0
 15 32  1  0  0  0  0
 16 33  1  0  0  0  0
 16 34  1  0  0  0  0
M  END
>  <energy>
117.52961088164925

$$$$
