C=CCN(CC1=C2C=CC=C(N2)c2c1[nH]c1c2N(C)C1)C(=O)CCC
                    3D

 49 52  0  0  0  0  0  0  0  0999 V2000
    0.3093   -3.4131   -2.2599 C   0  0  0  0  0  0  0  0  0  0  0  0
    1.1982   -3.3810   -1.2580 C   0  0  0  0  0  0  0  0  0  0  0  0
    0.8613   -3.1726    0.1927 C   0  0  0  0  0  0  0  0  0  0  0  0
    1.2076   -1.8042    0.5659 N   0  0  0  0  0  0  0  0  0  0  0  0
    0.3654   -1.2046    1.6088 C   0  0  0  0  0  0  0  0  0  0  0  0
   -0.9692   -0.7525    1.0694 C   0  0  0  0  0  0  0  0  0  0  0  0
   -2.0849   -0.6851    1.8896 C   0  0  0  0  0  0  0  0  0  0  0  0
   -1.9355    0.0802    3.1636 C   0  0  0  0  0  0  0  0  0  0  0  0
   -2.3547    1.3786    3.1292 C   0  0  0  0  0  0  0  0  0  0  0  0
   -2.8124    1.9664    1.8271 C   0  0  0  0  0  0  0  0  0  0  0  0
   -3.1085    1.0710    0.8327 C   0  0  0  0  0  0  0  0  0  0  0  0
   -3.3219   -0.2624    1.3008 N   0  0  0  0  0  0  0  0  0  0  0  0
   -2.2047    1.0107   -0.2848 C   0  0  0  0  0  0  0  0  0  0  0  0
   -1.1754    0.0473   -0.1332 C   0  0  0  0  0  0  0  0  0  0  0  0
   -0.3872    0.0442   -1.2706 N   0  0  0  0  0  0  0  0  0  0  0  0
   -0.9396    0.9712   -2.0657 C   0  0  0  0  0  0  0  0  0  0  0  0
   -1.9902    1.5760   -1.4997 C   0  0  0  0  0  0  0  0  0  0  0  0
   -2.2390    2.3590   -2.5551 N   0  0  0  0  0  0  0  0  0  0  0  0
   -3.5900    2.3838   -3.0846 C   0  0  0  0  0  0  0  0  0  0  0  0
   -1.1720    1.6835   -3.3068 C   0  0  0  0  0  0  0  0  0  0  0  0
    2.5710   -1.4889    0.5897 C   0  0  0  0  0  0  0  0  0  0  0  0
    3.4580   -2.3430    0.5571 O   0  0  0  0  0  0  0  0  0  0  0  0
    2.9011   -0.0049    0.4878 C   0  0  0  0  0  0  0  0  0  0  0  0
    4.1621    0.3518    1.2661 C   0  0  0  0  0  0  0  0  0  0  0  0
    4.5148    1.8189    1.0883 C   0  0  0  0  0  0  0  0  0  0  0  0
    0.6350   -3.5761   -3.2833 H   0  0  0  0  0  0  0  0  0  0  0  0
   -0.7533   -3.2751   -2.0868 H   0  0  0  0  0  0  0  0  0  0  0  0
    2.2528   -3.5356   -1.4874 H   0  0  0  0  0  0  0  0  0  0  0  0
    1.4098   -3.8806    0.8229 H   0  0  0  0  0  0  0  0  0  0  0  0
   -0.2109   -3.3380    0.3502 H   0  0  0  0  0  0  0  0  0  0  0  0
    0.8737   -0.3660    2.0930 H   0  0  0  0  0  0  0  0  0  0  0  0
    0.2354   -1.9636    2.3919 H   0  0  0  0  0  0  0  0  0  0  0  0
   -1.5365   -0.3998    4.0466 H   0  0  0  0  0  0  0  0  0  0  0  0
   -2.2825    2.0361    3.9886 H   0  0  0  0  0  0  0  0  0  0  0  0
   -2.3958    2.9434    1.5893 H   0  0  0  0  0  0  0  0  0  0  0  0
   -4.0344   -0.2252    2.0293 H   0  0  0  0  0  0  0  0  0  0  0  0
    0.3771   -0.5925   -1.4636 H   0  0  0  0  0  0  0  0  0  0  0  0
   -3.6164    2.9702   -4.0088 H   0  0  0  0  0  0  0  0  0  0  0  0
   -4.2761    2.8547   -2.3709 H   0  0  0  0  0  0  0  0  0  0  0  0
   -3.9593    1.3757   -3.3095 H   0  0  0  0  0  0  0  0  0  0  0  0
   -1.5441    1.0827   -4.1429 H   0  0  0  0  0  0  0  0  0  0  0  0
   -0.3963    2.3805   -3.6315 H   0  0  0  0  0  0  0  0  0  0  0  0
    3.0511    0.1994   -0.5795 H   0  0  0  0  0  0  0  0  0  0  0  0
    2.0719    0.6309    0.8035 H   0  0  0  0  0  0  0  0  0  0  0  0
    4.0108    0.1372    2.3307 H   0  0  0  0  0  0  0  0  0  0  0  0
    5.0035   -0.2663    0.9326 H   0  0  0  0  0  0  0  0  0  0  0  0
    5.4371    2.0560    1.6259 H   0  0  0  0  0  0  0  0  0  0  0  0
    3.7187    2.4617    1.4794 H   0  0  0  0  0  0  0  0  0  0  0  0
    4.6649    2.0601    0.0296 H   0  0  0  0  0  0  0  0  0  0  0  0
  2  1  2  0  0  0  0
  3  2  1  0  0  0  0
  4  3  1  0  0  0  0
  5  4  1  0  0  0  0
  6  5  1  0  0  0  0
  7  6  2  0  0  0  0
  8  7  1  0  0  0  0
  9  8  2  0  0  0  0
 10  9  1  0  0  0  0
 11 10  2  0  0  0  0
 12 11  1  0  0  0  0
 12  7  1  0  0  0  0
 13 11  1  0  0  0  0
 14 13  2  0  0  0  0
 14  6  1  0  0  0  0
 15 14  1  0  0  0  0
 16 15  1  0  0  0  0
 17 16  2  0  0  0  0
 17 13  1  0  0  0  0
 18 17  1  0  0  0  0
 19 18  1  0  0  0  0
 20 18  1  0  0  0  0
 20 16  1  0  0  0  0
 21  4  1  0  0  0  0
 22 21  2  0  0  0  0
 23 21  1  0  0  0  0
 24 23  1  0  0  0  0
 25 24  1  0  0  0  0
  1 26  1  0  0  0  0
  1 27  1  0  0  0  0
  2 28  1  0  0  0  0
  3 29  1  0  0  0  0
  3 30  1  0  0  0  0
  5 31  1  0  0  0  0
  5 32  1  0  0  0  0
  8 33  1  0  0  0  0
  9 34  1  0  0  0  0
 10 35  1  0  0  0  0
 12 36  1  0  0  0  0
 15 37  1  0  0  0  0
 19 38  1  0  0  0  0
 19 39  1  0  0  0  0
 19 40  1  0  0  0  0
 20 41  1  0  0  0  0
 20 42  1  0  0  0  0
 23 43  1  0  0  0  0
 23 44  1  0  0  0  0
 24 45  1  0  0  0  0
 24 46  1  0  0  0  0
 25 47  1  0  0  0  0
 25 48  1  0  0  0  0
 25 49  1  0  0  0  0
M  END
>  <energy>
149.06991445554075

$$$$
