CCC12C(CCC1C(=O)OC)CC1CC3C1CC(O)C32
                    3D

 46 49  0  0  0  0  0  0  0  0999 V2000
   -1.8375    0.6070   -2.2939 C   0  0  0  0  0  0  0  0  0  0  0  0
   -1.5007   -0.5894   -1.4122 C   0  0  0  0  0  0  0  0  0  0  0  0
   -0.6150   -0.2869   -0.1434 C   0  0  0  0  0  0  0  0  0  0  0  0
   -0.2006   -1.6058    0.5791 C   0  0  0  0  0  0  0  0  0  0  0  0
   -1.4596   -2.0361    1.3228 C   0  0  0  0  0  0  0  0  0  0  0  0
   -1.9156   -0.7259    1.9531 C   0  0  0  0  0  0  0  0  0  0  0  0
   -1.6159    0.3687    0.9041 C   0  0  0  0  0  0  0  0  0  0  0  0
   -1.2277    1.6925    1.5477 C   0  0  0  0  0  0  0  0  0  0  0  0
   -0.7600    1.8206    2.6733 O   0  0  0  0  0  0  0  0  0  0  0  0
   -1.5152    2.7177    0.6973 O   0  0  0  0  0  0  0  0  0  0  0  0
   -1.2071    4.0121    1.2110 C   0  0  0  0  0  0  0  0  0  0  0  0
    0.4251   -2.7008   -0.2847 C   0  0  0  0  0  0  0  0  0  0  0  0
    1.7139   -2.2543   -1.0044 C   0  0  0  0  0  0  0  0  0  0  0  0
    1.5599   -1.4385   -2.2793 C   0  0  0  0  0  0  0  0  0  0  0  0
    1.6863   -0.2040   -1.3830 C   0  0  0  0  0  0  0  0  0  0  0  0
    2.6448   -1.0563   -0.4238 C   0  0  0  0  0  0  0  0  0  0  0  0
    2.9257    0.2386    0.3955 C   0  0  0  0  0  0  0  0  0  0  0  0
    1.5832    0.9156    0.6788 C   0  0  0  0  0  0  0  0  0  0  0  0
    1.7795    2.3231    0.7073 O   0  0  0  0  0  0  0  0  0  0  0  0
    0.6625    0.5452   -0.5050 C   0  0  0  0  0  0  0  0  0  0  0  0
   -2.2647    1.4366   -1.7242 H   0  0  0  0  0  0  0  0  0  0  0  0
   -2.5775    0.3035   -3.0419 H   0  0  0  0  0  0  0  0  0  0  0  0
   -0.9552    0.9623   -2.8333 H   0  0  0  0  0  0  0  0  0  0  0  0
   -1.0587   -1.3502   -2.0506 H   0  0  0  0  0  0  0  0  0  0  0  0
   -2.4520   -1.0376   -1.0970 H   0  0  0  0  0  0  0  0  0  0  0  0
    0.5239   -1.3788    1.3699 H   0  0  0  0  0  0  0  0  0  0  0  0
   -2.2186   -2.4370    0.6436 H   0  0  0  0  0  0  0  0  0  0  0  0
   -1.2572   -2.7966    2.0833 H   0  0  0  0  0  0  0  0  0  0  0  0
   -2.9789   -0.7570    2.2136 H   0  0  0  0  0  0  0  0  0  0  0  0
   -1.3604   -0.5586    2.8835 H   0  0  0  0  0  0  0  0  0  0  0  0
   -2.5842    0.5775    0.4242 H   0  0  0  0  0  0  0  0  0  0  0  0
   -0.1272    4.1378    1.3060 H   0  0  0  0  0  0  0  0  0  0  0  0
   -1.5785    4.7555    0.5017 H   0  0  0  0  0  0  0  0  0  0  0  0
   -1.6993    4.1810    2.1721 H   0  0  0  0  0  0  0  0  0  0  0  0
    0.6713   -3.5445    0.3750 H   0  0  0  0  0  0  0  0  0  0  0  0
   -0.2891   -3.1030   -1.0122 H   0  0  0  0  0  0  0  0  0  0  0  0
    2.3050   -3.1615   -1.1972 H   0  0  0  0  0  0  0  0  0  0  0  0
    0.6724   -1.5661   -2.8929 H   0  0  0  0  0  0  0  0  0  0  0  0
    2.4159   -1.5484   -2.9617 H   0  0  0  0  0  0  0  0  0  0  0  0
    2.2169    0.5655   -1.9719 H   0  0  0  0  0  0  0  0  0  0  0  0
    2.5668   -1.5407    0.5683 H   0  0  0  0  0  0  0  0  0  0  0  0
    3.4609    0.0371    1.3349 H   0  0  0  0  0  0  0  0  0  0  0  0
    3.5964    0.9017   -0.1704 H   0  0  0  0  0  0  0  0  0  0  0  0
    1.1964    0.6008    1.6483 H   0  0  0  0  0  0  0  0  0  0  0  0
    2.3033    2.5162    1.5070 H   0  0  0  0  0  0  0  0  0  0  0  0
    0.3462    1.4614   -1.0183 H   0  0  0  0  0  0  0  0  0  0  0  0
  2  1  1  0  0  0  0
  3  2  1  0  0  0  0
  4  3  1  0  0  0  0
  5  4  1  0  0  0  0
  6  5  1  0  0  0  0
  7  6  1  0  0  0  0
  7  3  1  0  0  0  0
  8  7  1  0  0  0  0
  9  8  2  0  0  0  0
 10  8  1  0  0  0  0
 11 10  1  0  0  0  0
 12  4  1  0  0  0  0
 13 12  1  0  0  0  0
 14 13  1  0  0  0  0
 15 14  1  0  0  0  0
 16 15  1  0  0  0  0
 16 13  1  0  0  0  0
 17 16  1  0  0  0  0
 18 17  1  0  0  0  0
 19 18  1  0  0  0  0
 20 18  1  0  0  0  0
 20 15  1  0  0  0  0
 20  3  1  0  0  0  0
  1 21  1  0  0  0  0
  1 22  1  0  0  0  0
  1 23  1  0  0  0  0
  2 24  1  0  0  0  0
  2 25  1  0  0  0  0
  4 26  1  0  0  0  0
  5 27  1  0  0  0  0
  5 28  1  0  0  0  0
  6 29  1  0  0  0  0
  6 30  1  0  0  0  0
  7 31  1  0  0  0  0
 11 32  1  0  0  0  0
 11 33  1  0  0  0  0
 11 34  1  0  0  0  0
 12 35  1  0  0  0  0
 12 36  1  0  0  0  0
 13 37  1  0  0  0  0
 14 38  1  0  0  0  0
 14 39  1  0  0  0  0
 15 40  1  0  0  0  0
 16 41  1  0  0  0  0
 17 42  1  0  0  0  0
 17 43  1  0  0  0  0
 18 44  1  0  0  0  0
 19 45  1  0  0  0  0
 20 46  1  0  0  0  0
M  END
>  <energy>
125.46473260998272

$$$$
