OC1CC2(C3CC2C3)C1CN1CC2CCC1CC2
                    3D

 43 47  0  0  0  0  0  0  0  0999 V2000
   -2.8937   -2.6932    0.1112 O   0  0  0  0  0  0  0  0  0  0  0  0
   -1.8161   -1.7866   -0.2111 C   0  0  0  0  0  0  0  0  0  0  0  0
   -2.1746   -0.6720   -1.2370 C   0  0  0  0  0  0  0  0  0  0  0  0
   -2.2749    0.2743   -0.0721 C   0  0  0  0  0  0  0  0  0  0  0  0
   -2.0666    1.7805   -0.1624 C   0  0  0  0  0  0  0  0  0  0  0  0
   -3.5000    1.8223   -0.8246 C   0  0  0  0  0  0  0  0  0  0  0  0
   -3.6692    0.7817    0.3483 C   0  0  0  0  0  0  0  0  0  0  0  0
   -2.8760    1.8576    1.1897 C   0  0  0  0  0  0  0  0  0  0  0  0
   -1.5463   -0.6720    0.8606 C   0  0  0  0  0  0  0  0  0  0  0  0
   -0.0887   -0.4731    1.3020 C   0  0  0  0  0  0  0  0  0  0  0  0
    0.8786   -0.5400    0.1998 N   0  0  0  0  0  0  0  0  0  0  0  0
    1.1654    0.7671   -0.4211 C   0  0  0  0  0  0  0  0  0  0  0  0
    2.6633    0.8910   -0.7694 C   0  0  0  0  0  0  0  0  0  0  0  0
    3.4536    0.8945    0.5494 C   0  0  0  0  0  0  0  0  0  0  0  0
    3.0722   -0.3438    1.3698 C   0  0  0  0  0  0  0  0  0  0  0  0
    2.1280   -1.2459    0.5526 C   0  0  0  0  0  0  0  0  0  0  0  0
    2.8146   -1.6084   -0.7803 C   0  0  0  0  0  0  0  0  0  0  0  0
    3.0817   -0.3358   -1.5955 C   0  0  0  0  0  0  0  0  0  0  0  0
   -2.9873   -3.2528   -0.6782 H   0  0  0  0  0  0  0  0  0  0  0  0
   -0.9357   -2.3699   -0.5029 H   0  0  0  0  0  0  0  0  0  0  0  0
   -1.3681   -0.4474   -1.9431 H   0  0  0  0  0  0  0  0  0  0  0  0
   -3.0912   -0.8563   -1.8060 H   0  0  0  0  0  0  0  0  0  0  0  0
   -1.2106    2.3670   -0.4528 H   0  0  0  0  0  0  0  0  0  0  0  0
   -4.0634    2.7586   -0.7446 H   0  0  0  0  0  0  0  0  0  0  0  0
   -3.5907    1.4526   -1.8506 H   0  0  0  0  0  0  0  0  0  0  0  0
   -4.5507    0.2280    0.6308 H   0  0  0  0  0  0  0  0  0  0  0  0
   -2.3688    1.5205    2.0991 H   0  0  0  0  0  0  0  0  0  0  0  0
   -3.3929    2.7978    1.4104 H   0  0  0  0  0  0  0  0  0  0  0  0
   -2.1239   -0.8579    1.7801 H   0  0  0  0  0  0  0  0  0  0  0  0
    0.1214   -1.2815    2.0148 H   0  0  0  0  0  0  0  0  0  0  0  0
    0.0156    0.4502    1.8838 H   0  0  0  0  0  0  0  0  0  0  0  0
    0.5693    0.8637   -1.3341 H   0  0  0  0  0  0  0  0  0  0  0  0
    0.8995    1.6010    0.2390 H   0  0  0  0  0  0  0  0  0  0  0  0
    2.8532    1.8118   -1.3304 H   0  0  0  0  0  0  0  0  0  0  0  0
    4.5315    0.8985    0.3487 H   0  0  0  0  0  0  0  0  0  0  0  0
    3.2362    1.8032    1.1235 H   0  0  0  0  0  0  0  0  0  0  0  0
    2.5993   -0.0397    2.3111 H   0  0  0  0  0  0  0  0  0  0  0  0
    3.9791   -0.8965    1.6423 H   0  0  0  0  0  0  0  0  0  0  0  0
    1.9187   -2.1744    1.0961 H   0  0  0  0  0  0  0  0  0  0  0  0
    2.1907   -2.2994   -1.3609 H   0  0  0  0  0  0  0  0  0  0  0  0
    3.7605   -2.1285   -0.5852 H   0  0  0  0  0  0  0  0  0  0  0  0
    4.1420   -0.2785   -1.8667 H   0  0  0  0  0  0  0  0  0  0  0  0
    2.5150   -0.3687   -2.5338 H   0  0  0  0  0  0  0  0  0  0  0  0
  2  1  1  0  0  0  0
  3  2  1  0  0  0  0
  4  3  1  0  0  0  0
  5  4  1  0  0  0  0
  6  5  1  0  0  0  0
  7  6  1  0  0  0  0
  7  4  1  0  0  0  0
  8  7  1  0  0  0  0
  8  5  1  0  0  0  0
  9  4  1  0  0  0  0
  9  2  1  0  0  0  0
 10  9  1  0  0  0  0
 11 10  1  0  0  0  0
 12 11  1  0  0  0  0
 13 12  1  0  0  0  0
 14 13  1  0  0  0  0
 15 14  1  0  0  0  0
 16 15  1  0  0  0  0
 16 11  1  0  0  0  0
 17 16  1  0  0  0  0
 18 17  1  0  0  0  0
 18 13  1  0  0  0  0
  1 19  1  0  0  0  0
  2 20  1  0  0  0  0
  3 21  1  0  0  0  0
  3 22  1  0  0  0  0
  5 23  1  0  0  0  0
  6 24  1  0  0  0  0
  6 25  1  0  0  0  0
  7 26  1  0  0  0  0
  8 27  1  0  0  0  0
  8 28  1  0  0  0  0
  9 29  1  0  0  0  0
 10 30  1  0  0  0  0
 10 31  1  0  0  0  0
 12 32  1  0  0  0  0
 12 33  1  0  0  0  0
 13 34  1  0  0  0  0
 14 35  1  0  0  0  0
 14 36  1  0  0  0  0
 15 37  1  0  0  0  0
 15 38  1  0  0  0  0
 16 39  1  0  0  0  0
 17 40  1  0  0  0  0
 17 41  1  0  0  0  0
 18 42  1  0  0  0  0
 18 43  1  0  0  0  0
M  END
>  <energy>
92.522599822760455

$$$$
