COC(=O)C(=C1C2=Cc3[nH]c4ccc(C)cc4c3C(=NC(=O)NC(C)C)NC1=C2)C1NS(=O)(=O)N(C)C(=O)N
                    3D

 69 73  0  0  0  0  0  0  0  0999 V2000
    4.7758    4.2792    0.5811 C   0  0  0  0  0  0  0  0  0  0  0  0
    3.6117    3.4375    0.5027 O   0  0  0  0  0  0  0  0  0  0  0  0
    3.5655    2.5170    1.4949 C   0  0  0  0  0  0  0  0  0  0  0  0
    4.3480    2.4500    2.4445 O   0  0  0  0  0  0  0  0  0  0  0  0
    2.4329    1.5545    1.3750 C   0  0  0  0  0  0  0  0  0  0  0  0
    1.2363    2.1739    1.5208 C   0  0  0  0  0  0  0  0  0  0  0  0
    0.6787    3.4997    1.2191 C   0  0  0  0  0  0  0  0  0  0  0  0
    0.0648    3.7432    0.0181 C   0  0  0  0  0  0  0  0  0  0  0  0
   -0.6064    2.7136   -0.7541 C   0  0  0  0  0  0  0  0  0  0  0  0
   -0.5862    2.9029   -2.1220 N   0  0  0  0  0  0  0  0  0  0  0  0
   -1.0583    1.8027   -2.7911 C   0  0  0  0  0  0  0  0  0  0  0  0
   -1.1190    1.5406   -4.1667 C   0  0  0  0  0  0  0  0  0  0  0  0
   -1.7647    0.3680   -4.5842 C   0  0  0  0  0  0  0  0  0  0  0  0
   -2.3088   -0.5277   -3.6634 C   0  0  0  0  0  0  0  0  0  0  0  0
   -3.0194   -1.7639   -4.1304 C   0  0  0  0  0  0  0  0  0  0  0  0
   -2.1367   -0.2784   -2.2957 C   0  0  0  0  0  0  0  0  0  0  0  0
   -1.5500    0.9298   -1.8302 C   0  0  0  0  0  0  0  0  0  0  0  0
   -1.3139    1.5141   -0.5166 C   0  0  0  0  0  0  0  0  0  0  0  0
   -1.7563    0.8669    0.7472 C   0  0  0  0  0  0  0  0  0  0  0  0
   -2.8835    0.2238    0.6910 N   0  0  0  0  0  0  0  0  0  0  0  0
   -3.2087   -0.5545    1.7560 C   0  0  0  0  0  0  0  0  0  0  0  0
   -2.8204   -0.3770    2.9101 O   0  0  0  0  0  0  0  0  0  0  0  0
   -3.9020   -1.6336    1.3129 N   0  0  0  0  0  0  0  0  0  0  0  0
   -3.5780   -2.9631    1.8135 C   0  0  0  0  0  0  0  0  0  0  0  0
   -4.0267   -3.1951    3.2505 C   0  0  0  0  0  0  0  0  0  0  0  0
   -4.2266   -4.0180    0.9343 C   0  0  0  0  0  0  0  0  0  0  0  0
   -0.9108    0.9149    1.8524 N   0  0  0  0  0  0  0  0  0  0  0  0
   -0.0810    1.8961    2.0078 C   0  0  0  0  0  0  0  0  0  0  0  0
   -0.1445    3.1891    2.3946 C   0  0  0  0  0  0  0  0  0  0  0  0
    2.8566    0.1240    1.6172 C   0  0  0  0  0  0  0  0  0  0  0  0
    4.2268   -0.1381    1.2588 N   0  0  0  0  0  0  0  0  0  0  0  0
    4.5928   -0.2423   -0.3330 S   0  0  0  0  0  0  0  0  0  0  0  0
    5.9067   -0.8505   -0.3689 O   0  0  0  0  0  0  0  0  0  0  0  0
    4.3382    1.0096   -0.9918 O   0  0  0  0  0  0  0  0  0  0  0  0
    3.4690   -1.3373   -0.8269 N   0  0  0  0  0  0  0  0  0  0  0  0
    3.6479   -1.9118   -2.1770 C   0  0  0  0  0  0  0  0  0  0  0  0
    2.3150   -1.6253   -0.0900 C   0  0  0  0  0  0  0  0  0  0  0  0
    1.6070   -2.5631   -0.4496 O   0  0  0  0  0  0  0  0  0  0  0  0
    2.0144   -0.9079    1.0545 N   0  0  0  0  0  0  0  0  0  0  0  0
    0.8943   -1.3911    1.8423 C   0  0  0  0  0  0  0  0  0  0  0  0
    4.5977    5.0790    1.3092 H   0  0  0  0  0  0  0  0  0  0  0  0
    5.6749    3.7029    0.8434 H   0  0  0  0  0  0  0  0  0  0  0  0
    4.9624    4.7364   -0.3997 H   0  0  0  0  0  0  0  0  0  0  0  0
    0.2042    4.7405   -0.3921 H   0  0  0  0  0  0  0  0  0  0  0  0
   -0.1962    3.7068   -2.5964 H   0  0  0  0  0  0  0  0  0  0  0  0
   -0.6948    2.2240   -4.8936 H   0  0  0  0  0  0  0  0  0  0  0  0
   -1.8281    0.1651   -5.6560 H   0  0  0  0  0  0  0  0  0  0  0  0
   -2.3056   -2.5826   -4.2818 H   0  0  0  0  0  0  0  0  0  0  0  0
   -3.7732   -2.0728   -3.3957 H   0  0  0  0  0  0  0  0  0  0  0  0
   -3.5601   -1.5706   -5.0661 H   0  0  0  0  0  0  0  0  0  0  0  0
   -2.5113   -0.9961   -1.5739 H   0  0  0  0  0  0  0  0  0  0  0  0
   -4.0413   -1.5230    0.3165 H   0  0  0  0  0  0  0  0  0  0  0  0
   -2.4874   -3.0707    1.7526 H   0  0  0  0  0  0  0  0  0  0  0  0
   -3.8292   -4.2339    3.5489 H   0  0  0  0  0  0  0  0  0  0  0  0
   -5.1005   -3.0002    3.3572 H   0  0  0  0  0  0  0  0  0  0  0  0
   -3.4902   -2.5532    3.9561 H   0  0  0  0  0  0  0  0  0  0  0  0
   -3.9293   -5.0236    1.2651 H   0  0  0  0  0  0  0  0  0  0  0  0
   -5.3222   -3.9494    0.9833 H   0  0  0  0  0  0  0  0  0  0  0  0
   -3.9226   -3.8974   -0.1147 H   0  0  0  0  0  0  0  0  0  0  0  0
   -1.4567    0.6201    2.6670 H   0  0  0  0  0  0  0  0  0  0  0  0
   -0.9922    3.7339    2.8216 H   0  0  0  0  0  0  0  0  0  0  0  0
    2.8300   -0.0134    2.7091 H   0  0  0  0  0  0  0  0  0  0  0  0
    4.7245   -0.8217    1.8197 H   0  0  0  0  0  0  0  0  0  0  0  0
    3.8233   -2.9894   -2.1095 H   0  0  0  0  0  0  0  0  0  0  0  0
    4.4824   -1.4777   -2.7357 H   0  0  0  0  0  0  0  0  0  0  0  0
    2.7446   -1.7307   -2.7693 H   0  0  0  0  0  0  0  0  0  0  0  0
    0.6753   -0.7090    2.6697 H   0  0  0  0  0  0  0  0  0  0  0  0
    1.1171   -2.3734    2.2689 H   0  0  0  0  0  0  0  0  0  0  0  0
    0.0240   -1.4925    1.1884 H   0  0  0  0  0  0  0  0  0  0  0  0
  2  1  1  0  0  0  0
  3  2  1  0  0  0  0
  4  3  2  0  0  0  0
  5  3  1  0  0  0  0
  6  5  2  0  0  0  0
  7  6  1  0  0  0  0
  8  7  2  0  0  0  0
  9  8  1  0  0  0  0
 10  9  1  0  0  0  0
 11 10  1  0  0  0  0
 12 11  2  0  0  0  0
 13 12  1  0  0  0  0
 14 13  2  0  0  0  0
 15 14  1  0  0  0  0
 16 14  1  0  0  0  0
 17 16  2  0  0  0  0
 17 11  1  0  0  0  0
 18 17  1  0  0  0  0
 18  9  2  0  0  0  0
 19 18  1  0  0  0  0
 20 19  2  0  0  0  0
 21 20  1  0  0  0  0
 22 21  2  0  0  0  0
 23 21  1  0  0  0  0
 24 23  1  0  0  0  0
 25 24  1  0  0  0  0
 26 24  1  0  0  0  0
 27 19  1  0  0  0  0
 28 27  1  0  0  0  0
 28  6  1  0  0  0  0
 29 28  2  0  0  0  0
 29  7  1  0  0  0  0
 30  5  1  0  0  0  0
 31 30  1  0  0  0  0
 32 31  1  0  0  0  0
 33 32  2  0  0  0  0
 34 32  2  0  0  0  0
 35 32  1  0  0  0  0
 36 35  1  0  0  0  0
 37 35  1  0  0  0  0
 38 37  2  0  0  0  0
 39 37  1  0  0  0  0
 39 30  1  0  0  0  0
 40 39  1  0  0  0  0
  1 41  1  0  0  0  0
  1 42  1  0  0  0  0
  1 43  1  0  0  0  0
  8 44  1  0  0  0  0
 10 45  1  0  0  0  0
 12 46  1  0  0  0  0
 13 47  1  0  0  0  0
 15 48  1  0  0  0  0
 15 49  1  0  0  0  0
 15 50  1  0  0  0  0
 16 51  1  0  0  0  0
 23 52  1  0  0  0  0
 24 53  1  0  0  0  0
 25 54  1  0  0  0  0
 25 55  1  0  0  0  0
 25 56  1  0  0  0  0
 26 57  1  0  0  0  0
 26 58  1  0  0  0  0
 26 59  1  0  0  0  0
 27 60  1  0  0  0  0
 29 61  1  0  0  0  0
 30 62  1  0  0  0  0
 31 63  1  0  0  0  0
 36 64  1  0  0  0  0
 36 65  1  0  0  0  0
 36 66  1  0  0  0  0
 40 67  1  0  0  0  0
 40 68  1  0  0  0  0
 40 69  1  0  0  0  0
M  END
>  <energy>
-382.36287086464898

$$$$
