C#CCCC=c1c(OC)cc(O)c2c1=CCNC(=O)C(C)CC(O)C1=C(C2)C(C)=C(O)c2cc(c(C)[n+](C)c2)C1=
                    3D

 78 81  0  0  0  0  0  0  0  0999 V2000
   -4.3943    4.1374   -0.8012 C   0  0  0  0  0  0  0  0  0  0  0  0
   -4.4943    3.0007   -0.4336 C   0  0  0  0  0  0  0  0  0  0  0  0
   -4.6328    1.5886   -0.0120 C   0  0  0  0  0  0  0  0  0  0  0  0
   -4.0400    0.6652   -1.0760 C   0  0  0  0  0  0  0  0  0  0  0  0
   -4.2283   -0.8046   -0.8511 C   0  0  0  0  0  0  0  0  0  0  0  0
   -3.3528   -1.7162   -0.3683 C   0  0  0  0  0  0  0  0  0  0  0  0
   -3.6741   -3.1571   -0.3867 C   0  0  0  0  0  0  0  0  0  0  0  0
   -5.0069   -3.4893   -0.3369 O   0  0  0  0  0  0  0  0  0  0  0  0
   -5.3335   -4.2569    0.8216 C   0  0  0  0  0  0  0  0  0  0  0  0
   -2.6486   -4.0382   -0.3972 C   0  0  0  0  0  0  0  0  0  0  0  0
   -1.2548   -3.5729   -0.3995 C   0  0  0  0  0  0  0  0  0  0  0  0
   -0.3039   -4.5308   -0.6915 O   0  0  0  0  0  0  0  0  0  0  0  0
   -0.9090   -2.2939   -0.0739 C   0  0  0  0  0  0  0  0  0  0  0  0
   -2.0568   -1.4380    0.3132 C   0  0  0  0  0  0  0  0  0  0  0  0
   -2.1583   -0.8412    1.5185 C   0  0  0  0  0  0  0  0  0  0  0  0
   -1.2593   -0.9749    2.6979 C   0  0  0  0  0  0  0  0  0  0  0  0
   -0.3923    0.1540    2.6725 N   0  0  0  0  0  0  0  0  0  0  0  0
    0.4334    0.4635    3.7205 C   0  0  0  0  0  0  0  0  0  0  0  0
    0.4552   -0.1400    4.7827 O   0  0  0  0  0  0  0  0  0  0  0  0
    1.4232    1.5641    3.3754 C   0  0  0  0  0  0  0  0  0  0  0  0
    0.7854    2.6860    2.5621 C   0  0  0  0  0  0  0  0  0  0  0  0
    2.6959    1.0063    2.7199 C   0  0  0  0  0  0  0  0  0  0  0  0
    2.6317   -0.3229    1.9209 C   0  0  0  0  0  0  0  0  0  0  0  0
    3.9345   -0.8686    2.1712 O   0  0  0  0  0  0  0  0  0  0  0  0
    2.3311   -0.1487    0.3909 C   0  0  0  0  0  0  0  0  0  0  0  0
    1.1483   -0.4943   -0.2410 C   0  0  0  0  0  0  0  0  0  0  0  0
    0.5707   -1.9155    0.0321 C   0  0  0  0  0  0  0  0  0  0  0  0
    0.5274    0.2571   -1.4123 C   0  0  0  0  0  0  0  0  0  0  0  0
   -0.4176    1.3516   -0.9317 C   0  0  0  0  0  0  0  0  0  0  0  0
    0.8068    0.2317   -2.7551 C   0  0  0  0  0  0  0  0  0  0  0  0
    0.0042    0.8610   -3.6892 O   0  0  0  0  0  0  0  0  0  0  0  0
    2.2085    0.1322   -3.2755 C   0  0  0  0  0  0  0  0  0  0  0  0
    3.0071   -0.7845   -2.6590 C   0  0  0  0  0  0  0  0  0  0  0  0
    3.7902   -0.1653   -1.6998 C   0  0  0  0  0  0  0  0  0  0  0  0
    4.2411    1.1645   -1.8118 C   0  0  0  0  0  0  0  0  0  0  0  0
    4.9583    1.8643   -0.6926 C   0  0  0  0  0  0  0  0  0  0  0  0
    3.7997    1.8713   -2.8958 N   0  3  0  0  0  0  0  0  0  0  0  0
    4.2355    3.2528   -3.1423 C   0  0  0  0  0  0  0  0  0  0  0  0
    2.7627    1.3822   -3.6280 C   0  0  0  0  0  0  0  0  0  0  0  0
    3.5271   -0.7355   -0.3935 C   0  0  0  0  0  0  0  0  0  0  0  0
    4.1744   -1.7203   -0.0646 O   0  0  0  0  0  0  0  0  0  0  0  0
   -4.3281    5.1527   -1.1365 H   0  0  0  0  0  0  0  0  0  0  0  0
   -5.6873    1.3531    0.1627 H   0  0  0  0  0  0  0  0  0  0  0  0
   -4.1146    1.4465    0.9409 H   0  0  0  0  0  0  0  0  0  0  0  0
   -2.9839    0.8900   -1.2021 H   0  0  0  0  0  0  0  0  0  0  0  0
   -4.4910    0.9041   -2.0508 H   0  0  0  0  0  0  0  0  0  0  0  0
   -5.1753   -1.1842   -1.2303 H   0  0  0  0  0  0  0  0  0  0  0  0
   -5.0749   -5.3124    0.6727 H   0  0  0  0  0  0  0  0  0  0  0  0
   -6.4155   -4.1955    0.9739 H   0  0  0  0  0  0  0  0  0  0  0  0
   -4.8468   -3.8675    1.7272 H   0  0  0  0  0  0  0  0  0  0  0  0
   -2.8529   -5.1052   -0.3797 H   0  0  0  0  0  0  0  0  0  0  0  0
   -0.7519   -5.3710   -0.8991 H   0  0  0  0  0  0  0  0  0  0  0  0
   -3.1035   -0.3639    1.7754 H   0  0  0  0  0  0  0  0  0  0  0  0
   -1.8403   -0.9824    3.6259 H   0  0  0  0  0  0  0  0  0  0  0  0
   -0.6618   -1.8904    2.6776 H   0  0  0  0  0  0  0  0  0  0  0  0
   -0.1672    0.5200    1.7656 H   0  0  0  0  0  0  0  0  0  0  0  0
    1.7053    2.0209    4.3337 H   0  0  0  0  0  0  0  0  0  0  0  0
    1.4361    3.5590    2.5271 H   0  0  0  0  0  0  0  0  0  0  0  0
   -0.1769    2.9782    2.9976 H   0  0  0  0  0  0  0  0  0  0  0  0
    0.6003    2.3804    1.5339 H   0  0  0  0  0  0  0  0  0  0  0  0
    3.3911    0.8372    3.5585 H   0  0  0  0  0  0  0  0  0  0  0  0
    3.1879    1.7831    2.1150 H   0  0  0  0  0  0  0  0  0  0  0  0
    1.9401   -1.0226    2.3827 H   0  0  0  0  0  0  0  0  0  0  0  0
    4.0062   -1.7167    1.6802 H   0  0  0  0  0  0  0  0  0  0  0  0
    1.1300   -2.5625   -0.6599 H   0  0  0  0  0  0  0  0  0  0  0  0
    0.8851   -2.2415    1.0273 H   0  0  0  0  0  0  0  0  0  0  0  0
   -1.0554    1.0553   -0.1018 H   0  0  0  0  0  0  0  0  0  0  0  0
   -1.0633    1.7329   -1.7289 H   0  0  0  0  0  0  0  0  0  0  0  0
    0.1821    2.2094   -0.5978 H   0  0  0  0  0  0  0  0  0  0  0  0
   -0.9123    0.5801   -3.5084 H   0  0  0  0  0  0  0  0  0  0  0  0
    2.6422   -1.8017   -2.4750 H   0  0  0  0  0  0  0  0  0  0  0  0
    4.2439    2.4428   -0.0988 H   0  0  0  0  0  0  0  0  0  0  0  0
    5.4700    1.1558   -0.0380 H   0  0  0  0  0  0  0  0  0  0  0  0
    5.7240    2.5448   -1.0687 H   0  0  0  0  0  0  0  0  0  0  0  0
    3.7571    3.9067   -2.4117 H   0  0  0  0  0  0  0  0  0  0  0  0
    3.9677    3.5441   -4.1582 H   0  0  0  0  0  0  0  0  0  0  0  0
    5.3187    3.2984   -3.0592 H   0  0  0  0  0  0  0  0  0  0  0  0
    2.2202    2.0975   -4.2520 H   0  0  0  0  0  0  0  0  0  0  0  0
  2  1  3  0  0  0  0
  3  2  1  0  0  0  0
  4  3  1  0  0  0  0
  5  4  1  0  0  0  0
  6  5  2  0  0  0  0
  7  6  1  0  0  0  0
  8  7  1  0  0  0  0
  9  8  1  0  0  0  0
 10  7  2  0  0  0  0
 11 10  1  0  0  0  0
 12 11  1  0  0  0  0
 13 11  2  0  0  0  0
 14 13  1  0  0  0  0
 14  6  1  0  0  0  0
 15 14  2  0  0  0  0
 16 15  1  0  0  0  0
 17 16  1  0  0  0  0
 18 17  1  0  0  0  0
 19 18  2  0  0  0  0
 20 18  1  0  0  0  0
 21 20  1  0  0  0  0
 22 20  1  0  0  0  0
 23 22  1  0  0  0  0
 24 23  1  0  0  0  0
 25 23  1  0  0  0  0
 26 25  2  0  0  0  0
 27 26  1  0  0  0  0
 27 13  1  0  0  0  0
 28 26  1  0  0  0  0
 29 28  1  0  0  0  0
 30 28  2  0  0  0  0
 31 30  1  0  0  0  0
 32 30  1  0  0  0  0
 33 32  2  0  0  0  0
 34 33  1  0  0  0  0
 35 34  2  0  0  0  0
 36 35  1  0  0  0  0
 37 35  1  0  0  0  0
 38 37  1  0  0  0  0
 39 37  2  0  0  0  0
 39 32  1  0  0  0  0
 40 34  1  0  0  0  0
 40 25  1  0  0  0  0
 41 40  2  0  0  0  0
  1 42  1  0  0  0  0
  3 43  1  0  0  0  0
  3 44  1  0  0  0  0
  4 45  1  0  0  0  0
  4 46  1  0  0  0  0
  5 47  1  0  0  0  0
  9 48  1  0  0  0  0
  9 49  1  0  0  0  0
  9 50  1  0  0  0  0
 10 51  1  0  0  0  0
 12 52  1  0  0  0  0
 15 53  1  0  0  0  0
 16 54  1  0  0  0  0
 16 55  1  0  0  0  0
 17 56  1  0  0  0  0
 20 57  1  0  0  0  0
 21 58  1  0  0  0  0
 21 59  1  0  0  0  0
 21 60  1  0  0  0  0
 22 61  1  0  0  0  0
 22 62  1  0  0  0  0
 23 63  1  0  0  0  0
 24 64  1  0  0  0  0
 27 65  1  0  0  0  0
 27 66  1  0  0  0  0
 29 67  1  0  0  0  0
 29 68  1  0  0  0  0
 29 69  1  0  0  0  0
 31 70  1  0  0  0  0
 33 71  1  0  0  0  0
 36 72  1  0  0  0  0
 36 73  1  0  0  0  0
 36 74  1  0  0  0  0
 38 75  1  0  0  0  0
 38 76  1  0  0  0  0
 38 77  1  0  0  0  0
 39 78  1  0  0  0  0
M  CHG  1  37   1
M  END
>  <energy>
237.00676765242011

$$$$
