CC(=O)OC1CC2CCC(C(C)(C)O)C3(C)C4CCC3C2(C)CC(O)C(O)C1(C)C4OC(=O)CCc1ccc(C(F)F)cc1
                    3D

 94 98  0  0  0  0  0  0  0  0999 V2000
   -3.8268    0.6458   -3.0303 C   0  0  0  0  0  0  0  0  0  0  0  0
   -2.8536   -0.4956   -2.9938 C   0  0  0  0  0  0  0  0  0  0  0  0
   -2.8582   -1.4217   -3.7890 O   0  0  0  0  0  0  0  0  0  0  0  0
   -2.0642   -0.4328   -1.8801 O   0  0  0  0  0  0  0  0  0  0  0  0
   -2.2443   -1.5236   -0.9433 C   0  0  0  0  0  0  0  0  0  0  0  0
   -1.4647   -2.7870   -1.2983 C   0  0  0  0  0  0  0  0  0  0  0  0
   -0.0004   -3.0707   -0.9457 C   0  0  0  0  0  0  0  0  0  0  0  0
    0.9862   -2.3142   -1.8192 C   0  0  0  0  0  0  0  0  0  0  0  0
    1.0526   -0.8224   -1.5989 C   0  0  0  0  0  0  0  0  0  0  0  0
    2.0070   -0.3961   -0.4955 C   0  0  0  0  0  0  0  0  0  0  0  0
    3.5520   -0.5445   -1.0160 C   0  0  0  0  0  0  0  0  0  0  0  0
    4.6085   -1.1951   -0.1168 C   0  0  0  0  0  0  0  0  0  0  0  0
    4.0809    0.8485   -1.4239 C   0  0  0  0  0  0  0  0  0  0  0  0
    3.6096   -1.2666   -2.2637 O   0  0  0  0  0  0  0  0  0  0  0  0
    1.5479   -0.8265    0.9607 C   0  0  0  0  0  0  0  0  0  0  0  0
    2.6882   -0.1998    1.8986 C   0  0  0  0  0  0  0  0  0  0  0  0
    0.2260   -0.2572    1.6046 C   0  0  0  0  0  0  0  0  0  0  0  0
    0.0904   -1.0587    2.9329 C   0  0  0  0  0  0  0  0  0  0  0  0
    1.0194   -2.2549    2.8213 C   0  0  0  0  0  0  0  0  0  0  0  0
    1.3766   -2.3367    1.3189 C   0  0  0  0  0  0  0  0  0  0  0  0
    0.4230   -3.3582    0.5345 C   0  0  0  0  0  0  0  0  0  0  0  0
    1.4235   -4.6139    0.4066 C   0  0  0  0  0  0  0  0  0  0  0  0
   -0.7540   -4.0289    1.3364 C   0  0  0  0  0  0  0  0  0  0  0  0
   -2.1541   -3.4996    1.6976 C   0  0  0  0  0  0  0  0  0  0  0  0
   -2.4342   -3.9429    3.0625 O   0  0  0  0  0  0  0  0  0  0  0  0
   -2.7928   -2.0953    1.4983 C   0  0  0  0  0  0  0  0  0  0  0  0
   -3.1787   -1.5787    2.7859 O   0  0  0  0  0  0  0  0  0  0  0  0
   -2.3114   -0.9660    0.5194 C   0  0  0  0  0  0  0  0  0  0  0  0
   -3.5913    0.0139    0.4201 C   0  0  0  0  0  0  0  0  0  0  0  0
   -1.1665    0.0528    0.9870 C   0  0  0  0  0  0  0  0  0  0  0  0
   -1.7881    0.7901    2.1444 O   0  0  0  0  0  0  0  0  0  0  0  0
   -1.7459    2.0960    2.4724 C   0  0  0  0  0  0  0  0  0  0  0  0
   -1.8138    2.4479    3.6477 O   0  0  0  0  0  0  0  0  0  0  0  0
   -1.6796    3.1041    1.3643 C   0  0  0  0  0  0  0  0  0  0  0  0
   -0.4024    3.9276    1.4804 C   0  0  0  0  0  0  0  0  0  0  0  0
   -0.0854    4.6521    0.1928 C   0  0  0  0  0  0  0  0  0  0  0  0
    0.5723    3.9794   -0.8437 C   0  0  0  0  0  0  0  0  0  0  0  0
    0.8761    4.6375   -2.0426 C   0  0  0  0  0  0  0  0  0  0  0  0
    0.5338    5.9879   -2.2352 C   0  0  0  0  0  0  0  0  0  0  0  0
    0.8658    6.6874   -3.5431 C   0  0  0  0  0  0  0  0  0  0  0  0
    0.6973    8.0428   -3.5241 F   0  0  0  0  0  0  0  0  0  0  0  0
    2.1550    6.4826   -3.9378 F   0  0  0  0  0  0  0  0  0  0  0  0
   -0.1446    6.6509   -1.2021 C   0  0  0  0  0  0  0  0  0  0  0  0
   -0.4507    5.9903   -0.0011 C   0  0  0  0  0  0  0  0  0  0  0  0
   -3.3846    1.5501   -2.6058 H   0  0  0  0  0  0  0  0  0  0  0  0
   -4.1122    0.8556   -4.0640 H   0  0  0  0  0  0  0  0  0  0  0  0
   -4.7174    0.3658   -2.4595 H   0  0  0  0  0  0  0  0  0  0  0  0
   -3.2737   -1.8687   -1.1390 H   0  0  0  0  0  0  0  0  0  0  0  0
   -1.5227   -2.8962   -2.3904 H   0  0  0  0  0  0  0  0  0  0  0  0
   -2.0557   -3.6401   -0.9447 H   0  0  0  0  0  0  0  0  0  0  0  0
    0.0714   -4.0729   -1.4065 H   0  0  0  0  0  0  0  0  0  0  0  0
    1.9633   -2.7883   -1.7116 H   0  0  0  0  0  0  0  0  0  0  0  0
    0.7135   -2.4809   -2.8710 H   0  0  0  0  0  0  0  0  0  0  0  0
    0.0821   -0.3982   -1.3943 H   0  0  0  0  0  0  0  0  0  0  0  0
    1.3593   -0.3455   -2.5403 H   0  0  0  0  0  0  0  0  0  0  0  0
    1.8642    0.6960   -0.4552 H   0  0  0  0  0  0  0  0  0  0  0  0
    4.2594   -2.1454    0.2929 H   0  0  0  0  0  0  0  0  0  0  0  0
    5.5098   -1.4416   -0.6948 H   0  0  0  0  0  0  0  0  0  0  0  0
    4.9476   -0.5358    0.6859 H   0  0  0  0  0  0  0  0  0  0  0  0
    3.4442    1.2975   -2.1954 H   0  0  0  0  0  0  0  0  0  0  0  0
    4.1398    1.5324   -0.5729 H   0  0  0  0  0  0  0  0  0  0  0  0
    5.0809    0.7698   -1.8706 H   0  0  0  0  0  0  0  0  0  0  0  0
    3.9179   -2.1732   -2.0926 H   0  0  0  0  0  0  0  0  0  0  0  0
    3.4829   -0.9189    2.1080 H   0  0  0  0  0  0  0  0  0  0  0  0
    2.3365    0.1231    2.8844 H   0  0  0  0  0  0  0  0  0  0  0  0
    3.1173    0.7077    1.4606 H   0  0  0  0  0  0  0  0  0  0  0  0
    0.5290    0.7571    1.9148 H   0  0  0  0  0  0  0  0  0  0  0  0
    0.3652   -0.4375    3.7940 H   0  0  0  0  0  0  0  0  0  0  0  0
   -0.9184   -1.3946    3.1321 H   0  0  0  0  0  0  0  0  0  0  0  0
    1.9234   -2.0768    3.4171 H   0  0  0  0  0  0  0  0  0  0  0  0
    0.5967   -3.1502    3.2723 H   0  0  0  0  0  0  0  0  0  0  0  0
    2.3913   -2.7493    1.2800 H   0  0  0  0  0  0  0  0  0  0  0  0
    0.9426   -5.4836   -0.0577 H   0  0  0  0  0  0  0  0  0  0  0  0
    2.3058   -4.3728   -0.1964 H   0  0  0  0  0  0  0  0  0  0  0  0
    1.7746   -4.9375    1.3951 H   0  0  0  0  0  0  0  0  0  0  0  0
   -1.0017   -4.9247    0.7388 H   0  0  0  0  0  0  0  0  0  0  0  0
   -0.3391   -4.5097    2.2316 H   0  0  0  0  0  0  0  0  0  0  0  0
   -2.8237   -4.1537    1.1200 H   0  0  0  0  0  0  0  0  0  0  0  0
   -1.9978   -3.2788    3.6350 H   0  0  0  0  0  0  0  0  0  0  0  0
   -3.7771   -2.3640    1.0796 H   0  0  0  0  0  0  0  0  0  0  0  0
   -3.7000   -2.2885    3.2225 H   0  0  0  0  0  0  0  0  0  0  0  0
   -3.3641    0.9043   -0.1776 H   0  0  0  0  0  0  0  0  0  0  0  0
   -4.4496   -0.4809   -0.0494 H   0  0  0  0  0  0  0  0  0  0  0  0
   -3.9449    0.3605    1.3958 H   0  0  0  0  0  0  0  0  0  0  0  0
   -1.0026    0.7742    0.1819 H   0  0  0  0  0  0  0  0  0  0  0  0
   -2.5602    3.7522    1.4658 H   0  0  0  0  0  0  0  0  0  0  0  0
   -1.7832    2.6316    0.3880 H   0  0  0  0  0  0  0  0  0  0  0  0
    0.4501    3.2919    1.7538 H   0  0  0  0  0  0  0  0  0  0  0  0
   -0.4977    4.6494    2.3034 H   0  0  0  0  0  0  0  0  0  0  0  0
    0.8609    2.9375   -0.7203 H   0  0  0  0  0  0  0  0  0  0  0  0
    1.3951    4.0850   -2.8245 H   0  0  0  0  0  0  0  0  0  0  0  0
    0.2132    6.2844   -4.3255 H   0  0  0  0  0  0  0  0  0  0  0  0
   -0.4291    7.6967   -1.3227 H   0  0  0  0  0  0  0  0  0  0  0  0
   -0.9684    6.5356    0.7865 H   0  0  0  0  0  0  0  0  0  0  0  0
  2  1  1  0  0  0  0
  3  2  2  0  0  0  0
  4  2  1  0  0  0  0
  5  4  1  0  0  0  0
  6  5  1  0  0  0  0
  7  6  1  0  0  0  0
  8  7  1  0  0  0  0
  9  8  1  0  0  0  0
 10  9  1  0  0  0  0
 11 10  1  0  0  0  0
 12 11  1  0  0  0  0
 13 11  1  0  0  0  0
 14 11  1  0  0  0  0
 15 10  1  0  0  0  0
 16 15  1  0  0  0  0
 17 15  1  0  0  0  0
 18 17  1  0  0  0  0
 19 18  1  0  0  0  0
 20 19  1  0  0  0  0
 20 15  1  0  0  0  0
 21 20  1  0  0  0  0
 21  7  1  0  0  0  0
 22 21  1  0  0  0  0
 23 21  1  0  0  0  0
 24 23  1  0  0  0  0
 25 24  1  0  0  0  0
 26 24  1  0  0  0  0
 27 26  1  0  0  0  0
 28 26  1  0  0  0  0
 28  5  1  0  0  0  0
 29 28  1  0  0  0  0
 30 28  1  0  0  0  0
 30 17  1  0  0  0  0
 31 30  1  0  0  0  0
 32 31  1  0  0  0  0
 33 32  2  0  0  0  0
 34 32  1  0  0  0  0
 35 34  1  0  0  0  0
 36 35  1  0  0  0  0
 37 36  2  0  0  0  0
 38 37  1  0  0  0  0
 39 38  2  0  0  0  0
 40 39  1  0  0  0  0
 41 40  1  0  0  0  0
 42 40  1  0  0  0  0
 43 39  1  0  0  0  0
 44 43  2  0  0  0  0
 44 36  1  0  0  0  0
  1 45  1  0  0  0  0
  1 46  1  0  0  0  0
  1 47  1  0  0  0  0
  5 48  1  0  0  0  0
  6 49  1  0  0  0  0
  6 50  1  0  0  0  0
  7 51  1  0  0  0  0
  8 52  1  0  0  0  0
  8 53  1  0  0  0  0
  9 54  1  0  0  0  0
  9 55  1  0  0  0  0
 10 56  1  0  0  0  0
 12 57  1  0  0  0  0
 12 58  1  0  0  0  0
 12 59  1  0  0  0  0
 13 60  1  0  0  0  0
 13 61  1  0  0  0  0
 13 62  1  0  0  0  0
 14 63  1  0  0  0  0
 16 64  1  0  0  0  0
 16 65  1  0  0  0  0
 16 66  1  0  0  0  0
 17 67  1  0  0  0  0
 18 68  1  0  0  0  0
 18 69  1  0  0  0  0
 19 70  1  0  0  0  0
 19 71  1  0  0  0  0
 20 72  1  0  0  0  0
 22 73  1  0  0  0  0
 22 74  1  0  0  0  0
 22 75  1  0  0  0  0
 23 76  1  0  0  0  0
 23 77  1  0  0  0  0
 24 78  1  0  0  0  0
 25 79  1  0  0  0  0
 26 80  1  0  0  0  0
 27 81  1  0  0  0  0
 29 82  1  0  0  0  0
 29 83  1  0  0  0  0
 29 84  1  0  0  0  0
 30 85  1  0  0  0  0
 34 86  1  0  0  0  0
 34 87  1  0  0  0  0
 35 88  1  0  0  0  0
 35 89  1  0  0  0  0
 37 90  1  0  0  0  0
 38 91  1  0  0  0  0
 40 92  1  0  0  0  0
 43 93  1  0  0  0  0
 44 94  1  0  0  0  0
M  END
>  <energy>
330.05719140863351

$$$$
