OC1C2CC(O)C3(OCC13)O2
                    3D

 21 23  0  0  0  0  0  0  0  0999 V2000
    0.9559    2.1069   -0.8963 O   0  0  0  0  0  0  0  0  0  0  0  0
    1.0818    1.0621    0.0587 C   0  0  0  0  0  0  0  0  0  0  0  0
   -0.0303    1.0955    1.1466 C   0  0  0  0  0  0  0  0  0  0  0  0
   -1.4593    0.9621    0.5545 C   0  0  0  0  0  0  0  0  0  0  0  0
   -1.5002   -0.5087    0.0531 C   0  0  0  0  0  0  0  0  0  0  0  0
   -1.7867   -0.5625   -1.3385 O   0  0  0  0  0  0  0  0  0  0  0  0
   -0.0719   -0.8937    0.3988 C   0  0  0  0  0  0  0  0  0  0  0  0
    0.4256   -2.2206    0.2256 O   0  0  0  0  0  0  0  0  0  0  0  0
    1.6883   -1.6185   -0.2340 C   0  0  0  0  0  0  0  0  0  0  0  0
    0.9386   -0.3150   -0.6103 C   0  0  0  0  0  0  0  0  0  0  0  0
    0.1516   -0.2312    1.6596 O   0  0  0  0  0  0  0  0  0  0  0  0
    0.1670    1.9452   -1.4463 H   0  0  0  0  0  0  0  0  0  0  0  0
    2.0688    1.1407    0.5282 H   0  0  0  0  0  0  0  0  0  0  0  0
    0.0826    1.8818    1.8962 H   0  0  0  0  0  0  0  0  0  0  0  0
   -1.6822    1.7042   -0.2160 H   0  0  0  0  0  0  0  0  0  0  0  0
   -2.1917    1.0712    1.3630 H   0  0  0  0  0  0  0  0  0  0  0  0
   -2.2407   -1.0939    0.6071 H   0  0  0  0  0  0  0  0  0  0  0  0
   -1.7503   -1.5040   -1.5924 H   0  0  0  0  0  0  0  0  0  0  0  0
    2.1085   -2.1759   -1.0759 H   0  0  0  0  0  0  0  0  0  0  0  0
    2.4209   -1.5514    0.5768 H   0  0  0  0  0  0  0  0  0  0  0  0
    0.6237   -0.2944   -1.6585 H   0  0  0  0  0  0  0  0  0  0  0  0
  2  1  1  0  0  0  0
  3  2  1  0  0  0  0
  4  3  1  0  0  0  0
  5  4  1  0  0  0  0
  6  5  1  0  0  0  0
  7  5  1  0  0  0  0
  8  7  1  0  0  0  0
  9  8  1  0  0  0  0
 10  9  1  0  0  0  0
 10  2  1  0  0  0  0
 10  7  1  0  0  0  0
 11  7  1  0  0  0  0
 11  3  1  0  0  0  0
  1 12  1  0  0  0  0
  2 13  1  0  0  0  0
  3 14  1  0  0  0  0
  4 15  1  0  0  0  0
  4 16  1  0  0  0  0
  5 17  1  0  0  0  0
  6 18  1  0  0  0  0
  9 19  1  0  0  0  0
  9 20  1  0  0  0  0
 10 21  1  0  0  0  0
M  END
>  <energy>
72.556363196159054

$$$$
