COC(=O)OC(CC(C)Cl)=C1C2=NOC3(C)C4C5OC3C13CC4(C)CC5(Cl)C3(O)C2=O
                    3D

 54 59  0  0  0  0  0  0  0  0999 V2000
   -4.1815    0.6128    1.3529 C   0  0  0  0  0  0  0  0  0  0  0  0
   -3.2579   -0.3752    0.9069 O   0  0  0  0  0  0  0  0  0  0  0  0
   -3.5279   -0.8378   -0.3381 C   0  0  0  0  0  0  0  0  0  0  0  0
   -4.5205   -0.5533   -0.9989 O   0  0  0  0  0  0  0  0  0  0  0  0
   -2.5890   -1.7324   -0.7615 O   0  0  0  0  0  0  0  0  0  0  0  0
   -1.3061   -2.0052   -0.2158 C   0  0  0  0  0  0  0  0  0  0  0  0
   -1.0808   -3.4867    0.0175 C   0  0  0  0  0  0  0  0  0  0  0  0
   -0.7220   -4.2651   -1.2571 C   0  0  0  0  0  0  0  0  0  0  0  0
    0.2646   -5.3842   -0.9430 C   0  0  0  0  0  0  0  0  0  0  0  0
   -2.1931   -4.9682   -1.9939 Cl  0  0  0  0  0  0  0  0  0  0  0  0
   -0.3141   -1.1065   -0.1100 C   0  0  0  0  0  0  0  0  0  0  0  0
    1.0073   -1.4758   -0.3961 C   0  0  0  0  0  0  0  0  0  0  0  0
    1.8988   -1.3758    0.5751 N   0  0  0  0  0  0  0  0  0  0  0  0
    1.5056   -0.4324    1.8361 O   0  0  0  0  0  0  0  0  0  0  0  0
    0.8279    0.9886    1.7885 C   0  0  0  0  0  0  0  0  0  0  0  0
    0.5811    1.3142    3.2610 C   0  0  0  0  0  0  0  0  0  0  0  0
    1.2948    2.3862    1.0067 C   0  0  0  0  0  0  0  0  0  0  0  0
    0.0086    2.8482    0.1766 C   0  0  0  0  0  0  0  0  0  0  0  0
   -1.0385    2.1313    0.7789 O   0  0  0  0  0  0  0  0  0  0  0  0
   -0.4477    0.8700    1.0231 C   0  0  0  0  0  0  0  0  0  0  0  0
    0.1924    0.3316   -0.2259 C   0  0  0  0  0  0  0  0  0  0  0  0
    2.0596    0.7941   -0.3556 C   0  0  0  0  0  0  0  0  0  0  0  0
    2.2479    2.2409   -0.1496 C   0  0  0  0  0  0  0  0  0  0  0  0
    3.6815    2.6552    0.1354 C   0  0  0  0  0  0  0  0  0  0  0  0
    1.6835    2.8616   -1.4258 C   0  0  0  0  0  0  0  0  0  0  0  0
    0.2429    2.3712   -1.3700 C   0  0  0  0  0  0  0  0  0  0  0  0
   -0.7493    3.3602   -2.4881 Cl  0  0  0  0  0  0  0  0  0  0  0  0
   -0.0561    0.7688   -1.6157 C   0  0  0  0  0  0  0  0  0  0  0  0
   -1.4097    0.5790   -1.9949 O   0  0  0  0  0  0  0  0  0  0  0  0
    0.9103   -0.6266   -1.8902 C   0  0  0  0  0  0  0  0  0  0  0  0
    1.3923   -0.9919   -2.9434 O   0  0  0  0  0  0  0  0  0  0  0  0
   -4.1990    1.4666    0.6678 H   0  0  0  0  0  0  0  0  0  0  0  0
   -5.1821    0.1830    1.4558 H   0  0  0  0  0  0  0  0  0  0  0  0
   -3.8532    0.9628    2.3365 H   0  0  0  0  0  0  0  0  0  0  0  0
   -1.9674   -3.9069    0.5099 H   0  0  0  0  0  0  0  0  0  0  0  0
   -0.2829   -3.5963    0.7653 H   0  0  0  0  0  0  0  0  0  0  0  0
   -0.2837   -3.6059   -2.0148 H   0  0  0  0  0  0  0  0  0  0  0  0
   -0.1617   -6.1187   -0.2497 H   0  0  0  0  0  0  0  0  0  0  0  0
    1.1729   -4.9796   -0.4824 H   0  0  0  0  0  0  0  0  0  0  0  0
    0.5690   -5.9015   -1.8561 H   0  0  0  0  0  0  0  0  0  0  0  0
    0.0748    0.4808    3.7645 H   0  0  0  0  0  0  0  0  0  0  0  0
   -0.0204    2.2163    3.3945 H   0  0  0  0  0  0  0  0  0  0  0  0
    1.5444    1.4589    3.7651 H   0  0  0  0  0  0  0  0  0  0  0  0
    1.5814    3.1622    1.7262 H   0  0  0  0  0  0  0  0  0  0  0  0
   -0.1485    3.9330    0.2572 H   0  0  0  0  0  0  0  0  0  0  0  0
   -1.1587    0.2406    1.5543 H   0  0  0  0  0  0  0  0  0  0  0  0
    2.5260    0.5349   -1.3186 H   0  0  0  0  0  0  0  0  0  0  0  0
    2.7636    0.3641    0.3597 H   0  0  0  0  0  0  0  0  0  0  0  0
    4.3392    2.3918   -0.6996 H   0  0  0  0  0  0  0  0  0  0  0  0
    4.0713    2.1631    1.0330 H   0  0  0  0  0  0  0  0  0  0  0  0
    3.7553    3.7348    0.2961 H   0  0  0  0  0  0  0  0  0  0  0  0
    2.1960    2.5477   -2.3410 H   0  0  0  0  0  0  0  0  0  0  0  0
    1.7479    3.9598   -1.3701 H   0  0  0  0  0  0  0  0  0  0  0  0
   -1.4890    0.8117   -2.9386 H   0  0  0  0  0  0  0  0  0  0  0  0
  2  1  1  0  0  0  0
  3  2  1  0  0  0  0
  4  3  2  0  0  0  0
  5  3  1  0  0  0  0
  6  5  1  0  0  0  0
  7  6  1  0  0  0  0
  8  7  1  0  0  0  0
  9  8  1  0  0  0  0
 10  8  1  0  0  0  0
 11  6  2  0  0  0  0
 12 11  1  0  0  0  0
 13 12  2  0  0  0  0
 14 13  1  0  0  0  0
 15 14  1  0  0  0  0
 16 15  1  0  0  0  0
 17 15  1  0  0  0  0
 18 17  1  0  0  0  0
 19 18  1  0  0  0  0
 20 19  1  0  0  0  0
 20 15  1  0  0  0  0
 21 20  1  0  0  0  0
 21 11  1  0  0  0  0
 22 21  1  0  0  0  0
 23 22  1  0  0  0  0
 23 17  1  0  0  0  0
 24 23  1  0  0  0  0
 25 23  1  0  0  0  0
 26 25  1  0  0  0  0
 26 18  1  0  0  0  0
 27 26  1  0  0  0  0
 28 26  1  0  0  0  0
 28 21  1  0  0  0  0
 29 28  1  0  0  0  0
 30 28  1  0  0  0  0
 30 12  1  0  0  0  0
 31 30  2  0  0  0  0
  1 32  1  0  0  0  0
  1 33  1  0  0  0  0
  1 34  1  0  0  0  0
  7 35  1  0  0  0  0
  7 36  1  0  0  0  0
  8 37  1  0  0  0  0
  9 38  1  0  0  0  0
  9 39  1  0  0  0  0
  9 40  1  0  0  0  0
 16 41  1  0  0  0  0
 16 42  1  0  0  0  0
 16 43  1  0  0  0  0
 17 44  1  0  0  0  0
 18 45  1  0  0  0  0
 20 46  1  0  0  0  0
 22 47  1  0  0  0  0
 22 48  1  0  0  0  0
 24 49  1  0  0  0  0
 24 50  1  0  0  0  0
 24 51  1  0  0  0  0
 25 52  1  0  0  0  0
 25 53  1  0  0  0  0
 29 54  1  0  0  0  0
M  END
>  <energy>
531.81990420018462

$$$$
