CC(Cl)N=CC1=COC2=Nc3c([N+](=O)[O-])cc(N4CC5COC(C5)C4)c(c31)C=C2
                    3D

 48 52  0  0  0  0  0  0  0  0999 V2000
    3.9092   -2.5559    1.7443 C   0  0  0  0  0  0  0  0  0  0  0  0
    4.4544   -1.5212    0.7694 C   0  0  0  0  0  0  0  0  0  0  0  0
    5.9024   -0.7745    1.5041 Cl  0  0  0  0  0  0  0  0  0  0  0  0
    3.3812   -0.5569    0.5175 N   0  0  0  0  0  0  0  0  0  0  0  0
    3.7104    0.5211   -0.1032 C   0  0  0  0  0  0  0  0  0  0  0  0
    2.7427    1.6049   -0.3911 C   0  0  0  0  0  0  0  0  0  0  0  0
    3.1933    2.8555   -0.1114 C   0  0  0  0  0  0  0  0  0  0  0  0
    2.4721    4.0775   -0.2171 O   0  0  0  0  0  0  0  0  0  0  0  0
    1.2368    3.7891   -0.7351 C   0  0  0  0  0  0  0  0  0  0  0  0
    1.1942    3.3632   -1.9719 N   0  0  0  0  0  0  0  0  0  0  0  0
    0.8645    1.9783   -1.9991 C   0  0  0  0  0  0  0  0  0  0  0  0
   -0.3050    1.5106   -2.5953 C   0  0  0  0  0  0  0  0  0  0  0  0
   -0.7036    1.9904   -3.8938 N   0  3  0  0  0  0  0  0  0  0  0  0
    0.1571    2.0134   -4.7842 O   0  0  0  0  0  0  0  0  0  0  0  0
   -1.9003    2.2711   -4.0473 O   0  5  0  0  0  0  0  0  0  0  0  0
   -1.1324    0.6285   -1.9007 C   0  0  0  0  0  0  0  0  0  0  0  0
   -0.8552    0.4138   -0.5480 C   0  0  0  0  0  0  0  0  0  0  0  0
   -1.7047   -0.3110    0.2889 N   0  0  0  0  0  0  0  0  0  0  0  0
   -3.1522   -0.0732    0.2649 C   0  0  0  0  0  0  0  0  0  0  0  0
   -3.9979   -1.3454    0.4168 C   0  0  0  0  0  0  0  0  0  0  0  0
   -4.0496   -1.8007    1.8691 C   0  0  0  0  0  0  0  0  0  0  0  0
   -2.8855   -2.6162    2.0753 O   0  0  0  0  0  0  0  0  0  0  0  0
   -2.2063   -2.7257    0.8023 C   0  0  0  0  0  0  0  0  0  0  0  0
   -3.2989   -2.5224   -0.2304 C   0  0  0  0  0  0  0  0  0  0  0  0
   -1.1437   -1.6141    0.7110 C   0  0  0  0  0  0  0  0  0  0  0  0
    0.3317    0.9993   -0.0305 C   0  0  0  0  0  0  0  0  0  0  0  0
    1.3752    1.2611   -0.9081 C   0  0  0  0  0  0  0  0  0  0  0  0
    0.0343    2.2006    0.8487 C   0  0  0  0  0  0  0  0  0  0  0  0
    0.3641    3.4660    0.4861 C   0  0  0  0  0  0  0  0  0  0  0  0
    3.0719   -3.1084    1.3021 H   0  0  0  0  0  0  0  0  0  0  0  0
    4.6775   -3.2800    2.0322 H   0  0  0  0  0  0  0  0  0  0  0  0
    3.5388   -2.0749    2.6581 H   0  0  0  0  0  0  0  0  0  0  0  0
    4.7607   -2.0069   -0.1648 H   0  0  0  0  0  0  0  0  0  0  0  0
    4.7419    0.7171   -0.4434 H   0  0  0  0  0  0  0  0  0  0  0  0
    4.1709    3.0861    0.2993 H   0  0  0  0  0  0  0  0  0  0  0  0
   -2.0244    0.2232   -2.3671 H   0  0  0  0  0  0  0  0  0  0  0  0
   -3.4564    0.4173   -0.6664 H   0  0  0  0  0  0  0  0  0  0  0  0
   -3.3952    0.6377    1.0644 H   0  0  0  0  0  0  0  0  0  0  0  0
   -5.0058   -1.1663    0.0297 H   0  0  0  0  0  0  0  0  0  0  0  0
   -4.0646   -0.9854    2.5979 H   0  0  0  0  0  0  0  0  0  0  0  0
   -4.9257   -2.4346    2.0477 H   0  0  0  0  0  0  0  0  0  0  0  0
   -1.7364   -3.7125    0.7436 H   0  0  0  0  0  0  0  0  0  0  0  0
   -3.9656   -3.3917   -0.2565 H   0  0  0  0  0  0  0  0  0  0  0  0
   -2.9345   -2.3259   -1.2424 H   0  0  0  0  0  0  0  0  0  0  0  0
   -0.6481   -1.4835    1.6797 H   0  0  0  0  0  0  0  0  0  0  0  0
   -0.3844   -1.9424   -0.0119 H   0  0  0  0  0  0  0  0  0  0  0  0
   -0.5422    1.9927    1.7443 H   0  0  0  0  0  0  0  0  0  0  0  0
    0.1335    4.3112    1.1223 H   0  0  0  0  0  0  0  0  0  0  0  0
  2  1  1  0  0  0  0
  3  2  1  0  0  0  0
  4  2  1  0  0  0  0
  5  4  2  0  0  0  0
  6  5  1  0  0  0  0
  7  6  2  0  0  0  0
  8  7  1  0  0  0  0
  9  8  1  0  0  0  0
 10  9  2  0  0  0  0
 11 10  1  0  0  0  0
 12 11  2  0  0  0  0
 13 12  1  0  0  0  0
 14 13  2  0  0  0  0
 15 13  1  0  0  0  0
 16 12  1  0  0  0  0
 17 16  2  0  0  0  0
 18 17  1  0  0  0  0
 19 18  1  0  0  0  0
 20 19  1  0  0  0  0
 21 20  1  0  0  0  0
 22 21  1  0  0  0  0
 23 22  1  0  0  0  0
 24 23  1  0  0  0  0
 24 20  1  0  0  0  0
 25 23  1  0  0  0  0
 25 18  1  0  0  0  0
 26 17  1  0  0  0  0
 27 26  2  0  0  0  0
 27 11  1  0  0  0  0
 27  6  1  0  0  0  0
 28 26  1  0  0  0  0
 29 28  2  0  0  0  0
 29  9  1  0  0  0  0
  1 30  1  0  0  0  0
  1 31  1  0  0  0  0
  1 32  1  0  0  0  0
  2 33  1  0  0  0  0
  5 34  1  0  0  0  0
  7 35  1  0  0  0  0
 16 36  1  0  0  0  0
 19 37  1  0  0  0  0
 19 38  1  0  0  0  0
 20 39  1  0  0  0  0
 21 40  1  0  0  0  0
 21 41  1  0  0  0  0
 23 42  1  0  0  0  0
 24 43  1  0  0  0  0
 24 44  1  0  0  0  0
 25 45  1  0  0  0  0
 25 46  1  0  0  0  0
 28 47  1  0  0  0  0
 29 48  1  0  0  0  0
M  CHG  2  13   1  15  -1
M  END
>  <energy>
266.43869951261109

$$$$
