COc1cc2c(Cl)c(Cl)c3c(O)c4c(O)n(C)c(O)c4c(C(C)(C)C)c3c2c(OC)c1OC
                    3D

 58 61  0  0  0  0  0  0  0  0999 V2000
    5.9958   -0.3378    1.0219 C   0  0  0  0  0  0  0  0  0  0  0  0
    5.3589    0.4417    0.0061 O   0  0  0  0  0  0  0  0  0  0  0  0
    4.0385    0.1079   -0.1509 C   0  0  0  0  0  0  0  0  0  0  0  0
    3.6382   -0.2750   -1.4283 C   0  0  0  0  0  0  0  0  0  0  0  0
    2.2778   -0.4934   -1.7191 C   0  0  0  0  0  0  0  0  0  0  0  0
    1.8276   -0.6798   -3.1188 C   0  0  0  0  0  0  0  0  0  0  0  0
    2.9683   -1.2956   -4.2791 Cl  0  0  0  0  0  0  0  0  0  0  0  0
    0.5651   -0.3544   -3.4646 C   0  0  0  0  0  0  0  0  0  0  0  0
   -0.0452   -0.5839   -5.0783 Cl  0  0  0  0  0  0  0  0  0  0  0  0
   -0.4064    0.0917   -2.4295 C   0  0  0  0  0  0  0  0  0  0  0  0
   -1.4837    0.9693   -2.6880 C   0  0  0  0  0  0  0  0  0  0  0  0
   -1.7298    1.6197   -3.8606 O   0  0  0  0  0  0  0  0  0  0  0  0
   -2.2692    1.1663   -1.5507 C   0  0  0  0  0  0  0  0  0  0  0  0
   -3.3228    2.0414   -1.4428 C   0  0  0  0  0  0  0  0  0  0  0  0
   -3.8515    2.8965   -2.3126 O   0  0  0  0  0  0  0  0  0  0  0  0
   -3.8163    1.9111   -0.1646 N   0  0  0  0  0  0  0  0  0  0  0  0
   -4.8339    2.7623    0.4072 C   0  0  0  0  0  0  0  0  0  0  0  0
   -3.1698    0.8774    0.5028 C   0  0  0  0  0  0  0  0  0  0  0  0
   -3.4923    0.5422    1.7511 O   0  0  0  0  0  0  0  0  0  0  0  0
   -2.1714    0.4134   -0.3346 C   0  0  0  0  0  0  0  0  0  0  0  0
   -1.2213   -0.6095   -0.1202 C   0  0  0  0  0  0  0  0  0  0  0  0
   -1.4679   -1.9919    0.5333 C   0  0  0  0  0  0  0  0  0  0  0  0
   -2.4477   -2.7413   -0.4133 C   0  0  0  0  0  0  0  0  0  0  0  0
   -2.1029   -1.9532    1.9304 C   0  0  0  0  0  0  0  0  0  0  0  0
   -0.2089   -2.8863    0.6363 C   0  0  0  0  0  0  0  0  0  0  0  0
   -0.1644   -0.4354   -1.0889 C   0  0  0  0  0  0  0  0  0  0  0  0
    1.2955   -0.4030   -0.6874 C   0  0  0  0  0  0  0  0  0  0  0  0
    1.7293   -0.0047    0.6113 C   0  0  0  0  0  0  0  0  0  0  0  0
    0.7698    0.2321    1.5709 O   0  0  0  0  0  0  0  0  0  0  0  0
    1.1180   -0.1422    2.9012 C   0  0  0  0  0  0  0  0  0  0  0  0
    3.0821    0.3250    0.8390 C   0  0  0  0  0  0  0  0  0  0  0  0
    3.4700    0.9965    1.9756 O   0  0  0  0  0  0  0  0  0  0  0  0
    3.1320    2.3846    1.8343 C   0  0  0  0  0  0  0  0  0  0  0  0
    5.5537   -0.1860    2.0081 H   0  0  0  0  0  0  0  0  0  0  0  0
    7.0419   -0.0206    1.0837 H   0  0  0  0  0  0  0  0  0  0  0  0
    5.9761   -1.3997    0.7585 H   0  0  0  0  0  0  0  0  0  0  0  0
    4.3913   -0.3073   -2.2091 H   0  0  0  0  0  0  0  0  0  0  0  0
   -1.1373    1.2426   -4.5395 H   0  0  0  0  0  0  0  0  0  0  0  0
   -3.3455    2.7721   -3.1419 H   0  0  0  0  0  0  0  0  0  0  0  0
   -4.4361    3.2052    1.3260 H   0  0  0  0  0  0  0  0  0  0  0  0
   -5.7111    2.1501    0.6345 H   0  0  0  0  0  0  0  0  0  0  0  0
   -5.1066    3.5600   -0.2860 H   0  0  0  0  0  0  0  0  0  0  0  0
   -4.3613    0.9100    1.9745 H   0  0  0  0  0  0  0  0  0  0  0  0
   -2.0221   -2.8685   -1.4134 H   0  0  0  0  0  0  0  0  0  0  0  0
   -3.3969   -2.2047   -0.5296 H   0  0  0  0  0  0  0  0  0  0  0  0
   -2.6852   -3.7404   -0.0257 H   0  0  0  0  0  0  0  0  0  0  0  0
   -3.1744   -1.7359    1.8797 H   0  0  0  0  0  0  0  0  0  0  0  0
   -1.6292   -1.2189    2.5840 H   0  0  0  0  0  0  0  0  0  0  0  0
   -2.0352   -2.9292    2.4274 H   0  0  0  0  0  0  0  0  0  0  0  0
   -0.4784   -3.8961    0.9729 H   0  0  0  0  0  0  0  0  0  0  0  0
    0.2975   -3.0065   -0.3268 H   0  0  0  0  0  0  0  0  0  0  0  0
    0.5081   -2.4949    1.3630 H   0  0  0  0  0  0  0  0  0  0  0  0
    1.7936   -1.0046    2.9351 H   0  0  0  0  0  0  0  0  0  0  0  0
    1.5444    0.7047    3.4460 H   0  0  0  0  0  0  0  0  0  0  0  0
    0.2002   -0.4058    3.4306 H   0  0  0  0  0  0  0  0  0  0  0  0
    3.6769    2.8441    1.0035 H   0  0  0  0  0  0  0  0  0  0  0  0
    3.4175    2.8989    2.7545 H   0  0  0  0  0  0  0  0  0  0  0  0
    2.0563    2.5397    1.7007 H   0  0  0  0  0  0  0  0  0  0  0  0
  2  1  1  0  0  0  0
  3  2  1  0  0  0  0
  4  3  2  0  0  0  0
  5  4  1  0  0  0  0
  6  5  1  0  0  0  0
  7  6  1  0  0  0  0
  8  6  2  0  0  0  0
  9  8  1  0  0  0  0
 10  8  1  0  0  0  0
 11 10  2  0  0  0  0
 12 11  1  0  0  0  0
 13 11  1  0  0  0  0
 14 13  2  0  0  0  0
 15 14  1  0  0  0  0
 16 14  1  0  0  0  0
 17 16  1  0  0  0  0
 18 16  1  0  0  0  0
 19 18  1  0  0  0  0
 20 18  2  0  0  0  0
 20 13  1  0  0  0  0
 21 20  1  0  0  0  0
 22 21  1  0  0  0  0
 23 22  1  0  0  0  0
 24 22  1  0  0  0  0
 25 22  1  0  0  0  0
 26 21  2  0  0  0  0
 26 10  1  0  0  0  0
 27 26  1  0  0  0  0
 27  5  2  0  0  0  0
 28 27  1  0  0  0  0
 29 28  1  0  0  0  0
 30 29  1  0  0  0  0
 31 28  2  0  0  0  0
 31  3  1  0  0  0  0
 32 31  1  0  0  0  0
 33 32  1  0  0  0  0
  1 34  1  0  0  0  0
  1 35  1  0  0  0  0
  1 36  1  0  0  0  0
  4 37  1  0  0  0  0
 12 38  1  0  0  0  0
 15 39  1  0  0  0  0
 17 40  1  0  0  0  0
 17 41  1  0  0  0  0
 17 42  1  0  0  0  0
 19 43  1  0  0  0  0
 23 44  1  0  0  0  0
 23 45  1  0  0  0  0
 23 46  1  0  0  0  0
 24 47  1  0  0  0  0
 24 48  1  0  0  0  0
 24 49  1  0  0  0  0
 25 50  1  0  0  0  0
 25 51  1  0  0  0  0
 25 52  1  0  0  0  0
 30 53  1  0  0  0  0
 30 54  1  0  0  0  0
 30 55  1  0  0  0  0
 33 56  1  0  0  0  0
 33 57  1  0  0  0  0
 33 58  1  0  0  0  0
M  END
>  <energy>
194.69878779976551

$$$$
