C#CCN1CCCN(C(=O)C(C)=CCC2C3C(C(=O)O)C4(C(=O)NC(C)(C)C)CCCC3(O)C43CC[N+]2(CCO)CC3
                    3D

100104  0  0  0  0  0  0  0  0999 V2000
    5.0044    3.8079    4.8348 C   0  0  0  0  0  0  0  0  0  0  0  0
    4.3989    3.6209    3.8109 C   0  0  0  0  0  0  0  0  0  0  0  0
    3.6390    3.3388    2.5876 C   0  0  0  0  0  0  0  0  0  0  0  0
    4.4285    2.4988    1.6789 N   0  0  0  0  0  0  0  0  0  0  0  0
    3.5984    1.4856    1.0275 C   0  0  0  0  0  0  0  0  0  0  0  0
    4.2712    0.6196   -0.0424 C   0  0  0  0  0  0  0  0  0  0  0  0
    4.7885    1.3701   -1.2657 C   0  0  0  0  0  0  0  0  0  0  0  0
    4.1993    2.6985   -1.4067 N   0  0  0  0  0  0  0  0  0  0  0  0
    3.1218    3.0148   -2.2159 C   0  0  0  0  0  0  0  0  0  0  0  0
    2.6870    4.1492   -2.3913 O   0  0  0  0  0  0  0  0  0  0  0  0
    2.3507    1.8720   -2.7827 C   0  0  0  0  0  0  0  0  0  0  0  0
    2.8555    1.1901   -4.0104 C   0  0  0  0  0  0  0  0  0  0  0  0
    1.1731    1.6624   -2.1670 C   0  0  0  0  0  0  0  0  0  0  0  0
    0.1709    0.6273   -2.5730 C   0  0  0  0  0  0  0  0  0  0  0  0
   -0.8950    0.2254   -1.5121 C   0  0  0  0  0  0  0  0  0  0  0  0
   -0.2837   -0.1585   -0.1046 C   0  0  0  0  0  0  0  0  0  0  0  0
   -0.5320   -1.6115    0.4242 C   0  0  0  0  0  0  0  0  0  0  0  0
    0.7609   -2.1429    1.0338 C   0  0  0  0  0  0  0  0  0  0  0  0
    1.8851   -1.7572    0.7616 O   0  0  0  0  0  0  0  0  0  0  0  0
    0.6006   -3.1529    1.9048 O   0  0  0  0  0  0  0  0  0  0  0  0
   -1.8548   -1.5475    1.3901 C   0  0  0  0  0  0  0  0  0  0  0  0
   -2.5936   -2.9287    1.2416 C   0  0  0  0  0  0  0  0  0  0  0  0
   -3.8032   -3.0593    1.3749 O   0  0  0  0  0  0  0  0  0  0  0  0
   -1.7673   -4.0033    1.0018 N   0  0  0  0  0  0  0  0  0  0  0  0
   -2.1946   -5.3465    0.5882 C   0  0  0  0  0  0  0  0  0  0  0  0
   -3.0433   -5.2733   -0.6910 C   0  0  0  0  0  0  0  0  0  0  0  0
   -2.9708   -6.0690    1.6944 C   0  0  0  0  0  0  0  0  0  0  0  0
   -0.9218   -6.1555    0.2598 C   0  0  0  0  0  0  0  0  0  0  0  0
   -1.6637   -1.4147    2.9022 C   0  0  0  0  0  0  0  0  0  0  0  0
   -0.5592   -0.4821    3.2928 C   0  0  0  0  0  0  0  0  0  0  0  0
   -0.4307    0.6875    2.3507 C   0  0  0  0  0  0  0  0  0  0  0  0
   -1.0127    0.6165    0.9050 C   0  0  0  0  0  0  0  0  0  0  0  0
   -0.8650    1.9866    0.5112 O   0  0  0  0  0  0  0  0  0  0  0  0
   -2.4739   -0.2044    0.7773 C   0  0  0  0  0  0  0  0  0  0  0  0
   -3.3079    1.0228    1.0458 C   0  0  0  0  0  0  0  0  0  0  0  0
   -3.1333    1.9115   -0.2675 C   0  0  0  0  0  0  0  0  0  0  0  0
   -2.3738    1.1153   -1.5594 N   0  3  0  0  0  0  0  0  0  0  0  0
   -2.4543    2.0971   -2.7533 C   0  0  0  0  0  0  0  0  0  0  0  0
   -1.6113    3.3706   -2.6012 C   0  0  0  0  0  0  0  0  0  0  0  0
   -0.7471    3.4873   -3.7272 O   0  0  0  0  0  0  0  0  0  0  0  0
   -3.3695    0.0297   -1.8003 C   0  0  0  0  0  0  0  0  0  0  0  0
   -3.3370   -0.8044   -0.5306 C   0  0  0  0  0  0  0  0  0  0  0  0
   -4.8315   -1.0976   -0.1800 C   0  0  0  0  0  0  0  0  0  0  0  0
    4.7800    3.7575   -0.5689 C   0  0  0  0  0  0  0  0  0  0  0  0
    5.3227    3.2833    0.8070 C   0  0  0  0  0  0  0  0  0  0  0  0
    5.5324    3.9443    5.7474 H   0  0  0  0  0  0  0  0  0  0  0  0
    3.3041    4.2618    2.0975 H   0  0  0  0  0  0  0  0  0  0  0  0
    2.7268    2.8115    2.9006 H   0  0  0  0  0  0  0  0  0  0  0  0
    3.2375    0.7980    1.8059 H   0  0  0  0  0  0  0  0  0  0  0  0
    2.6960    1.9454    0.6006 H   0  0  0  0  0  0  0  0  0  0  0  0
    3.5324   -0.1149   -0.3873 H   0  0  0  0  0  0  0  0  0  0  0  0
    5.0852    0.0348    0.3966 H   0  0  0  0  0  0  0  0  0  0  0  0
    5.8760    1.4832   -1.2220 H   0  0  0  0  0  0  0  0  0  0  0  0
    4.6084    0.7675   -2.1568 H   0  0  0  0  0  0  0  0  0  0  0  0
    2.0749    1.1358   -4.7747 H   0  0  0  0  0  0  0  0  0  0  0  0
    3.7072    1.7278   -4.4372 H   0  0  0  0  0  0  0  0  0  0  0  0
    3.1729    0.1670   -3.7839 H   0  0  0  0  0  0  0  0  0  0  0  0
    0.9112    2.2993   -1.3267 H   0  0  0  0  0  0  0  0  0  0  0  0
   -0.2858    0.8893   -3.5297 H   0  0  0  0  0  0  0  0  0  0  0  0
    0.7368   -0.2946   -2.7788 H   0  0  0  0  0  0  0  0  0  0  0  0
   -1.2077   -0.7350   -1.9411 H   0  0  0  0  0  0  0  0  0  0  0  0
    0.7790    0.1020   -0.1070 H   0  0  0  0  0  0  0  0  0  0  0  0
   -0.7213   -2.2623   -0.4416 H   0  0  0  0  0  0  0  0  0  0  0  0
    1.5118   -3.3576    2.2254 H   0  0  0  0  0  0  0  0  0  0  0  0
   -0.8895   -3.9767    1.5106 H   0  0  0  0  0  0  0  0  0  0  0  0
   -3.2479   -6.2757   -1.0888 H   0  0  0  0  0  0  0  0  0  0  0  0
   -4.0068   -4.7879   -0.5147 H   0  0  0  0  0  0  0  0  0  0  0  0
   -2.5303   -4.7003   -1.4721 H   0  0  0  0  0  0  0  0  0  0  0  0
   -3.8994   -5.5493    1.9519 H   0  0  0  0  0  0  0  0  0  0  0  0
   -3.2430   -7.0869    1.3860 H   0  0  0  0  0  0  0  0  0  0  0  0
   -2.3772   -6.1478    2.6112 H   0  0  0  0  0  0  0  0  0  0  0  0
   -0.3467   -5.6756   -0.5425 H   0  0  0  0  0  0  0  0  0  0  0  0
   -0.2593   -6.2271    1.1296 H   0  0  0  0  0  0  0  0  0  0  0  0
   -1.1623   -7.1757   -0.0634 H   0  0  0  0  0  0  0  0  0  0  0  0
   -1.4704   -2.3860    3.3727 H   0  0  0  0  0  0  0  0  0  0  0  0
   -2.6094   -1.0739    3.3447 H   0  0  0  0  0  0  0  0  0  0  0  0
    0.3927   -1.0158    3.3419 H   0  0  0  0  0  0  0  0  0  0  0  0
   -0.7243   -0.1309    4.3185 H   0  0  0  0  0  0  0  0  0  0  0  0
   -0.8913    1.5507    2.8538 H   0  0  0  0  0  0  0  0  0  0  0  0
    0.6323    0.9644    2.2996 H   0  0  0  0  0  0  0  0  0  0  0  0
   -0.0523    2.3707    0.8980 H   0  0  0  0  0  0  0  0  0  0  0  0
   -2.9970    1.6061    1.9162 H   0  0  0  0  0  0  0  0  0  0  0  0
   -4.3663    0.8415    1.2354 H   0  0  0  0  0  0  0  0  0  0  0  0
   -4.1341    2.1617   -0.6489 H   0  0  0  0  0  0  0  0  0  0  0  0
   -2.6403    2.8773   -0.1224 H   0  0  0  0  0  0  0  0  0  0  0  0
   -3.5065    2.3935   -2.8272 H   0  0  0  0  0  0  0  0  0  0  0  0
   -2.2173    1.5314   -3.6583 H   0  0  0  0  0  0  0  0  0  0  0  0
   -1.0157    3.4006   -1.6877 H   0  0  0  0  0  0  0  0  0  0  0  0
   -2.2650    4.2465   -2.5970 H   0  0  0  0  0  0  0  0  0  0  0  0
   -0.0032    4.0728   -3.4872 H   0  0  0  0  0  0  0  0  0  0  0  0
   -4.3461    0.4782   -2.0265 H   0  0  0  0  0  0  0  0  0  0  0  0
   -3.0849   -0.5422   -2.6916 H   0  0  0  0  0  0  0  0  0  0  0  0
   -2.9086   -1.7628   -0.8355 H   0  0  0  0  0  0  0  0  0  0  0  0
   -5.4877   -0.2485   -0.4080 H   0  0  0  0  0  0  0  0  0  0  0  0
   -4.9901   -1.2925    0.8852 H   0  0  0  0  0  0  0  0  0  0  0  0
   -5.2043   -1.9542   -0.7528 H   0  0  0  0  0  0  0  0  0  0  0  0
    4.0418    4.5490   -0.4092 H   0  0  0  0  0  0  0  0  0  0  0  0
    5.6057    4.1906   -1.1477 H   0  0  0  0  0  0  0  0  0  0  0  0
    5.7031    4.1626    1.3448 H   0  0  0  0  0  0  0  0  0  0  0  0
    6.2181    2.6714    0.6382 H   0  0  0  0  0  0  0  0  0  0  0  0
  2  1  3  0  0  0  0
  3  2  1  0  0  0  0
  4  3  1  0  0  0  0
  5  4  1  0  0  0  0
  6  5  1  0  0  0  0
  7  6  1  0  0  0  0
  8  7  1  0  0  0  0
  9  8  1  0  0  0  0
 10  9  2  0  0  0  0
 11  9  1  0  0  0  0
 12 11  1  0  0  0  0
 13 11  2  0  0  0  0
 14 13  1  0  0  0  0
 15 14  1  0  0  0  0
 16 15  1  0  0  0  0
 17 16  1  0  0  0  0
 18 17  1  0  0  0  0
 19 18  2  0  0  0  0
 20 18  1  0  0  0  0
 21 17  1  0  0  0  0
 22 21  1  0  0  0  0
 23 22  2  0  0  0  0
 24 22  1  0  0  0  0
 25 24  1  0  0  0  0
 26 25  1  0  0  0  0
 27 25  1  0  0  0  0
 28 25  1  0  0  0  0
 29 21  1  0  0  0  0
 30 29  1  0  0  0  0
 31 30  1  0  0  0  0
 32 31  1  0  0  0  0
 32 16  1  0  0  0  0
 33 32  1  0  0  0  0
 34 32  1  0  0  0  0
 34 21  1  0  0  0  0
 35 34  1  0  0  0  0
 36 35  1  0  0  0  0
 37 36  1  0  0  0  0
 37 15  1  0  0  0  0
 38 37  1  0  0  0  0
 39 38  1  0  0  0  0
 40 39  1  0  0  0  0
 41 37  1  0  0  0  0
 42 41  1  0  0  0  0
 42 34  1  0  0  0  0
 43 42  1  0  0  0  0
 44  8  1  0  0  0  0
 45 44  1  0  0  0  0
 45  4  1  0  0  0  0
  1 46  1  0  0  0  0
  3 47  1  0  0  0  0
  3 48  1  0  0  0  0
  5 49  1  0  0  0  0
  5 50  1  0  0  0  0
  6 51  1  0  0  0  0
  6 52  1  0  0  0  0
  7 53  1  0  0  0  0
  7 54  1  0  0  0  0
 12 55  1  0  0  0  0
 12 56  1  0  0  0  0
 12 57  1  0  0  0  0
 13 58  1  0  0  0  0
 14 59  1  0  0  0  0
 14 60  1  0  0  0  0
 15 61  1  0  0  0  0
 16 62  1  0  0  0  0
 17 63  1  0  0  0  0
 20 64  1  0  0  0  0
 24 65  1  0  0  0  0
 26 66  1  0  0  0  0
 26 67  1  0  0  0  0
 26 68  1  0  0  0  0
 27 69  1  0  0  0  0
 27 70  1  0  0  0  0
 27 71  1  0  0  0  0
 28 72  1  0  0  0  0
 28 73  1  0  0  0  0
 28 74  1  0  0  0  0
 29 75  1  0  0  0  0
 29 76  1  0  0  0  0
 30 77  1  0  0  0  0
 30 78  1  0  0  0  0
 31 79  1  0  0  0  0
 31 80  1  0  0  0  0
 33 81  1  0  0  0  0
 35 82  1  0  0  0  0
 35 83  1  0  0  0  0
 36 84  1  0  0  0  0
 36 85  1  0  0  0  0
 38 86  1  0  0  0  0
 38 87  1  0  0  0  0
 39 88  1  0  0  0  0
 39 89  1  0  0  0  0
 40 90  1  0  0  0  0
 41 91  1  0  0  0  0
 41 92  1  0  0  0  0
 42 93  1  0  0  0  0
 43 94  1  0  0  0  0
 43 95  1  0  0  0  0
 43 96  1  0  0  0  0
 44 97  1  0  0  0  0
 44 98  1  0  0  0  0
 45 99  1  0  0  0  0
 45100  1  0  0  0  0
M  CHG  1  37   1
M  END
>  <energy>
251.38818916995382

$$$$
