CC(CCl)CNC(=O)C=CC1(C)C2(C)OCC3CC4C(C)C(O)C5OC4(C)C5(F)C(O)C4OC41C32
                    3D

 72 77  0  0  0  0  0  0  0  0999 V2000
    3.9134   -1.9063    0.8111 C   0  0  0  0  0  0  0  0  0  0  0  0
    5.3627   -1.3934    0.8397 C   0  0  0  0  0  0  0  0  0  0  0  0
    6.1859   -2.1580    1.8852 C   0  0  0  0  0  0  0  0  0  0  0  0
    6.5117   -3.8374    1.3930 Cl  0  0  0  0  0  0  0  0  0  0  0  0
    5.4351    0.1075    1.1780 C   0  0  0  0  0  0  0  0  0  0  0  0
    4.5845    0.9252    0.3396 N   0  0  0  0  0  0  0  0  0  0  0  0
    4.3255    2.2201    0.7265 C   0  0  0  0  0  0  0  0  0  0  0  0
    5.0680    2.8965    1.4281 O   0  0  0  0  0  0  0  0  0  0  0  0
    2.9556    2.6946    0.3880 C   0  0  0  0  0  0  0  0  0  0  0  0
    2.1630    2.2004   -0.5796 C   0  0  0  0  0  0  0  0  0  0  0  0
    0.7174    2.6330   -0.6629 C   0  0  0  0  0  0  0  0  0  0  0  0
    0.6402    3.9539   -1.4389 C   0  0  0  0  0  0  0  0  0  0  0  0
   -0.1510    2.4490    0.6874 C   0  0  0  0  0  0  0  0  0  0  0  0
   -1.3316    3.4355    0.7994 C   0  0  0  0  0  0  0  0  0  0  0  0
    0.2854    2.2420    2.0491 O   0  0  0  0  0  0  0  0  0  0  0  0
   -0.5863    1.1842    2.5665 C   0  0  0  0  0  0  0  0  0  0  0  0
   -0.9714    0.2974    1.3386 C   0  0  0  0  0  0  0  0  0  0  0  0
   -2.4251    0.0572    0.9824 C   0  0  0  0  0  0  0  0  0  0  0  0
   -2.7337   -1.3717    0.4243 C   0  0  0  0  0  0  0  0  0  0  0  0
   -4.2260   -1.4337   -0.0846 C   0  0  0  0  0  0  0  0  0  0  0  0
   -5.0772   -2.1968    0.9414 C   0  0  0  0  0  0  0  0  0  0  0  0
   -4.4070   -1.9554   -1.5474 C   0  0  0  0  0  0  0  0  0  0  0  0
   -5.3155   -3.0623   -1.5652 O   0  0  0  0  0  0  0  0  0  0  0  0
   -3.0650   -2.3939   -2.1426 C   0  0  0  0  0  0  0  0  0  0  0  0
   -2.4003   -3.2288   -1.1368 O   0  0  0  0  0  0  0  0  0  0  0  0
   -1.7667   -1.9705   -0.6391 C   0  0  0  0  0  0  0  0  0  0  0  0
   -0.3869   -2.4236   -0.1487 C   0  0  0  0  0  0  0  0  0  0  0  0
   -1.7888   -1.4597   -2.1342 C   0  0  0  0  0  0  0  0  0  0  0  0
   -0.7506   -1.9556   -2.8779 F   0  0  0  0  0  0  0  0  0  0  0  0
   -1.9936   -0.0374   -2.6286 C   0  0  0  0  0  0  0  0  0  0  0  0
   -3.2360    0.5078   -2.1688 O   0  0  0  0  0  0  0  0  0  0  0  0
   -0.8545    0.9530   -2.3926 C   0  0  0  0  0  0  0  0  0  0  0  0
   -1.4313    2.0596   -1.6774 O   0  0  0  0  0  0  0  0  0  0  0  0
   -0.2572    1.4972   -1.1098 C   0  0  0  0  0  0  0  0  0  0  0  0
   -0.2003    0.9349    0.2187 C   0  0  0  0  0  0  0  0  0  0  0  0
    3.3567   -1.4949   -0.0362 H   0  0  0  0  0  0  0  0  0  0  0  0
    3.3790   -1.6331    1.7282 H   0  0  0  0  0  0  0  0  0  0  0  0
    3.8686   -2.9933    0.7054 H   0  0  0  0  0  0  0  0  0  0  0  0
    5.7980   -1.5420   -0.1574 H   0  0  0  0  0  0  0  0  0  0  0  0
    5.6641   -2.1913    2.8482 H   0  0  0  0  0  0  0  0  0  0  0  0
    7.1598   -1.6858    2.0424 H   0  0  0  0  0  0  0  0  0  0  0  0
    5.1314    0.2748    2.2188 H   0  0  0  0  0  0  0  0  0  0  0  0
    6.4612    0.4782    1.0774 H   0  0  0  0  0  0  0  0  0  0  0  0
    3.8411    0.4482   -0.1399 H   0  0  0  0  0  0  0  0  0  0  0  0
    2.5969    3.4575    1.0766 H   0  0  0  0  0  0  0  0  0  0  0  0
    2.5077    1.4679   -1.3032 H   0  0  0  0  0  0  0  0  0  0  0  0
    1.1714    4.7506   -0.9053 H   0  0  0  0  0  0  0  0  0  0  0  0
    1.0982    3.8523   -2.4304 H   0  0  0  0  0  0  0  0  0  0  0  0
   -0.3824    4.3067   -1.5991 H   0  0  0  0  0  0  0  0  0  0  0  0
   -0.9566    4.4106    1.1287 H   0  0  0  0  0  0  0  0  0  0  0  0
   -2.0747    3.1108    1.5327 H   0  0  0  0  0  0  0  0  0  0  0  0
   -1.8802    3.6047   -0.1253 H   0  0  0  0  0  0  0  0  0  0  0  0
   -1.4567    1.6229    3.0626 H   0  0  0  0  0  0  0  0  0  0  0  0
   -0.0105    0.6118    3.2992 H   0  0  0  0  0  0  0  0  0  0  0  0
   -0.5478   -0.6746    1.6054 H   0  0  0  0  0  0  0  0  0  0  0  0
   -3.0353    0.1795    1.8848 H   0  0  0  0  0  0  0  0  0  0  0  0
   -2.7760    0.8220    0.2847 H   0  0  0  0  0  0  0  0  0  0  0  0
   -2.6543   -2.0389    1.2956 H   0  0  0  0  0  0  0  0  0  0  0  0
   -4.6261   -0.4111   -0.0794 H   0  0  0  0  0  0  0  0  0  0  0  0
   -6.1389   -2.1482    0.6843 H   0  0  0  0  0  0  0  0  0  0  0  0
   -4.9643   -1.7616    1.9403 H   0  0  0  0  0  0  0  0  0  0  0  0
   -4.7817   -3.2499    0.9981 H   0  0  0  0  0  0  0  0  0  0  0  0
   -4.8741   -1.1815   -2.1625 H   0  0  0  0  0  0  0  0  0  0  0  0
   -5.6601   -3.1899   -2.4685 H   0  0  0  0  0  0  0  0  0  0  0  0
   -3.1802   -2.9257   -3.0921 H   0  0  0  0  0  0  0  0  0  0  0  0
    0.0089   -3.2307   -0.7819 H   0  0  0  0  0  0  0  0  0  0  0  0
    0.3562   -1.6279   -0.1990 H   0  0  0  0  0  0  0  0  0  0  0  0
   -0.4314   -2.8237    0.8701 H   0  0  0  0  0  0  0  0  0  0  0  0
   -2.1120   -0.0959   -3.7174 H   0  0  0  0  0  0  0  0  0  0  0  0
   -3.1145    1.4771   -2.1344 H   0  0  0  0  0  0  0  0  0  0  0  0
   -0.3091    1.1551   -3.3048 H   0  0  0  0  0  0  0  0  0  0  0  0
    0.7756    0.4047    0.2914 H   0  0  0  0  0  0  0  0  0  0  0  0
  2  1  1  0  0  0  0
  3  2  1  0  0  0  0
  4  3  1  0  0  0  0
  5  2  1  0  0  0  0
  6  5  1  0  0  0  0
  7  6  1  0  0  0  0
  8  7  2  0  0  0  0
  9  7  1  0  0  0  0
 10  9  2  0  0  0  0
 11 10  1  0  0  0  0
 12 11  1  0  0  0  0
 13 11  1  0  0  0  0
 14 13  1  0  0  0  0
 15 13  1  0  0  0  0
 16 15  1  0  0  0  0
 17 16  1  0  0  0  0
 18 17  1  0  0  0  0
 19 18  1  0  0  0  0
 20 19  1  0  0  0  0
 21 20  1  0  0  0  0
 22 20  1  0  0  0  0
 23 22  1  0  0  0  0
 24 22  1  0  0  0  0
 25 24  1  0  0  0  0
 26 25  1  0  0  0  0
 26 19  1  0  0  0  0
 27 26  1  0  0  0  0
 28 26  1  0  0  0  0
 28 24  1  0  0  0  0
 29 28  1  0  0  0  0
 30 28  1  0  0  0  0
 31 30  1  0  0  0  0
 32 30  1  0  0  0  0
 33 32  1  0  0  0  0
 34 33  1  0  0  0  0
 34 32  1  0  0  0  0
 34 11  1  0  0  0  0
 35 34  1  0  0  0  0
 35 17  1  0  0  0  0
 35 13  1  0  0  0  0
  1 36  1  0  0  0  0
  1 37  1  0  0  0  0
  1 38  1  0  0  0  0
  2 39  1  0  0  0  0
  3 40  1  0  0  0  0
  3 41  1  0  0  0  0
  5 42  1  0  0  0  0
  5 43  1  0  0  0  0
  6 44  1  0  0  0  0
  9 45  1  0  0  0  0
 10 46  1  0  0  0  0
 12 47  1  0  0  0  0
 12 48  1  0  0  0  0
 12 49  1  0  0  0  0
 14 50  1  0  0  0  0
 14 51  1  0  0  0  0
 14 52  1  0  0  0  0
 16 53  1  0  0  0  0
 16 54  1  0  0  0  0
 17 55  1  0  0  0  0
 18 56  1  0  0  0  0
 18 57  1  0  0  0  0
 19 58  1  0  0  0  0
 20 59  1  0  0  0  0
 21 60  1  0  0  0  0
 21 61  1  0  0  0  0
 21 62  1  0  0  0  0
 22 63  1  0  0  0  0
 23 64  1  0  0  0  0
 24 65  1  0  0  0  0
 27 66  1  0  0  0  0
 27 67  1  0  0  0  0
 27 68  1  0  0  0  0
 30 69  1  0  0  0  0
 31 70  1  0  0  0  0
 32 71  1  0  0  0  0
 35 72  1  0  0  0  0
M  END
>  <energy>
190.37565365180791

$$$$
