N#CC1CN2CCN(C1)C2=NN
                    3D

 23 24  0  0  0  0  0  0  0  0999 V2000
   -3.8171    1.3154   -0.0903 N   0  0  0  0  0  0  0  0  0  0  0  0
   -2.8285    0.7127   -0.0232 C   0  0  0  0  0  0  0  0  0  0  0  0
   -1.5923   -0.0681    0.0806 C   0  0  0  0  0  0  0  0  0  0  0  0
   -0.9752   -0.3124   -1.3174 C   0  0  0  0  0  0  0  0  0  0  0  0
    0.4629   -0.6712   -1.2008 N   0  0  0  0  0  0  0  0  0  0  0  0
    0.6934   -1.8979   -0.3970 C   0  0  0  0  0  0  0  0  0  0  0  0
    0.9440   -1.3306    1.0166 C   0  0  0  0  0  0  0  0  0  0  0  0
    0.8049    0.1359    0.8076 N   0  0  0  0  0  0  0  0  0  0  0  0
   -0.5902    0.6154    1.0440 C   0  0  0  0  0  0  0  0  0  0  0  0
    1.1335    0.3536   -0.5387 C   0  0  0  0  0  0  0  0  0  0  0  0
    1.7322    1.3612   -1.0791 N   0  0  0  0  0  0  0  0  0  0  0  0
    2.2745    2.2284   -0.1905 N   0  0  0  0  0  0  0  0  0  0  0  0
   -1.8460   -1.0478    0.5079 H   0  0  0  0  0  0  0  0  0  0  0  0
   -1.0610    0.5835   -1.9473 H   0  0  0  0  0  0  0  0  0  0  0  0
   -1.5152   -1.1100   -1.8419 H   0  0  0  0  0  0  0  0  0  0  0  0
    1.5807   -2.4231   -0.7665 H   0  0  0  0  0  0  0  0  0  0  0  0
   -0.1536   -2.5912   -0.4253 H   0  0  0  0  0  0  0  0  0  0  0  0
    0.2392   -1.7231    1.7572 H   0  0  0  0  0  0  0  0  0  0  0  0
    1.9610   -1.5613    1.3522 H   0  0  0  0  0  0  0  0  0  0  0  0
   -0.6066    1.7059    0.9149 H   0  0  0  0  0  0  0  0  0  0  0  0
   -0.8719    0.4270    2.0875 H   0  0  0  0  0  0  0  0  0  0  0  0
    2.1430    3.1895   -0.4977 H   0  0  0  0  0  0  0  0  0  0  0  0
    1.8883    2.1081    0.7472 H   0  0  0  0  0  0  0  0  0  0  0  0
  2  1  3  0  0  0  0
  3  2  1  0  0  0  0
  4  3  1  0  0  0  0
  5  4  1  0  0  0  0
  6  5  1  0  0  0  0
  7  6  1  0  0  0  0
  8  7  1  0  0  0  0
  9  8  1  0  0  0  0
  9  3  1  0  0  0  0
 10  8  1  0  0  0  0
 10  5  1  0  0  0  0
 11 10  2  0  0  0  0
 12 11  1  0  0  0  0
  3 13  1  0  0  0  0
  4 14  1  0  0  0  0
  4 15  1  0  0  0  0
  6 16  1  0  0  0  0
  6 17  1  0  0  0  0
  7 18  1  0  0  0  0
  7 19  1  0  0  0  0
  9 20  1  0  0  0  0
  9 21  1  0  0  0  0
 12 22  1  0  0  0  0
 12 23  1  0  0  0  0
M  END
>  <energy>
-3.8328248717840836

$$$$
