C=C(C(=O)NC)C1CCC(C)CC1C(O)C1OCc2ccc(cc2Br)CC1OC(=O)NC(C)Br
                    3D

 68 70  0  0  0  0  0  0  0  0999 V2000
   -0.5557   -0.0775   -3.3986 C   0  0  0  0  0  0  0  0  0  0  0  0
   -1.3338    0.5732   -2.5111 C   0  0  0  0  0  0  0  0  0  0  0  0
   -2.7411    0.0531   -2.4149 C   0  0  0  0  0  0  0  0  0  0  0  0
   -3.2298   -0.6656   -3.2835 O   0  0  0  0  0  0  0  0  0  0  0  0
   -3.4205    0.4171   -1.2875 N   0  0  0  0  0  0  0  0  0  0  0  0
   -4.7003   -0.1483   -0.9658 C   0  0  0  0  0  0  0  0  0  0  0  0
   -0.8101    1.8118   -1.7889 C   0  0  0  0  0  0  0  0  0  0  0  0
   -1.7958    2.9995   -1.6647 C   0  0  0  0  0  0  0  0  0  0  0  0
   -1.8050    3.6427   -0.2860 C   0  0  0  0  0  0  0  0  0  0  0  0
   -0.3951    4.0397    0.1729 C   0  0  0  0  0  0  0  0  0  0  0  0
   -0.4092    4.4324    1.6538 C   0  0  0  0  0  0  0  0  0  0  0  0
    0.6788    2.9719   -0.1251 C   0  0  0  0  0  0  0  0  0  0  0  0
    0.1275    1.5877   -0.5528 C   0  0  0  0  0  0  0  0  0  0  0  0
   -0.3716    0.8125    0.6968 C   0  0  0  0  0  0  0  0  0  0  0  0
   -1.7536    0.4805    0.6560 O   0  0  0  0  0  0  0  0  0  0  0  0
    0.4394   -0.4652    1.0795 C   0  0  0  0  0  0  0  0  0  0  0  0
   -0.1412   -0.8404    2.3473 O   0  0  0  0  0  0  0  0  0  0  0  0
    0.7139   -1.4517    3.3445 C   0  0  0  0  0  0  0  0  0  0  0  0
    0.3893   -2.9614    3.4027 C   0  0  0  0  0  0  0  0  0  0  0  0
   -0.9866   -3.2163    3.2858 C   0  0  0  0  0  0  0  0  0  0  0  0
   -1.4147   -3.5132    2.0053 C   0  0  0  0  0  0  0  0  0  0  0  0
   -0.4148   -3.6698    1.0399 C   0  0  0  0  0  0  0  0  0  0  0  0
    0.8499   -4.1288    1.4101 C   0  0  0  0  0  0  0  0  0  0  0  0
    1.2672   -3.7606    2.6735 C   0  0  0  0  0  0  0  0  0  0  0  0
    3.0917   -3.9116    3.1421 Br  0  0  0  0  0  0  0  0  0  0  0  0
   -0.4856   -2.7674   -0.1749 C   0  0  0  0  0  0  0  0  0  0  0  0
    0.4734   -1.5311   -0.0889 C   0  0  0  0  0  0  0  0  0  0  0  0
    1.8839   -1.9020   -0.1719 O   0  0  0  0  0  0  0  0  0  0  0  0
    2.3625   -2.1853   -1.4025 C   0  0  0  0  0  0  0  0  0  0  0  0
    1.6838   -2.5019   -2.3663 O   0  0  0  0  0  0  0  0  0  0  0  0
    3.7058   -2.0037   -1.4997 N   0  0  0  0  0  0  0  0  0  0  0  0
    4.5372   -1.3389   -0.5356 C   0  0  0  0  0  0  0  0  0  0  0  0
    4.3806    0.1771   -0.5661 C   0  0  0  0  0  0  0  0  0  0  0  0
    6.3873   -1.7586   -0.9966 Br  0  0  0  0  0  0  0  0  0  0  0  0
   -0.9056   -0.9495   -3.9458 H   0  0  0  0  0  0  0  0  0  0  0  0
    0.4684    0.2208   -3.5897 H   0  0  0  0  0  0  0  0  0  0  0  0
   -2.8508    0.7361   -0.5022 H   0  0  0  0  0  0  0  0  0  0  0  0
   -5.2759    0.5831   -0.3947 H   0  0  0  0  0  0  0  0  0  0  0  0
   -5.2466   -0.4400   -1.8658 H   0  0  0  0  0  0  0  0  0  0  0  0
   -4.5210   -1.0314   -0.3492 H   0  0  0  0  0  0  0  0  0  0  0  0
   -0.0964    2.2180   -2.5307 H   0  0  0  0  0  0  0  0  0  0  0  0
   -2.8164    2.7415   -1.9537 H   0  0  0  0  0  0  0  0  0  0  0  0
   -1.4900    3.7636   -2.3917 H   0  0  0  0  0  0  0  0  0  0  0  0
   -2.2690    2.9629    0.4410 H   0  0  0  0  0  0  0  0  0  0  0  0
   -2.4430    4.5357   -0.3104 H   0  0  0  0  0  0  0  0  0  0  0  0
   -0.1063    4.9431   -0.3865 H   0  0  0  0  0  0  0  0  0  0  0  0
    0.5811    4.7719    1.9764 H   0  0  0  0  0  0  0  0  0  0  0  0
   -0.7077    3.5946    2.2938 H   0  0  0  0  0  0  0  0  0  0  0  0
   -1.1141    5.2514    1.8259 H   0  0  0  0  0  0  0  0  0  0  0  0
    1.3774    2.8613    0.7121 H   0  0  0  0  0  0  0  0  0  0  0  0
    1.2949    3.3472   -0.9556 H   0  0  0  0  0  0  0  0  0  0  0  0
    1.0141    1.0555   -0.9217 H   0  0  0  0  0  0  0  0  0  0  0  0
   -0.2699    1.4743    1.5654 H   0  0  0  0  0  0  0  0  0  0  0  0
   -1.8924   -0.0900    1.4457 H   0  0  0  0  0  0  0  0  0  0  0  0
    1.4646   -0.1203    1.2651 H   0  0  0  0  0  0  0  0  0  0  0  0
    0.4471   -1.0068    4.3075 H   0  0  0  0  0  0  0  0  0  0  0  0
    1.7708   -1.2470    3.1487 H   0  0  0  0  0  0  0  0  0  0  0  0
   -1.7014   -2.7538    3.9675 H   0  0  0  0  0  0  0  0  0  0  0  0
   -2.4399   -3.2852    1.7239 H   0  0  0  0  0  0  0  0  0  0  0  0
    1.5742   -4.4433    0.6613 H   0  0  0  0  0  0  0  0  0  0  0  0
   -0.2356   -3.3815   -1.0484 H   0  0  0  0  0  0  0  0  0  0  0  0
   -1.5135   -2.4149   -0.3186 H   0  0  0  0  0  0  0  0  0  0  0  0
    0.2743   -0.9835   -1.0060 H   0  0  0  0  0  0  0  0  0  0  0  0
    4.0596   -2.1068   -2.4421 H   0  0  0  0  0  0  0  0  0  0  0  0
    4.3547   -1.7359    0.4698 H   0  0  0  0  0  0  0  0  0  0  0  0
    4.5265    0.5747   -1.5778 H   0  0  0  0  0  0  0  0  0  0  0  0
    5.0989    0.6730    0.1005 H   0  0  0  0  0  0  0  0  0  0  0  0
    3.3809    0.4815   -0.2424 H   0  0  0  0  0  0  0  0  0  0  0  0
  2  1  2  0  0  0  0
  3  2  1  0  0  0  0
  4  3  2  0  0  0  0
  5  3  1  0  0  0  0
  6  5  1  0  0  0  0
  7  2  1  0  0  0  0
  8  7  1  0  0  0  0
  9  8  1  0  0  0  0
 10  9  1  0  0  0  0
 11 10  1  0  0  0  0
 12 10  1  0  0  0  0
 13 12  1  0  0  0  0
 13  7  1  0  0  0  0
 14 13  1  0  0  0  0
 15 14  1  0  0  0  0
 16 14  1  0  0  0  0
 17 16  1  0  0  0  0
 18 17  1  0  0  0  0
 19 18  1  0  0  0  0
 20 19  2  0  0  0  0
 21 20  1  0  0  0  0
 22 21  2  0  0  0  0
 23 22  1  0  0  0  0
 24 23  2  0  0  0  0
 24 19  1  0  0  0  0
 25 24  1  0  0  0  0
 26 22  1  0  0  0  0
 27 26  1  0  0  0  0
 27 16  1  0  0  0  0
 28 27  1  0  0  0  0
 29 28  1  0  0  0  0
 30 29  2  0  0  0  0
 31 29  1  0  0  0  0
 32 31  1  0  0  0  0
 33 32  1  0  0  0  0
 34 32  1  0  0  0  0
  1 35  1  0  0  0  0
  1 36  1  0  0  0  0
  5 37  1  0  0  0  0
  6 38  1  0  0  0  0
  6 39  1  0  0  0  0
  6 40  1  0  0  0  0
  7 41  1  0  0  0  0
  8 42  1  0  0  0  0
  8 43  1  0  0  0  0
  9 44  1  0  0  0  0
  9 45  1  0  0  0  0
 10 46  1  0  0  0  0
 11 47  1  0  0  0  0
 11 48  1  0  0  0  0
 11 49  1  0  0  0  0
 12 50  1  0  0  0  0
 12 51  1  0  0  0  0
 13 52  1  0  0  0  0
 14 53  1  0  0  0  0
 15 54  1  0  0  0  0
 16 55  1  0  0  0  0
 18 56  1  0  0  0  0
 18 57  1  0  0  0  0
 20 58  1  0  0  0  0
 21 59  1  0  0  0  0
 23 60  1  0  0  0  0
 26 61  1  0  0  0  0
 26 62  1  0  0  0  0
 27 63  1  0  0  0  0
 31 64  1  0  0  0  0
 32 65  1  0  0  0  0
 33 66  1  0  0  0  0
 33 67  1  0  0  0  0
 33 68  1  0  0  0  0
M  END
>  <energy>
88.38426485848764

$$$$
