COC12c3c4cc(F)cc3C(C3C(CO)C5C3C5(CO)C1c1ccccc1O)C2O4
                    3D

 53 59  0  0  0  0  0  0  0  0999 V2000
   -0.5947   -2.9639   -1.5249 C   0  0  0  0  0  0  0  0  0  0  0  0
    0.1389   -1.7941   -1.8429 O   0  0  0  0  0  0  0  0  0  0  0  0
    0.5395   -0.9649   -0.7397 C   0  0  0  0  0  0  0  0  0  0  0  0
    1.4535   -1.6017    0.3543 C   0  0  0  0  0  0  0  0  0  0  0  0
    2.4596   -2.3222   -0.2602 C   0  0  0  0  0  0  0  0  0  0  0  0
    3.5573   -2.8272    0.4380 C   0  0  0  0  0  0  0  0  0  0  0  0
    3.8585   -2.1927    1.6375 C   0  0  0  0  0  0  0  0  0  0  0  0
    4.9532   -2.5458    2.3229 F   0  0  0  0  0  0  0  0  0  0  0  0
    3.1625   -1.0399    1.9967 C   0  0  0  0  0  0  0  0  0  0  0  0
    2.1172   -0.6510    1.1464 C   0  0  0  0  0  0  0  0  0  0  0  0
    2.4040    0.5322    0.1115 C   0  0  0  0  0  0  0  0  0  0  0  0
    1.4691    1.6998    0.4196 C   0  0  0  0  0  0  0  0  0  0  0  0
    1.1068    3.2326    0.5434 C   0  0  0  0  0  0  0  0  0  0  0  0
    0.9846    3.8809    1.9190 C   0  0  0  0  0  0  0  0  0  0  0  0
    0.1528    3.1215    2.7889 O   0  0  0  0  0  0  0  0  0  0  0  0
   -0.2605    2.7868   -0.1371 C   0  0  0  0  0  0  0  0  0  0  0  0
    0.6899    1.9277   -0.8504 C   0  0  0  0  0  0  0  0  0  0  0  0
   -0.6631    1.3879   -0.9143 C   0  0  0  0  0  0  0  0  0  0  0  0
   -1.3121    1.4588   -2.2850 C   0  0  0  0  0  0  0  0  0  0  0  0
   -0.5117    2.1915   -3.2162 O   0  0  0  0  0  0  0  0  0  0  0  0
   -0.6613   -0.0167   -0.2046 C   0  0  0  0  0  0  0  0  0  0  0  0
   -1.9760   -0.7078    0.2067 C   0  0  0  0  0  0  0  0  0  0  0  0
   -1.8687   -1.5886    1.3192 C   0  0  0  0  0  0  0  0  0  0  0  0
   -2.9543   -2.3059    1.8270 C   0  0  0  0  0  0  0  0  0  0  0  0
   -4.2009   -2.1610    1.2442 C   0  0  0  0  0  0  0  0  0  0  0  0
   -4.3511   -1.2974    0.1644 C   0  0  0  0  0  0  0  0  0  0  0  0
   -3.2544   -0.5795   -0.3444 C   0  0  0  0  0  0  0  0  0  0  0  0
   -3.4981    0.2400   -1.4005 O   0  0  0  0  0  0  0  0  0  0  0  0
    1.9005   -0.3144   -1.1690 C   0  0  0  0  0  0  0  0  0  0  0  0
    2.8111   -1.4930   -1.4018 O   0  0  0  0  0  0  0  0  0  0  0  0
   -0.2865   -3.4189   -0.5804 H   0  0  0  0  0  0  0  0  0  0  0  0
   -0.4196   -3.6924   -2.3225 H   0  0  0  0  0  0  0  0  0  0  0  0
   -1.6646   -2.7518   -1.5169 H   0  0  0  0  0  0  0  0  0  0  0  0
    4.2750   -3.4930   -0.0244 H   0  0  0  0  0  0  0  0  0  0  0  0
    3.5859   -0.3674    2.7342 H   0  0  0  0  0  0  0  0  0  0  0  0
    3.4670    0.7839    0.0617 H   0  0  0  0  0  0  0  0  0  0  0  0
    1.0097    1.3484    1.3478 H   0  0  0  0  0  0  0  0  0  0  0  0
    1.7279    3.8875   -0.0917 H   0  0  0  0  0  0  0  0  0  0  0  0
    0.5676    4.8898    1.8370 H   0  0  0  0  0  0  0  0  0  0  0  0
    1.9711    3.9639    2.3855 H   0  0  0  0  0  0  0  0  0  0  0  0
   -0.7233    3.0544    2.3699 H   0  0  0  0  0  0  0  0  0  0  0  0
   -0.6604    3.6795   -0.6119 H   0  0  0  0  0  0  0  0  0  0  0  0
    1.2487    2.3278   -1.6894 H   0  0  0  0  0  0  0  0  0  0  0  0
   -2.2608    1.9960   -2.2175 H   0  0  0  0  0  0  0  0  0  0  0  0
   -1.4543    0.4611   -2.7096 H   0  0  0  0  0  0  0  0  0  0  0  0
   -0.9555    2.1051   -4.0771 H   0  0  0  0  0  0  0  0  0  0  0  0
   -0.3836    0.2604    0.8143 H   0  0  0  0  0  0  0  0  0  0  0  0
   -0.9108   -1.7226    1.8216 H   0  0  0  0  0  0  0  0  0  0  0  0
   -2.8182   -2.9686    2.6778 H   0  0  0  0  0  0  0  0  0  0  0  0
   -5.0536   -2.7127    1.6293 H   0  0  0  0  0  0  0  0  0  0  0  0
   -5.3395   -1.1942   -0.2762 H   0  0  0  0  0  0  0  0  0  0  0  0
   -4.4503    0.2442   -1.5917 H   0  0  0  0  0  0  0  0  0  0  0  0
    1.8758    0.2278   -2.1186 H   0  0  0  0  0  0  0  0  0  0  0  0
  2  1  1  0  0  0  0
  3  2  1  0  0  0  0
  4  3  1  0  0  0  0
  5  4  2  0  0  0  0
  6  5  1  0  0  0  0
  7  6  2  0  0  0  0
  8  7  1  0  0  0  0
  9  7  1  0  0  0  0
 10  9  2  0  0  0  0
 10  4  1  0  0  0  0
 11 10  1  0  0  0  0
 12 11  1  0  0  0  0
 13 12  1  0  0  0  0
 14 13  1  0  0  0  0
 15 14  1  0  0  0  0
 16 13  1  0  0  0  0
 17 16  1  0  0  0  0
 17 12  1  0  0  0  0
 18 17  1  0  0  0  0
 18 16  1  0  0  0  0
 19 18  1  0  0  0  0
 20 19  1  0  0  0  0
 21 18  1  0  0  0  0
 21  3  1  0  0  0  0
 22 21  1  0  0  0  0
 23 22  2  0  0  0  0
 24 23  1  0  0  0  0
 25 24  2  0  0  0  0
 26 25  1  0  0  0  0
 27 26  2  0  0  0  0
 27 22  1  0  0  0  0
 28 27  1  0  0  0  0
 29 11  1  0  0  0  0
 29  3  1  0  0  0  0
 30 29  1  0  0  0  0
 30  5  1  0  0  0  0
  1 31  1  0  0  0  0
  1 32  1  0  0  0  0
  1 33  1  0  0  0  0
  6 34  1  0  0  0  0
  9 35  1  0  0  0  0
 11 36  1  0  0  0  0
 12 37  1  0  0  0  0
 13 38  1  0  0  0  0
 14 39  1  0  0  0  0
 14 40  1  0  0  0  0
 15 41  1  0  0  0  0
 16 42  1  0  0  0  0
 17 43  1  0  0  0  0
 19 44  1  0  0  0  0
 19 45  1  0  0  0  0
 20 46  1  0  0  0  0
 21 47  1  0  0  0  0
 23 48  1  0  0  0  0
 24 49  1  0  0  0  0
 25 50  1  0  0  0  0
 26 51  1  0  0  0  0
 28 52  1  0  0  0  0
 29 53  1  0  0  0  0
M  END
>  <energy>
315.62569368876228

$$$$
