N#CCC1(O)NC(=O)C2C3C=C(CO)C(OC4C(CO)C5C=C(O3)C54)C21
                    3D

 46 50  0  0  0  0  0  0  0  0999 V2000
    5.7052    0.6250   -2.6603 N   0  0  0  0  0  0  0  0  0  0  0  0
    4.5606    0.5613   -2.4719 C   0  0  0  0  0  0  0  0  0  0  0  0
    3.1167    0.4510   -2.2671 C   0  0  0  0  0  0  0  0  0  0  0  0
    2.7555   -0.1069   -0.8790 C   0  0  0  0  0  0  0  0  0  0  0  0
    3.2656    0.7183    0.1425 O   0  0  0  0  0  0  0  0  0  0  0  0
    3.2649   -1.4127   -0.6290 N   0  0  0  0  0  0  0  0  0  0  0  0
    2.3531   -2.2682   -0.0594 C   0  0  0  0  0  0  0  0  0  0  0  0
    2.6261   -3.3895    0.3288 O   0  0  0  0  0  0  0  0  0  0  0  0
    0.9964   -1.6050   -0.0163 C   0  0  0  0  0  0  0  0  0  0  0  0
    0.4884   -1.5176    1.4296 C   0  0  0  0  0  0  0  0  0  0  0  0
    0.5420   -0.1535    2.0650 C   0  0  0  0  0  0  0  0  0  0  0  0
    0.5283    0.9845    1.3452 C   0  0  0  0  0  0  0  0  0  0  0  0
    0.6145    2.3526    1.9676 C   0  0  0  0  0  0  0  0  0  0  0  0
   -0.0304    2.3703    3.2366 O   0  0  0  0  0  0  0  0  0  0  0  0
    0.4550    0.9092   -0.1682 C   0  0  0  0  0  0  0  0  0  0  0  0
   -0.8850    0.7374   -0.6835 O   0  0  0  0  0  0  0  0  0  0  0  0
   -2.0561    0.9241    0.1417 C   0  0  0  0  0  0  0  0  0  0  0  0
   -3.4101    0.4968   -0.5053 C   0  0  0  0  0  0  0  0  0  0  0  0
   -3.4349   -0.0568   -1.9203 C   0  0  0  0  0  0  0  0  0  0  0  0
   -3.0257    0.9570   -2.8323 O   0  0  0  0  0  0  0  0  0  0  0  0
   -3.6268   -0.5107    0.6356 C   0  0  0  0  0  0  0  0  0  0  0  0
   -2.9792   -1.8564    0.4886 C   0  0  0  0  0  0  0  0  0  0  0  0
   -1.8385   -1.4999    1.1199 C   0  0  0  0  0  0  0  0  0  0  0  0
   -0.8116   -2.1423    1.5240 O   0  0  0  0  0  0  0  0  0  0  0  0
   -2.3285   -0.0623    1.3003 C   0  0  0  0  0  0  0  0  0  0  0  0
    1.2281   -0.2751   -0.7661 C   0  0  0  0  0  0  0  0  0  0  0  0
    2.7078   -0.1948   -3.0534 H   0  0  0  0  0  0  0  0  0  0  0  0
    2.6605    1.4387   -2.3855 H   0  0  0  0  0  0  0  0  0  0  0  0
    3.6518    0.1191    0.8078 H   0  0  0  0  0  0  0  0  0  0  0  0
    4.2394   -1.6916   -0.6949 H   0  0  0  0  0  0  0  0  0  0  0  0
    0.3289   -2.2316   -0.6242 H   0  0  0  0  0  0  0  0  0  0  0  0
    1.1315   -2.1514    2.0541 H   0  0  0  0  0  0  0  0  0  0  0  0
    0.5932   -0.1254    3.1537 H   0  0  0  0  0  0  0  0  0  0  0  0
    1.6636    2.6419    2.1147 H   0  0  0  0  0  0  0  0  0  0  0  0
    0.1332    3.1090    1.3407 H   0  0  0  0  0  0  0  0  0  0  0  0
   -0.9847    2.2529    3.0848 H   0  0  0  0  0  0  0  0  0  0  0  0
    0.8246    1.8418   -0.6096 H   0  0  0  0  0  0  0  0  0  0  0  0
   -2.1092    1.9760    0.4571 H   0  0  0  0  0  0  0  0  0  0  0  0
   -4.1439    1.3115   -0.4388 H   0  0  0  0  0  0  0  0  0  0  0  0
   -2.7747   -0.9176   -2.0528 H   0  0  0  0  0  0  0  0  0  0  0  0
   -4.4544   -0.3627   -2.1907 H   0  0  0  0  0  0  0  0  0  0  0  0
   -2.0693    1.0828   -2.6801 H   0  0  0  0  0  0  0  0  0  0  0  0
   -4.5364   -0.4303    1.2388 H   0  0  0  0  0  0  0  0  0  0  0  0
   -3.3422   -2.7964    0.0848 H   0  0  0  0  0  0  0  0  0  0  0  0
   -2.4242    0.3495    2.3066 H   0  0  0  0  0  0  0  0  0  0  0  0
    0.8307   -0.4522   -1.7797 H   0  0  0  0  0  0  0  0  0  0  0  0
  2  1  3  0  0  0  0
  3  2  1  0  0  0  0
  4  3  1  0  0  0  0
  5  4  1  0  0  0  0
  6  4  1  0  0  0  0
  7  6  1  0  0  0  0
  8  7  2  0  0  0  0
  9  7  1  0  0  0  0
 10  9  1  0  0  0  0
 11 10  1  0  0  0  0
 12 11  2  0  0  0  0
 13 12  1  0  0  0  0
 14 13  1  0  0  0  0
 15 12  1  0  0  0  0
 16 15  1  0  0  0  0
 17 16  1  0  0  0  0
 18 17  1  0  0  0  0
 19 18  1  0  0  0  0
 20 19  1  0  0  0  0
 21 18  1  0  0  0  0
 22 21  1  0  0  0  0
 23 22  2  0  0  0  0
 24 23  1  0  0  0  0
 24 10  1  0  0  0  0
 25 23  1  0  0  0  0
 25 21  1  0  0  0  0
 25 17  1  0  0  0  0
 26 15  1  0  0  0  0
 26  9  1  0  0  0  0
 26  4  1  0  0  0  0
  3 27  1  0  0  0  0
  3 28  1  0  0  0  0
  5 29  1  0  0  0  0
  6 30  1  0  0  0  0
  9 31  1  0  0  0  0
 10 32  1  0  0  0  0
 11 33  1  0  0  0  0
 13 34  1  0  0  0  0
 13 35  1  0  0  0  0
 14 36  1  0  0  0  0
 15 37  1  0  0  0  0
 17 38  1  0  0  0  0
 18 39  1  0  0  0  0
 19 40  1  0  0  0  0
 19 41  1  0  0  0  0
 20 42  1  0  0  0  0
 21 43  1  0  0  0  0
 22 44  1  0  0  0  0
 25 45  1  0  0  0  0
 26 46  1  0  0  0  0
M  END
>  <energy>
-12.739926462701419

$$$$
