O=C1NCSC1COC1CC2C(O)C13C1C4C(O)C25OC(O)(C15)C43
                    3D

 43 49  0  0  0  0  0  0  0  0999 V2000
   -2.6044   -1.1661    1.7236 O   0  0  0  0  0  0  0  0  0  0  0  0
   -3.5100   -0.3984    1.4258 C   0  0  0  0  0  0  0  0  0  0  0  0
   -4.8291   -0.7629    1.5393 N   0  0  0  0  0  0  0  0  0  0  0  0
   -5.8340    0.1921    1.2039 C   0  0  0  0  0  0  0  0  0  0  0  0
   -5.0022    1.4825    0.2715 S   0  0  0  0  0  0  0  0  0  0  0  0
   -3.3593    1.0431    0.9408 C   0  0  0  0  0  0  0  0  0  0  0  0
   -2.2583    1.1688   -0.1018 C   0  0  0  0  0  0  0  0  0  0  0  0
   -1.0097    1.0562    0.5791 O   0  0  0  0  0  0  0  0  0  0  0  0
    0.1437    1.3983   -0.1856 C   0  0  0  0  0  0  0  0  0  0  0  0
    0.2713    0.7755   -1.7026 C   0  0  0  0  0  0  0  0  0  0  0  0
    1.7749    0.2650   -1.8969 C   0  0  0  0  0  0  0  0  0  0  0  0
    2.3878    1.3751   -0.8991 C   0  0  0  0  0  0  0  0  0  0  0  0
    2.0823    2.7148   -1.3054 O   0  0  0  0  0  0  0  0  0  0  0  0
    1.5703    0.9512    0.5642 C   0  0  0  0  0  0  0  0  0  0  0  0
    1.0496   -0.3324    0.4961 C   0  0  0  0  0  0  0  0  0  0  0  0
    3.0674   -0.3375    0.5181 C   0  0  0  0  0  0  0  0  0  0  0  0
    3.6373   -1.0839   -0.6171 C   0  0  0  0  0  0  0  0  0  0  0  0
    4.5776   -0.3693   -1.3955 O   0  0  0  0  0  0  0  0  0  0  0  0
    2.2565   -1.1529   -1.2572 C   0  0  0  0  0  0  0  0  0  0  0  0
    2.0656   -2.6237   -1.2314 O   0  0  0  0  0  0  0  0  0  0  0  0
    1.6729   -2.2860    0.4113 C   0  0  0  0  0  0  0  0  0  0  0  0
    0.9648   -3.3349    1.0697 O   0  0  0  0  0  0  0  0  0  0  0  0
    0.9275   -1.3420   -0.4743 C   0  0  0  0  0  0  0  0  0  0  0  0
    2.2101   -0.7675    1.5247 C   0  0  0  0  0  0  0  0  0  0  0  0
   -5.0385   -1.6956    1.8706 H   0  0  0  0  0  0  0  0  0  0  0  0
   -6.2492    0.6020    2.1285 H   0  0  0  0  0  0  0  0  0  0  0  0
   -6.6195   -0.2925    0.6193 H   0  0  0  0  0  0  0  0  0  0  0  0
   -3.1554    1.6748    1.8122 H   0  0  0  0  0  0  0  0  0  0  0  0
   -2.3077    2.1440   -0.6013 H   0  0  0  0  0  0  0  0  0  0  0  0
   -2.3380    0.3692   -0.8488 H   0  0  0  0  0  0  0  0  0  0  0  0
    0.1264    2.4945   -0.2448 H   0  0  0  0  0  0  0  0  0  0  0  0
    0.0823    1.5991   -2.4043 H   0  0  0  0  0  0  0  0  0  0  0  0
   -0.4814    0.0214   -1.9464 H   0  0  0  0  0  0  0  0  0  0  0  0
    2.1244    0.3904   -2.9240 H   0  0  0  0  0  0  0  0  0  0  0  0
    3.4709    1.4058   -0.7987 H   0  0  0  0  0  0  0  0  0  0  0  0
    2.5678    3.3146   -0.7092 H   0  0  0  0  0  0  0  0  0  0  0  0
    0.3287   -0.5126    1.3499 H   0  0  0  0  0  0  0  0  0  0  0  0
    3.7177    0.4139    0.9984 H   0  0  0  0  0  0  0  0  0  0  0  0
    4.0892   -2.0339   -0.3111 H   0  0  0  0  0  0  0  0  0  0  0  0
    4.7542   -0.9104   -2.1856 H   0  0  0  0  0  0  0  0  0  0  0  0
    0.1135   -2.9455    1.3335 H   0  0  0  0  0  0  0  0  0  0  0  0
   -0.0247   -1.6807   -0.8837 H   0  0  0  0  0  0  0  0  0  0  0  0
    2.5865   -0.8233    2.5445 H   0  0  0  0  0  0  0  0  0  0  0  0
  2  1  2  0  0  0  0
  3  2  1  0  0  0  0
  4  3  1  0  0  0  0
  5  4  1  0  0  0  0
  6  5  1  0  0  0  0
  6  2  1  0  0  0  0
  7  6  1  0  0  0  0
  8  7  1  0  0  0  0
  9  8  1  0  0  0  0
 10  9  1  0  0  0  0
 11 10  1  0  0  0  0
 12 11  1  0  0  0  0
 13 12  1  0  0  0  0
 14 12  1  0  0  0  0
 14  9  1  0  0  0  0
 15 14  1  0  0  0  0
 16 15  1  0  0  0  0
 17 16  1  0  0  0  0
 18 17  1  0  0  0  0
 19 17  1  0  0  0  0
 19 11  1  0  0  0  0
 20 19  1  0  0  0  0
 21 20  1  0  0  0  0
 22 21  1  0  0  0  0
 23 21  1  0  0  0  0
 23 15  1  0  0  0  0
 23 19  1  0  0  0  0
 24 21  1  0  0  0  0
 24 16  1  0  0  0  0
 24 14  1  0  0  0  0
  3 25  1  0  0  0  0
  4 26  1  0  0  0  0
  4 27  1  0  0  0  0
  6 28  1  0  0  0  0
  7 29  1  0  0  0  0
  7 30  1  0  0  0  0
  9 31  1  0  0  0  0
 10 32  1  0  0  0  0
 10 33  1  0  0  0  0
 11 34  1  0  0  0  0
 12 35  1  0  0  0  0
 13 36  1  0  0  0  0
 15 37  1  0  0  0  0
 16 38  1  0  0  0  0
 17 39  1  0  0  0  0
 18 40  1  0  0  0  0
 22 41  1  0  0  0  0
 23 42  1  0  0  0  0
 24 43  1  0  0  0  0
M  END
>  <energy>
514.65976530083572

$$$$
