CN1C(N=C=O)=NCC2C3CC2CC2CC(CC1C3)C21CCCC1
                    3D

 53 57  0  0  0  0  0  0  0  0999 V2000
   -3.7765    1.7947   -1.2968 C   0  0  0  0  0  0  0  0  0  0  0  0
   -2.6196    1.5902   -0.4159 N   0  0  0  0  0  0  0  0  0  0  0  0
   -2.8676    0.8604    0.7219 C   0  0  0  0  0  0  0  0  0  0  0  0
   -2.6211    1.3282    1.9799 N   0  0  0  0  0  0  0  0  0  0  0  0
   -2.7181    2.4870    2.1145 C   0  0  0  0  0  0  0  0  0  0  0  0
   -2.8015    3.6508    2.2675 O   0  0  0  0  0  0  0  0  0  0  0  0
   -3.2679   -0.3570    0.5527 N   0  0  0  0  0  0  0  0  0  0  0  0
   -2.6117   -1.3659    1.3693 C   0  0  0  0  0  0  0  0  0  0  0  0
   -1.6772   -2.0579    0.3691 C   0  0  0  0  0  0  0  0  0  0  0  0
   -1.4282   -1.4704   -1.0905 C   0  0  0  0  0  0  0  0  0  0  0  0
   -0.2126   -2.4465   -1.1534 C   0  0  0  0  0  0  0  0  0  0  0  0
   -0.1546   -2.4682    0.3956 C   0  0  0  0  0  0  0  0  0  0  0  0
    1.1085   -2.0472    1.1516 C   0  0  0  0  0  0  0  0  0  0  0  0
    1.3955   -0.5516    1.2529 C   0  0  0  0  0  0  0  0  0  0  0  0
    0.2905    0.4486    1.5605 C   0  0  0  0  0  0  0  0  0  0  0  0
    0.8016    1.4319    0.5107 C   0  0  0  0  0  0  0  0  0  0  0  0
   -0.1082    2.0186   -0.5742 C   0  0  0  0  0  0  0  0  0  0  0  0
   -1.3458    1.2806   -1.1407 C   0  0  0  0  0  0  0  0  0  0  0  0
   -1.1631   -0.1105   -1.7732 C   0  0  0  0  0  0  0  0  0  0  0  0
    2.0245    0.4850    0.2409 C   0  0  0  0  0  0  0  0  0  0  0  0
    3.3498    1.0669    0.7972 C   0  0  0  0  0  0  0  0  0  0  0  0
    4.4122    0.0980    0.2883 C   0  0  0  0  0  0  0  0  0  0  0  0
    3.8276   -0.5281   -0.9769 C   0  0  0  0  0  0  0  0  0  0  0  0
    2.4532    0.1104   -1.1644 C   0  0  0  0  0  0  0  0  0  0  0  0
   -3.5756    2.5949   -2.0181 H   0  0  0  0  0  0  0  0  0  0  0  0
   -4.0358    0.8809   -1.8420 H   0  0  0  0  0  0  0  0  0  0  0  0
   -4.6470    2.1100   -0.7095 H   0  0  0  0  0  0  0  0  0  0  0  0
   -3.3682   -2.0685    1.7409 H   0  0  0  0  0  0  0  0  0  0  0  0
   -2.0732   -1.0119    2.2520 H   0  0  0  0  0  0  0  0  0  0  0  0
   -2.2311   -3.0114    0.2300 H   0  0  0  0  0  0  0  0  0  0  0  0
   -2.2542   -1.8724   -1.7058 H   0  0  0  0  0  0  0  0  0  0  0  0
   -0.4832   -3.4222   -1.5846 H   0  0  0  0  0  0  0  0  0  0  0  0
    0.6887   -2.1397   -1.6734 H   0  0  0  0  0  0  0  0  0  0  0  0
   -0.1538   -3.5367    0.6959 H   0  0  0  0  0  0  0  0  0  0  0  0
    1.0100   -2.4335    2.1766 H   0  0  0  0  0  0  0  0  0  0  0  0
    1.9831   -2.5546    0.7287 H   0  0  0  0  0  0  0  0  0  0  0  0
    2.0639   -0.5718    2.1339 H   0  0  0  0  0  0  0  0  0  0  0  0
    0.2892    0.8274    2.5872 H   0  0  0  0  0  0  0  0  0  0  0  0
   -0.6718    0.0610    1.3236 H   0  0  0  0  0  0  0  0  0  0  0  0
    1.1729    2.3339    1.0300 H   0  0  0  0  0  0  0  0  0  0  0  0
    0.5409    2.2807   -1.4201 H   0  0  0  0  0  0  0  0  0  0  0  0
   -0.4706    2.9876   -0.2024 H   0  0  0  0  0  0  0  0  0  0  0  0
   -1.4705    1.8892   -2.0536 H   0  0  0  0  0  0  0  0  0  0  0  0
   -0.1795   -0.1279   -2.2479 H   0  0  0  0  0  0  0  0  0  0  0  0
   -1.8345   -0.1095   -2.6472 H   0  0  0  0  0  0  0  0  0  0  0  0
    3.3704    1.1682    1.8873 H   0  0  0  0  0  0  0  0  0  0  0  0
    3.5308    2.0611    0.3720 H   0  0  0  0  0  0  0  0  0  0  0  0
    4.6092   -0.6848    1.0309 H   0  0  0  0  0  0  0  0  0  0  0  0
    5.3590    0.6126    0.0925 H   0  0  0  0  0  0  0  0  0  0  0  0
    3.7309   -1.6130   -0.8444 H   0  0  0  0  0  0  0  0  0  0  0  0
    4.4663   -0.3596   -1.8505 H   0  0  0  0  0  0  0  0  0  0  0  0
    2.5622    1.0130   -1.7787 H   0  0  0  0  0  0  0  0  0  0  0  0
    1.7815   -0.5513   -1.6896 H   0  0  0  0  0  0  0  0  0  0  0  0
  2  1  1  0  0  0  0
  3  2  1  0  0  0  0
  4  3  1  0  0  0  0
  5  4  2  0  0  0  0
  6  5  2  0  0  0  0
  7  3  2  0  0  0  0
  8  7  1  0  0  0  0
  9  8  1  0  0  0  0
 10  9  1  0  0  0  0
 11 10  1  0  0  0  0
 12 11  1  0  0  0  0
 12  9  1  0  0  0  0
 13 12  1  0  0  0  0
 14 13  1  0  0  0  0
 15 14  1  0  0  0  0
 16 15  1  0  0  0  0
 17 16  1  0  0  0  0
 18 17  1  0  0  0  0
 18  2  1  0  0  0  0
 19 18  1  0  0  0  0
 19 10  1  0  0  0  0
 20 16  1  0  0  0  0
 20 14  1  0  0  0  0
 21 20  1  0  0  0  0
 22 21  1  0  0  0  0
 23 22  1  0  0  0  0
 24 23  1  0  0  0  0
 24 20  1  0  0  0  0
  1 25  1  0  0  0  0
  1 26  1  0  0  0  0
  1 27  1  0  0  0  0
  8 28  1  0  0  0  0
  8 29  1  0  0  0  0
  9 30  1  0  0  0  0
 10 31  1  0  0  0  0
 11 32  1  0  0  0  0
 11 33  1  0  0  0  0
 12 34  1  0  0  0  0
 13 35  1  0  0  0  0
 13 36  1  0  0  0  0
 14 37  1  0  0  0  0
 15 38  1  0  0  0  0
 15 39  1  0  0  0  0
 16 40  1  0  0  0  0
 17 41  1  0  0  0  0
 17 42  1  0  0  0  0
 18 43  1  0  0  0  0
 19 44  1  0  0  0  0
 19 45  1  0  0  0  0
 21 46  1  0  0  0  0
 21 47  1  0  0  0  0
 22 48  1  0  0  0  0
 22 49  1  0  0  0  0
 23 50  1  0  0  0  0
 23 51  1  0  0  0  0
 24 52  1  0  0  0  0
 24 53  1  0  0  0  0
M  END
>  <energy>
80.92991862405529

$$$$
