C=C1C(O)C23CCC1(O)C(C)(O)C1CCC2(C)C2CC(OOC(OC4CC(O)C(O)(CO)O4)CC1(O)C=O)C2C3
                    3D

 82 87  0  0  0  0  0  0  0  0999 V2000
    3.8848   -1.4950   -2.6261 C   0  0  0  0  0  0  0  0  0  0  0  0
    3.6920   -1.0458   -1.3700 C   0  0  0  0  0  0  0  0  0  0  0  0
    4.1433    0.3636   -0.9176 C   0  0  0  0  0  0  0  0  0  0  0  0
    4.7279    1.1021   -1.9757 O   0  0  0  0  0  0  0  0  0  0  0  0
    2.9391    1.0392   -0.1962 C   0  0  0  0  0  0  0  0  0  0  0  0
    2.9170    0.1970    1.1404 C   0  0  0  0  0  0  0  0  0  0  0  0
    3.3972   -1.2675    1.0907 C   0  0  0  0  0  0  0  0  0  0  0  0
    3.1333   -1.9612   -0.2539 C   0  0  0  0  0  0  0  0  0  0  0  0
    4.0563   -3.0851   -0.2977 O   0  0  0  0  0  0  0  0  0  0  0  0
    1.5948   -2.6138   -0.2479 C   0  0  0  0  0  0  0  0  0  0  0  0
    1.7063   -3.9730    0.4874 C   0  0  0  0  0  0  0  0  0  0  0  0
    1.1988   -3.0117   -1.5756 O   0  0  0  0  0  0  0  0  0  0  0  0
    0.4487   -1.6448    0.3256 C   0  0  0  0  0  0  0  0  0  0  0  0
   -0.0721   -0.6582   -0.7449 C   0  0  0  0  0  0  0  0  0  0  0  0
    0.8114    0.1306   -1.6750 C   0  0  0  0  0  0  0  0  0  0  0  0
    1.7107    1.2937   -1.2322 C   0  0  0  0  0  0  0  0  0  0  0  0
    2.2454    1.8070   -2.6443 C   0  0  0  0  0  0  0  0  0  0  0  0
    0.9467    2.5772   -0.7501 C   0  0  0  0  0  0  0  0  0  0  0  0
   -0.3964    2.7576   -0.0106 C   0  0  0  0  0  0  0  0  0  0  0  0
    0.3521    2.5835    1.3175 C   0  0  0  0  0  0  0  0  0  0  0  0
    0.2131    1.2581    1.8649 O   0  0  0  0  0  0  0  0  0  0  0  0
   -1.0514    1.2389    2.5941 O   0  0  0  0  0  0  0  0  0  0  0  0
   -1.8568    0.1471    2.0929 C   0  0  0  0  0  0  0  0  0  0  0  0
   -3.0899    0.1734    2.8324 O   0  0  0  0  0  0  0  0  0  0  0  0
   -4.2232    0.6119    2.1010 C   0  0  0  0  0  0  0  0  0  0  0  0
   -4.1639    2.0485    1.5965 C   0  0  0  0  0  0  0  0  0  0  0  0
   -4.7841    1.9895    0.2124 C   0  0  0  0  0  0  0  0  0  0  0  0
   -3.7879    2.3502   -0.7497 O   0  0  0  0  0  0  0  0  0  0  0  0
   -5.2786    0.5355    0.0770 C   0  0  0  0  0  0  0  0  0  0  0  0
   -6.6399    0.4842    0.5045 O   0  0  0  0  0  0  0  0  0  0  0  0
   -5.1295   -0.0592   -1.3382 C   0  0  0  0  0  0  0  0  0  0  0  0
   -5.6919    0.7973   -2.3363 O   0  0  0  0  0  0  0  0  0  0  0  0
   -4.5167   -0.2428    0.9964 O   0  0  0  0  0  0  0  0  0  0  0  0
   -1.1877   -1.2162    2.3679 C   0  0  0  0  0  0  0  0  0  0  0  0
   -0.8442   -2.1515    1.1428 C   0  0  0  0  0  0  0  0  0  0  0  0
   -2.0097   -2.2239    0.2976 O   0  0  0  0  0  0  0  0  0  0  0  0
   -0.7868   -3.5469    1.7647 C   0  0  0  0  0  0  0  0  0  0  0  0
   -0.1701   -3.8292    2.7868 O   0  0  0  0  0  0  0  0  0  0  0  0
    1.6689    3.0345    0.5221 C   0  0  0  0  0  0  0  0  0  0  0  0
    3.0995    2.4895    0.3263 C   0  0  0  0  0  0  0  0  0  0  0  0
    4.3186   -0.8595   -3.3905 H   0  0  0  0  0  0  0  0  0  0  0  0
    3.6218   -2.5009   -2.9330 H   0  0  0  0  0  0  0  0  0  0  0  0
    4.9777    0.2412   -0.2163 H   0  0  0  0  0  0  0  0  0  0  0  0
    4.9976    1.9622   -1.6160 H   0  0  0  0  0  0  0  0  0  0  0  0
    3.6387    0.6499    1.8408 H   0  0  0  0  0  0  0  0  0  0  0  0
    2.0094    0.2846    1.7066 H   0  0  0  0  0  0  0  0  0  0  0  0
    2.9807   -1.8305    1.9364 H   0  0  0  0  0  0  0  0  0  0  0  0
    4.4794   -1.2831    1.2972 H   0  0  0  0  0  0  0  0  0  0  0  0
    4.9543   -2.7189   -0.3903 H   0  0  0  0  0  0  0  0  0  0  0  0
    2.4364   -4.6348    0.0049 H   0  0  0  0  0  0  0  0  0  0  0  0
    2.0030   -3.8630    1.5323 H   0  0  0  0  0  0  0  0  0  0  0  0
    0.7940   -4.5644    0.3968 H   0  0  0  0  0  0  0  0  0  0  0  0
    1.9511   -3.5134   -1.9377 H   0  0  0  0  0  0  0  0  0  0  0  0
    0.9456   -1.0926    1.0992 H   0  0  0  0  0  0  0  0  0  0  0  0
   -0.7397    0.0511   -0.2814 H   0  0  0  0  0  0  0  0  0  0  0  0
   -0.7133   -1.2339   -1.4255 H   0  0  0  0  0  0  0  0  0  0  0  0
    1.3708   -0.5742   -2.2919 H   0  0  0  0  0  0  0  0  0  0  0  0
    0.1008    0.5595   -2.3992 H   0  0  0  0  0  0  0  0  0  0  0  0
    1.4159    2.1561   -3.2734 H   0  0  0  0  0  0  0  0  0  0  0  0
    2.9222    2.6617   -2.5471 H   0  0  0  0  0  0  0  0  0  0  0  0
    2.7332    1.0247   -3.2281 H   0  0  0  0  0  0  0  0  0  0  0  0
    0.9885    3.3642   -1.5207 H   0  0  0  0  0  0  0  0  0  0  0  0
   -0.8287    3.7623   -0.1234 H   0  0  0  0  0  0  0  0  0  0  0  0
   -1.1827    2.0467   -0.2600 H   0  0  0  0  0  0  0  0  0  0  0  0
    0.0830    3.3299    2.0754 H   0  0  0  0  0  0  0  0  0  0  0  0
   -2.0686    0.3117    1.0403 H   0  0  0  0  0  0  0  0  0  0  0  0
   -5.0720    0.5266    2.7909 H   0  0  0  0  0  0  0  0  0  0  0  0
   -4.7582    2.6883    2.2611 H   0  0  0  0  0  0  0  0  0  0  0  0
   -3.1531    2.4645    1.5899 H   0  0  0  0  0  0  0  0  0  0  0  0
   -5.6024    2.7128    0.1184 H   0  0  0  0  0  0  0  0  0  0  0  0
   -4.2428    2.3294   -1.6169 H   0  0  0  0  0  0  0  0  0  0  0  0
   -6.9543   -0.4051    0.2741 H   0  0  0  0  0  0  0  0  0  0  0  0
   -4.0743   -0.2246   -1.5802 H   0  0  0  0  0  0  0  0  0  0  0  0
   -5.6403   -1.0266   -1.3977 H   0  0  0  0  0  0  0  0  0  0  0  0
   -5.7009    0.2910   -3.1687 H   0  0  0  0  0  0  0  0  0  0  0  0
   -1.8753   -1.7759    3.0214 H   0  0  0  0  0  0  0  0  0  0  0  0
   -0.2760   -1.0788    2.9662 H   0  0  0  0  0  0  0  0  0  0  0  0
   -1.7642   -2.7217   -0.5059 H   0  0  0  0  0  0  0  0  0  0  0  0
   -1.3447   -4.3336    1.2206 H   0  0  0  0  0  0  0  0  0  0  0  0
    1.7624    4.1303    0.5958 H   0  0  0  0  0  0  0  0  0  0  0  0
    3.6812    2.5898    1.2490 H   0  0  0  0  0  0  0  0  0  0  0  0
    3.6187    3.1122   -0.4133 H   0  0  0  0  0  0  0  0  0  0  0  0
  2  1  2  0  0  0  0
  3  2  1  0  0  0  0
  4  3  1  0  0  0  0
  5  3  1  0  0  0  0
  6  5  1  0  0  0  0
  7  6  1  0  0  0  0
  8  7  1  0  0  0  0
  8  2  1  0  0  0  0
  9  8  1  0  0  0  0
 10  8  1  0  0  0  0
 11 10  1  0  0  0  0
 12 10  1  0  0  0  0
 13 10  1  0  0  0  0
 14 13  1  0  0  0  0
 15 14  1  0  0  0  0
 16 15  1  0  0  0  0
 16  5  1  0  0  0  0
 17 16  1  0  0  0  0
 18 16  1  0  0  0  0
 19 18  1  0  0  0  0
 20 19  1  0  0  0  0
 21 20  1  0  0  0  0
 22 21  1  0  0  0  0
 23 22  1  0  0  0  0
 24 23  1  0  0  0  0
 25 24  1  0  0  0  0
 26 25  1  0  0  0  0
 27 26  1  0  0  0  0
 28 27  1  0  0  0  0
 29 27  1  0  0  0  0
 30 29  1  0  0  0  0
 31 29  1  0  0  0  0
 32 31  1  0  0  0  0
 33 29  1  0  0  0  0
 33 25  1  0  0  0  0
 34 23  1  0  0  0  0
 35 34  1  0  0  0  0
 35 13  1  0  0  0  0
 36 35  1  0  0  0  0
 37 35  1  0  0  0  0
 38 37  2  0  0  0  0
 39 20  1  0  0  0  0
 39 18  1  0  0  0  0
 40 39  1  0  0  0  0
 40  5  1  0  0  0  0
  1 41  1  0  0  0  0
  1 42  1  0  0  0  0
  3 43  1  0  0  0  0
  4 44  1  0  0  0  0
  6 45  1  0  0  0  0
  6 46  1  0  0  0  0
  7 47  1  0  0  0  0
  7 48  1  0  0  0  0
  9 49  1  0  0  0  0
 11 50  1  0  0  0  0
 11 51  1  0  0  0  0
 11 52  1  0  0  0  0
 12 53  1  0  0  0  0
 13 54  1  0  0  0  0
 14 55  1  0  0  0  0
 14 56  1  0  0  0  0
 15 57  1  0  0  0  0
 15 58  1  0  0  0  0
 17 59  1  0  0  0  0
 17 60  1  0  0  0  0
 17 61  1  0  0  0  0
 18 62  1  0  0  0  0
 19 63  1  0  0  0  0
 19 64  1  0  0  0  0
 20 65  1  0  0  0  0
 23 66  1  0  0  0  0
 25 67  1  0  0  0  0
 26 68  1  0  0  0  0
 26 69  1  0  0  0  0
 27 70  1  0  0  0  0
 28 71  1  0  0  0  0
 30 72  1  0  0  0  0
 31 73  1  0  0  0  0
 31 74  1  0  0  0  0
 32 75  1  0  0  0  0
 34 76  1  0  0  0  0
 34 77  1  0  0  0  0
 36 78  1  0  0  0  0
 37 79  1  0  0  0  0
 39 80  1  0  0  0  0
 40 81  1  0  0  0  0
 40 82  1  0  0  0  0
M  END
>  <energy>
287.80911521563525

$$$$
