COCCOc1c(Br)c2c3c(c1OC)C1=C(CCN(Cc4ccc(OC)c(F)c4)CC1)OC(OC)(O2)c1sc(=N)[nH]c1-3
                    3D

 73 78  0  0  0  0  0  0  0  0999 V2000
    4.0387   -1.3059    3.0036 C   0  0  0  0  0  0  0  0  0  0  0  0
    4.8590   -0.5844    2.0834 O   0  0  0  0  0  0  0  0  0  0  0  0
    4.1749   -0.4548    0.8406 C   0  0  0  0  0  0  0  0  0  0  0  0
    4.9613    0.3599   -0.1769 C   0  0  0  0  0  0  0  0  0  0  0  0
    4.3630    0.2891   -1.4834 O   0  0  0  0  0  0  0  0  0  0  0  0
    3.2062    1.0106   -1.6168 C   0  0  0  0  0  0  0  0  0  0  0  0
    3.1812    2.3778   -1.8748 C   0  0  0  0  0  0  0  0  0  0  0  0
    4.7355    3.4498   -1.8446 Br  0  0  0  0  0  0  0  0  0  0  0  0
    1.9380    2.9529   -2.1669 C   0  0  0  0  0  0  0  0  0  0  0  0
    0.8629    2.1555   -2.5496 C   0  0  0  0  0  0  0  0  0  0  0  0
    0.7927    1.0276   -1.7627 C   0  0  0  0  0  0  0  0  0  0  0  0
    1.9794    0.3386   -1.5215 C   0  0  0  0  0  0  0  0  0  0  0  0
    1.9398   -0.9659   -1.1094 O   0  0  0  0  0  0  0  0  0  0  0  0
    1.6882   -1.7991   -2.2438 C   0  0  0  0  0  0  0  0  0  0  0  0
   -0.2994    1.0306   -0.7333 C   0  0  0  0  0  0  0  0  0  0  0  0
   -0.5255    2.1207    0.0568 C   0  0  0  0  0  0  0  0  0  0  0  0
   -1.5887    2.1071    1.1460 C   0  0  0  0  0  0  0  0  0  0  0  0
   -1.4079    1.0438    2.2547 C   0  0  0  0  0  0  0  0  0  0  0  0
   -1.7546   -0.3284    1.8375 N   0  0  0  0  0  0  0  0  0  0  0  0
   -1.8807   -1.2288    3.0035 C   0  0  0  0  0  0  0  0  0  0  0  0
   -2.3648   -2.6076    2.5802 C   0  0  0  0  0  0  0  0  0  0  0  0
   -3.5257   -2.7090    1.7904 C   0  0  0  0  0  0  0  0  0  0  0  0
   -3.9020   -3.9220    1.2180 C   0  0  0  0  0  0  0  0  0  0  0  0
   -3.1096   -5.0485    1.4132 C   0  0  0  0  0  0  0  0  0  0  0  0
   -3.3737   -6.2398    0.7894 O   0  0  0  0  0  0  0  0  0  0  0  0
   -3.5424   -6.0767   -0.6213 C   0  0  0  0  0  0  0  0  0  0  0  0
   -1.9996   -4.9780    2.2592 C   0  0  0  0  0  0  0  0  0  0  0  0
   -1.2382   -6.0647    2.4562 F   0  0  0  0  0  0  0  0  0  0  0  0
   -1.6249   -3.7694    2.8415 C   0  0  0  0  0  0  0  0  0  0  0  0
   -0.8029   -0.8594    0.8418 C   0  0  0  0  0  0  0  0  0  0  0  0
   -1.0564   -0.2610   -0.5473 C   0  0  0  0  0  0  0  0  0  0  0  0
    0.2074    3.3145    0.0393 O   0  0  0  0  0  0  0  0  0  0  0  0
    0.2610    4.2355   -1.1117 C   0  0  0  0  0  0  0  0  0  0  0  0
   -0.0597    5.5655   -0.7018 O   0  0  0  0  0  0  0  0  0  0  0  0
    0.8116    6.0435    0.3072 C   0  0  0  0  0  0  0  0  0  0  0  0
    1.6240    4.2382   -1.7259 O   0  0  0  0  0  0  0  0  0  0  0  0
   -0.7070    3.8543   -2.1978 C   0  0  0  0  0  0  0  0  0  0  0  0
   -2.3206    4.3935   -2.5745 S   0  0  0  0  0  0  0  0  0  0  0  0
   -2.4467    3.1558   -3.8706 C   0  0  0  0  0  0  0  0  0  0  0  0
   -3.4896    3.0635   -4.6068 N   0  0  0  0  0  0  0  0  0  0  0  0
   -1.2912    2.4225   -3.8935 N   0  0  0  0  0  0  0  0  0  0  0  0
   -0.3575    2.8298   -2.9786 C   0  0  0  0  0  0  0  0  0  0  0  0
    3.1901   -0.6848    3.3018 H   0  0  0  0  0  0  0  0  0  0  0  0
    3.6746   -2.2329    2.5520 H   0  0  0  0  0  0  0  0  0  0  0  0
    4.6288   -1.5589    3.8864 H   0  0  0  0  0  0  0  0  0  0  0  0
    3.9945   -1.4571    0.4432 H   0  0  0  0  0  0  0  0  0  0  0  0
    3.2110    0.0330    1.0301 H   0  0  0  0  0  0  0  0  0  0  0  0
    5.9776   -0.0419   -0.2825 H   0  0  0  0  0  0  0  0  0  0  0  0
    5.0907    1.3913    0.1591 H   0  0  0  0  0  0  0  0  0  0  0  0
    1.1017   -2.6546   -1.8985 H   0  0  0  0  0  0  0  0  0  0  0  0
    2.6345   -2.1539   -2.6693 H   0  0  0  0  0  0  0  0  0  0  0  0
    1.1144   -1.2893   -3.0324 H   0  0  0  0  0  0  0  0  0  0  0  0
   -1.6086    3.0887    1.6390 H   0  0  0  0  0  0  0  0  0  0  0  0
   -2.5722    2.0020    0.6707 H   0  0  0  0  0  0  0  0  0  0  0  0
   -0.3895    1.0850    2.6679 H   0  0  0  0  0  0  0  0  0  0  0  0
   -2.0843    1.3381    3.0711 H   0  0  0  0  0  0  0  0  0  0  0  0
   -0.9303   -1.2955    3.5487 H   0  0  0  0  0  0  0  0  0  0  0  0
   -2.6296   -0.8270    3.7007 H   0  0  0  0  0  0  0  0  0  0  0  0
   -4.0974   -1.8145    1.5569 H   0  0  0  0  0  0  0  0  0  0  0  0
   -4.7897   -3.9633    0.5954 H   0  0  0  0  0  0  0  0  0  0  0  0
   -2.8650   -5.3173   -1.0289 H   0  0  0  0  0  0  0  0  0  0  0  0
   -3.3052   -7.0288   -1.1003 H   0  0  0  0  0  0  0  0  0  0  0  0
   -4.5823   -5.8379   -0.8585 H   0  0  0  0  0  0  0  0  0  0  0  0
   -0.7170   -3.7395    3.4423 H   0  0  0  0  0  0  0  0  0  0  0  0
    0.2312   -0.7181    1.1823 H   0  0  0  0  0  0  0  0  0  0  0  0
   -0.9283   -1.9387    0.7065 H   0  0  0  0  0  0  0  0  0  0  0  0
   -0.7734   -0.9948   -1.3091 H   0  0  0  0  0  0  0  0  0  0  0  0
   -2.1349   -0.1112   -0.7152 H   0  0  0  0  0  0  0  0  0  0  0  0
    1.8503    6.0800   -0.0375 H   0  0  0  0  0  0  0  0  0  0  0  0
    0.7326    5.4247    1.2065 H   0  0  0  0  0  0  0  0  0  0  0  0
    0.4993    7.0608    0.5513 H   0  0  0  0  0  0  0  0  0  0  0  0
   -3.3572    2.3216   -5.2962 H   0  0  0  0  0  0  0  0  0  0  0  0
   -1.1220    1.6576   -4.5328 H   0  0  0  0  0  0  0  0  0  0  0  0
  2  1  1  0  0  0  0
  3  2  1  0  0  0  0
  4  3  1  0  0  0  0
  5  4  1  0  0  0  0
  6  5  1  0  0  0  0
  7  6  2  0  0  0  0
  8  7  1  0  0  0  0
  9  7  1  0  0  0  0
 10  9  2  0  0  0  0
 11 10  1  0  0  0  0
 12 11  2  0  0  0  0
 12  6  1  0  0  0  0
 13 12  1  0  0  0  0
 14 13  1  0  0  0  0
 15 11  1  0  0  0  0
 16 15  2  0  0  0  0
 17 16  1  0  0  0  0
 18 17  1  0  0  0  0
 19 18  1  0  0  0  0
 20 19  1  0  0  0  0
 21 20  1  0  0  0  0
 22 21  2  0  0  0  0
 23 22  1  0  0  0  0
 24 23  2  0  0  0  0
 25 24  1  0  0  0  0
 26 25  1  0  0  0  0
 27 24  1  0  0  0  0
 28 27  1  0  0  0  0
 29 27  2  0  0  0  0
 29 21  1  0  0  0  0
 30 19  1  0  0  0  0
 31 30  1  0  0  0  0
 31 15  1  0  0  0  0
 32 16  1  0  0  0  0
 33 32  1  0  0  0  0
 34 33  1  0  0  0  0
 35 34  1  0  0  0  0
 36 33  1  0  0  0  0
 36  9  1  0  0  0  0
 37 33  1  0  0  0  0
 38 37  1  0  0  0  0
 39 38  1  0  0  0  0
 40 39  2  0  0  0  0
 41 39  1  0  0  0  0
 42 41  1  0  0  0  0
 42 37  2  0  0  0  0
 42 10  1  0  0  0  0
  1 43  1  0  0  0  0
  1 44  1  0  0  0  0
  1 45  1  0  0  0  0
  3 46  1  0  0  0  0
  3 47  1  0  0  0  0
  4 48  1  0  0  0  0
  4 49  1  0  0  0  0
 14 50  1  0  0  0  0
 14 51  1  0  0  0  0
 14 52  1  0  0  0  0
 17 53  1  0  0  0  0
 17 54  1  0  0  0  0
 18 55  1  0  0  0  0
 18 56  1  0  0  0  0
 20 57  1  0  0  0  0
 20 58  1  0  0  0  0
 22 59  1  0  0  0  0
 23 60  1  0  0  0  0
 26 61  1  0  0  0  0
 26 62  1  0  0  0  0
 26 63  1  0  0  0  0
 29 64  1  0  0  0  0
 30 65  1  0  0  0  0
 30 66  1  0  0  0  0
 31 67  1  0  0  0  0
 31 68  1  0  0  0  0
 35 69  1  0  0  0  0
 35 70  1  0  0  0  0
 35 71  1  0  0  0  0
 40 72  1  0  0  0  0
 41 73  1  0  0  0  0
M  END
>  <energy>
232.32884270912197

$$$$
