CCCCCC(=O)OCc1c(O)cc2cc3c4c(c(=O)c2c1O)CC1(C)CC4(O3)C1(C)C
                    3D

 62 66  0  0  0  0  0  0  0  0999 V2000
   -5.5025    2.3630    0.6499 C   0  0  0  0  0  0  0  0  0  0  0  0
   -4.1663    2.6104   -0.0318 C   0  0  0  0  0  0  0  0  0  0  0  0
   -3.6393    1.3730   -0.7738 C   0  0  0  0  0  0  0  0  0  0  0  0
   -4.3444    1.0708   -2.1042 C   0  0  0  0  0  0  0  0  0  0  0  0
   -4.5930   -0.4249   -2.3738 C   0  0  0  0  0  0  0  0  0  0  0  0
   -3.3428   -1.2758   -2.5236 C   0  0  0  0  0  0  0  0  0  0  0  0
   -2.3513   -0.9393   -3.1617 O   0  0  0  0  0  0  0  0  0  0  0  0
   -3.4574   -2.4600   -1.8558 O   0  0  0  0  0  0  0  0  0  0  0  0
   -2.3928   -3.4266   -2.0301 C   0  0  0  0  0  0  0  0  0  0  0  0
   -1.1834   -3.3591   -1.1064 C   0  0  0  0  0  0  0  0  0  0  0  0
   -0.2856   -4.4362   -0.9909 C   0  0  0  0  0  0  0  0  0  0  0  0
   -0.4645   -5.6414   -1.6152 O   0  0  0  0  0  0  0  0  0  0  0  0
    0.9333   -4.3129   -0.2953 C   0  0  0  0  0  0  0  0  0  0  0  0
    1.2747   -3.1290    0.3786 C   0  0  0  0  0  0  0  0  0  0  0  0
    2.7198   -2.9442    0.7383 C   0  0  0  0  0  0  0  0  0  0  0  0
    3.2836   -1.7272    0.8278 C   0  0  0  0  0  0  0  0  0  0  0  0
    2.6392   -0.4948    0.8925 C   0  0  0  0  0  0  0  0  0  0  0  0
    1.4605    0.0657    1.0068 C   0  0  0  0  0  0  0  0  0  0  0  0
    0.3628   -0.8632    1.2591 C   0  0  0  0  0  0  0  0  0  0  0  0
   -0.4983   -0.6053    2.0883 O   0  0  0  0  0  0  0  0  0  0  0  0
    0.2910   -2.1132    0.4348 C   0  0  0  0  0  0  0  0  0  0  0  0
   -0.8451   -2.2050   -0.3892 C   0  0  0  0  0  0  0  0  0  0  0  0
   -1.5365   -1.0401   -0.5956 O   0  0  0  0  0  0  0  0  0  0  0  0
    1.4345    1.5661    0.9617 C   0  0  0  0  0  0  0  0  0  0  0  0
    2.9463    2.0611    0.7455 C   0  0  0  0  0  0  0  0  0  0  0  0
    2.9747    3.5782    0.6187 C   0  0  0  0  0  0  0  0  0  0  0  0
    3.7048    1.1797   -0.3995 C   0  0  0  0  0  0  0  0  0  0  0  0
    3.9283    0.1782    0.7575 C   0  0  0  0  0  0  0  0  0  0  0  0
    4.4541   -1.1666    0.8207 O   0  0  0  0  0  0  0  0  0  0  0  0
    4.0606    1.3681    1.7528 C   0  0  0  0  0  0  0  0  0  0  0  0
    3.6272    1.1880    3.2070 C   0  0  0  0  0  0  0  0  0  0  0  0
    5.4715    1.9864    1.7518 C   0  0  0  0  0  0  0  0  0  0  0  0
   -6.3067    2.2587   -0.0813 H   0  0  0  0  0  0  0  0  0  0  0  0
   -5.7527    3.1956    1.3135 H   0  0  0  0  0  0  0  0  0  0  0  0
   -5.4661    1.4562    1.2591 H   0  0  0  0  0  0  0  0  0  0  0  0
   -3.4409    2.8871    0.7414 H   0  0  0  0  0  0  0  0  0  0  0  0
   -4.2395    3.4673   -0.7055 H   0  0  0  0  0  0  0  0  0  0  0  0
   -3.6973    0.5139   -0.0998 H   0  0  0  0  0  0  0  0  0  0  0  0
   -2.5761    1.5393   -0.9867 H   0  0  0  0  0  0  0  0  0  0  0  0
   -3.7446    1.4899   -2.9213 H   0  0  0  0  0  0  0  0  0  0  0  0
   -5.3083    1.5914   -2.1329 H   0  0  0  0  0  0  0  0  0  0  0  0
   -5.2419   -0.8236   -1.5870 H   0  0  0  0  0  0  0  0  0  0  0  0
   -5.1448   -0.5228   -3.3175 H   0  0  0  0  0  0  0  0  0  0  0  0
   -2.0442   -3.4128   -3.0657 H   0  0  0  0  0  0  0  0  0  0  0  0
   -2.8927   -4.3897   -1.8815 H   0  0  0  0  0  0  0  0  0  0  0  0
   -1.4040   -5.8010   -1.7856 H   0  0  0  0  0  0  0  0  0  0  0  0
    1.6331   -5.1454   -0.3561 H   0  0  0  0  0  0  0  0  0  0  0  0
    3.3646   -3.8165    0.6950 H   0  0  0  0  0  0  0  0  0  0  0  0
   -1.2467   -0.7005   -1.4724 H   0  0  0  0  0  0  0  0  0  0  0  0
    0.8319    1.9024    0.1074 H   0  0  0  0  0  0  0  0  0  0  0  0
    1.0202    1.9910    1.8844 H   0  0  0  0  0  0  0  0  0  0  0  0
    2.2937    3.9143   -0.1681 H   0  0  0  0  0  0  0  0  0  0  0  0
    3.9714    3.9571    0.3707 H   0  0  0  0  0  0  0  0  0  0  0  0
    2.6564    4.0498    1.5550 H   0  0  0  0  0  0  0  0  0  0  0  0
    3.0833    0.8500   -1.2420 H   0  0  0  0  0  0  0  0  0  0  0  0
    4.6058    1.6224   -0.8291 H   0  0  0  0  0  0  0  0  0  0  0  0
    4.2901    0.4934    3.7308 H   0  0  0  0  0  0  0  0  0  0  0  0
    3.6589    2.1465    3.7334 H   0  0  0  0  0  0  0  0  0  0  0  0
    2.6112    0.8059    3.3161 H   0  0  0  0  0  0  0  0  0  0  0  0
    5.8467    2.2087    0.7489 H   0  0  0  0  0  0  0  0  0  0  0  0
    5.4776    2.9317    2.3070 H   0  0  0  0  0  0  0  0  0  0  0  0
    6.1978    1.3160    2.2249 H   0  0  0  0  0  0  0  0  0  0  0  0
  2  1  1  0  0  0  0
  3  2  1  0  0  0  0
  4  3  1  0  0  0  0
  5  4  1  0  0  0  0
  6  5  1  0  0  0  0
  7  6  2  0  0  0  0
  8  6  1  0  0  0  0
  9  8  1  0  0  0  0
 10  9  1  0  0  0  0
 11 10  2  0  0  0  0
 12 11  1  0  0  0  0
 13 11  1  0  0  0  0
 14 13  2  0  0  0  0
 15 14  1  0  0  0  0
 16 15  2  0  0  0  0
 17 16  1  0  0  0  0
 18 17  2  0  0  0  0
 19 18  1  0  0  0  0
 20 19  2  0  0  0  0
 21 19  1  0  0  0  0
 21 14  1  0  0  0  0
 22 21  2  0  0  0  0
 22 10  1  0  0  0  0
 23 22  1  0  0  0  0
 24 18  1  0  0  0  0
 25 24  1  0  0  0  0
 26 25  1  0  0  0  0
 27 25  1  0  0  0  0
 28 27  1  0  0  0  0
 28 17  1  0  0  0  0
 29 28  1  0  0  0  0
 29 16  1  0  0  0  0
 30 28  1  0  0  0  0
 30 25  1  0  0  0  0
 31 30  1  0  0  0  0
 32 30  1  0  0  0  0
  1 33  1  0  0  0  0
  1 34  1  0  0  0  0
  1 35  1  0  0  0  0
  2 36  1  0  0  0  0
  2 37  1  0  0  0  0
  3 38  1  0  0  0  0
  3 39  1  0  0  0  0
  4 40  1  0  0  0  0
  4 41  1  0  0  0  0
  5 42  1  0  0  0  0
  5 43  1  0  0  0  0
  9 44  1  0  0  0  0
  9 45  1  0  0  0  0
 12 46  1  0  0  0  0
 13 47  1  0  0  0  0
 15 48  1  0  0  0  0
 23 49  1  0  0  0  0
 24 50  1  0  0  0  0
 24 51  1  0  0  0  0
 26 52  1  0  0  0  0
 26 53  1  0  0  0  0
 26 54  1  0  0  0  0
 27 55  1  0  0  0  0
 27 56  1  0  0  0  0
 31 57  1  0  0  0  0
 31 58  1  0  0  0  0
 31 59  1  0  0  0  0
 32 60  1  0  0  0  0
 32 61  1  0  0  0  0
 32 62  1  0  0  0  0
M  END
>  <energy>
117.2010161991321

$$$$
