COC(=O)C=C(C)CC(=O)OC1C(C)CCC2C1C13C(C)CC24C(CC4C1(C)C)C(C)CC3O
                    3D

 78 82  0  0  0  0  0  0  0  0999 V2000
   -5.3180    2.9970   -0.8562 C   0  0  0  0  0  0  0  0  0  0  0  0
   -4.6470    1.7362   -0.8397 O   0  0  0  0  0  0  0  0  0  0  0  0
   -4.9291    0.9631    0.2415 C   0  0  0  0  0  0  0  0  0  0  0  0
   -5.6574    1.2597    1.1731 O   0  0  0  0  0  0  0  0  0  0  0  0
   -4.2529   -0.3442    0.0457 C   0  0  0  0  0  0  0  0  0  0  0  0
   -4.0464   -1.3020    0.9779 C   0  0  0  0  0  0  0  0  0  0  0  0
   -4.3969   -1.2020    2.4394 C   0  0  0  0  0  0  0  0  0  0  0  0
   -3.5144   -2.6625    0.5812 C   0  0  0  0  0  0  0  0  0  0  0  0
   -2.2705   -2.8201   -0.2915 C   0  0  0  0  0  0  0  0  0  0  0  0
   -1.9744   -3.9091   -0.7731 O   0  0  0  0  0  0  0  0  0  0  0  0
   -1.4927   -1.7026   -0.3895 O   0  0  0  0  0  0  0  0  0  0  0  0
   -0.1381   -1.9636   -0.7904 C   0  0  0  0  0  0  0  0  0  0  0  0
    0.0583   -2.2565   -2.3204 C   0  0  0  0  0  0  0  0  0  0  0  0
   -0.9162   -1.4591   -3.2008 C   0  0  0  0  0  0  0  0  0  0  0  0
    1.5212   -2.0347   -2.8242 C   0  0  0  0  0  0  0  0  0  0  0  0
    2.6391   -2.0914   -1.7647 C   0  0  0  0  0  0  0  0  0  0  0  0
    2.2146   -1.5439   -0.3996 C   0  0  0  0  0  0  0  0  0  0  0  0
    0.8747   -0.8455   -0.3860 C   0  0  0  0  0  0  0  0  0  0  0  0
    0.7686    0.2640    0.8931 C   0  0  0  0  0  0  0  0  0  0  0  0
    0.8670   -0.7192    2.0637 C   0  0  0  0  0  0  0  0  0  0  0  0
   -0.1061   -1.8708    2.2666 C   0  0  0  0  0  0  0  0  0  0  0  0
    2.3990   -1.1766    1.9373 C   0  0  0  0  0  0  0  0  0  0  0  0
    3.0900   -0.6217    0.4457 C   0  0  0  0  0  0  0  0  0  0  0  0
    3.0329    0.6829   -0.8727 C   0  0  0  0  0  0  0  0  0  0  0  0
    4.1191    1.3239   -0.0223 C   0  0  0  0  0  0  0  0  0  0  0  0
    3.3467    0.7962    1.1833 C   0  0  0  0  0  0  0  0  0  0  0  0
    1.9920    1.4304    1.5217 C   0  0  0  0  0  0  0  0  0  0  0  0
    2.0262    2.9503    1.1572 C   0  0  0  0  0  0  0  0  0  0  0  0
    1.9230    1.6353    3.1017 C   0  0  0  0  0  0  0  0  0  0  0  0
    1.8663    1.5443   -1.6200 C   0  0  0  0  0  0  0  0  0  0  0  0
    2.4868    2.7168   -2.4100 C   0  0  0  0  0  0  0  0  0  0  0  0
    0.4435    1.9733   -0.9355 C   0  0  0  0  0  0  0  0  0  0  0  0
   -0.2595    1.1874    0.2777 C   0  0  0  0  0  0  0  0  0  0  0  0
   -0.8213    2.0868    1.2191 O   0  0  0  0  0  0  0  0  0  0  0  0
   -5.2163    3.5132    0.1048 H   0  0  0  0  0  0  0  0  0  0  0  0
   -6.3701    2.8491   -1.1226 H   0  0  0  0  0  0  0  0  0  0  0  0
   -4.8514    3.6142   -1.6302 H   0  0  0  0  0  0  0  0  0  0  0  0
   -3.9597   -0.5276   -0.9850 H   0  0  0  0  0  0  0  0  0  0  0  0
   -4.7810   -0.2321    2.7550 H   0  0  0  0  0  0  0  0  0  0  0  0
   -3.5088   -1.4016    3.0506 H   0  0  0  0  0  0  0  0  0  0  0  0
   -5.1538   -1.9544    2.6863 H   0  0  0  0  0  0  0  0  0  0  0  0
   -3.2826   -3.2338    1.4921 H   0  0  0  0  0  0  0  0  0  0  0  0
   -4.3328   -3.1916    0.0770 H   0  0  0  0  0  0  0  0  0  0  0  0
    0.1676   -2.8921   -0.3009 H   0  0  0  0  0  0  0  0  0  0  0  0
   -0.1770   -3.3166   -2.4800 H   0  0  0  0  0  0  0  0  0  0  0  0
   -0.7917   -0.3797   -3.0610 H   0  0  0  0  0  0  0  0  0  0  0  0
   -0.7443   -1.6806   -4.2600 H   0  0  0  0  0  0  0  0  0  0  0  0
   -1.9587   -1.7097   -2.9767 H   0  0  0  0  0  0  0  0  0  0  0  0
    1.5874   -1.0584   -3.3192 H   0  0  0  0  0  0  0  0  0  0  0  0
    1.7411   -2.7601   -3.6171 H   0  0  0  0  0  0  0  0  0  0  0  0
    2.9140   -3.1483   -1.6323 H   0  0  0  0  0  0  0  0  0  0  0  0
    3.5570   -1.6350   -2.1463 H   0  0  0  0  0  0  0  0  0  0  0  0
    2.1201   -2.4952    0.1409 H   0  0  0  0  0  0  0  0  0  0  0  0
    0.7661   -0.2563   -1.2701 H   0  0  0  0  0  0  0  0  0  0  0  0
    0.6933   -0.1974    3.0000 H   0  0  0  0  0  0  0  0  0  0  0  0
   -0.0513   -2.2154    3.3073 H   0  0  0  0  0  0  0  0  0  0  0  0
   -1.1365   -1.5449    2.1071 H   0  0  0  0  0  0  0  0  0  0  0  0
    0.1180   -2.7568    1.6778 H   0  0  0  0  0  0  0  0  0  0  0  0
    2.4874   -2.2695    1.9981 H   0  0  0  0  0  0  0  0  0  0  0  0
    3.0021   -0.8593    2.7945 H   0  0  0  0  0  0  0  0  0  0  0  0
    3.5736    0.3248   -1.7680 H   0  0  0  0  0  0  0  0  0  0  0  0
    4.2739    2.3993   -0.0978 H   0  0  0  0  0  0  0  0  0  0  0  0
    5.1071    0.8558   -0.1395 H   0  0  0  0  0  0  0  0  0  0  0  0
    4.0437    0.7632    2.0368 H   0  0  0  0  0  0  0  0  0  0  0  0
    1.1142    3.4789    1.4495 H   0  0  0  0  0  0  0  0  0  0  0  0
    2.8497    3.4577    1.6816 H   0  0  0  0  0  0  0  0  0  0  0  0
    2.2479    3.1953    0.1327 H   0  0  0  0  0  0  0  0  0  0  0  0
    2.2566    0.7871    3.7050 H   0  0  0  0  0  0  0  0  0  0  0  0
    2.5860    2.4430    3.4427 H   0  0  0  0  0  0  0  0  0  0  0  0
    0.9068    1.9117    3.4040 H   0  0  0  0  0  0  0  0  0  0  0  0
    1.5592    0.9037   -2.4588 H   0  0  0  0  0  0  0  0  0  0  0  0
    2.9149    3.4949   -1.7748 H   0  0  0  0  0  0  0  0  0  0  0  0
    3.2919    2.3602   -3.0636 H   0  0  0  0  0  0  0  0  0  0  0  0
    1.7330    3.1877   -3.0518 H   0  0  0  0  0  0  0  0  0  0  0  0
   -0.2836    1.9137   -1.7611 H   0  0  0  0  0  0  0  0  0  0  0  0
    0.4322    3.0515   -0.7339 H   0  0  0  0  0  0  0  0  0  0  0  0
   -1.1180    0.6460   -0.1280 H   0  0  0  0  0  0  0  0  0  0  0  0
   -1.2554    1.5431    1.9055 H   0  0  0  0  0  0  0  0  0  0  0  0
  2  1  1  0  0  0  0
  3  2  1  0  0  0  0
  4  3  2  0  0  0  0
  5  3  1  0  0  0  0
  6  5  2  0  0  0  0
  7  6  1  0  0  0  0
  8  6  1  0  0  0  0
  9  8  1  0  0  0  0
 10  9  2  0  0  0  0
 11  9  1  0  0  0  0
 12 11  1  0  0  0  0
 13 12  1  0  0  0  0
 14 13  1  0  0  0  0
 15 13  1  0  0  0  0
 16 15  1  0  0  0  0
 17 16  1  0  0  0  0
 18 17  1  0  0  0  0
 18 12  1  0  0  0  0
 19 18  1  0  0  0  0
 20 19  1  0  0  0  0
 21 20  1  0  0  0  0
 22 20  1  0  0  0  0
 23 22  1  0  0  0  0
 23 17  1  0  0  0  0
 24 23  1  0  0  0  0
 25 24  1  0  0  0  0
 26 25  1  0  0  0  0
 26 23  1  0  0  0  0
 27 26  1  0  0  0  0
 27 19  1  0  0  0  0
 28 27  1  0  0  0  0
 29 27  1  0  0  0  0
 30 24  1  0  0  0  0
 31 30  1  0  0  0  0
 32 30  1  0  0  0  0
 33 32  1  0  0  0  0
 33 19  1  0  0  0  0
 34 33  1  0  0  0  0
  1 35  1  0  0  0  0
  1 36  1  0  0  0  0
  1 37  1  0  0  0  0
  5 38  1  0  0  0  0
  7 39  1  0  0  0  0
  7 40  1  0  0  0  0
  7 41  1  0  0  0  0
  8 42  1  0  0  0  0
  8 43  1  0  0  0  0
 12 44  1  0  0  0  0
 13 45  1  0  0  0  0
 14 46  1  0  0  0  0
 14 47  1  0  0  0  0
 14 48  1  0  0  0  0
 15 49  1  0  0  0  0
 15 50  1  0  0  0  0
 16 51  1  0  0  0  0
 16 52  1  0  0  0  0
 17 53  1  0  0  0  0
 18 54  1  0  0  0  0
 20 55  1  0  0  0  0
 21 56  1  0  0  0  0
 21 57  1  0  0  0  0
 21 58  1  0  0  0  0
 22 59  1  0  0  0  0
 22 60  1  0  0  0  0
 24 61  1  0  0  0  0
 25 62  1  0  0  0  0
 25 63  1  0  0  0  0
 26 64  1  0  0  0  0
 28 65  1  0  0  0  0
 28 66  1  0  0  0  0
 28 67  1  0  0  0  0
 29 68  1  0  0  0  0
 29 69  1  0  0  0  0
 29 70  1  0  0  0  0
 30 71  1  0  0  0  0
 31 72  1  0  0  0  0
 31 73  1  0  0  0  0
 31 74  1  0  0  0  0
 32 75  1  0  0  0  0
 32 76  1  0  0  0  0
 33 77  1  0  0  0  0
 34 78  1  0  0  0  0
M  END
>  <energy>
380.00383732326105

$$$$
