C=C(C)C1C2CC1C1C2C(C)CC2(C)C=C(C(C)C)C3OC(=O)C1(O3)C(=O)C(O)(C(C)C)CC2
                    3D

 76 80  0  0  0  0  0  0  0  0999 V2000
   -3.2038    4.6158   -0.8942 C   0  0  0  0  0  0  0  0  0  0  0  0
   -1.9908    4.3503   -0.3781 C   0  0  0  0  0  0  0  0  0  0  0  0
   -0.7286    4.8125   -1.0394 C   0  0  0  0  0  0  0  0  0  0  0  0
   -1.9427    3.7629    0.9860 C   0  0  0  0  0  0  0  0  0  0  0  0
   -2.6065    2.3450    1.2344 C   0  0  0  0  0  0  0  0  0  0  0  0
   -1.7435    2.4467    2.5677 C   0  0  0  0  0  0  0  0  0  0  0  0
   -0.6870    2.9624    1.5260 C   0  0  0  0  0  0  0  0  0  0  0  0
   -0.4404    1.7843    0.5751 C   0  0  0  0  0  0  0  0  0  0  0  0
   -1.8657    1.1643    0.5609 C   0  0  0  0  0  0  0  0  0  0  0  0
   -2.4445    0.5439   -0.7378 C   0  0  0  0  0  0  0  0  0  0  0  0
   -2.2577    1.3200   -2.0413 C   0  0  0  0  0  0  0  0  0  0  0  0
   -2.2174   -1.0253   -0.9138 C   0  0  0  0  0  0  0  0  0  0  0  0
   -0.8618   -1.7929   -1.3398 C   0  0  0  0  0  0  0  0  0  0  0  0
   -1.2560   -2.7350   -2.5239 C   0  0  0  0  0  0  0  0  0  0  0  0
   -0.4266   -2.8115   -0.2012 C   0  0  0  0  0  0  0  0  0  0  0  0
   -0.0816   -2.5969    1.1035 C   0  0  0  0  0  0  0  0  0  0  0  0
    0.1555   -3.7147    2.1238 C   0  0  0  0  0  0  0  0  0  0  0  0
    0.2982   -5.1323    1.5529 C   0  0  0  0  0  0  0  0  0  0  0  0
   -0.9775   -3.7192    3.1601 C   0  0  0  0  0  0  0  0  0  0  0  0
   -0.0113   -1.1993    1.6657 C   0  0  0  0  0  0  0  0  0  0  0  0
    1.0075   -0.8544    2.5569 O   0  0  0  0  0  0  0  0  0  0  0  0
    1.1776    0.4951    2.3173 C   0  0  0  0  0  0  0  0  0  0  0  0
    1.6974    1.2511    3.1260 O   0  0  0  0  0  0  0  0  0  0  0  0
    0.7178    0.8310    0.9103 C   0  0  0  0  0  0  0  0  0  0  0  0
    0.1828   -0.4005    0.5483 O   0  0  0  0  0  0  0  0  0  0  0  0
    1.9034    1.1911    0.0103 C   0  0  0  0  0  0  0  0  0  0  0  0
    2.4007    2.3302    0.0904 O   0  0  0  0  0  0  0  0  0  0  0  0
    2.4852    0.2130   -1.0700 C   0  0  0  0  0  0  0  0  0  0  0  0
    2.4850    1.0568   -2.2553 O   0  0  0  0  0  0  0  0  0  0  0  0
    3.9814   -0.0818   -0.6960 C   0  0  0  0  0  0  0  0  0  0  0  0
    4.8708   -0.3671   -1.9125 C   0  0  0  0  0  0  0  0  0  0  0  0
    4.1407   -1.2181    0.3201 C   0  0  0  0  0  0  0  0  0  0  0  0
    1.7263   -1.0777   -1.4745 C   0  0  0  0  0  0  0  0  0  0  0  0
    0.2661   -0.8552   -1.9362 C   0  0  0  0  0  0  0  0  0  0  0  0
   -3.3191    5.1092   -1.8551 H   0  0  0  0  0  0  0  0  0  0  0  0
   -4.1190    4.3486   -0.3737 H   0  0  0  0  0  0  0  0  0  0  0  0
   -0.2366    3.9928   -1.5682 H   0  0  0  0  0  0  0  0  0  0  0  0
   -0.9285    5.6021   -1.7708 H   0  0  0  0  0  0  0  0  0  0  0  0
   -0.0323    5.2253   -0.3033 H   0  0  0  0  0  0  0  0  0  0  0  0
   -2.2825    4.5466    1.6854 H   0  0  0  0  0  0  0  0  0  0  0  0
   -3.6856    2.2782    1.3786 H   0  0  0  0  0  0  0  0  0  0  0  0
   -2.0850    3.1719    3.3193 H   0  0  0  0  0  0  0  0  0  0  0  0
   -1.5119    1.5177    3.0985 H   0  0  0  0  0  0  0  0  0  0  0  0
    0.1562    3.5443    1.8973 H   0  0  0  0  0  0  0  0  0  0  0  0
   -0.2358    2.1923   -0.4161 H   0  0  0  0  0  0  0  0  0  0  0  0
   -1.9812    0.3666    1.2936 H   0  0  0  0  0  0  0  0  0  0  0  0
   -3.5333    0.5961   -0.5691 H   0  0  0  0  0  0  0  0  0  0  0  0
   -2.5756    0.7218   -2.9020 H   0  0  0  0  0  0  0  0  0  0  0  0
   -1.2364    1.6505   -2.2266 H   0  0  0  0  0  0  0  0  0  0  0  0
   -2.8911    2.2077   -2.0449 H   0  0  0  0  0  0  0  0  0  0  0  0
   -2.9903   -1.3230   -1.6391 H   0  0  0  0  0  0  0  0  0  0  0  0
   -2.5707   -1.4830    0.0218 H   0  0  0  0  0  0  0  0  0  0  0  0
   -1.6283   -2.1710   -3.3879 H   0  0  0  0  0  0  0  0  0  0  0  0
   -0.3933   -3.3241   -2.8623 H   0  0  0  0  0  0  0  0  0  0  0  0
   -2.0445   -3.4406   -2.2329 H   0  0  0  0  0  0  0  0  0  0  0  0
   -0.4690   -3.8511   -0.5266 H   0  0  0  0  0  0  0  0  0  0  0  0
    1.0973   -3.4969    2.6432 H   0  0  0  0  0  0  0  0  0  0  0  0
    0.5127   -5.8489    2.3534 H   0  0  0  0  0  0  0  0  0  0  0  0
    1.1192   -5.1893    0.8316 H   0  0  0  0  0  0  0  0  0  0  0  0
   -0.6215   -5.4684    1.0627 H   0  0  0  0  0  0  0  0  0  0  0  0
   -1.0247   -2.7755    3.7128 H   0  0  0  0  0  0  0  0  0  0  0  0
   -0.8383   -4.5160    3.8977 H   0  0  0  0  0  0  0  0  0  0  0  0
   -1.9496   -3.8757    2.6793 H   0  0  0  0  0  0  0  0  0  0  0  0
   -0.9628   -1.0093    2.1690 H   0  0  0  0  0  0  0  0  0  0  0  0
    2.8783    1.9106   -1.9776 H   0  0  0  0  0  0  0  0  0  0  0  0
    4.4042    0.8164   -0.2250 H   0  0  0  0  0  0  0  0  0  0  0  0
    4.9190    0.4989   -2.5775 H   0  0  0  0  0  0  0  0  0  0  0  0
    5.8966   -0.5806   -1.5955 H   0  0  0  0  0  0  0  0  0  0  0  0
    4.5114   -1.2265   -2.4857 H   0  0  0  0  0  0  0  0  0  0  0  0
    3.9275   -2.1956   -0.1272 H   0  0  0  0  0  0  0  0  0  0  0  0
    5.1707   -1.2598    0.6913 H   0  0  0  0  0  0  0  0  0  0  0  0
    3.4829   -1.0823    1.1824 H   0  0  0  0  0  0  0  0  0  0  0  0
    1.7919   -1.8081   -0.6710 H   0  0  0  0  0  0  0  0  0  0  0  0
    2.2468   -1.5399   -2.3244 H   0  0  0  0  0  0  0  0  0  0  0  0
    0.0196    0.1824   -1.7440 H   0  0  0  0  0  0  0  0  0  0  0  0
    0.2591   -0.9091   -3.0331 H   0  0  0  0  0  0  0  0  0  0  0  0
  2  1  2  0  0  0  0
  3  2  1  0  0  0  0
  4  2  1  0  0  0  0
  5  4  1  0  0  0  0
  6  5  1  0  0  0  0
  7  6  1  0  0  0  0
  7  4  1  0  0  0  0
  8  7  1  0  0  0  0
  9  8  1  0  0  0  0
  9  5  1  0  0  0  0
 10  9  1  0  0  0  0
 11 10  1  0  0  0  0
 12 10  1  0  0  0  0
 13 12  1  0  0  0  0
 14 13  1  0  0  0  0
 15 13  1  0  0  0  0
 16 15  2  0  0  0  0
 17 16  1  0  0  0  0
 18 17  1  0  0  0  0
 19 17  1  0  0  0  0
 20 16  1  0  0  0  0
 21 20  1  0  0  0  0
 22 21  1  0  0  0  0
 23 22  2  0  0  0  0
 24 22  1  0  0  0  0
 24  8  1  0  0  0  0
 25 24  1  0  0  0  0
 25 20  1  0  0  0  0
 26 24  1  0  0  0  0
 27 26  2  0  0  0  0
 28 26  1  0  0  0  0
 29 28  1  0  0  0  0
 30 28  1  0  0  0  0
 31 30  1  0  0  0  0
 32 30  1  0  0  0  0
 33 28  1  0  0  0  0
 34 33  1  0  0  0  0
 34 13  1  0  0  0  0
  1 35  1  0  0  0  0
  1 36  1  0  0  0  0
  3 37  1  0  0  0  0
  3 38  1  0  0  0  0
  3 39  1  0  0  0  0
  4 40  1  0  0  0  0
  5 41  1  0  0  0  0
  6 42  1  0  0  0  0
  6 43  1  0  0  0  0
  7 44  1  0  0  0  0
  8 45  1  0  0  0  0
  9 46  1  0  0  0  0
 10 47  1  0  0  0  0
 11 48  1  0  0  0  0
 11 49  1  0  0  0  0
 11 50  1  0  0  0  0
 12 51  1  0  0  0  0
 12 52  1  0  0  0  0
 14 53  1  0  0  0  0
 14 54  1  0  0  0  0
 14 55  1  0  0  0  0
 15 56  1  0  0  0  0
 17 57  1  0  0  0  0
 18 58  1  0  0  0  0
 18 59  1  0  0  0  0
 18 60  1  0  0  0  0
 19 61  1  0  0  0  0
 19 62  1  0  0  0  0
 19 63  1  0  0  0  0
 20 64  1  0  0  0  0
 29 65  1  0  0  0  0
 30 66  1  0  0  0  0
 31 67  1  0  0  0  0
 31 68  1  0  0  0  0
 31 69  1  0  0  0  0
 32 70  1  0  0  0  0
 32 71  1  0  0  0  0
 32 72  1  0  0  0  0
 33 73  1  0  0  0  0
 33 74  1  0  0  0  0
 34 75  1  0  0  0  0
 34 76  1  0  0  0  0
M  END
>  <energy>
202.56219226906001

$$$$
