O=C(NC1CCCC1)C1C2C=CC2C1C(=O)N1C(C(=O)NCl)CC2C(Br)C21
                    3D

 50 54  0  0  0  0  0  0  0  0999 V2000
   -2.8005   -2.7123    0.1839 O   0  0  0  0  0  0  0  0  0  0  0  0
   -1.9204   -1.9573   -0.2206 C   0  0  0  0  0  0  0  0  0  0  0  0
   -2.0179   -0.5815   -0.0831 N   0  0  0  0  0  0  0  0  0  0  0  0
   -3.0877    0.0495    0.6584 C   0  0  0  0  0  0  0  0  0  0  0  0
   -4.2062    0.5657   -0.2386 C   0  0  0  0  0  0  0  0  0  0  0  0
   -4.8904    1.6568    0.5838 C   0  0  0  0  0  0  0  0  0  0  0  0
   -3.8823    2.0967    1.6460 C   0  0  0  0  0  0  0  0  0  0  0  0
   -2.6042    1.3145    1.3621 C   0  0  0  0  0  0  0  0  0  0  0  0
   -0.5983   -2.3935   -0.9011 C   0  0  0  0  0  0  0  0  0  0  0  0
   -0.0145   -3.7884   -0.6794 C   0  0  0  0  0  0  0  0  0  0  0  0
    0.1233   -4.2598    0.7506 C   0  0  0  0  0  0  0  0  0  0  0  0
    1.4464   -3.9899    0.7699 C   0  0  0  0  0  0  0  0  0  0  0  0
    1.3883   -3.1612   -0.5130 C   0  0  0  0  0  0  0  0  0  0  0  0
    0.7281   -1.7786   -0.2945 C   0  0  0  0  0  0  0  0  0  0  0  0
    1.1469   -0.4642   -0.9657 C   0  0  0  0  0  0  0  0  0  0  0  0
    0.4176    0.0775   -1.8184 O   0  0  0  0  0  0  0  0  0  0  0  0
    2.2358    0.2535   -0.4714 N   0  0  0  0  0  0  0  0  0  0  0  0
    2.1864    1.7232   -0.6118 C   0  0  0  0  0  0  0  0  0  0  0  0
    2.5050    2.2247   -2.0317 C   0  0  0  0  0  0  0  0  0  0  0  0
    3.3997    1.7530   -2.7311 O   0  0  0  0  0  0  0  0  0  0  0  0
    1.6845    3.2714   -2.4211 N   0  0  0  0  0  0  0  0  0  0  0  0
    1.6951    3.7809   -4.0413 Cl  0  0  0  0  0  0  0  0  0  0  0  0
    3.1457    2.3065    0.4485 C   0  0  0  0  0  0  0  0  0  0  0  0
    3.6794    1.1243    1.2109 C   0  0  0  0  0  0  0  0  0  0  0  0
    4.5990    0.0762    0.6536 C   0  0  0  0  0  0  0  0  0  0  0  0
    5.6184    0.3842   -0.9105 Br  0  0  0  0  0  0  0  0  0  0  0  0
    3.0995   -0.1359    0.6080 C   0  0  0  0  0  0  0  0  0  0  0  0
   -1.4292   -0.0080   -0.6866 H   0  0  0  0  0  0  0  0  0  0  0  0
   -3.4948   -0.6538    1.3957 H   0  0  0  0  0  0  0  0  0  0  0  0
   -4.9003   -0.2298   -0.5356 H   0  0  0  0  0  0  0  0  0  0  0  0
   -3.7983    1.0089   -1.1604 H   0  0  0  0  0  0  0  0  0  0  0  0
   -5.1928    2.4955   -0.0522 H   0  0  0  0  0  0  0  0  0  0  0  0
   -5.7928    1.2690    1.0678 H   0  0  0  0  0  0  0  0  0  0  0  0
   -4.2585    1.8588    2.6482 H   0  0  0  0  0  0  0  0  0  0  0  0
   -3.7013    3.1740    1.6096 H   0  0  0  0  0  0  0  0  0  0  0  0
   -2.0447    1.0907    2.2772 H   0  0  0  0  0  0  0  0  0  0  0  0
   -1.9388    1.9035    0.7116 H   0  0  0  0  0  0  0  0  0  0  0  0
   -0.6871   -2.2151   -1.9863 H   0  0  0  0  0  0  0  0  0  0  0  0
   -0.1469   -4.5325   -1.4667 H   0  0  0  0  0  0  0  0  0  0  0  0
   -0.5884   -4.7305    1.4281 H   0  0  0  0  0  0  0  0  0  0  0  0
    2.2159   -4.1539    1.5204 H   0  0  0  0  0  0  0  0  0  0  0  0
    2.0892   -3.3416   -1.3276 H   0  0  0  0  0  0  0  0  0  0  0  0
    0.5939   -1.5658    0.7837 H   0  0  0  0  0  0  0  0  0  0  0  0
    1.1678    2.0446   -0.3649 H   0  0  0  0  0  0  0  0  0  0  0  0
    0.7929    3.3528   -1.9643 H   0  0  0  0  0  0  0  0  0  0  0  0
    3.9473    2.9266    0.0354 H   0  0  0  0  0  0  0  0  0  0  0  0
    2.5801    2.9521    1.1405 H   0  0  0  0  0  0  0  0  0  0  0  0
    3.6534    1.2596    2.2831 H   0  0  0  0  0  0  0  0  0  0  0  0
    5.1591   -0.4657    1.4072 H   0  0  0  0  0  0  0  0  0  0  0  0
    2.6979   -0.8754    1.2939 H   0  0  0  0  0  0  0  0  0  0  0  0
  2  1  2  0  0  0  0
  3  2  1  0  0  0  0
  4  3  1  0  0  0  0
  5  4  1  0  0  0  0
  6  5  1  0  0  0  0
  7  6  1  0  0  0  0
  8  7  1  0  0  0  0
  8  4  1  0  0  0  0
  9  2  1  0  0  0  0
 10  9  1  0  0  0  0
 11 10  1  0  0  0  0
 12 11  2  0  0  0  0
 13 12  1  0  0  0  0
 13 10  1  0  0  0  0
 14 13  1  0  0  0  0
 14  9  1  0  0  0  0
 15 14  1  0  0  0  0
 16 15  2  0  0  0  0
 17 15  1  0  0  0  0
 18 17  1  0  0  0  0
 19 18  1  0  0  0  0
 20 19  2  0  0  0  0
 21 19  1  0  0  0  0
 22 21  1  0  0  0  0
 23 18  1  0  0  0  0
 24 23  1  0  0  0  0
 25 24  1  0  0  0  0
 26 25  1  0  0  0  0
 27 25  1  0  0  0  0
 27 24  1  0  0  0  0
 27 17  1  0  0  0  0
  3 28  1  0  0  0  0
  4 29  1  0  0  0  0
  5 30  1  0  0  0  0
  5 31  1  0  0  0  0
  6 32  1  0  0  0  0
  6 33  1  0  0  0  0
  7 34  1  0  0  0  0
  7 35  1  0  0  0  0
  8 36  1  0  0  0  0
  8 37  1  0  0  0  0
  9 38  1  0  0  0  0
 10 39  1  0  0  0  0
 11 40  1  0  0  0  0
 12 41  1  0  0  0  0
 13 42  1  0  0  0  0
 14 43  1  0  0  0  0
 18 44  1  0  0  0  0
 21 45  1  0  0  0  0
 23 46  1  0  0  0  0
 23 47  1  0  0  0  0
 24 48  1  0  0  0  0
 25 49  1  0  0  0  0
 27 50  1  0  0  0  0
M  END
>  <energy>
30.367341312700304

$$$$
