CCCCC(=O)OC1C(O)(C(=O)OC)C2(NSCC(=O)O)C(=O)C3(OC)C(O)C4(O)OC13C(OC(=O)c1ccc(O)c(
                    3D

 77 81  0  0  0  0  0  0  0  0999 V2000
    1.2672   -6.1836    0.6122 C   0  0  0  0  0  0  0  0  0  0  0  0
   -0.0594   -5.5063    0.3083 C   0  0  0  0  0  0  0  0  0  0  0  0
    0.1423   -4.2250   -0.4983 C   0  0  0  0  0  0  0  0  0  0  0  0
   -1.1848   -3.5885   -0.8836 C   0  0  0  0  0  0  0  0  0  0  0  0
   -1.7519   -2.6383    0.1432 C   0  0  0  0  0  0  0  0  0  0  0  0
   -2.9033   -2.6699    0.5546 O   0  0  0  0  0  0  0  0  0  0  0  0
   -0.8985   -1.5999    0.3607 O   0  0  0  0  0  0  0  0  0  0  0  0
   -1.4951   -0.3352    0.0815 C   0  0  0  0  0  0  0  0  0  0  0  0
   -0.4772    0.5739   -0.7977 C   0  0  0  0  0  0  0  0  0  0  0  0
    0.8541    0.0221   -0.8067 O   0  0  0  0  0  0  0  0  0  0  0  0
   -1.0248    0.4647   -2.2490 C   0  0  0  0  0  0  0  0  0  0  0  0
   -2.1940    0.6558   -2.5542 O   0  0  0  0  0  0  0  0  0  0  0  0
   -0.0681    0.0861   -3.1421 O   0  0  0  0  0  0  0  0  0  0  0  0
   -0.5659   -0.1370   -4.4636 C   0  0  0  0  0  0  0  0  0  0  0  0
   -0.4487    2.1332   -0.1859 C   0  0  0  0  0  0  0  0  0  0  0  0
    0.5283    3.0862   -0.7417 N   0  0  0  0  0  0  0  0  0  0  0  0
    1.4434    2.9353   -2.0998 S   0  0  0  0  0  0  0  0  0  0  0  0
    0.3721    3.4888   -3.4648 C   0  0  0  0  0  0  0  0  0  0  0  0
    0.0658    4.9617   -3.3987 C   0  0  0  0  0  0  0  0  0  0  0  0
    0.7494    5.8248   -3.9347 O   0  0  0  0  0  0  0  0  0  0  0  0
   -1.0415    5.2640   -2.6838 O   0  0  0  0  0  0  0  0  0  0  0  0
   -1.8348    2.5434   -0.5106 C   0  0  0  0  0  0  0  0  0  0  0  0
   -2.1365    3.3253   -1.4038 O   0  0  0  0  0  0  0  0  0  0  0  0
   -2.7639    1.8266    0.4433 C   0  0  0  0  0  0  0  0  0  0  0  0
   -3.9229    1.3618   -0.2235 O   0  0  0  0  0  0  0  0  0  0  0  0
   -4.8027    0.5322    0.5302 C   0  0  0  0  0  0  0  0  0  0  0  0
   -3.0583    2.8530    1.5410 C   0  0  0  0  0  0  0  0  0  0  0  0
   -2.8777    4.2119    1.1864 O   0  0  0  0  0  0  0  0  0  0  0  0
   -1.9554    2.3200    2.3883 C   0  0  0  0  0  0  0  0  0  0  0  0
   -1.8440    2.8702    3.6756 O   0  0  0  0  0  0  0  0  0  0  0  0
   -2.4359    0.8515    2.4393 O   0  0  0  0  0  0  0  0  0  0  0  0
   -1.7759    0.5866    1.2378 C   0  0  0  0  0  0  0  0  0  0  0  0
   -0.3749    0.8819    1.9478 C   0  0  0  0  0  0  0  0  0  0  0  0
    0.8772    0.3653    1.5776 O   0  0  0  0  0  0  0  0  0  0  0  0
    1.2477   -0.7653    2.2308 C   0  0  0  0  0  0  0  0  0  0  0  0
    0.5550   -1.4748    2.9312 O   0  0  0  0  0  0  0  0  0  0  0  0
    2.6781   -0.9792    1.9560 C   0  0  0  0  0  0  0  0  0  0  0  0
    3.1535   -2.2833    1.7749 C   0  0  0  0  0  0  0  0  0  0  0  0
    4.5033   -2.4849    1.4970 C   0  0  0  0  0  0  0  0  0  0  0  0
    5.3506   -1.3865    1.4149 C   0  0  0  0  0  0  0  0  0  0  0  0
    6.6789   -1.5861    1.1953 O   0  0  0  0  0  0  0  0  0  0  0  0
    4.8730   -0.0902    1.5984 C   0  0  0  0  0  0  0  0  0  0  0  0
    5.6951    0.9891    1.4881 O   0  0  0  0  0  0  0  0  0  0  0  0
    3.5419    0.1232    1.8928 C   0  0  0  0  0  0  0  0  0  0  0  0
   -0.5008    2.2864    1.5228 C   0  0  0  0  0  0  0  0  0  0  0  0
    0.4807    3.1524    2.0655 O   0  0  0  0  0  0  0  0  0  0  0  0
    1.8267   -6.3879   -0.3053 H   0  0  0  0  0  0  0  0  0  0  0  0
    1.0974   -7.1367    1.1220 H   0  0  0  0  0  0  0  0  0  0  0  0
    1.8893   -5.5566    1.2572 H   0  0  0  0  0  0  0  0  0  0  0  0
   -0.5823   -5.2843    1.2450 H   0  0  0  0  0  0  0  0  0  0  0  0
   -0.6912   -6.2016   -0.2570 H   0  0  0  0  0  0  0  0  0  0  0  0
    0.6852   -4.4706   -1.4192 H   0  0  0  0  0  0  0  0  0  0  0  0
    0.7713   -3.5257    0.0616 H   0  0  0  0  0  0  0  0  0  0  0  0
   -1.0595   -3.0016   -1.8024 H   0  0  0  0  0  0  0  0  0  0  0  0
   -1.9377   -4.3536   -1.1011 H   0  0  0  0  0  0  0  0  0  0  0  0
   -2.4152   -0.5160   -0.4817 H   0  0  0  0  0  0  0  0  0  0  0  0
    1.4379    0.6681   -1.2555 H   0  0  0  0  0  0  0  0  0  0  0  0
    0.2838   -0.3667   -5.1131 H   0  0  0  0  0  0  0  0  0  0  0  0
   -1.0633    0.7620   -4.8435 H   0  0  0  0  0  0  0  0  0  0  0  0
   -1.2556   -0.9883   -4.4680 H   0  0  0  0  0  0  0  0  0  0  0  0
    0.2966    4.0586   -0.4966 H   0  0  0  0  0  0  0  0  0  0  0  0
   -0.5528    2.9112   -3.5275 H   0  0  0  0  0  0  0  0  0  0  0  0
    0.9054    3.3084   -4.4065 H   0  0  0  0  0  0  0  0  0  0  0  0
   -1.5392    4.4857   -2.3234 H   0  0  0  0  0  0  0  0  0  0  0  0
   -5.5886    0.1819   -0.1430 H   0  0  0  0  0  0  0  0  0  0  0  0
   -4.2902   -0.3451    0.9301 H   0  0  0  0  0  0  0  0  0  0  0  0
   -5.2827    1.0909    1.3359 H   0  0  0  0  0  0  0  0  0  0  0  0
   -4.0338    2.7387    2.0246 H   0  0  0  0  0  0  0  0  0  0  0  0
   -3.6960    4.5080    0.7443 H   0  0  0  0  0  0  0  0  0  0  0  0
   -0.8972    3.0698    3.8117 H   0  0  0  0  0  0  0  0  0  0  0  0
   -0.3930    0.7980    3.0504 H   0  0  0  0  0  0  0  0  0  0  0  0
    2.4777   -3.1326    1.8395 H   0  0  0  0  0  0  0  0  0  0  0  0
    4.8903   -3.4899    1.3600 H   0  0  0  0  0  0  0  0  0  0  0  0
    7.1040   -1.3447    2.0397 H   0  0  0  0  0  0  0  0  0  0  0  0
    6.4766    0.6909    0.9835 H   0  0  0  0  0  0  0  0  0  0  0  0
    3.1858    1.1345    2.0640 H   0  0  0  0  0  0  0  0  0  0  0  0
    1.2894    3.0515    1.5215 H   0  0  0  0  0  0  0  0  0  0  0  0
  2  1  1  0  0  0  0
  3  2  1  0  0  0  0
  4  3  1  0  0  0  0
  5  4  1  0  0  0  0
  6  5  2  0  0  0  0
  7  5  1  0  0  0  0
  8  7  1  0  0  0  0
  9  8  1  0  0  0  0
 10  9  1  0  0  0  0
 11  9  1  0  0  0  0
 12 11  2  0  0  0  0
 13 11  1  0  0  0  0
 14 13  1  0  0  0  0
 15  9  1  0  0  0  0
 16 15  1  0  0  0  0
 17 16  1  0  0  0  0
 18 17  1  0  0  0  0
 19 18  1  0  0  0  0
 20 19  2  0  0  0  0
 21 19  1  0  0  0  0
 22 15  1  0  0  0  0
 23 22  2  0  0  0  0
 24 22  1  0  0  0  0
 25 24  1  0  0  0  0
 26 25  1  0  0  0  0
 27 24  1  0  0  0  0
 28 27  1  0  0  0  0
 29 27  1  0  0  0  0
 30 29  1  0  0  0  0
 31 29  1  0  0  0  0
 32 31  1  0  0  0  0
 32  8  1  0  0  0  0
 32 24  1  0  0  0  0
 33 32  1  0  0  0  0
 34 33  1  0  0  0  0
 35 34  1  0  0  0  0
 36 35  2  0  0  0  0
 37 35  1  0  0  0  0
 38 37  2  0  0  0  0
 39 38  1  0  0  0  0
 40 39  2  0  0  0  0
 41 40  1  0  0  0  0
 42 40  1  0  0  0  0
 43 42  1  0  0  0  0
 44 42  2  0  0  0  0
 44 37  1  0  0  0  0
 45 33  1  0  0  0  0
 45 29  1  0  0  0  0
 45 15  1  0  0  0  0
 46 45  1  0  0  0  0
  1 47  1  0  0  0  0
  1 48  1  0  0  0  0
  1 49  1  0  0  0  0
  2 50  1  0  0  0  0
  2 51  1  0  0  0  0
  3 52  1  0  0  0  0
  3 53  1  0  0  0  0
  4 54  1  0  0  0  0
  4 55  1  0  0  0  0
  8 56  1  0  0  0  0
 10 57  1  0  0  0  0
 14 58  1  0  0  0  0
 14 59  1  0  0  0  0
 14 60  1  0  0  0  0
 16 61  1  0  0  0  0
 18 62  1  0  0  0  0
 18 63  1  0  0  0  0
 21 64  1  0  0  0  0
 26 65  1  0  0  0  0
 26 66  1  0  0  0  0
 26 67  1  0  0  0  0
 27 68  1  0  0  0  0
 28 69  1  0  0  0  0
 30 70  1  0  0  0  0
 33 71  1  0  0  0  0
 38 72  1  0  0  0  0
 39 73  1  0  0  0  0
 41 74  1  0  0  0  0
 43 75  1  0  0  0  0
 44 76  1  0  0  0  0
 46 77  1  0  0  0  0
M  END
>  <energy>
416.02269187607516

$$$$
