Cc1c(OS(=O)(=O)O)c(=O)c2c3cc(OS(=O)(=O)O)c(c2c(=O)c(N(C)C(=O)CNCCO)c2nc(N(C)O)n-
                    3D

 69 72  0  0  0  0  0  0  0  0999 V2000
   -1.9960   -0.9103   -3.2379 C   0  0  0  0  0  0  0  0  0  0  0  0
   -1.4406    0.3130   -2.5645 C   0  0  0  0  0  0  0  0  0  0  0  0
   -2.1768    1.1139   -1.7691 C   0  0  0  0  0  0  0  0  0  0  0  0
   -3.4993    0.7503   -1.5095 O   0  0  0  0  0  0  0  0  0  0  0  0
   -4.4626    1.4491   -0.3954 S   0  0  0  0  0  0  0  0  0  0  0  0
   -5.1824    2.5487   -0.9846 O   0  0  0  0  0  0  0  0  0  0  0  0
   -3.7521    1.5723    0.8626 O   0  0  0  0  0  0  0  0  0  0  0  0
   -5.5549    0.2890   -0.1229 O   0  0  0  0  0  0  0  0  0  0  0  0
   -1.6558    2.4155   -1.2309 C   0  0  0  0  0  0  0  0  0  0  0  0
   -2.3104    3.4408   -1.3839 O   0  0  0  0  0  0  0  0  0  0  0  0
   -0.3595    2.4891   -0.5247 C   0  0  0  0  0  0  0  0  0  0  0  0
    0.3345    3.7173   -0.4429 C   0  0  0  0  0  0  0  0  0  0  0  0
    0.6219    4.0533    0.8788 C   0  0  0  0  0  0  0  0  0  0  0  0
    1.2885    3.0350    1.5210 C   0  0  0  0  0  0  0  0  0  0  0  0
    1.3290    2.9906    2.8728 O   0  0  0  0  0  0  0  0  0  0  0  0
    2.7202    3.4124    3.6040 S   0  0  0  0  0  0  0  0  0  0  0  0
    2.9021    4.8442    3.4942 O   0  0  0  0  0  0  0  0  0  0  0  0
    3.7419    2.4655    3.2263 O   0  0  0  0  0  0  0  0  0  0  0  0
    2.3809    3.0737    5.1445 O   0  0  0  0  0  0  0  0  0  0  0  0
    1.4814    1.8821    0.7411 C   0  0  0  0  0  0  0  0  0  0  0  0
    0.2999    1.4582    0.1200 C   0  0  0  0  0  0  0  0  0  0  0  0
   -0.2197    0.0863    0.2704 C   0  0  0  0  0  0  0  0  0  0  0  0
   -1.3753   -0.0664    0.6307 O   0  0  0  0  0  0  0  0  0  0  0  0
    0.6526   -1.0439   -0.1631 C   0  0  0  0  0  0  0  0  0  0  0  0
    0.9997   -2.0955    0.7036 N   0  0  0  0  0  0  0  0  0  0  0  0
    2.2243   -2.8386    0.3678 C   0  0  0  0  0  0  0  0  0  0  0  0
    0.2784   -2.6294    1.7890 C   0  0  0  0  0  0  0  0  0  0  0  0
    0.8411   -3.3749    2.6085 O   0  0  0  0  0  0  0  0  0  0  0  0
   -1.2501   -2.4428    1.9298 C   0  0  0  0  0  0  0  0  0  0  0  0
   -1.8931   -3.7222    2.3356 N   0  0  0  0  0  0  0  0  0  0  0  0
   -2.4281   -3.7482    3.6994 C   0  0  0  0  0  0  0  0  0  0  0  0
   -1.4043   -4.0220    4.8158 C   0  0  0  0  0  0  0  0  0  0  0  0
   -2.0129   -3.9593    6.1153 O   0  0  0  0  0  0  0  0  0  0  0  0
    1.1520   -0.8754   -1.4152 C   0  0  0  0  0  0  0  0  0  0  0  0
    2.1984   -1.4920   -2.1336 N   0  0  0  0  0  0  0  0  0  0  0  0
    1.9608   -0.7531   -3.1599 C   0  0  0  0  0  0  0  0  0  0  0  0
    2.4996   -0.6628   -4.4162 N   0  0  0  0  0  0  0  0  0  0  0  0
    1.6780   -0.6022   -5.6165 C   0  0  0  0  0  0  0  0  0  0  0  0
    3.5463   -1.5843   -4.5991 O   0  0  0  0  0  0  0  0  0  0  0  0
    0.9786   -0.0683   -2.5054 N   0  0  0  0  0  0  0  0  0  0  0  0
   -0.0631    0.6715   -3.0118 C   0  0  0  0  0  0  0  0  0  0  0  0
    0.0934    1.6389   -3.7465 O   0  0  0  0  0  0  0  0  0  0  0  0
    2.3902    2.3250   -0.4108 O   0  0  0  0  0  0  0  0  0  0  0  0
    1.7565    3.4352   -1.1474 C   0  0  0  0  0  0  0  0  0  0  0  0
    2.6101    4.6131   -1.1665 N   0  0  0  0  0  0  0  0  0  0  0  0
   -3.0409   -1.0916   -2.9836 H   0  0  0  0  0  0  0  0  0  0  0  0
   -1.9521   -0.7704   -4.3228 H   0  0  0  0  0  0  0  0  0  0  0  0
   -1.4332   -1.8115   -2.9819 H   0  0  0  0  0  0  0  0  0  0  0  0
   -5.3760   -0.0786    0.7643 H   0  0  0  0  0  0  0  0  0  0  0  0
    0.2669    4.9552    1.3550 H   0  0  0  0  0  0  0  0  0  0  0  0
    2.4636    2.1072    5.2669 H   0  0  0  0  0  0  0  0  0  0  0  0
    2.5660   -3.5020    1.1659 H   0  0  0  0  0  0  0  0  0  0  0  0
    2.0063   -3.4670   -0.5021 H   0  0  0  0  0  0  0  0  0  0  0  0
    3.0422   -2.1425    0.1559 H   0  0  0  0  0  0  0  0  0  0  0  0
   -1.6783   -2.2380    0.9515 H   0  0  0  0  0  0  0  0  0  0  0  0
   -1.4660   -1.6287    2.6284 H   0  0  0  0  0  0  0  0  0  0  0  0
   -1.1984   -4.4668    2.2439 H   0  0  0  0  0  0  0  0  0  0  0  0
   -3.0129   -2.8499    3.9186 H   0  0  0  0  0  0  0  0  0  0  0  0
   -3.1643   -4.5615    3.7356 H   0  0  0  0  0  0  0  0  0  0  0  0
   -0.9793   -5.0239    4.6907 H   0  0  0  0  0  0  0  0  0  0  0  0
   -0.5920   -3.2909    4.7876 H   0  0  0  0  0  0  0  0  0  0  0  0
   -2.1487   -3.0084    6.2848 H   0  0  0  0  0  0  0  0  0  0  0  0
    0.8203    0.0610   -5.5086 H   0  0  0  0  0  0  0  0  0  0  0  0
    2.2676   -0.2330   -6.4601 H   0  0  0  0  0  0  0  0  0  0  0  0
    1.2983   -1.5977   -5.8616 H   0  0  0  0  0  0  0  0  0  0  0  0
    4.1523   -1.4035   -3.8524 H   0  0  0  0  0  0  0  0  0  0  0  0
    1.5869    3.0982   -2.1755 H   0  0  0  0  0  0  0  0  0  0  0  0
    3.4751    4.3920   -1.6608 H   0  0  0  0  0  0  0  0  0  0  0  0
    2.1735    5.3601   -1.7128 H   0  0  0  0  0  0  0  0  0  0  0  0
  2  1  1  0  0  0  0
  3  2  2  0  0  0  0
  4  3  1  0  0  0  0
  5  4  1  0  0  0  0
  6  5  2  0  0  0  0
  7  5  2  0  0  0  0
  8  5  1  0  0  0  0
  9  3  1  0  0  0  0
 10  9  2  0  0  0  0
 11  9  1  0  0  0  0
 12 11  2  0  0  0  0
 13 12  1  0  0  0  0
 14 13  2  0  0  0  0
 15 14  1  0  0  0  0
 16 15  1  0  0  0  0
 17 16  2  0  0  0  0
 18 16  2  0  0  0  0
 19 16  1  0  0  0  0
 20 14  1  0  0  0  0
 21 20  2  0  0  0  0
 21 11  1  0  0  0  0
 22 21  1  0  0  0  0
 23 22  2  0  0  0  0
 24 22  1  0  0  0  0
 25 24  1  0  0  0  0
 26 25  1  0  0  0  0
 27 25  1  0  0  0  0
 28 27  2  0  0  0  0
 29 27  1  0  0  0  0
 30 29  1  0  0  0  0
 31 30  1  0  0  0  0
 32 31  1  0  0  0  0
 33 32  1  0  0  0  0
 34 24  2  0  0  0  0
 35 34  1  0  0  0  0
 36 35  2  0  0  0  0
 37 36  1  0  0  0  0
 38 37  1  0  0  0  0
 39 37  1  0  0  0  0
 40 36  1  0  0  0  0
 40 34  1  0  0  0  0
 41 40  1  0  0  0  0
 41  2  1  0  0  0  0
 42 41  2  0  0  0  0
 43 20  1  0  0  0  0
 44 43  1  0  0  0  0
 44 12  1  0  0  0  0
 45 44  1  0  0  0  0
  1 46  1  0  0  0  0
  1 47  1  0  0  0  0
  1 48  1  0  0  0  0
  8 49  1  0  0  0  0
 13 50  1  0  0  0  0
 19 51  1  0  0  0  0
 26 52  1  0  0  0  0
 26 53  1  0  0  0  0
 26 54  1  0  0  0  0
 29 55  1  0  0  0  0
 29 56  1  0  0  0  0
 30 57  1  0  0  0  0
 31 58  1  0  0  0  0
 31 59  1  0  0  0  0
 32 60  1  0  0  0  0
 32 61  1  0  0  0  0
 33 62  1  0  0  0  0
 38 63  1  0  0  0  0
 38 64  1  0  0  0  0
 38 65  1  0  0  0  0
 39 66  1  0  0  0  0
 44 67  1  0  0  0  0
 45 68  1  0  0  0  0
 45 69  1  0  0  0  0
M  END
>  <energy>
137.65690550081982

$$$$
