C[N+]1(CCCN2C(=O)NC34CCC2(CC3)N(C(N)=S)C4)CCCC1
                    3D

 54 57  0  0  0  0  0  0  0  0999 V2000
    2.8407    0.7421    2.2814 C   0  0  0  0  0  0  0  0  0  0  0  0
    3.3525    0.1495    0.9626 N   0  3  0  0  0  0  0  0  0  0  0  0
    2.4715   -1.0517    0.5461 C   0  0  0  0  0  0  0  0  0  0  0  0
    1.0499   -0.6470    0.1335 C   0  0  0  0  0  0  0  0  0  0  0  0
    0.0023   -1.6700    0.6032 C   0  0  0  0  0  0  0  0  0  0  0  0
   -1.4041   -1.3437    0.3185 N   0  0  0  0  0  0  0  0  0  0  0  0
   -2.3619   -2.1584    0.9184 C   0  0  0  0  0  0  0  0  0  0  0  0
   -2.0806   -3.0894    1.6688 O   0  0  0  0  0  0  0  0  0  0  0  0
   -3.6738   -1.8719    0.6517 N   0  0  0  0  0  0  0  0  0  0  0  0
   -4.2848   -0.7886   -0.2252 C   0  0  0  0  0  0  0  0  0  0  0  0
   -3.7387    0.2289    0.9238 C   0  0  0  0  0  0  0  0  0  0  0  0
   -2.2550    0.5971    0.6545 C   0  0  0  0  0  0  0  0  0  0  0  0
   -1.6778   -0.2253   -0.6544 C   0  0  0  0  0  0  0  0  0  0  0  0
   -2.2089   -1.3629   -1.7035 C   0  0  0  0  0  0  0  0  0  0  0  0
   -3.7081   -1.6842   -1.4596 C   0  0  0  0  0  0  0  0  0  0  0  0
   -2.5679    0.7072   -1.4261 N   0  0  0  0  0  0  0  0  0  0  0  0
   -2.0063    1.7176   -2.1842 C   0  0  0  0  0  0  0  0  0  0  0  0
   -2.8585    2.5569   -2.8136 N   0  0  0  0  0  0  0  0  0  0  0  0
   -0.3628    2.0184   -2.3421 S   0  0  0  0  0  0  0  0  0  0  0  0
   -4.0177    0.4770   -1.2440 C   0  0  0  0  0  0  0  0  0  0  0  0
    4.8148   -0.3033    1.1486 C   0  0  0  0  0  0  0  0  0  0  0  0
    5.6753    0.9099    0.8140 C   0  0  0  0  0  0  0  0  0  0  0  0
    4.7536    1.9543    0.2055 C   0  0  0  0  0  0  0  0  0  0  0  0
    3.4734    1.2117   -0.1366 C   0  0  0  0  0  0  0  0  0  0  0  0
    3.5413    1.5073    2.6273 H   0  0  0  0  0  0  0  0  0  0  0  0
    2.7762   -0.0659    3.0204 H   0  0  0  0  0  0  0  0  0  0  0  0
    1.8555    1.1873    2.1195 H   0  0  0  0  0  0  0  0  0  0  0  0
    2.4751   -1.7452    1.3952 H   0  0  0  0  0  0  0  0  0  0  0  0
    2.9743   -1.5414   -0.2956 H   0  0  0  0  0  0  0  0  0  0  0  0
    1.0185   -0.5721   -0.9598 H   0  0  0  0  0  0  0  0  0  0  0  0
    0.7754    0.3398    0.5142 H   0  0  0  0  0  0  0  0  0  0  0  0
    0.2094   -2.6548    0.1674 H   0  0  0  0  0  0  0  0  0  0  0  0
    0.0849   -1.7856    1.6907 H   0  0  0  0  0  0  0  0  0  0  0  0
   -4.3194   -2.4984    1.1215 H   0  0  0  0  0  0  0  0  0  0  0  0
   -3.8360   -0.1662    1.9516 H   0  0  0  0  0  0  0  0  0  0  0  0
   -4.3611    1.1343    1.0111 H   0  0  0  0  0  0  0  0  0  0  0  0
   -2.1678    1.6906    0.5304 H   0  0  0  0  0  0  0  0  0  0  0  0
   -1.6578    0.4475    1.5694 H   0  0  0  0  0  0  0  0  0  0  0  0
   -1.6210   -2.2944   -1.6813 H   0  0  0  0  0  0  0  0  0  0  0  0
   -2.0651   -1.0447   -2.7507 H   0  0  0  0  0  0  0  0  0  0  0  0
   -4.2933   -1.5608   -2.3840 H   0  0  0  0  0  0  0  0  0  0  0  0
   -3.8363   -2.7722   -1.3071 H   0  0  0  0  0  0  0  0  0  0  0  0
   -3.8500    2.3893   -2.9163 H   0  0  0  0  0  0  0  0  0  0  0  0
   -2.4659    3.2931   -3.3925 H   0  0  0  0  0  0  0  0  0  0  0  0
   -4.4956    0.3601   -2.2272 H   0  0  0  0  0  0  0  0  0  0  0  0
   -4.4870    1.4171   -0.9155 H   0  0  0  0  0  0  0  0  0  0  0  0
    4.9532   -0.6720    2.1703 H   0  0  0  0  0  0  0  0  0  0  0  0
    5.0144   -1.1140    0.4380 H   0  0  0  0  0  0  0  0  0  0  0  0
    6.1733    1.3016    1.7081 H   0  0  0  0  0  0  0  0  0  0  0  0
    6.4685    0.6252    0.1152 H   0  0  0  0  0  0  0  0  0  0  0  0
    4.5597    2.7482    0.9357 H   0  0  0  0  0  0  0  0  0  0  0  0
    5.2003    2.4307   -0.6725 H   0  0  0  0  0  0  0  0  0  0  0  0
    3.5637    0.6905   -1.0972 H   0  0  0  0  0  0  0  0  0  0  0  0
    2.5854    1.8508   -0.1277 H   0  0  0  0  0  0  0  0  0  0  0  0
  2  1  1  0  0  0  0
  3  2  1  0  0  0  0
  4  3  1  0  0  0  0
  5  4  1  0  0  0  0
  6  5  1  0  0  0  0
  7  6  1  0  0  0  0
  8  7  2  0  0  0  0
  9  7  1  0  0  0  0
 10  9  1  0  0  0  0
 11 10  1  0  0  0  0
 12 11  1  0  0  0  0
 13 12  1  0  0  0  0
 13  6  1  0  0  0  0
 14 13  1  0  0  0  0
 15 14  1  0  0  0  0
 15 10  1  0  0  0  0
 16 13  1  0  0  0  0
 17 16  1  0  0  0  0
 18 17  1  0  0  0  0
 19 17  2  0  0  0  0
 20 16  1  0  0  0  0
 20 10  1  0  0  0  0
 21  2  1  0  0  0  0
 22 21  1  0  0  0  0
 23 22  1  0  0  0  0
 24 23  1  0  0  0  0
 24  2  1  0  0  0  0
  1 25  1  0  0  0  0
  1 26  1  0  0  0  0
  1 27  1  0  0  0  0
  3 28  1  0  0  0  0
  3 29  1  0  0  0  0
  4 30  1  0  0  0  0
  4 31  1  0  0  0  0
  5 32  1  0  0  0  0
  5 33  1  0  0  0  0
  9 34  1  0  0  0  0
 11 35  1  0  0  0  0
 11 36  1  0  0  0  0
 12 37  1  0  0  0  0
 12 38  1  0  0  0  0
 14 39  1  0  0  0  0
 14 40  1  0  0  0  0
 15 41  1  0  0  0  0
 15 42  1  0  0  0  0
 18 43  1  0  0  0  0
 18 44  1  0  0  0  0
 20 45  1  0  0  0  0
 20 46  1  0  0  0  0
 21 47  1  0  0  0  0
 21 48  1  0  0  0  0
 22 49  1  0  0  0  0
 22 50  1  0  0  0  0
 23 51  1  0  0  0  0
 23 52  1  0  0  0  0
 24 53  1  0  0  0  0
 24 54  1  0  0  0  0
M  CHG  1   2   1
M  END
>  <energy>
170.43949244080289

$$$$
