[N-]=[NH+]N(C(=O)NN)C1C2C3C4C5C3C(C(=O)[O-])(C42)C51
                    3D

 31 35  0  0  0  0  0  0  0  0999 V2000
   -2.3735    1.4583    1.2382 N   0  5  0  0  0  0  0  0  0  0  0  0
   -1.8975    1.4060    0.0608 N   0  3  0  0  0  0  0  0  0  0  0  0
   -1.2609    0.1954   -0.4818 N   0  0  0  0  0  0  0  0  0  0  0  0
   -2.2387   -0.6886   -0.9282 C   0  0  0  0  0  0  0  0  0  0  0  0
   -2.0295   -1.8341   -1.3527 O   0  0  0  0  0  0  0  0  0  0  0  0
   -3.5060   -0.1726   -0.6088 N   0  0  0  0  0  0  0  0  0  0  0  0
   -4.5959   -1.0792   -0.3154 N   0  0  0  0  0  0  0  0  0  0  0  0
   -0.2176   -0.2689    0.3937 C   0  0  0  0  0  0  0  0  0  0  0  0
    0.7194    1.1564    1.2010 C   0  0  0  0  0  0  0  0  0  0  0  0
    2.5257    1.2131    0.9043 C   0  0  0  0  0  0  0  0  0  0  0  0
    2.5893   -0.1220    1.6335 C   0  0  0  0  0  0  0  0  0  0  0  0
    2.8196   -1.0518    0.4066 C   0  0  0  0  0  0  0  0  0  0  0  0
    2.9033    0.2944   -0.3418 C   0  0  0  0  0  0  0  0  0  0  0  0
    1.4984    0.0423   -0.6536 C   0  0  0  0  0  0  0  0  0  0  0  0
    0.9771    0.8150   -1.8372 C   0  0  0  0  0  0  0  0  0  0  0  0
    0.8881    0.1659   -2.9371 O   0  0  0  0  0  0  0  0  0  0  0  0
    0.8628    2.0831   -1.7621 O   0  5  0  0  0  0  0  0  0  0  0  0
    1.1785   -0.1576    1.2072 C   0  0  0  0  0  0  0  0  0  0  0  0
    1.1371   -1.2750   -0.3074 C   0  0  0  0  0  0  0  0  0  0  0  0
   -2.1211    2.1557   -0.5828 H   0  0  0  0  0  0  0  0  0  0  0  0
   -3.3048    0.5514    0.1222 H   0  0  0  0  0  0  0  0  0  0  0  0
   -4.6774   -1.6923   -1.1266 H   0  0  0  0  0  0  0  0  0  0  0  0
   -4.2354   -1.6911    0.4165 H   0  0  0  0  0  0  0  0  0  0  0  0
   -0.7902   -0.8864    1.1339 H   0  0  0  0  0  0  0  0  0  0  0  0
    0.2550    1.8782    0.5174 H   0  0  0  0  0  0  0  0  0  0  0  0
    3.1408    2.0252    1.2728 H   0  0  0  0  0  0  0  0  0  0  0  0
    2.7960   -0.2929    2.6829 H   0  0  0  0  0  0  0  0  0  0  0  0
    3.6154   -1.7732    0.2868 H   0  0  0  0  0  0  0  0  0  0  0  0
    3.6571    0.5236   -1.0867 H   0  0  0  0  0  0  0  0  0  0  0  0
    0.8039   -0.9621    1.9051 H   0  0  0  0  0  0  0  0  0  0  0  0
    0.8813   -2.0165   -1.0608 H   0  0  0  0  0  0  0  0  0  0  0  0
  2  1  2  0  0  0  0
  3  2  1  0  0  0  0
  4  3  1  0  0  0  0
  5  4  2  0  0  0  0
  6  4  1  0  0  0  0
  7  6  1  0  0  0  0
  8  3  1  0  0  0  0
  9  8  1  0  0  0  0
 10  9  1  0  0  0  0
 11 10  1  0  0  0  0
 12 11  1  0  0  0  0
 13 12  1  0  0  0  0
 13 10  1  0  0  0  0
 14 13  1  0  0  0  0
 15 14  1  0  0  0  0
 16 15  2  0  0  0  0
 17 15  1  0  0  0  0
 18 14  1  0  0  0  0
 18 11  1  0  0  0  0
 18  9  1  0  0  0  0
 19 14  1  0  0  0  0
 19 12  1  0  0  0  0
 19  8  1  0  0  0  0
  2 20  1  0  0  0  0
  6 21  1  0  0  0  0
  7 22  1  0  0  0  0
  7 23  1  0  0  0  0
  8 24  1  0  0  0  0
  9 25  1  0  0  0  0
 10 26  1  0  0  0  0
 11 27  1  0  0  0  0
 12 28  1  0  0  0  0
 13 29  1  0  0  0  0
 18 30  1  0  0  0  0
 19 31  1  0  0  0  0
M  CHG  3   1  -1   2   1  17  -1
M  END
>  <energy>
451.82009166909813

$$$$
