CC12CC3CC4CC5CC(CC3(O5)S1)C42
                    3D

 33 37  0  0  0  0  0  0  0  0999 V2000
    2.5598   -1.3887   -1.2016 C   0  0  0  0  0  0  0  0  0  0  0  0
    1.6670   -0.5468   -0.3275 C   0  0  0  0  0  0  0  0  0  0  0  0
    2.2047    0.7277    0.1966 C   0  0  0  0  0  0  0  0  0  0  0  0
    0.9905    1.0026    1.1235 C   0  0  0  0  0  0  0  0  0  0  0  0
    0.2696    2.0811    0.3821 C   0  0  0  0  0  0  0  0  0  0  0  0
   -0.5318    1.3419   -0.6649 C   0  0  0  0  0  0  0  0  0  0  0  0
   -1.9460    1.3978   -0.0451 C   0  0  0  0  0  0  0  0  0  0  0  0
   -2.1958    0.2192    0.9006 C   0  0  0  0  0  0  0  0  0  0  0  0
   -2.3353   -0.9070   -0.1462 C   0  0  0  0  0  0  0  0  0  0  0  0
   -0.9361   -1.2613   -0.6338 C   0  0  0  0  0  0  0  0  0  0  0  0
   -0.3571   -1.7327    0.6501 C   0  0  0  0  0  0  0  0  0  0  0  0
    0.0799   -0.3840    1.4240 C   0  0  0  0  0  0  0  0  0  0  0  0
   -1.1667   -0.0093    1.9795 O   0  0  0  0  0  0  0  0  0  0  0  0
    1.5762   -1.1871    1.5647 S   0  0  0  0  0  0  0  0  0  0  0  0
    0.0849   -0.1494   -1.0382 C   0  0  0  0  0  0  0  0  0  0  0  0
    3.5405   -1.5521   -0.7424 H   0  0  0  0  0  0  0  0  0  0  0  0
    2.1080   -2.3660   -1.3979 H   0  0  0  0  0  0  0  0  0  0  0  0
    2.7254   -0.8971   -2.1659 H   0  0  0  0  0  0  0  0  0  0  0  0
    2.3782    1.4540   -0.6056 H   0  0  0  0  0  0  0  0  0  0  0  0
    3.1567    0.6527    0.7413 H   0  0  0  0  0  0  0  0  0  0  0  0
    1.3263    1.4389    2.0787 H   0  0  0  0  0  0  0  0  0  0  0  0
   -0.3125    2.6823    1.0901 H   0  0  0  0  0  0  0  0  0  0  0  0
    0.9415    2.8130   -0.0842 H   0  0  0  0  0  0  0  0  0  0  0  0
   -0.5402    1.9370   -1.5869 H   0  0  0  0  0  0  0  0  0  0  0  0
   -2.6847    1.4167   -0.8586 H   0  0  0  0  0  0  0  0  0  0  0  0
   -2.1414    2.3378    0.4862 H   0  0  0  0  0  0  0  0  0  0  0  0
   -3.1487    0.3607    1.4212 H   0  0  0  0  0  0  0  0  0  0  0  0
   -2.8274   -1.7758    0.3119 H   0  0  0  0  0  0  0  0  0  0  0  0
   -2.9805   -0.6330   -0.9900 H   0  0  0  0  0  0  0  0  0  0  0  0
   -0.9721   -2.0607   -1.3812 H   0  0  0  0  0  0  0  0  0  0  0  0
    0.3128   -2.5701    0.3568 H   0  0  0  0  0  0  0  0  0  0  0  0
   -1.0722   -2.2843    1.2892 H   0  0  0  0  0  0  0  0  0  0  0  0
    0.2270   -0.1582   -2.1265 H   0  0  0  0  0  0  0  0  0  0  0  0
  2  1  1  0  0  0  0
  3  2  1  0  0  0  0
  4  3  1  0  0  0  0
  5  4  1  0  0  0  0
  6  5  1  0  0  0  0
  7  6  1  0  0  0  0
  8  7  1  0  0  0  0
  9  8  1  0  0  0  0
 10  9  1  0  0  0  0
 11 10  1  0  0  0  0
 12 11  1  0  0  0  0
 12  4  1  0  0  0  0
 13 12  1  0  0  0  0
 13  8  1  0  0  0  0
 14 12  1  0  0  0  0
 14  2  1  0  0  0  0
 15 10  1  0  0  0  0
 15  6  1  0  0  0  0
 15  2  1  0  0  0  0
  1 16  1  0  0  0  0
  1 17  1  0  0  0  0
  1 18  1  0  0  0  0
  3 19  1  0  0  0  0
  3 20  1  0  0  0  0
  4 21  1  0  0  0  0
  5 22  1  0  0  0  0
  5 23  1  0  0  0  0
  6 24  1  0  0  0  0
  7 25  1  0  0  0  0
  7 26  1  0  0  0  0
  8 27  1  0  0  0  0
  9 28  1  0  0  0  0
  9 29  1  0  0  0  0
 10 30  1  0  0  0  0
 11 31  1  0  0  0  0
 11 32  1  0  0  0  0
 15 33  1  0  0  0  0
M  END
>  <energy>
241.35167471115511

$$$$
