C=CCN1CCC23C4NC5C6C(C1CC(C4CC(N)=O)N(CC)C62)C53O
                    3D

 56 61  0  0  0  0  0  0  0  0999 V2000
   -4.2940    3.4984    0.1600 C   0  0  0  0  0  0  0  0  0  0  0  0
   -4.2793    2.2173    0.5600 C   0  0  0  0  0  0  0  0  0  0  0  0
   -3.9694    1.0364   -0.3120 C   0  0  0  0  0  0  0  0  0  0  0  0
   -2.8414    0.3022    0.2386 N   0  0  0  0  0  0  0  0  0  0  0  0
   -2.7946   -1.1352   -0.1251 C   0  0  0  0  0  0  0  0  0  0  0  0
   -1.3445   -1.8045   -0.0051 C   0  0  0  0  0  0  0  0  0  0  0  0
   -0.0939   -1.1039   -0.8298 C   0  0  0  0  0  0  0  0  0  0  0  0
    1.0911   -1.8753   -0.6603 C   0  0  0  0  0  0  0  0  0  0  0  0
    1.5803   -1.5565   -2.0919 N   0  0  0  0  0  0  0  0  0  0  0  0
    0.6040   -0.4954   -2.8026 C   0  0  0  0  0  0  0  0  0  0  0  0
    0.4759    0.9054   -2.1017 C   0  0  0  0  0  0  0  0  0  0  0  0
   -1.0211    0.7210   -1.7010 C   0  0  0  0  0  0  0  0  0  0  0  0
   -1.5270    0.9314   -0.0245 C   0  0  0  0  0  0  0  0  0  0  0  0
   -0.6203    1.1391    1.3105 C   0  0  0  0  0  0  0  0  0  0  0  0
    0.8805    0.4961    1.3055 C   0  0  0  0  0  0  0  0  0  0  0  0
    1.3817   -1.1674    0.9121 C   0  0  0  0  0  0  0  0  0  0  0  0
    2.8475   -1.4137    1.2843 C   0  0  0  0  0  0  0  0  0  0  0  0
    2.9227   -2.0197    2.6660 C   0  0  0  0  0  0  0  0  0  0  0  0
    2.5940   -3.3422    2.7338 N   0  0  0  0  0  0  0  0  0  0  0  0
    3.1933   -1.3831    3.6746 O   0  0  0  0  0  0  0  0  0  0  0  0
    1.1770    1.3106    0.1899 N   0  0  0  0  0  0  0  0  0  0  0  0
    2.1613    2.3643    0.1787 C   0  0  0  0  0  0  0  0  0  0  0  0
    3.6077    1.9907    0.4409 C   0  0  0  0  0  0  0  0  0  0  0  0
    1.0270    0.3967   -0.8659 C   0  0  0  0  0  0  0  0  0  0  0  0
   -0.7001   -0.7639   -2.1381 C   0  0  0  0  0  0  0  0  0  0  0  0
   -1.6243   -1.6511   -2.7610 O   0  0  0  0  0  0  0  0  0  0  0  0
   -4.0565    3.7796   -0.8605 H   0  0  0  0  0  0  0  0  0  0  0  0
   -4.5261    4.2895    0.8666 H   0  0  0  0  0  0  0  0  0  0  0  0
   -4.5103    1.9866    1.5982 H   0  0  0  0  0  0  0  0  0  0  0  0
   -3.8074    1.3329   -1.3537 H   0  0  0  0  0  0  0  0  0  0  0  0
   -4.8669    0.4058   -0.3087 H   0  0  0  0  0  0  0  0  0  0  0  0
   -3.4624   -1.6771    0.5554 H   0  0  0  0  0  0  0  0  0  0  0  0
   -3.2018   -1.2866   -1.1279 H   0  0  0  0  0  0  0  0  0  0  0  0
   -1.1243   -1.9109    1.0611 H   0  0  0  0  0  0  0  0  0  0  0  0
   -1.4455   -2.8291   -0.3885 H   0  0  0  0  0  0  0  0  0  0  0  0
    0.9688   -2.9568   -0.5488 H   0  0  0  0  0  0  0  0  0  0  0  0
    1.6115   -2.4380   -2.6072 H   0  0  0  0  0  0  0  0  0  0  0  0
    0.6288   -0.4954   -3.8964 H   0  0  0  0  0  0  0  0  0  0  0  0
    0.8120    1.7991   -2.6186 H   0  0  0  0  0  0  0  0  0  0  0  0
   -1.7322    1.2438   -2.3493 H   0  0  0  0  0  0  0  0  0  0  0  0
   -1.0913    0.0457    0.2655 H   0  0  0  0  0  0  0  0  0  0  0  0
   -1.1428    0.7051    2.1793 H   0  0  0  0  0  0  0  0  0  0  0  0
   -0.5817    2.2207    1.5221 H   0  0  0  0  0  0  0  0  0  0  0  0
    1.3824    0.7820    2.2378 H   0  0  0  0  0  0  0  0  0  0  0  0
    0.7609   -1.7542    1.6006 H   0  0  0  0  0  0  0  0  0  0  0  0
    3.4431   -0.5042    1.2853 H   0  0  0  0  0  0  0  0  0  0  0  0
    3.3296   -2.1039    0.5819 H   0  0  0  0  0  0  0  0  0  0  0  0
    2.6949   -3.7914    3.6334 H   0  0  0  0  0  0  0  0  0  0  0  0
    2.5549   -3.9319    1.9152 H   0  0  0  0  0  0  0  0  0  0  0  0
    2.1122    2.8784   -0.7888 H   0  0  0  0  0  0  0  0  0  0  0  0
    1.8652    3.1245    0.9118 H   0  0  0  0  0  0  0  0  0  0  0  0
    3.7507    1.6833    1.4797 H   0  0  0  0  0  0  0  0  0  0  0  0
    4.2496    2.8611    0.2669 H   0  0  0  0  0  0  0  0  0  0  0  0
    3.9562    1.1997   -0.2289 H   0  0  0  0  0  0  0  0  0  0  0  0
    2.0883    0.1500   -1.0513 H   0  0  0  0  0  0  0  0  0  0  0  0
   -1.0935   -2.4060   -3.0684 H   0  0  0  0  0  0  0  0  0  0  0  0
  2  1  2  0  0  0  0
  3  2  1  0  0  0  0
  4  3  1  0  0  0  0
  5  4  1  0  0  0  0
  6  5  1  0  0  0  0
  7  6  1  0  0  0  0
  8  7  1  0  0  0  0
  9  8  1  0  0  0  0
 10  9  1  0  0  0  0
 11 10  1  0  0  0  0
 12 11  1  0  0  0  0
 13 12  1  0  0  0  0
 13  4  1  0  0  0  0
 14 13  1  0  0  0  0
 15 14  1  0  0  0  0
 16 15  1  0  0  0  0
 16  8  1  0  0  0  0
 17 16  1  0  0  0  0
 18 17  1  0  0  0  0
 19 18  1  0  0  0  0
 20 18  2  0  0  0  0
 21 15  1  0  0  0  0
 22 21  1  0  0  0  0
 23 22  1  0  0  0  0
 24 21  1  0  0  0  0
 24 11  1  0  0  0  0
 24  7  1  0  0  0  0
 25 12  1  0  0  0  0
 25 10  1  0  0  0  0
 25  7  1  0  0  0  0
 26 25  1  0  0  0  0
  1 27  1  0  0  0  0
  1 28  1  0  0  0  0
  2 29  1  0  0  0  0
  3 30  1  0  0  0  0
  3 31  1  0  0  0  0
  5 32  1  0  0  0  0
  5 33  1  0  0  0  0
  6 34  1  0  0  0  0
  6 35  1  0  0  0  0
  8 36  1  0  0  0  0
  9 37  1  0  0  0  0
 10 38  1  0  0  0  0
 11 39  1  0  0  0  0
 12 40  1  0  0  0  0
 13 41  1  0  0  0  0
 14 42  1  0  0  0  0
 14 43  1  0  0  0  0
 15 44  1  0  0  0  0
 16 45  1  0  0  0  0
 17 46  1  0  0  0  0
 17 47  1  0  0  0  0
 19 48  1  0  0  0  0
 19 49  1  0  0  0  0
 22 50  1  0  0  0  0
 22 51  1  0  0  0  0
 23 52  1  0  0  0  0
 23 53  1  0  0  0  0
 23 54  1  0  0  0  0
 24 55  1  0  0  0  0
 26 56  1  0  0  0  0
M  END
>  <energy>
384.17547292835195

$$$$
