CC12C=C(Sc3cc(Cl)c(Cl)c(Cl)c3O1)c1c2c(O)n(CCCCN2CCOC2)c1O
                    3D

 52 56  0  0  0  0  0  0  0  0999 V2000
    2.7922    0.3174    3.3240 C   0  0  0  0  0  0  0  0  0  0  0  0
    2.7647   -0.0191    1.8437 C   0  0  0  0  0  0  0  0  0  0  0  0
    4.0470   -0.6825    1.3731 C   0  0  0  0  0  0  0  0  0  0  0  0
    3.6738   -1.5579    0.4100 C   0  0  0  0  0  0  0  0  0  0  0  0
    4.2091   -1.1061   -1.1584 S   0  0  0  0  0  0  0  0  0  0  0  0
    3.3988    0.5410   -1.2641 C   0  0  0  0  0  0  0  0  0  0  0  0
    3.4754    1.0195   -2.5921 C   0  0  0  0  0  0  0  0  0  0  0  0
    2.9738    2.2654   -2.9695 C   0  0  0  0  0  0  0  0  0  0  0  0
    3.1525    2.7177   -4.6321 Cl  0  0  0  0  0  0  0  0  0  0  0  0
    2.3723    3.0876   -2.0206 C   0  0  0  0  0  0  0  0  0  0  0  0
    1.7454    4.6377   -2.4936 Cl  0  0  0  0  0  0  0  0  0  0  0  0
    2.2871    2.6430   -0.6890 C   0  0  0  0  0  0  0  0  0  0  0  0
    1.5416    3.6801    0.5123 Cl  0  0  0  0  0  0  0  0  0  0  0  0
    2.7886    1.3715   -0.2764 C   0  0  0  0  0  0  0  0  0  0  0  0
    2.6337    1.2011    1.0911 O   0  0  0  0  0  0  0  0  0  0  0  0
    2.3079   -1.9197    0.5840 C   0  0  0  0  0  0  0  0  0  0  0  0
    1.7266   -1.0218    1.4770 C   0  0  0  0  0  0  0  0  0  0  0  0
    0.4534   -1.4571    1.7312 C   0  0  0  0  0  0  0  0  0  0  0  0
   -0.4656   -1.0422    2.5930 O   0  0  0  0  0  0  0  0  0  0  0  0
    0.2181   -2.5271    0.8687 N   0  0  0  0  0  0  0  0  0  0  0  0
   -1.0263   -3.2718    0.7213 C   0  0  0  0  0  0  0  0  0  0  0  0
   -2.3386   -2.4735    0.7924 C   0  0  0  0  0  0  0  0  0  0  0  0
   -2.4555   -1.3505   -0.2493 C   0  0  0  0  0  0  0  0  0  0  0  0
   -3.2244   -0.1424    0.3123 C   0  0  0  0  0  0  0  0  0  0  0  0
   -3.1368    1.0086   -0.5835 N   0  0  0  0  0  0  0  0  0  0  0  0
   -3.9612    0.9115   -1.7808 C   0  0  0  0  0  0  0  0  0  0  0  0
   -3.9881    2.3650   -2.2129 C   0  0  0  0  0  0  0  0  0  0  0  0
   -4.1231    3.1052   -0.9931 O   0  0  0  0  0  0  0  0  0  0  0  0
   -3.6039    2.2469    0.0309 C   0  0  0  0  0  0  0  0  0  0  0  0
    1.3980   -2.8531    0.1981 C   0  0  0  0  0  0  0  0  0  0  0  0
    1.4891   -3.9087   -0.6034 O   0  0  0  0  0  0  0  0  0  0  0  0
    3.6026    1.0183    3.5506 H   0  0  0  0  0  0  0  0  0  0  0  0
    2.9189   -0.5736    3.9480 H   0  0  0  0  0  0  0  0  0  0  0  0
    1.8629    0.8143    3.6268 H   0  0  0  0  0  0  0  0  0  0  0  0
    4.9591   -0.0944    1.3625 H   0  0  0  0  0  0  0  0  0  0  0  0
    3.9436    0.4072   -3.3629 H   0  0  0  0  0  0  0  0  0  0  0  0
   -0.1185   -0.2491    3.0351 H   0  0  0  0  0  0  0  0  0  0  0  0
   -1.0194   -4.0320    1.5146 H   0  0  0  0  0  0  0  0  0  0  0  0
   -0.9847   -3.7934   -0.2427 H   0  0  0  0  0  0  0  0  0  0  0  0
   -2.4768   -2.0814    1.8060 H   0  0  0  0  0  0  0  0  0  0  0  0
   -3.1728   -3.1707    0.6406 H   0  0  0  0  0  0  0  0  0  0  0  0
   -2.9662   -1.7420   -1.1370 H   0  0  0  0  0  0  0  0  0  0  0  0
   -1.4665   -1.0215   -0.5841 H   0  0  0  0  0  0  0  0  0  0  0  0
   -4.2677   -0.4211    0.5187 H   0  0  0  0  0  0  0  0  0  0  0  0
   -2.7695    0.1296    1.2729 H   0  0  0  0  0  0  0  0  0  0  0  0
   -3.5364    0.2612   -2.5478 H   0  0  0  0  0  0  0  0  0  0  0  0
   -4.9776    0.5728   -1.5451 H   0  0  0  0  0  0  0  0  0  0  0  0
   -4.8235    2.5967   -2.8796 H   0  0  0  0  0  0  0  0  0  0  0  0
   -3.0507    2.6687   -2.6938 H   0  0  0  0  0  0  0  0  0  0  0  0
   -2.7832    2.7656    0.5344 H   0  0  0  0  0  0  0  0  0  0  0  0
   -4.4101    2.0891    0.7570 H   0  0  0  0  0  0  0  0  0  0  0  0
    2.4112   -3.9300   -0.9187 H   0  0  0  0  0  0  0  0  0  0  0  0
  2  1  1  0  0  0  0
  3  2  1  0  0  0  0
  4  3  2  0  0  0  0
  5  4  1  0  0  0  0
  6  5  1  0  0  0  0
  7  6  2  0  0  0  0
  8  7  1  0  0  0  0
  9  8  1  0  0  0  0
 10  8  2  0  0  0  0
 11 10  1  0  0  0  0
 12 10  1  0  0  0  0
 13 12  1  0  0  0  0
 14 12  2  0  0  0  0
 14  6  1  0  0  0  0
 15 14  1  0  0  0  0
 15  2  1  0  0  0  0
 16  4  1  0  0  0  0
 17 16  1  0  0  0  0
 17  2  1  0  0  0  0
 18 17  2  0  0  0  0
 19 18  1  0  0  0  0
 20 18  1  0  0  0  0
 21 20  1  0  0  0  0
 22 21  1  0  0  0  0
 23 22  1  0  0  0  0
 24 23  1  0  0  0  0
 25 24  1  0  0  0  0
 26 25  1  0  0  0  0
 27 26  1  0  0  0  0
 28 27  1  0  0  0  0
 29 28  1  0  0  0  0
 29 25  1  0  0  0  0
 30 20  1  0  0  0  0
 30 16  2  0  0  0  0
 31 30  1  0  0  0  0
  1 32  1  0  0  0  0
  1 33  1  0  0  0  0
  1 34  1  0  0  0  0
  3 35  1  0  0  0  0
  7 36  1  0  0  0  0
 19 37  1  0  0  0  0
 21 38  1  0  0  0  0
 21 39  1  0  0  0  0
 22 40  1  0  0  0  0
 22 41  1  0  0  0  0
 23 42  1  0  0  0  0
 23 43  1  0  0  0  0
 24 44  1  0  0  0  0
 24 45  1  0  0  0  0
 26 46  1  0  0  0  0
 26 47  1  0  0  0  0
 27 48  1  0  0  0  0
 27 49  1  0  0  0  0
 29 50  1  0  0  0  0
 29 51  1  0  0  0  0
 31 52  1  0  0  0  0
M  END
>  <energy>
126.20891795991288

$$$$
