O=C(NCC=CCBr)C12C3CCCC1C1C3CC12
                    3D

 38 41  0  0  0  0  0  0  0  0999 V2000
   -0.1014   -2.3886    0.6459 O   0  0  0  0  0  0  0  0  0  0  0  0
   -0.1312   -1.1872    0.3603 C   0  0  0  0  0  0  0  0  0  0  0  0
   -1.2994   -0.5933   -0.0735 N   0  0  0  0  0  0  0  0  0  0  0  0
   -2.5293   -1.3424   -0.1170 C   0  0  0  0  0  0  0  0  0  0  0  0
   -3.5026   -0.5601   -0.9397 C   0  0  0  0  0  0  0  0  0  0  0  0
   -4.6470    0.0208   -0.5393 C   0  0  0  0  0  0  0  0  0  0  0  0
   -5.2455    0.0099    0.8280 C   0  0  0  0  0  0  0  0  0  0  0  0
   -5.1351    1.8160    1.5402 Br  0  0  0  0  0  0  0  0  0  0  0  0
    1.1013   -0.2575    0.4699 C   0  0  0  0  0  0  0  0  0  0  0  0
    1.1529    1.0720   -0.2906 C   0  0  0  0  0  0  0  0  0  0  0  0
    1.5651    0.9431   -1.7535 C   0  0  0  0  0  0  0  0  0  0  0  0
    2.1195   -0.4248   -2.1421 C   0  0  0  0  0  0  0  0  0  0  0  0
    3.1151   -0.9612   -1.1269 C   0  0  0  0  0  0  0  0  0  0  0  0
    2.5282   -0.9062    0.2755 C   0  0  0  0  0  0  0  0  0  0  0  0
    2.9737    0.3077    1.1200 C   0  0  0  0  0  0  0  0  0  0  0  0
    2.2715    1.5951    0.6039 C   0  0  0  0  0  0  0  0  0  0  0  0
    1.6553    1.6772    2.0280 C   0  0  0  0  0  0  0  0  0  0  0  0
    1.6267    0.1419    1.8879 C   0  0  0  0  0  0  0  0  0  0  0  0
   -1.3631    0.4150   -0.0773 H   0  0  0  0  0  0  0  0  0  0  0  0
   -2.8586   -1.5072    0.9115 H   0  0  0  0  0  0  0  0  0  0  0  0
   -2.3523   -2.3212   -0.5754 H   0  0  0  0  0  0  0  0  0  0  0  0
   -3.2335   -0.4682   -1.9921 H   0  0  0  0  0  0  0  0  0  0  0  0
   -5.2298    0.5512   -1.2923 H   0  0  0  0  0  0  0  0  0  0  0  0
   -6.3040   -0.2602    0.7927 H   0  0  0  0  0  0  0  0  0  0  0  0
   -4.7365   -0.6418    1.5386 H   0  0  0  0  0  0  0  0  0  0  0  0
    0.2616    1.7003   -0.1893 H   0  0  0  0  0  0  0  0  0  0  0  0
    2.2904    1.7243   -2.0114 H   0  0  0  0  0  0  0  0  0  0  0  0
    0.6857    1.1296   -2.3830 H   0  0  0  0  0  0  0  0  0  0  0  0
    2.5864   -0.3703   -3.1325 H   0  0  0  0  0  0  0  0  0  0  0  0
    1.2847   -1.1317   -2.2343 H   0  0  0  0  0  0  0  0  0  0  0  0
    3.3601   -1.9974   -1.3870 H   0  0  0  0  0  0  0  0  0  0  0  0
    4.0535   -0.3967   -1.1773 H   0  0  0  0  0  0  0  0  0  0  0  0
    2.6700   -1.8629    0.7986 H   0  0  0  0  0  0  0  0  0  0  0  0
    3.9021    0.3363    1.6872 H   0  0  0  0  0  0  0  0  0  0  0  0
    2.8778    2.4412    0.2791 H   0  0  0  0  0  0  0  0  0  0  0  0
    2.3223    2.0605    2.8090 H   0  0  0  0  0  0  0  0  0  0  0  0
    0.6839    2.1710    2.1186 H   0  0  0  0  0  0  0  0  0  0  0  0
    1.5812   -0.5343    2.7394 H   0  0  0  0  0  0  0  0  0  0  0  0
  2  1  2  0  0  0  0
  3  2  1  0  0  0  0
  4  3  1  0  0  0  0
  5  4  1  0  0  0  0
  6  5  2  0  0  0  0
  7  6  1  0  0  0  0
  8  7  1  0  0  0  0
  9  2  1  0  0  0  0
 10  9  1  0  0  0  0
 11 10  1  0  0  0  0
 12 11  1  0  0  0  0
 13 12  1  0  0  0  0
 14 13  1  0  0  0  0
 14  9  1  0  0  0  0
 15 14  1  0  0  0  0
 16 15  1  0  0  0  0
 16 10  1  0  0  0  0
 17 16  1  0  0  0  0
 18 17  1  0  0  0  0
 18 15  1  0  0  0  0
 18  9  1  0  0  0  0
  3 19  1  0  0  0  0
  4 20  1  0  0  0  0
  4 21  1  0  0  0  0
  5 22  1  0  0  0  0
  6 23  1  0  0  0  0
  7 24  1  0  0  0  0
  7 25  1  0  0  0  0
 10 26  1  0  0  0  0
 11 27  1  0  0  0  0
 11 28  1  0  0  0  0
 12 29  1  0  0  0  0
 12 30  1  0  0  0  0
 13 31  1  0  0  0  0
 13 32  1  0  0  0  0
 14 33  1  0  0  0  0
 15 34  1  0  0  0  0
 16 35  1  0  0  0  0
 17 36  1  0  0  0  0
 17 37  1  0  0  0  0
 18 38  1  0  0  0  0
M  END
>  <energy>
8.2002842473070174

$$$$
