COCC12C(OC)C3C4C5CC6C(C#CC7=CCCNC7)=CC(C65)C41C32
                    3D

 53 59  0  0  0  0  0  0  0  0999 V2000
    1.6739   -2.2654    1.9897 C   0  0  0  0  0  0  0  0  0  0  0  0
    2.8839   -1.5898    2.3106 O   0  0  0  0  0  0  0  0  0  0  0  0
    2.6762   -0.2065    2.5946 C   0  0  0  0  0  0  0  0  0  0  0  0
    2.7839    0.6193    1.3623 C   0  0  0  0  0  0  0  0  0  0  0  0
    3.3147    0.0886    0.0503 C   0  0  0  0  0  0  0  0  0  0  0  0
    2.3808   -0.4945   -0.8881 O   0  0  0  0  0  0  0  0  0  0  0  0
    2.9234   -1.4575   -1.7776 C   0  0  0  0  0  0  0  0  0  0  0  0
    3.7696    1.5936   -0.2219 C   0  0  0  0  0  0  0  0  0  0  0  0
    2.8404    2.8386   -0.0631 C   0  0  0  0  0  0  0  0  0  0  0  0
    1.7237    3.2276   -1.0963 C   0  0  0  0  0  0  0  0  0  0  0  0
    0.7513    2.2710   -1.8721 C   0  0  0  0  0  0  0  0  0  0  0  0
   -0.4598    2.7607   -0.9584 C   0  0  0  0  0  0  0  0  0  0  0  0
   -1.1968    1.8459    0.0050 C   0  0  0  0  0  0  0  0  0  0  0  0
   -2.3956    1.1541   -0.2633 C   0  0  0  0  0  0  0  0  0  0  0  0
   -3.2495    0.3318   -0.4411 C   0  0  0  0  0  0  0  0  0  0  0  0
   -4.0358   -0.8485   -0.5678 C   0  0  0  0  0  0  0  0  0  0  0  0
   -3.9153   -1.5921   -1.6815 C   0  0  0  0  0  0  0  0  0  0  0  0
   -4.5311   -2.9588   -1.7797 C   0  0  0  0  0  0  0  0  0  0  0  0
   -5.0015   -3.4909   -0.4156 C   0  0  0  0  0  0  0  0  0  0  0  0
   -5.7233   -2.4647    0.3436 N   0  0  0  0  0  0  0  0  0  0  0  0
   -4.8456   -1.3181    0.6227 C   0  0  0  0  0  0  0  0  0  0  0  0
   -0.4659    1.6054    1.1257 C   0  0  0  0  0  0  0  0  0  0  0  0
    0.8975    2.0218    0.7743 C   0  0  0  0  0  0  0  0  0  0  0  0
    0.6272    3.2924   -0.0462 C   0  0  0  0  0  0  0  0  0  0  0  0
    2.2977    2.1247    1.2835 C   0  0  0  0  0  0  0  0  0  0  0  0
    3.7645    1.6654    1.2521 C   0  0  0  0  0  0  0  0  0  0  0  0
    1.9255   -3.2829    1.6733 H   0  0  0  0  0  0  0  0  0  0  0  0
    1.0304   -2.3246    2.8735 H   0  0  0  0  0  0  0  0  0  0  0  0
    1.1442   -1.7648    1.1750 H   0  0  0  0  0  0  0  0  0  0  0  0
    3.4473    0.0872    3.3161 H   0  0  0  0  0  0  0  0  0  0  0  0
    1.7113   -0.0544    3.0899 H   0  0  0  0  0  0  0  0  0  0  0  0
    4.1757   -0.5880    0.2005 H   0  0  0  0  0  0  0  0  0  0  0  0
    3.7891   -1.0437   -2.3018 H   0  0  0  0  0  0  0  0  0  0  0  0
    2.1605   -1.7346   -2.5110 H   0  0  0  0  0  0  0  0  0  0  0  0
    3.2143   -2.3524   -1.2210 H   0  0  0  0  0  0  0  0  0  0  0  0
    4.7087    1.7339   -0.7515 H   0  0  0  0  0  0  0  0  0  0  0  0
    3.4145    3.7534    0.1869 H   0  0  0  0  0  0  0  0  0  0  0  0
    1.9017    4.1732   -1.6176 H   0  0  0  0  0  0  0  0  0  0  0  0
    0.9640    1.1997   -1.8760 H   0  0  0  0  0  0  0  0  0  0  0  0
    0.6272    2.5506   -2.9265 H   0  0  0  0  0  0  0  0  0  0  0  0
   -1.0867    3.5417   -1.4065 H   0  0  0  0  0  0  0  0  0  0  0  0
   -3.3175   -1.2519   -2.5245 H   0  0  0  0  0  0  0  0  0  0  0  0
   -5.3668   -2.9182   -2.4872 H   0  0  0  0  0  0  0  0  0  0  0  0
   -3.7896   -3.6565   -2.1884 H   0  0  0  0  0  0  0  0  0  0  0  0
   -5.6562   -4.3564   -0.5747 H   0  0  0  0  0  0  0  0  0  0  0  0
   -4.1406   -3.8495    0.1655 H   0  0  0  0  0  0  0  0  0  0  0  0
   -6.0422   -2.8520    1.2284 H   0  0  0  0  0  0  0  0  0  0  0  0
   -5.4704   -0.4939    0.9907 H   0  0  0  0  0  0  0  0  0  0  0  0
   -4.1529   -1.5800    1.4350 H   0  0  0  0  0  0  0  0  0  0  0  0
   -0.7365    0.9256    1.9195 H   0  0  0  0  0  0  0  0  0  0  0  0
    1.0454    1.1548    0.1170 H   0  0  0  0  0  0  0  0  0  0  0  0
    0.4565    4.2321    0.4873 H   0  0  0  0  0  0  0  0  0  0  0  0
    4.5549    1.9971    1.8866 H   0  0  0  0  0  0  0  0  0  0  0  0
  2  1  1  0  0  0  0
  3  2  1  0  0  0  0
  4  3  1  0  0  0  0
  5  4  1  0  0  0  0
  6  5  1  0  0  0  0
  7  6  1  0  0  0  0
  8  5  1  0  0  0  0
  9  8  1  0  0  0  0
 10  9  1  0  0  0  0
 11 10  1  0  0  0  0
 12 11  1  0  0  0  0
 13 12  1  0  0  0  0
 14 13  1  0  0  0  0
 15 14  3  0  0  0  0
 16 15  1  0  0  0  0
 17 16  2  0  0  0  0
 18 17  1  0  0  0  0
 19 18  1  0  0  0  0
 20 19  1  0  0  0  0
 21 20  1  0  0  0  0
 21 16  1  0  0  0  0
 22 13  2  0  0  0  0
 23 22  1  0  0  0  0
 24 23  1  0  0  0  0
 24 12  1  0  0  0  0
 24 10  1  0  0  0  0
 25 23  1  0  0  0  0
 25  9  1  0  0  0  0
 25  4  1  0  0  0  0
 26 25  1  0  0  0  0
 26  8  1  0  0  0  0
 26  4  1  0  0  0  0
  1 27  1  0  0  0  0
  1 28  1  0  0  0  0
  1 29  1  0  0  0  0
  3 30  1  0  0  0  0
  3 31  1  0  0  0  0
  5 32  1  0  0  0  0
  7 33  1  0  0  0  0
  7 34  1  0  0  0  0
  7 35  1  0  0  0  0
  8 36  1  0  0  0  0
  9 37  1  0  0  0  0
 10 38  1  0  0  0  0
 11 39  1  0  0  0  0
 11 40  1  0  0  0  0
 12 41  1  0  0  0  0
 17 42  1  0  0  0  0
 18 43  1  0  0  0  0
 18 44  1  0  0  0  0
 19 45  1  0  0  0  0
 19 46  1  0  0  0  0
 20 47  1  0  0  0  0
 21 48  1  0  0  0  0
 21 49  1  0  0  0  0
 22 50  1  0  0  0  0
 23 51  1  0  0  0  0
 24 52  1  0  0  0  0
 26 53  1  0  0  0  0
M  END
>  <energy>
206.59220313975078

$$$$
