CC(=O)C(C)C1C(=O)NC23C4C5C6NCC2(C64)C1C3N5CCBr
                    3D

 45 50  0  0  0  0  0  0  0  0999 V2000
    2.8830    1.2601    2.8329 C   0  0  0  0  0  0  0  0  0  0  0  0
    2.2950   -0.0144    2.2860 C   0  0  0  0  0  0  0  0  0  0  0  0
    1.4211   -0.6146    2.9073 O   0  0  0  0  0  0  0  0  0  0  0  0
    2.8234   -0.4935    0.9402 C   0  0  0  0  0  0  0  0  0  0  0  0
    3.8866   -1.5641    1.1676 C   0  0  0  0  0  0  0  0  0  0  0  0
    1.7045   -0.9293   -0.0263 C   0  0  0  0  0  0  0  0  0  0  0  0
    0.8382   -2.1188    0.4780 C   0  0  0  0  0  0  0  0  0  0  0  0
    1.2921   -3.1861    0.8691 O   0  0  0  0  0  0  0  0  0  0  0  0
   -0.5266   -1.9017    0.3688 N   0  0  0  0  0  0  0  0  0  0  0  0
   -0.9588   -0.6457   -0.1899 C   0  0  0  0  0  0  0  0  0  0  0  0
   -2.2288    0.0349   -0.1305 C   0  0  0  0  0  0  0  0  0  0  0  0
   -2.6392    0.9391   -1.1942 C   0  0  0  0  0  0  0  0  0  0  0  0
   -2.3983    2.1255    0.1360 C   0  0  0  0  0  0  0  0  0  0  0  0
   -2.3365    1.7509    1.5978 N   0  0  0  0  0  0  0  0  0  0  0  0
   -0.9124    1.1760    1.8914 C   0  0  0  0  0  0  0  0  0  0  0  0
   -0.3320    0.5685    0.6094 C   0  0  0  0  0  0  0  0  0  0  0  0
   -1.0857    1.5860   -0.0760 C   0  0  0  0  0  0  0  0  0  0  0  0
    0.8326    0.3006   -0.4572 C   0  0  0  0  0  0  0  0  0  0  0  0
   -0.3244   -0.2523   -1.5155 C   0  0  0  0  0  0  0  0  0  0  0  0
   -1.4027    0.6898   -2.1572 N   0  0  0  0  0  0  0  0  0  0  0  0
   -1.8930    0.0951   -3.4196 C   0  0  0  0  0  0  0  0  0  0  0  0
   -2.6169   -1.2531   -3.3211 C   0  0  0  0  0  0  0  0  0  0  0  0
   -3.2024   -1.8122   -5.0961 Br  0  0  0  0  0  0  0  0  0  0  0  0
    2.4767    1.4542    3.8302 H   0  0  0  0  0  0  0  0  0  0  0  0
    2.6165    2.0919    2.1768 H   0  0  0  0  0  0  0  0  0  0  0  0
    3.9678    1.1659    2.9061 H   0  0  0  0  0  0  0  0  0  0  0  0
    3.3254    0.3670    0.4773 H   0  0  0  0  0  0  0  0  0  0  0  0
    4.7239   -1.1550    1.7436 H   0  0  0  0  0  0  0  0  0  0  0  0
    3.5015   -2.4166    1.7356 H   0  0  0  0  0  0  0  0  0  0  0  0
    4.2827   -1.9323    0.2164 H   0  0  0  0  0  0  0  0  0  0  0  0
    2.1889   -1.2982   -0.9414 H   0  0  0  0  0  0  0  0  0  0  0  0
   -1.1319   -2.6362    0.7112 H   0  0  0  0  0  0  0  0  0  0  0  0
   -2.9207   -0.2335    0.6745 H   0  0  0  0  0  0  0  0  0  0  0  0
   -3.6465    0.8614   -1.6066 H   0  0  0  0  0  0  0  0  0  0  0  0
   -2.5193    3.1828   -0.1029 H   0  0  0  0  0  0  0  0  0  0  0  0
   -2.4914    2.5261    2.2434 H   0  0  0  0  0  0  0  0  0  0  0  0
   -0.2853    1.9988    2.2587 H   0  0  0  0  0  0  0  0  0  0  0  0
   -1.0155    0.4362    2.6908 H   0  0  0  0  0  0  0  0  0  0  0  0
   -0.5524    2.1582   -0.8516 H   0  0  0  0  0  0  0  0  0  0  0  0
    1.4192    1.1532   -0.8157 H   0  0  0  0  0  0  0  0  0  0  0  0
    0.0417   -1.0388   -2.1825 H   0  0  0  0  0  0  0  0  0  0  0  0
   -2.5595    0.8279   -3.8940 H   0  0  0  0  0  0  0  0  0  0  0  0
   -1.0386    0.0028   -4.1041 H   0  0  0  0  0  0  0  0  0  0  0  0
   -3.5260   -1.2005   -2.7190 H   0  0  0  0  0  0  0  0  0  0  0  0
   -1.9760   -2.0561   -2.9474 H   0  0  0  0  0  0  0  0  0  0  0  0
  2  1  1  0  0  0  0
  3  2  2  0  0  0  0
  4  2  1  0  0  0  0
  5  4  1  0  0  0  0
  6  4  1  0  0  0  0
  7  6  1  0  0  0  0
  8  7  2  0  0  0  0
  9  7  1  0  0  0  0
 10  9  1  0  0  0  0
 11 10  1  0  0  0  0
 12 11  1  0  0  0  0
 13 12  1  0  0  0  0
 14 13  1  0  0  0  0
 15 14  1  0  0  0  0
 16 15  1  0  0  0  0
 16 10  1  0  0  0  0
 17 16  1  0  0  0  0
 17 13  1  0  0  0  0
 17 11  1  0  0  0  0
 18 16  1  0  0  0  0
 18  6  1  0  0  0  0
 19 18  1  0  0  0  0
 19 10  1  0  0  0  0
 20 19  1  0  0  0  0
 20 12  1  0  0  0  0
 21 20  1  0  0  0  0
 22 21  1  0  0  0  0
 23 22  1  0  0  0  0
  1 24  1  0  0  0  0
  1 25  1  0  0  0  0
  1 26  1  0  0  0  0
  4 27  1  0  0  0  0
  5 28  1  0  0  0  0
  5 29  1  0  0  0  0
  5 30  1  0  0  0  0
  6 31  1  0  0  0  0
  9 32  1  0  0  0  0
 11 33  1  0  0  0  0
 12 34  1  0  0  0  0
 13 35  1  0  0  0  0
 14 36  1  0  0  0  0
 15 37  1  0  0  0  0
 15 38  1  0  0  0  0
 17 39  1  0  0  0  0
 18 40  1  0  0  0  0
 19 41  1  0  0  0  0
 21 42  1  0  0  0  0
 21 43  1  0  0  0  0
 22 44  1  0  0  0  0
 22 45  1  0  0  0  0
M  END
>  <energy>
263.41481139899412

$$$$
