CCN(CC)C(=O)C12CCC(C)C3C4(O)CCCN5CC3(CC14)C5C2
                    3D

 59 63  0  0  0  0  0  0  0  0999 V2000
   -0.7118    4.1605   -0.4199 C   0  0  0  0  0  0  0  0  0  0  0  0
   -0.9638    2.9529    0.4760 C   0  0  0  0  0  0  0  0  0  0  0  0
   -1.7268    1.8494   -0.1266 N   0  0  0  0  0  0  0  0  0  0  0  0
   -3.1777    2.0811   -0.1665 C   0  0  0  0  0  0  0  0  0  0  0  0
   -3.8378    1.8699    1.1886 C   0  0  0  0  0  0  0  0  0  0  0  0
   -1.2097    1.3798   -1.3440 C   0  0  0  0  0  0  0  0  0  0  0  0
   -1.3483    1.9969   -2.3968 O   0  0  0  0  0  0  0  0  0  0  0  0
   -0.6434   -0.0359   -1.3192 C   0  0  0  0  0  0  0  0  0  0  0  0
   -1.7626   -1.1340   -1.0881 C   0  0  0  0  0  0  0  0  0  0  0  0
   -1.8159   -1.9385    0.3601 C   0  0  0  0  0  0  0  0  0  0  0  0
   -0.5291   -2.5532    1.2691 C   0  0  0  0  0  0  0  0  0  0  0  0
   -0.4674   -4.0887    1.2891 C   0  0  0  0  0  0  0  0  0  0  0  0
    0.9755   -1.8840    1.1459 C   0  0  0  0  0  0  0  0  0  0  0  0
    0.6547   -0.4083    1.1365 C   0  0  0  0  0  0  0  0  0  0  0  0
   -0.4212   -0.0130    1.9662 O   0  0  0  0  0  0  0  0  0  0  0  0
    1.9031    0.4004    1.6169 C   0  0  0  0  0  0  0  0  0  0  0  0
    2.6416    1.2953    0.6162 C   0  0  0  0  0  0  0  0  0  0  0  0
    3.4611    0.6688   -0.5246 C   0  0  0  0  0  0  0  0  0  0  0  0
    3.2580   -0.6228   -1.1392 N   0  0  0  0  0  0  0  0  0  0  0  0
    3.3518   -1.7755   -0.2439 C   0  0  0  0  0  0  0  0  0  0  0  0
    1.8090   -2.1195   -0.3143 C   0  0  0  0  0  0  0  0  0  0  0  0
    0.5627   -2.0407   -1.0164 C   0  0  0  0  0  0  0  0  0  0  0  0
    0.3132   -0.4259   -0.3268 C   0  0  0  0  0  0  0  0  0  0  0  0
    2.0480   -1.0962   -1.7798 C   0  0  0  0  0  0  0  0  0  0  0  0
    0.6851   -0.1147   -2.4560 C   0  0  0  0  0  0  0  0  0  0  0  0
   -1.6347    4.5423   -0.8660 H   0  0  0  0  0  0  0  0  0  0  0  0
   -0.2554    4.9679    0.1622 H   0  0  0  0  0  0  0  0  0  0  0  0
   -0.0178    3.9149   -1.2320 H   0  0  0  0  0  0  0  0  0  0  0  0
   -1.4638    3.2701    1.3956 H   0  0  0  0  0  0  0  0  0  0  0  0
    0.0001    2.5481    0.7798 H   0  0  0  0  0  0  0  0  0  0  0  0
   -3.3822    3.0891   -0.5445 H   0  0  0  0  0  0  0  0  0  0  0  0
   -3.6320    1.3864   -0.8821 H   0  0  0  0  0  0  0  0  0  0  0  0
   -3.5866    0.8856    1.5981 H   0  0  0  0  0  0  0  0  0  0  0  0
   -4.9269    1.9341    1.0977 H   0  0  0  0  0  0  0  0  0  0  0  0
   -3.5232    2.6236    1.9157 H   0  0  0  0  0  0  0  0  0  0  0  0
   -2.7496   -0.6660   -1.1925 H   0  0  0  0  0  0  0  0  0  0  0  0
   -1.7465   -1.8674   -1.9046 H   0  0  0  0  0  0  0  0  0  0  0  0
   -2.3468   -1.2559    1.0366 H   0  0  0  0  0  0  0  0  0  0  0  0
   -2.5140   -2.7743    0.2079 H   0  0  0  0  0  0  0  0  0  0  0  0
   -0.8423   -2.3180    2.3010 H   0  0  0  0  0  0  0  0  0  0  0  0
   -0.1754   -4.5361    0.3352 H   0  0  0  0  0  0  0  0  0  0  0  0
   -1.4398   -4.5022    1.5691 H   0  0  0  0  0  0  0  0  0  0  0  0
    0.2591   -4.4209    2.0391 H   0  0  0  0  0  0  0  0  0  0  0  0
    1.5900   -2.2343    1.9809 H   0  0  0  0  0  0  0  0  0  0  0  0
   -1.0289    0.5372    1.4403 H   0  0  0  0  0  0  0  0  0  0  0  0
    2.6270   -0.2574    2.1110 H   0  0  0  0  0  0  0  0  0  0  0  0
    1.5732    1.0650    2.4292 H   0  0  0  0  0  0  0  0  0  0  0  0
    3.3373    1.9133    1.2023 H   0  0  0  0  0  0  0  0  0  0  0  0
    1.9455    2.0221    0.1870 H   0  0  0  0  0  0  0  0  0  0  0  0
    4.5041    0.6639   -0.1775 H   0  0  0  0  0  0  0  0  0  0  0  0
    3.4754    1.4075   -1.3366 H   0  0  0  0  0  0  0  0  0  0  0  0
    3.9636   -2.5869   -0.6649 H   0  0  0  0  0  0  0  0  0  0  0  0
    3.7566   -1.5905    0.7558 H   0  0  0  0  0  0  0  0  0  0  0  0
    0.4659   -2.2615   -2.0993 H   0  0  0  0  0  0  0  0  0  0  0  0
   -0.1050   -2.8466   -0.7546 H   0  0  0  0  0  0  0  0  0  0  0  0
    1.0446    0.3342   -0.5546 H   0  0  0  0  0  0  0  0  0  0  0  0
    2.3345   -1.6750   -2.6832 H   0  0  0  0  0  0  0  0  0  0  0  0
    1.0983    0.8776   -2.6720 H   0  0  0  0  0  0  0  0  0  0  0  0
    0.3474   -0.5939   -3.3829 H   0  0  0  0  0  0  0  0  0  0  0  0
  2  1  1  0  0  0  0
  3  2  1  0  0  0  0
  4  3  1  0  0  0  0
  5  4  1  0  0  0  0
  6  3  1  0  0  0  0
  7  6  2  0  0  0  0
  8  6  1  0  0  0  0
  9  8  1  0  0  0  0
 10  9  1  0  0  0  0
 11 10  1  0  0  0  0
 12 11  1  0  0  0  0
 13 11  1  0  0  0  0
 14 13  1  0  0  0  0
 15 14  1  0  0  0  0
 16 14  1  0  0  0  0
 17 16  1  0  0  0  0
 18 17  1  0  0  0  0
 19 18  1  0  0  0  0
 20 19  1  0  0  0  0
 21 20  1  0  0  0  0
 21 13  1  0  0  0  0
 22 21  1  0  0  0  0
 23 22  1  0  0  0  0
 23  8  1  0  0  0  0
 23 14  1  0  0  0  0
 24 21  1  0  0  0  0
 24 19  1  0  0  0  0
 25 24  1  0  0  0  0
 25  8  1  0  0  0  0
  1 26  1  0  0  0  0
  1 27  1  0  0  0  0
  1 28  1  0  0  0  0
  2 29  1  0  0  0  0
  2 30  1  0  0  0  0
  4 31  1  0  0  0  0
  4 32  1  0  0  0  0
  5 33  1  0  0  0  0
  5 34  1  0  0  0  0
  5 35  1  0  0  0  0
  9 36  1  0  0  0  0
  9 37  1  0  0  0  0
 10 38  1  0  0  0  0
 10 39  1  0  0  0  0
 11 40  1  0  0  0  0
 12 41  1  0  0  0  0
 12 42  1  0  0  0  0
 12 43  1  0  0  0  0
 13 44  1  0  0  0  0
 15 45  1  0  0  0  0
 16 46  1  0  0  0  0
 16 47  1  0  0  0  0
 17 48  1  0  0  0  0
 17 49  1  0  0  0  0
 18 50  1  0  0  0  0
 18 51  1  0  0  0  0
 20 52  1  0  0  0  0
 20 53  1  0  0  0  0
 22 54  1  0  0  0  0
 22 55  1  0  0  0  0
 23 56  1  0  0  0  0
 24 57  1  0  0  0  0
 25 58  1  0  0  0  0
 25 59  1  0  0  0  0
M  END
>  <energy>
407.15960111837848

$$$$
