CN1CC2(C(=N)NCCN=S)C3C4C5C6C3C2C1(C6CBr)C54
                    3D

 43 48  0  0  0  0  0  0  0  0999 V2000
    1.2056   -1.7920   -1.9431 C   0  0  0  0  0  0  0  0  0  0  0  0
    1.6611   -1.4049   -0.6168 N   0  0  0  0  0  0  0  0  0  0  0  0
    0.7432   -1.8945    0.4848 C   0  0  0  0  0  0  0  0  0  0  0  0
   -0.0800   -0.6991    1.1136 C   0  0  0  0  0  0  0  0  0  0  0  0
   -1.4713   -1.1664    1.6443 C   0  0  0  0  0  0  0  0  0  0  0  0
   -1.5700   -1.9385    2.6769 N   0  0  0  0  0  0  0  0  0  0  0  0
   -2.6103   -0.6921    1.0868 N   0  0  0  0  0  0  0  0  0  0  0  0
   -3.0618   -1.1884   -0.2043 C   0  0  0  0  0  0  0  0  0  0  0  0
   -4.1102   -0.2274   -0.7269 C   0  0  0  0  0  0  0  0  0  0  0  0
   -3.5072    1.1061   -0.7484 N   0  0  0  0  0  0  0  0  0  0  0  0
   -3.5465    2.0261   -1.9542 S   0  0  0  0  0  0  0  0  0  0  0  0
    0.5365    0.4914    2.0427 C   0  0  0  0  0  0  0  0  0  0  0  0
    2.0301    0.5156    2.1458 C   0  0  0  0  0  0  0  0  0  0  0  0
    2.6079    1.5715    1.2492 C   0  0  0  0  0  0  0  0  0  0  0  0
    1.5889    2.1551    0.2849 C   0  0  0  0  0  0  0  0  0  0  0  0
    0.2428    1.5100    0.8277 C   0  0  0  0  0  0  0  0  0  0  0  0
    0.1572    0.2626   -0.0122 C   0  0  0  0  0  0  0  0  0  0  0  0
    1.6554    0.0075   -0.3894 C   0  0  0  0  0  0  0  0  0  0  0  0
    1.9549    1.3620   -1.0535 C   0  0  0  0  0  0  0  0  0  0  0  0
    1.1493    1.7489   -2.2770 C   0  0  0  0  0  0  0  0  0  0  0  0
    1.9307    3.3452   -3.0950 Br  0  0  0  0  0  0  0  0  0  0  0  0
    2.6593    0.1405    0.8397 C   0  0  0  0  0  0  0  0  0  0  0  0
    1.8687   -1.3813   -2.7115 H   0  0  0  0  0  0  0  0  0  0  0  0
    1.2467   -2.8812   -2.0468 H   0  0  0  0  0  0  0  0  0  0  0  0
    0.1824   -1.4734   -2.1659 H   0  0  0  0  0  0  0  0  0  0  0  0
    1.3468   -2.3645    1.2690 H   0  0  0  0  0  0  0  0  0  0  0  0
    0.0614   -2.6617    0.0936 H   0  0  0  0  0  0  0  0  0  0  0  0
   -0.6358   -2.1841    3.0296 H   0  0  0  0  0  0  0  0  0  0  0  0
   -3.3413   -0.9123    1.7704 H   0  0  0  0  0  0  0  0  0  0  0  0
   -2.2300   -1.2513   -0.9095 H   0  0  0  0  0  0  0  0  0  0  0  0
   -3.4919   -2.1886   -0.0910 H   0  0  0  0  0  0  0  0  0  0  0  0
   -4.9793   -0.2054   -0.0544 H   0  0  0  0  0  0  0  0  0  0  0  0
   -4.4599   -0.5605   -1.7106 H   0  0  0  0  0  0  0  0  0  0  0  0
   -0.0110    0.7213    2.9593 H   0  0  0  0  0  0  0  0  0  0  0  0
    2.4652    0.2532    3.0925 H   0  0  0  0  0  0  0  0  0  0  0  0
    3.5176    2.1092    1.4401 H   0  0  0  0  0  0  0  0  0  0  0  0
    1.5769    3.2440    0.2216 H   0  0  0  0  0  0  0  0  0  0  0  0
   -0.6554    2.1258    0.8889 H   0  0  0  0  0  0  0  0  0  0  0  0
   -0.5703    0.2702   -0.8270 H   0  0  0  0  0  0  0  0  0  0  0  0
    3.0289    1.4555   -1.2737 H   0  0  0  0  0  0  0  0  0  0  0  0
    1.1826    0.9762   -3.0500 H   0  0  0  0  0  0  0  0  0  0  0  0
    0.1129    2.0145   -2.0652 H   0  0  0  0  0  0  0  0  0  0  0  0
    3.6194   -0.3450    0.7647 H   0  0  0  0  0  0  0  0  0  0  0  0
  2  1  1  0  0  0  0
  3  2  1  0  0  0  0
  4  3  1  0  0  0  0
  5  4  1  0  0  0  0
  6  5  2  0  0  0  0
  7  5  1  0  0  0  0
  8  7  1  0  0  0  0
  9  8  1  0  0  0  0
 10  9  1  0  0  0  0
 11 10  2  0  0  0  0
 12  4  1  0  0  0  0
 13 12  1  0  0  0  0
 14 13  1  0  0  0  0
 15 14  1  0  0  0  0
 16 15  1  0  0  0  0
 16 12  1  0  0  0  0
 17 16  1  0  0  0  0
 17  4  1  0  0  0  0
 18 17  1  0  0  0  0
 18  2  1  0  0  0  0
 19 18  1  0  0  0  0
 19 15  1  0  0  0  0
 20 19  1  0  0  0  0
 21 20  1  0  0  0  0
 22 18  1  0  0  0  0
 22 14  1  0  0  0  0
 22 13  1  0  0  0  0
  1 23  1  0  0  0  0
  1 24  1  0  0  0  0
  1 25  1  0  0  0  0
  3 26  1  0  0  0  0
  3 27  1  0  0  0  0
  6 28  1  0  0  0  0
  7 29  1  0  0  0  0
  8 30  1  0  0  0  0
  8 31  1  0  0  0  0
  9 32  1  0  0  0  0
  9 33  1  0  0  0  0
 12 34  1  0  0  0  0
 13 35  1  0  0  0  0
 14 36  1  0  0  0  0
 15 37  1  0  0  0  0
 16 38  1  0  0  0  0
 17 39  1  0  0  0  0
 19 40  1  0  0  0  0
 20 41  1  0  0  0  0
 20 42  1  0  0  0  0
 22 43  1  0  0  0  0
M  END
>  <energy>
74.374989531055718

$$$$
