COC12CCC34c5ccc(O)c(O)c5C35CCN(CC3CC3)C4C53CC1C3(N)C2
                    3D

 59 66  0  0  0  0  0  0  0  0999 V2000
    4.7898   -0.2159   -1.6240 C   0  0  0  0  0  0  0  0  0  0  0  0
    4.3823    0.1160   -0.3054 O   0  0  0  0  0  0  0  0  0  0  0  0
    2.9555    0.3166   -0.0818 C   0  0  0  0  0  0  0  0  0  0  0  0
    2.3591   -1.0849    0.2650 C   0  0  0  0  0  0  0  0  0  0  0  0
    1.0487   -1.1722    1.1174 C   0  0  0  0  0  0  0  0  0  0  0  0
   -0.2714   -0.5319    0.5809 C   0  0  0  0  0  0  0  0  0  0  0  0
   -1.2378   -0.3565    1.7325 C   0  0  0  0  0  0  0  0  0  0  0  0
   -1.8046   -1.0756    2.7721 C   0  0  0  0  0  0  0  0  0  0  0  0
   -2.3058   -0.3616    3.8706 C   0  0  0  0  0  0  0  0  0  0  0  0
   -2.1891    1.0364    3.9070 C   0  0  0  0  0  0  0  0  0  0  0  0
   -2.6580    1.7666    4.9658 O   0  0  0  0  0  0  0  0  0  0  0  0
   -1.6110    1.7381    2.8509 C   0  0  0  0  0  0  0  0  0  0  0  0
   -1.5534    3.0957    2.8536 O   0  0  0  0  0  0  0  0  0  0  0  0
   -1.1516    1.0187    1.7766 C   0  0  0  0  0  0  0  0  0  0  0  0
   -0.8172    1.1677    0.3272 C   0  0  0  0  0  0  0  0  0  0  0  0
   -2.0715    1.5253   -0.4682 C   0  0  0  0  0  0  0  0  0  0  0  0
   -1.9946    0.8546   -1.8167 C   0  0  0  0  0  0  0  0  0  0  0  0
   -1.2470   -0.3905   -1.7394 N   0  0  0  0  0  0  0  0  0  0  0  0
   -2.0754   -1.5797   -1.5253 C   0  0  0  0  0  0  0  0  0  0  0  0
   -1.3621   -2.8186   -1.9960 C   0  0  0  0  0  0  0  0  0  0  0  0
   -2.1585   -4.0131   -2.4634 C   0  0  0  0  0  0  0  0  0  0  0  0
   -1.3748   -3.2010   -3.4568 C   0  0  0  0  0  0  0  0  0  0  0  0
   -0.0251   -0.3256   -0.8900 C   0  0  0  0  0  0  0  0  0  0  0  0
    0.4258    1.1325   -0.4769 C   0  0  0  0  0  0  0  0  0  0  0  0
    1.0642    1.6847   -1.7158 C   0  0  0  0  0  0  0  0  0  0  0  0
    2.4013    1.6420   -0.9134 C   0  0  0  0  0  0  0  0  0  0  0  0
    1.5319    1.7996    0.3332 C   0  0  0  0  0  0  0  0  0  0  0  0
    1.3010    3.2011    0.6624 N   0  0  0  0  0  0  0  0  0  0  0  0
    2.6616    1.2178    1.1450 C   0  0  0  0  0  0  0  0  0  0  0  0
    4.1927   -1.0388   -2.0242 H   0  0  0  0  0  0  0  0  0  0  0  0
    5.8378   -0.5286   -1.5887 H   0  0  0  0  0  0  0  0  0  0  0  0
    4.7083    0.6594   -2.2736 H   0  0  0  0  0  0  0  0  0  0  0  0
    3.1144   -1.6110    0.8714 H   0  0  0  0  0  0  0  0  0  0  0  0
    2.2991   -1.7026   -0.6399 H   0  0  0  0  0  0  0  0  0  0  0  0
    0.8483   -2.2477    1.2267 H   0  0  0  0  0  0  0  0  0  0  0  0
    1.2519   -0.8393    2.1410 H   0  0  0  0  0  0  0  0  0  0  0  0
   -1.7951   -2.1604    2.7725 H   0  0  0  0  0  0  0  0  0  0  0  0
   -2.7548   -0.9039    4.6970 H   0  0  0  0  0  0  0  0  0  0  0  0
   -3.0167    1.1469    5.6251 H   0  0  0  0  0  0  0  0  0  0  0  0
   -1.9453    3.3530    3.7127 H   0  0  0  0  0  0  0  0  0  0  0  0
   -2.1418    2.6132   -0.5886 H   0  0  0  0  0  0  0  0  0  0  0  0
   -2.9847    1.1961    0.0418 H   0  0  0  0  0  0  0  0  0  0  0  0
   -2.9951    0.7201   -2.2432 H   0  0  0  0  0  0  0  0  0  0  0  0
   -1.4835    1.5182   -2.5251 H   0  0  0  0  0  0  0  0  0  0  0  0
   -2.3914   -1.6993   -0.4844 H   0  0  0  0  0  0  0  0  0  0  0  0
   -2.9993   -1.4853   -2.1119 H   0  0  0  0  0  0  0  0  0  0  0  0
   -0.4670   -3.0312   -1.4214 H   0  0  0  0  0  0  0  0  0  0  0  0
   -3.2392   -3.9390   -2.4893 H   0  0  0  0  0  0  0  0  0  0  0  0
   -1.7885   -5.0016   -2.2159 H   0  0  0  0  0  0  0  0  0  0  0  0
   -0.4741   -3.6348   -3.8762 H   0  0  0  0  0  0  0  0  0  0  0  0
   -1.9260   -2.5713   -4.1468 H   0  0  0  0  0  0  0  0  0  0  0  0
    0.7309   -0.9216   -1.3913 H   0  0  0  0  0  0  0  0  0  0  0  0
    0.7467    2.6926   -2.0069 H   0  0  0  0  0  0  0  0  0  0  0  0
    1.0848    1.0751   -2.6244 H   0  0  0  0  0  0  0  0  0  0  0  0
    3.1451    2.4151   -1.1386 H   0  0  0  0  0  0  0  0  0  0  0  0
    0.7454    3.7208   -0.0156 H   0  0  0  0  0  0  0  0  0  0  0  0
    0.7985    3.3188    1.5480 H   0  0  0  0  0  0  0  0  0  0  0  0
    3.4781    1.9229    1.3727 H   0  0  0  0  0  0  0  0  0  0  0  0
    2.4084    0.7781    2.1097 H   0  0  0  0  0  0  0  0  0  0  0  0
  2  1  1  0  0  0  0
  3  2  1  0  0  0  0
  4  3  1  0  0  0  0
  5  4  1  0  0  0  0
  6  5  1  0  0  0  0
  7  6  1  0  0  0  0
  8  7  2  0  0  0  0
  9  8  1  0  0  0  0
 10  9  2  0  0  0  0
 11 10  1  0  0  0  0
 12 10  1  0  0  0  0
 13 12  1  0  0  0  0
 14 12  2  0  0  0  0
 14  7  1  0  0  0  0
 15 14  1  0  0  0  0
 15  6  1  0  0  0  0
 16 15  1  0  0  0  0
 17 16  1  0  0  0  0
 18 17  1  0  0  0  0
 19 18  1  0  0  0  0
 20 19  1  0  0  0  0
 21 20  1  0  0  0  0
 22 21  1  0  0  0  0
 22 20  1  0  0  0  0
 23 18  1  0  0  0  0
 23  6  1  0  0  0  0
 24 23  1  0  0  0  0
 24 15  1  0  0  0  0
 25 24  1  0  0  0  0
 26 25  1  0  0  0  0
 26  3  1  0  0  0  0
 27 26  1  0  0  0  0
 27 24  1  0  0  0  0
 28 27  1  0  0  0  0
 29 27  1  0  0  0  0
 29  3  1  0  0  0  0
  1 30  1  0  0  0  0
  1 31  1  0  0  0  0
  1 32  1  0  0  0  0
  4 33  1  0  0  0  0
  4 34  1  0  0  0  0
  5 35  1  0  0  0  0
  5 36  1  0  0  0  0
  8 37  1  0  0  0  0
  9 38  1  0  0  0  0
 11 39  1  0  0  0  0
 13 40  1  0  0  0  0
 16 41  1  0  0  0  0
 16 42  1  0  0  0  0
 17 43  1  0  0  0  0
 17 44  1  0  0  0  0
 19 45  1  0  0  0  0
 19 46  1  0  0  0  0
 20 47  1  0  0  0  0
 21 48  1  0  0  0  0
 21 49  1  0  0  0  0
 22 50  1  0  0  0  0
 22 51  1  0  0  0  0
 23 52  1  0  0  0  0
 25 53  1  0  0  0  0
 25 54  1  0  0  0  0
 26 55  1  0  0  0  0
 28 56  1  0  0  0  0
 28 57  1  0  0  0  0
 29 58  1  0  0  0  0
 29 59  1  0  0  0  0
M  END
>  <energy>
228.09701999008976

$$$$
