CC(=O)C1C(O)C(=NOCCN2CCCC2)C(C)(C)C2=C3CC4(O)C(=O)CCCC4(C)C21C(C)(CC(F)(F)F)O3
                    3D

 81 85  0  0  0  0  0  0  0  0999 V2000
    0.4169   -0.0155   -3.7308 C   0  0  0  0  0  0  0  0  0  0  0  0
    1.3714   -0.2529   -2.5887 C   0  0  0  0  0  0  0  0  0  0  0  0
    2.4013   -0.8947   -2.8062 O   0  0  0  0  0  0  0  0  0  0  0  0
    0.9863    0.2474   -1.1991 C   0  0  0  0  0  0  0  0  0  0  0  0
    0.6184    1.7325   -1.2197 C   0  0  0  0  0  0  0  0  0  0  0  0
    1.7461    2.5525   -1.3839 O   0  0  0  0  0  0  0  0  0  0  0  0
   -0.1649    2.0382    0.0615 C   0  0  0  0  0  0  0  0  0  0  0  0
   -1.3480    2.5911    0.0839 N   0  0  0  0  0  0  0  0  0  0  0  0
   -1.8966    2.8251   -1.1807 O   0  0  0  0  0  0  0  0  0  0  0  0
   -3.3089    3.0670   -1.0279 C   0  0  0  0  0  0  0  0  0  0  0  0
   -4.1136    1.9533   -1.7299 C   0  0  0  0  0  0  0  0  0  0  0  0
   -4.3001    0.7363   -0.9137 N   0  0  0  0  0  0  0  0  0  0  0  0
   -4.7554   -0.4017   -1.7186 C   0  0  0  0  0  0  0  0  0  0  0  0
   -5.2049   -1.3999   -0.6651 C   0  0  0  0  0  0  0  0  0  0  0  0
   -5.6510   -0.5487    0.5186 C   0  0  0  0  0  0  0  0  0  0  0  0
   -5.3334    0.8872    0.1202 C   0  0  0  0  0  0  0  0  0  0  0  0
    0.5033    1.6926    1.4137 C   0  0  0  0  0  0  0  0  0  0  0  0
    1.2226    2.9718    1.8990 C   0  0  0  0  0  0  0  0  0  0  0  0
   -0.5985    1.4260    2.4684 C   0  0  0  0  0  0  0  0  0  0  0  0
    1.4799    0.5129    1.2610 C   0  0  0  0  0  0  0  0  0  0  0  0
    2.4216    0.1057    2.1317 C   0  0  0  0  0  0  0  0  0  0  0  0
    1.9187   -0.9881    3.0062 C   0  0  0  0  0  0  0  0  0  0  0  0
    1.5634   -2.1966    2.0837 C   0  0  0  0  0  0  0  0  0  0  0  0
    2.5338   -3.2440    2.3214 O   0  0  0  0  0  0  0  0  0  0  0  0
    0.2803   -2.7786    2.7408 C   0  0  0  0  0  0  0  0  0  0  0  0
    0.3076   -3.2778    3.8764 O   0  0  0  0  0  0  0  0  0  0  0  0
   -1.0531   -2.7248    2.0372 C   0  0  0  0  0  0  0  0  0  0  0  0
   -1.0299   -1.9604    0.7352 C   0  0  0  0  0  0  0  0  0  0  0  0
    0.1392   -2.4308   -0.0950 C   0  0  0  0  0  0  0  0  0  0  0  0
    1.5178   -1.9190    0.4521 C   0  0  0  0  0  0  0  0  0  0  0  0
    2.4972   -2.9238   -0.2335 C   0  0  0  0  0  0  0  0  0  0  0  0
    1.8647   -0.2399    0.0026 C   0  0  0  0  0  0  0  0  0  0  0  0
    3.4548    0.1155    0.1145 C   0  0  0  0  0  0  0  0  0  0  0  0
    3.9788    1.5841    0.1967 C   0  0  0  0  0  0  0  0  0  0  0  0
    4.4441   -0.6746   -0.7949 C   0  0  0  0  0  0  0  0  0  0  0  0
    5.2422    0.1180   -1.8169 C   0  0  0  0  0  0  0  0  0  0  0  0
    5.8178   -0.7040   -2.7218 F   0  0  0  0  0  0  0  0  0  0  0  0
    6.2499    0.8009   -1.2208 F   0  0  0  0  0  0  0  0  0  0  0  0
    4.4923    1.0030   -2.5066 F   0  0  0  0  0  0  0  0  0  0  0  0
    3.6372   -0.3262    1.5122 O   0  0  0  0  0  0  0  0  0  0  0  0
   -0.6072   -0.2472   -3.4206 H   0  0  0  0  0  0  0  0  0  0  0  0
    0.4976    1.0173   -4.0785 H   0  0  0  0  0  0  0  0  0  0  0  0
    0.6812   -0.6805   -4.5605 H   0  0  0  0  0  0  0  0  0  0  0  0
    0.0013   -0.2038   -1.0444 H   0  0  0  0  0  0  0  0  0  0  0  0
   -0.0215    1.9273   -2.0810 H   0  0  0  0  0  0  0  0  0  0  0  0
    1.4274    3.4517   -1.5851 H   0  0  0  0  0  0  0  0  0  0  0  0
   -3.5254    4.0263   -1.5169 H   0  0  0  0  0  0  0  0  0  0  0  0
   -3.5933    3.1765    0.0252 H   0  0  0  0  0  0  0  0  0  0  0  0
   -5.0896    2.3457   -2.0440 H   0  0  0  0  0  0  0  0  0  0  0  0
   -3.5621    1.6816   -2.6371 H   0  0  0  0  0  0  0  0  0  0  0  0
   -5.6014   -0.1292   -2.3618 H   0  0  0  0  0  0  0  0  0  0  0  0
   -3.9541   -0.8083   -2.3431 H   0  0  0  0  0  0  0  0  0  0  0  0
   -6.0113   -2.0427   -1.0327 H   0  0  0  0  0  0  0  0  0  0  0  0
   -4.3742   -2.0468   -0.3591 H   0  0  0  0  0  0  0  0  0  0  0  0
   -6.7178   -0.6812    0.7267 H   0  0  0  0  0  0  0  0  0  0  0  0
   -5.0931   -0.8395    1.4169 H   0  0  0  0  0  0  0  0  0  0  0  0
   -6.2409    1.3583   -0.2783 H   0  0  0  0  0  0  0  0  0  0  0  0
   -4.9882    1.4672    0.9808 H   0  0  0  0  0  0  0  0  0  0  0  0
    1.9110    3.3783    1.1540 H   0  0  0  0  0  0  0  0  0  0  0  0
    1.7796    2.7975    2.8261 H   0  0  0  0  0  0  0  0  0  0  0  0
    0.5074    3.7781    2.0931 H   0  0  0  0  0  0  0  0  0  0  0  0
   -0.1876    1.2068    3.4581 H   0  0  0  0  0  0  0  0  0  0  0  0
   -1.2518    2.3027    2.5926 H   0  0  0  0  0  0  0  0  0  0  0  0
   -1.2635    0.6094    2.1853 H   0  0  0  0  0  0  0  0  0  0  0  0
    1.0571   -0.6331    3.5832 H   0  0  0  0  0  0  0  0  0  0  0  0
    2.6895   -1.2504    3.7407 H   0  0  0  0  0  0  0  0  0  0  0  0
    3.3655   -2.8372    2.6223 H   0  0  0  0  0  0  0  0  0  0  0  0
   -1.7864   -2.2746    2.7190 H   0  0  0  0  0  0  0  0  0  0  0  0
   -1.3602   -3.7609    1.8433 H   0  0  0  0  0  0  0  0  0  0  0  0
   -0.9617   -0.8916    0.9096 H   0  0  0  0  0  0  0  0  0  0  0  0
   -1.9708   -2.1277    0.1990 H   0  0  0  0  0  0  0  0  0  0  0  0
    0.1101   -3.5309   -0.0868 H   0  0  0  0  0  0  0  0  0  0  0  0
    0.0009   -2.1842   -1.1515 H   0  0  0  0  0  0  0  0  0  0  0  0
    3.5229   -2.8144    0.1183 H   0  0  0  0  0  0  0  0  0  0  0  0
    2.2273   -3.9608    0.0008 H   0  0  0  0  0  0  0  0  0  0  0  0
    2.4631   -2.8601   -1.3234 H   0  0  0  0  0  0  0  0  0  0  0  0
    3.9057    2.1392   -0.7348 H   0  0  0  0  0  0  0  0  0  0  0  0
    3.5262    2.1701    0.9953 H   0  0  0  0  0  0  0  0  0  0  0  0
    5.0362    1.5729    0.5019 H   0  0  0  0  0  0  0  0  0  0  0  0
    5.1614   -1.2205   -0.1733 H   0  0  0  0  0  0  0  0  0  0  0  0
    3.9414   -1.4403   -1.3631 H   0  0  0  0  0  0  0  0  0  0  0  0
  2  1  1  0  0  0  0
  3  2  2  0  0  0  0
  4  2  1  0  0  0  0
  5  4  1  0  0  0  0
  6  5  1  0  0  0  0
  7  5  1  0  0  0  0
  8  7  2  0  0  0  0
  9  8  1  0  0  0  0
 10  9  1  0  0  0  0
 11 10  1  0  0  0  0
 12 11  1  0  0  0  0
 13 12  1  0  0  0  0
 14 13  1  0  0  0  0
 15 14  1  0  0  0  0
 16 15  1  0  0  0  0
 16 12  1  0  0  0  0
 17  7  1  0  0  0  0
 18 17  1  0  0  0  0
 19 17  1  0  0  0  0
 20 17  1  0  0  0  0
 21 20  2  0  0  0  0
 22 21  1  0  0  0  0
 23 22  1  0  0  0  0
 24 23  1  0  0  0  0
 25 23  1  0  0  0  0
 26 25  2  0  0  0  0
 27 25  1  0  0  0  0
 28 27  1  0  0  0  0
 29 28  1  0  0  0  0
 30 29  1  0  0  0  0
 30 23  1  0  0  0  0
 31 30  1  0  0  0  0
 32 30  1  0  0  0  0
 32 20  1  0  0  0  0
 32  4  1  0  0  0  0
 33 32  1  0  0  0  0
 34 33  1  0  0  0  0
 35 33  1  0  0  0  0
 36 35  1  0  0  0  0
 37 36  1  0  0  0  0
 38 36  1  0  0  0  0
 39 36  1  0  0  0  0
 40 33  1  0  0  0  0
 40 21  1  0  0  0  0
  1 41  1  0  0  0  0
  1 42  1  0  0  0  0
  1 43  1  0  0  0  0
  4 44  1  0  0  0  0
  5 45  1  0  0  0  0
  6 46  1  0  0  0  0
 10 47  1  0  0  0  0
 10 48  1  0  0  0  0
 11 49  1  0  0  0  0
 11 50  1  0  0  0  0
 13 51  1  0  0  0  0
 13 52  1  0  0  0  0
 14 53  1  0  0  0  0
 14 54  1  0  0  0  0
 15 55  1  0  0  0  0
 15 56  1  0  0  0  0
 16 57  1  0  0  0  0
 16 58  1  0  0  0  0
 18 59  1  0  0  0  0
 18 60  1  0  0  0  0
 18 61  1  0  0  0  0
 19 62  1  0  0  0  0
 19 63  1  0  0  0  0
 19 64  1  0  0  0  0
 22 65  1  0  0  0  0
 22 66  1  0  0  0  0
 24 67  1  0  0  0  0
 27 68  1  0  0  0  0
 27 69  1  0  0  0  0
 28 70  1  0  0  0  0
 28 71  1  0  0  0  0
 29 72  1  0  0  0  0
 29 73  1  0  0  0  0
 31 74  1  0  0  0  0
 31 75  1  0  0  0  0
 31 76  1  0  0  0  0
 34 77  1  0  0  0  0
 34 78  1  0  0  0  0
 34 79  1  0  0  0  0
 35 80  1  0  0  0  0
 35 81  1  0  0  0  0
M  END
>  <energy>
273.67747702935827

$$$$
