C=C(C)CC1OC2CC3C(C)C(CC4C(C)(C)CCC(O)C4(C)C)C(OC(=O)C(C)=CC)OC3(C)C23CC2OC1(O)C2
                    3D

 96101  0  0  0  0  0  0  0  0999 V2000
    1.5972   -2.7008    2.1146 C   0  0  0  0  0  0  0  0  0  0  0  0
    2.7922   -2.4842    2.6780 C   0  0  0  0  0  0  0  0  0  0  0  0
    3.7658   -3.6126    2.8749 C   0  0  0  0  0  0  0  0  0  0  0  0
    3.1638   -1.1247    3.2174 C   0  0  0  0  0  0  0  0  0  0  0  0
    4.3188   -0.3501    2.5731 C   0  0  0  0  0  0  0  0  0  0  0  0
    4.2318    1.0887    2.8176 O   0  0  0  0  0  0  0  0  0  0  0  0
    3.7410    2.0143    1.8147 C   0  0  0  0  0  0  0  0  0  0  0  0
    2.2802    2.3239    2.1892 C   0  0  0  0  0  0  0  0  0  0  0  0
    1.4952    1.3733    1.3001 C   0  0  0  0  0  0  0  0  0  0  0  0
   -0.0207    1.5502    1.1882 C   0  0  0  0  0  0  0  0  0  0  0  0
   -0.6495    1.2860    2.5598 C   0  0  0  0  0  0  0  0  0  0  0  0
   -0.6025    0.5828    0.0915 C   0  0  0  0  0  0  0  0  0  0  0  0
   -2.0651    1.0206   -0.3335 C   0  0  0  0  0  0  0  0  0  0  0  0
   -3.2761    0.1317    0.1601 C   0  0  0  0  0  0  0  0  0  0  0  0
   -3.6325   -1.0791   -0.8157 C   0  0  0  0  0  0  0  0  0  0  0  0
   -3.9995   -0.6839   -2.2695 C   0  0  0  0  0  0  0  0  0  0  0  0
   -2.4297   -2.0376   -0.9181 C   0  0  0  0  0  0  0  0  0  0  0  0
   -4.8037   -1.9215   -0.2482 C   0  0  0  0  0  0  0  0  0  0  0  0
   -6.0459   -1.1054    0.0922 C   0  0  0  0  0  0  0  0  0  0  0  0
   -5.7280    0.0302    1.0553 C   0  0  0  0  0  0  0  0  0  0  0  0
   -5.4423   -0.5472    2.3359 O   0  0  0  0  0  0  0  0  0  0  0  0
   -4.5710    0.9716    0.5846 C   0  0  0  0  0  0  0  0  0  0  0  0
   -5.0888    1.8899   -0.5452 C   0  0  0  0  0  0  0  0  0  0  0  0
   -4.2636    1.9155    1.7787 C   0  0  0  0  0  0  0  0  0  0  0  0
    0.3839    0.3592   -1.1303 C   0  0  0  0  0  0  0  0  0  0  0  0
    0.0627    1.2061   -2.2436 O   0  0  0  0  0  0  0  0  0  0  0  0
   -0.1460    0.5890   -3.4340 C   0  0  0  0  0  0  0  0  0  0  0  0
   -1.1666    0.7537   -4.0902 O   0  0  0  0  0  0  0  0  0  0  0  0
    1.0099   -0.1909   -3.9413 C   0  0  0  0  0  0  0  0  0  0  0  0
    2.2486    0.5817   -4.2637 C   0  0  0  0  0  0  0  0  0  0  0  0
    0.9382   -1.5217   -4.1542 C   0  0  0  0  0  0  0  0  0  0  0  0
   -0.2340   -2.4301   -3.9603 C   0  0  0  0  0  0  0  0  0  0  0  0
    1.7880    0.4305   -0.8429 O   0  0  0  0  0  0  0  0  0  0  0  0
    2.2047    1.5183   -0.0296 C   0  0  0  0  0  0  0  0  0  0  0  0
    1.9336    2.8824   -0.7330 C   0  0  0  0  0  0  0  0  0  0  0  0
    3.7344    1.4836    0.3640 C   0  0  0  0  0  0  0  0  0  0  0  0
    4.4137    1.4584   -1.0808 C   0  0  0  0  0  0  0  0  0  0  0  0
    4.7790   -0.0247   -0.7633 C   0  0  0  0  0  0  0  0  0  0  0  0
    3.9292   -0.9841    0.0254 O   0  0  0  0  0  0  0  0  0  0  0  0
    4.8072   -0.7312    1.1687 C   0  0  0  0  0  0  0  0  0  0  0  0
    5.8861   -1.6786    1.2006 O   0  0  0  0  0  0  0  0  0  0  0  0
    5.1063    0.5950    0.5644 C   0  0  0  0  0  0  0  0  0  0  0  0
    1.3209   -3.6823    1.7419 H   0  0  0  0  0  0  0  0  0  0  0  0
    0.8585   -1.9108    1.9927 H   0  0  0  0  0  0  0  0  0  0  0  0
    3.2543   -4.5801    2.9010 H   0  0  0  0  0  0  0  0  0  0  0  0
    4.4972   -3.6511    2.0661 H   0  0  0  0  0  0  0  0  0  0  0  0
    4.2997   -3.5098    3.8243 H   0  0  0  0  0  0  0  0  0  0  0  0
    2.2822   -0.4847    3.2947 H   0  0  0  0  0  0  0  0  0  0  0  0
    3.4113   -1.2564    4.2823 H   0  0  0  0  0  0  0  0  0  0  0  0
    5.1693   -0.6008    3.2256 H   0  0  0  0  0  0  0  0  0  0  0  0
    4.3432    2.9298    1.9013 H   0  0  0  0  0  0  0  0  0  0  0  0
    2.0817    2.1598    3.2529 H   0  0  0  0  0  0  0  0  0  0  0  0
    2.0366    3.3651    1.9548 H   0  0  0  0  0  0  0  0  0  0  0  0
    1.6531    0.3448    1.6254 H   0  0  0  0  0  0  0  0  0  0  0  0
   -0.2499    2.5874    0.9220 H   0  0  0  0  0  0  0  0  0  0  0  0
   -0.4236    0.2736    2.9161 H   0  0  0  0  0  0  0  0  0  0  0  0
   -0.2747    1.9997    3.3025 H   0  0  0  0  0  0  0  0  0  0  0  0
   -1.7318    1.3957    2.5288 H   0  0  0  0  0  0  0  0  0  0  0  0
   -0.6670   -0.3965    0.5837 H   0  0  0  0  0  0  0  0  0  0  0  0
   -2.1294    1.1173   -1.4159 H   0  0  0  0  0  0  0  0  0  0  0  0
   -2.2086    2.0441    0.0246 H   0  0  0  0  0  0  0  0  0  0  0  0
   -2.9273   -0.3289    1.0944 H   0  0  0  0  0  0  0  0  0  0  0  0
   -3.9745   -1.5639   -2.9276 H   0  0  0  0  0  0  0  0  0  0  0  0
   -3.3154    0.0490   -2.6991 H   0  0  0  0  0  0  0  0  0  0  0  0
   -5.0127   -0.2925   -2.3662 H   0  0  0  0  0  0  0  0  0  0  0  0
   -2.0163   -2.2763    0.0660 H   0  0  0  0  0  0  0  0  0  0  0  0
   -2.7111   -2.9846   -1.3938 H   0  0  0  0  0  0  0  0  0  0  0  0
   -1.6409   -1.6030   -1.5281 H   0  0  0  0  0  0  0  0  0  0  0  0
   -4.4704   -2.4575    0.6490 H   0  0  0  0  0  0  0  0  0  0  0  0
   -5.0905   -2.6999   -0.9693 H   0  0  0  0  0  0  0  0  0  0  0  0
   -6.7798   -1.7819    0.5501 H   0  0  0  0  0  0  0  0  0  0  0  0
   -6.5123   -0.7144   -0.8159 H   0  0  0  0  0  0  0  0  0  0  0  0
   -6.6428    0.6189    1.1999 H   0  0  0  0  0  0  0  0  0  0  0  0
   -4.5985   -1.0239    2.2835 H   0  0  0  0  0  0  0  0  0  0  0  0
   -5.9256    2.5055   -0.1931 H   0  0  0  0  0  0  0  0  0  0  0  0
   -4.3141    2.5746   -0.9003 H   0  0  0  0  0  0  0  0  0  0  0  0
   -5.4721    1.3485   -1.4042 H   0  0  0  0  0  0  0  0  0  0  0  0
   -5.1694    2.4497    2.0944 H   0  0  0  0  0  0  0  0  0  0  0  0
   -3.5238    2.6807    1.5308 H   0  0  0  0  0  0  0  0  0  0  0  0
   -3.9040    1.3636    2.6514 H   0  0  0  0  0  0  0  0  0  0  0  0
    0.2404   -0.6819   -1.4308 H   0  0  0  0  0  0  0  0  0  0  0  0
    2.3310    0.7122   -5.3489 H   0  0  0  0  0  0  0  0  0  0  0  0
    3.1410    0.0507   -3.9137 H   0  0  0  0  0  0  0  0  0  0  0  0
    2.2487    1.5798   -3.8161 H   0  0  0  0  0  0  0  0  0  0  0  0
    1.8269   -2.0265   -4.5295 H   0  0  0  0  0  0  0  0  0  0  0  0
   -1.1460   -1.8941   -3.6888 H   0  0  0  0  0  0  0  0  0  0  0  0
   -0.4455   -2.9726   -4.8903 H   0  0  0  0  0  0  0  0  0  0  0  0
   -0.0025   -3.1677   -3.1815 H   0  0  0  0  0  0  0  0  0  0  0  0
    0.8809    3.1628   -0.7157 H   0  0  0  0  0  0  0  0  0  0  0  0
    2.1962    2.8425   -1.7935 H   0  0  0  0  0  0  0  0  0  0  0  0
    2.5041    3.7006   -0.2870 H   0  0  0  0  0  0  0  0  0  0  0  0
    5.2527    2.1601   -1.1995 H   0  0  0  0  0  0  0  0  0  0  0  0
    3.8100    1.5290   -1.9852 H   0  0  0  0  0  0  0  0  0  0  0  0
    5.5569   -0.5175   -1.3501 H   0  0  0  0  0  0  0  0  0  0  0  0
    5.5517   -2.3773    0.6108 H   0  0  0  0  0  0  0  0  0  0  0  0
    6.0863    1.0632    0.7217 H   0  0  0  0  0  0  0  0  0  0  0  0
  2  1  2  0  0  0  0
  3  2  1  0  0  0  0
  4  2  1  0  0  0  0
  5  4  1  0  0  0  0
  6  5  1  0  0  0  0
  7  6  1  0  0  0  0
  8  7  1  0  0  0  0
  9  8  1  0  0  0  0
 10  9  1  0  0  0  0
 11 10  1  0  0  0  0
 12 10  1  0  0  0  0
 13 12  1  0  0  0  0
 14 13  1  0  0  0  0
 15 14  1  0  0  0  0
 16 15  1  0  0  0  0
 17 15  1  0  0  0  0
 18 15  1  0  0  0  0
 19 18  1  0  0  0  0
 20 19  1  0  0  0  0
 21 20  1  0  0  0  0
 22 20  1  0  0  0  0
 22 14  1  0  0  0  0
 23 22  1  0  0  0  0
 24 22  1  0  0  0  0
 25 12  1  0  0  0  0
 26 25  1  0  0  0  0
 27 26  1  0  0  0  0
 28 27  2  0  0  0  0
 29 27  1  0  0  0  0
 30 29  1  0  0  0  0
 31 29  2  0  0  0  0
 32 31  1  0  0  0  0
 33 25  1  0  0  0  0
 34 33  1  0  0  0  0
 34  9  1  0  0  0  0
 35 34  1  0  0  0  0
 36 34  1  0  0  0  0
 36  7  1  0  0  0  0
 37 36  1  0  0  0  0
 38 37  1  0  0  0  0
 39 38  1  0  0  0  0
 40 39  1  0  0  0  0
 40  5  1  0  0  0  0
 41 40  1  0  0  0  0
 42 40  1  0  0  0  0
 42 38  1  0  0  0  0
 42 36  1  0  0  0  0
  1 43  1  0  0  0  0
  1 44  1  0  0  0  0
  3 45  1  0  0  0  0
  3 46  1  0  0  0  0
  3 47  1  0  0  0  0
  4 48  1  0  0  0  0
  4 49  1  0  0  0  0
  5 50  1  0  0  0  0
  7 51  1  0  0  0  0
  8 52  1  0  0  0  0
  8 53  1  0  0  0  0
  9 54  1  0  0  0  0
 10 55  1  0  0  0  0
 11 56  1  0  0  0  0
 11 57  1  0  0  0  0
 11 58  1  0  0  0  0
 12 59  1  0  0  0  0
 13 60  1  0  0  0  0
 13 61  1  0  0  0  0
 14 62  1  0  0  0  0
 16 63  1  0  0  0  0
 16 64  1  0  0  0  0
 16 65  1  0  0  0  0
 17 66  1  0  0  0  0
 17 67  1  0  0  0  0
 17 68  1  0  0  0  0
 18 69  1  0  0  0  0
 18 70  1  0  0  0  0
 19 71  1  0  0  0  0
 19 72  1  0  0  0  0
 20 73  1  0  0  0  0
 21 74  1  0  0  0  0
 23 75  1  0  0  0  0
 23 76  1  0  0  0  0
 23 77  1  0  0  0  0
 24 78  1  0  0  0  0
 24 79  1  0  0  0  0
 24 80  1  0  0  0  0
 25 81  1  0  0  0  0
 30 82  1  0  0  0  0
 30 83  1  0  0  0  0
 30 84  1  0  0  0  0
 31 85  1  0  0  0  0
 32 86  1  0  0  0  0
 32 87  1  0  0  0  0
 32 88  1  0  0  0  0
 35 89  1  0  0  0  0
 35 90  1  0  0  0  0
 35 91  1  0  0  0  0
 37 92  1  0  0  0  0
 37 93  1  0  0  0  0
 38 94  1  0  0  0  0
 41 95  1  0  0  0  0
 42 96  1  0  0  0  0
M  END
>  <energy>
242.73762462275545

$$$$
