CC1C2CCC3CC(CC(O)(C3)C2)C2=CCC3C(C)(C)C(CCN(CCO)CCO)CC23C1COC(=O)CNCCCN(C)C
                    3D

110114  0  0  0  0  0  0  0  0999 V2000
   -0.9876    1.2234    4.5095 C   0  0  0  0  0  0  0  0  0  0  0  0
   -1.6365    1.1569    3.1241 C   0  0  0  0  0  0  0  0  0  0  0  0
   -2.6192    2.3631    2.8575 C   0  0  0  0  0  0  0  0  0  0  0  0
   -3.6649    2.1178    1.7566 C   0  0  0  0  0  0  0  0  0  0  0  0
   -3.2915    2.2625    0.2891 C   0  0  0  0  0  0  0  0  0  0  0  0
   -2.5071    3.5098   -0.1156 C   0  0  0  0  0  0  0  0  0  0  0  0
   -0.9967    3.2647   -0.3188 C   0  0  0  0  0  0  0  0  0  0  0  0
   -0.0043    3.6792    0.7932 C   0  0  0  0  0  0  0  0  0  0  0  0
   -0.4961    4.9454    1.5017 C   0  0  0  0  0  0  0  0  0  0  0  0
   -1.9561    4.8696    1.9655 C   0  0  0  0  0  0  0  0  0  0  0  0
   -2.2576    6.1744    2.5364 O   0  0  0  0  0  0  0  0  0  0  0  0
   -2.8446    4.7255    0.7365 C   0  0  0  0  0  0  0  0  0  0  0  0
   -2.1877    3.8385    3.0942 C   0  0  0  0  0  0  0  0  0  0  0  0
    0.5834    2.6333    1.7193 C   0  0  0  0  0  0  0  0  0  0  0  0
    1.2960    2.8967    2.8487 C   0  0  0  0  0  0  0  0  0  0  0  0
    2.0925    1.7050    3.3436 C   0  0  0  0  0  0  0  0  0  0  0  0
    2.0692    0.9720    2.0379 C   0  0  0  0  0  0  0  0  0  0  0  0
    2.6953   -0.3775    1.6981 C   0  0  0  0  0  0  0  0  0  0  0  0
    4.2410   -0.2429    1.6357 C   0  0  0  0  0  0  0  0  0  0  0  0
    2.4264   -1.4683    2.7323 C   0  0  0  0  0  0  0  0  0  0  0  0
    2.1451   -0.5417    0.2330 C   0  0  0  0  0  0  0  0  0  0  0  0
    1.7591   -1.9452   -0.2674 C   0  0  0  0  0  0  0  0  0  0  0  0
    2.9322   -2.8372   -0.7011 C   0  0  0  0  0  0  0  0  0  0  0  0
    2.3417   -4.0455   -1.3040 N   0  0  0  0  0  0  0  0  0  0  0  0
    3.0210   -4.4981   -2.5345 C   0  0  0  0  0  0  0  0  0  0  0  0
    2.5576   -3.7091   -3.7738 C   0  0  0  0  0  0  0  0  0  0  0  0
    3.2902   -2.5011   -3.9577 O   0  0  0  0  0  0  0  0  0  0  0  0
    2.2124   -5.1384   -0.3103 C   0  0  0  0  0  0  0  0  0  0  0  0
    0.9295   -5.9656   -0.5097 C   0  0  0  0  0  0  0  0  0  0  0  0
    1.0354   -6.8903   -1.5879 O   0  0  0  0  0  0  0  0  0  0  0  0
    0.9828    0.5237    0.0573 C   0  0  0  0  0  0  0  0  0  0  0  0
    0.6425    1.1319    1.4510 C   0  0  0  0  0  0  0  0  0  0  0  0
   -0.7483    0.5472    1.9622 C   0  0  0  0  0  0  0  0  0  0  0  0
   -0.8322   -0.9929    2.0834 C   0  0  0  0  0  0  0  0  0  0  0  0
   -2.0427   -1.4179    1.4298 O   0  0  0  0  0  0  0  0  0  0  0  0
   -1.9554   -2.6198    0.7929 C   0  0  0  0  0  0  0  0  0  0  0  0
   -1.2084   -3.5375    1.1080 O   0  0  0  0  0  0  0  0  0  0  0  0
   -2.8006   -2.5851   -0.4739 C   0  0  0  0  0  0  0  0  0  0  0  0
   -1.9781   -2.0228   -1.5588 N   0  0  0  0  0  0  0  0  0  0  0  0
   -2.7722   -1.7195   -2.7427 C   0  0  0  0  0  0  0  0  0  0  0  0
   -1.8844   -1.2446   -3.9002 C   0  0  0  0  0  0  0  0  0  0  0  0
   -1.1668    0.0835   -3.6094 C   0  0  0  0  0  0  0  0  0  0  0  0
   -0.4341    0.5684   -4.7950 N   0  0  0  0  0  0  0  0  0  0  0  0
    0.8456   -0.1287   -4.9597 C   0  0  0  0  0  0  0  0  0  0  0  0
   -0.1944    2.0099   -4.7008 C   0  0  0  0  0  0  0  0  0  0  0  0
   -1.7639    1.2494    5.2847 H   0  0  0  0  0  0  0  0  0  0  0  0
   -0.3796    0.3364    4.7087 H   0  0  0  0  0  0  0  0  0  0  0  0
   -0.3799    2.1136    4.6604 H   0  0  0  0  0  0  0  0  0  0  0  0
   -2.3774    0.3532    3.2834 H   0  0  0  0  0  0  0  0  0  0  0  0
   -3.2689    2.2392    3.7470 H   0  0  0  0  0  0  0  0  0  0  0  0
   -4.5152    2.7859    1.9554 H   0  0  0  0  0  0  0  0  0  0  0  0
   -4.0841    1.1098    1.8870 H   0  0  0  0  0  0  0  0  0  0  0  0
   -4.2480    2.2940   -0.2552 H   0  0  0  0  0  0  0  0  0  0  0  0
   -2.8212    1.3540   -0.1004 H   0  0  0  0  0  0  0  0  0  0  0  0
   -2.8838    3.7342   -1.1259 H   0  0  0  0  0  0  0  0  0  0  0  0
   -0.7225    3.8869   -1.1856 H   0  0  0  0  0  0  0  0  0  0  0  0
   -0.8207    2.2473   -0.6733 H   0  0  0  0  0  0  0  0  0  0  0  0
    0.8940    3.9936    0.2328 H   0  0  0  0  0  0  0  0  0  0  0  0
    0.1486    5.2546    2.3325 H   0  0  0  0  0  0  0  0  0  0  0  0
   -0.3986    5.7787    0.7880 H   0  0  0  0  0  0  0  0  0  0  0  0
   -1.9423    6.8170    1.8809 H   0  0  0  0  0  0  0  0  0  0  0  0
   -2.7222    5.6201    0.1093 H   0  0  0  0  0  0  0  0  0  0  0  0
   -3.9044    4.7500    1.0149 H   0  0  0  0  0  0  0  0  0  0  0  0
   -3.0037    4.2675    3.7008 H   0  0  0  0  0  0  0  0  0  0  0  0
   -1.3398    3.8767    3.7877 H   0  0  0  0  0  0  0  0  0  0  0  0
    1.4602    3.8749    3.2826 H   0  0  0  0  0  0  0  0  0  0  0  0
    1.6334    1.1757    4.1751 H   0  0  0  0  0  0  0  0  0  0  0  0
    3.1081    2.0037    3.6221 H   0  0  0  0  0  0  0  0  0  0  0  0
    2.7140    1.6333    1.4091 H   0  0  0  0  0  0  0  0  0  0  0  0
    4.5616    0.5247    0.9203 H   0  0  0  0  0  0  0  0  0  0  0  0
    4.6523    0.0374    2.6122 H   0  0  0  0  0  0  0  0  0  0  0  0
    4.7065   -1.1870    1.3300 H   0  0  0  0  0  0  0  0  0  0  0  0
    1.3928   -1.5400    3.0477 H   0  0  0  0  0  0  0  0  0  0  0  0
    2.7445   -2.4508    2.3714 H   0  0  0  0  0  0  0  0  0  0  0  0
    2.9905   -1.2710    3.6509 H   0  0  0  0  0  0  0  0  0  0  0  0
    2.9206   -0.1941   -0.4679 H   0  0  0  0  0  0  0  0  0  0  0  0
    1.1843   -2.4899    0.4804 H   0  0  0  0  0  0  0  0  0  0  0  0
    1.0980   -1.8229   -1.1363 H   0  0  0  0  0  0  0  0  0  0  0  0
    3.5531   -2.2842   -1.4103 H   0  0  0  0  0  0  0  0  0  0  0  0
    3.5917   -3.0782    0.1413 H   0  0  0  0  0  0  0  0  0  0  0  0
    4.1098   -4.4542   -2.4167 H   0  0  0  0  0  0  0  0  0  0  0  0
    2.7581   -5.5413   -2.7325 H   0  0  0  0  0  0  0  0  0  0  0  0
    1.4896   -3.4648   -3.7221 H   0  0  0  0  0  0  0  0  0  0  0  0
    2.7114   -4.3156   -4.6720 H   0  0  0  0  0  0  0  0  0  0  0  0
    2.9806   -1.8848   -3.2742 H   0  0  0  0  0  0  0  0  0  0  0  0
    3.1003   -5.7820   -0.3227 H   0  0  0  0  0  0  0  0  0  0  0  0
    2.1385   -4.7133    0.6993 H   0  0  0  0  0  0  0  0  0  0  0  0
    0.7225   -6.5425    0.3973 H   0  0  0  0  0  0  0  0  0  0  0  0
    0.0739   -5.3060   -0.6923 H   0  0  0  0  0  0  0  0  0  0  0  0
    0.1253   -7.1823   -1.7668 H   0  0  0  0  0  0  0  0  0  0  0  0
    1.3423    1.3112   -0.6198 H   0  0  0  0  0  0  0  0  0  0  0  0
    0.1101    0.0769   -0.4288 H   0  0  0  0  0  0  0  0  0  0  0  0
   -1.3732    0.7461    1.0929 H   0  0  0  0  0  0  0  0  0  0  0  0
   -0.8579   -1.3363    3.1218 H   0  0  0  0  0  0  0  0  0  0  0  0
   -0.0011   -1.4559    1.5828 H   0  0  0  0  0  0  0  0  0  0  0  0
   -3.1276   -3.6040   -0.7047 H   0  0  0  0  0  0  0  0  0  0  0  0
   -3.6943   -1.9804   -0.2805 H   0  0  0  0  0  0  0  0  0  0  0  0
   -1.2382   -2.6919   -1.7886 H   0  0  0  0  0  0  0  0  0  0  0  0
   -3.5081   -0.9403   -2.5083 H   0  0  0  0  0  0  0  0  0  0  0  0
   -3.3196   -2.6122   -3.0682 H   0  0  0  0  0  0  0  0  0  0  0  0
   -1.1599   -2.0313   -4.1434 H   0  0  0  0  0  0  0  0  0  0  0  0
   -2.5213   -1.1184   -4.7856 H   0  0  0  0  0  0  0  0  0  0  0  0
   -1.9355    0.8156   -3.3285 H   0  0  0  0  0  0  0  0  0  0  0  0
   -0.4927   -0.0103   -2.7502 H   0  0  0  0  0  0  0  0  0  0  0  0
    1.5188    0.0455   -4.1122 H   0  0  0  0  0  0  0  0  0  0  0  0
    0.7038   -1.2074   -5.0718 H   0  0  0  0  0  0  0  0  0  0  0  0
    1.3500    0.2111   -5.8717 H   0  0  0  0  0  0  0  0  0  0  0  0
   -1.1432    2.5560   -4.6549 H   0  0  0  0  0  0  0  0  0  0  0  0
    0.3265    2.3716   -5.5948 H   0  0  0  0  0  0  0  0  0  0  0  0
    0.4022    2.2747   -3.8207 H   0  0  0  0  0  0  0  0  0  0  0  0
  2  1  1  0  0  0  0
  3  2  1  0  0  0  0
  4  3  1  0  0  0  0
  5  4  1  0  0  0  0
  6  5  1  0  0  0  0
  7  6  1  0  0  0  0
  8  7  1  0  0  0  0
  9  8  1  0  0  0  0
 10  9  1  0  0  0  0
 11 10  1  0  0  0  0
 12 10  1  0  0  0  0
 12  6  1  0  0  0  0
 13 10  1  0  0  0  0
 13  3  1  0  0  0  0
 14  8  1  0  0  0  0
 15 14  2  0  0  0  0
 16 15  1  0  0  0  0
 17 16  1  0  0  0  0
 18 17  1  0  0  0  0
 19 18  1  0  0  0  0
 20 18  1  0  0  0  0
 21 18  1  0  0  0  0
 22 21  1  0  0  0  0
 23 22  1  0  0  0  0
 24 23  1  0  0  0  0
 25 24  1  0  0  0  0
 26 25  1  0  0  0  0
 27 26  1  0  0  0  0
 28 24  1  0  0  0  0
 29 28  1  0  0  0  0
 30 29  1  0  0  0  0
 31 21  1  0  0  0  0
 32 31  1  0  0  0  0
 32 14  1  0  0  0  0
 32 17  1  0  0  0  0
 33 32  1  0  0  0  0
 33  2  1  0  0  0  0
 34 33  1  0  0  0  0
 35 34  1  0  0  0  0
 36 35  1  0  0  0  0
 37 36  2  0  0  0  0
 38 36  1  0  0  0  0
 39 38  1  0  0  0  0
 40 39  1  0  0  0  0
 41 40  1  0  0  0  0
 42 41  1  0  0  0  0
 43 42  1  0  0  0  0
 44 43  1  0  0  0  0
 45 43  1  0  0  0  0
  1 46  1  0  0  0  0
  1 47  1  0  0  0  0
  1 48  1  0  0  0  0
  2 49  1  0  0  0  0
  3 50  1  0  0  0  0
  4 51  1  0  0  0  0
  4 52  1  0  0  0  0
  5 53  1  0  0  0  0
  5 54  1  0  0  0  0
  6 55  1  0  0  0  0
  7 56  1  0  0  0  0
  7 57  1  0  0  0  0
  8 58  1  0  0  0  0
  9 59  1  0  0  0  0
  9 60  1  0  0  0  0
 11 61  1  0  0  0  0
 12 62  1  0  0  0  0
 12 63  1  0  0  0  0
 13 64  1  0  0  0  0
 13 65  1  0  0  0  0
 15 66  1  0  0  0  0
 16 67  1  0  0  0  0
 16 68  1  0  0  0  0
 17 69  1  0  0  0  0
 19 70  1  0  0  0  0
 19 71  1  0  0  0  0
 19 72  1  0  0  0  0
 20 73  1  0  0  0  0
 20 74  1  0  0  0  0
 20 75  1  0  0  0  0
 21 76  1  0  0  0  0
 22 77  1  0  0  0  0
 22 78  1  0  0  0  0
 23 79  1  0  0  0  0
 23 80  1  0  0  0  0
 25 81  1  0  0  0  0
 25 82  1  0  0  0  0
 26 83  1  0  0  0  0
 26 84  1  0  0  0  0
 27 85  1  0  0  0  0
 28 86  1  0  0  0  0
 28 87  1  0  0  0  0
 29 88  1  0  0  0  0
 29 89  1  0  0  0  0
 30 90  1  0  0  0  0
 31 91  1  0  0  0  0
 31 92  1  0  0  0  0
 33 93  1  0  0  0  0
 34 94  1  0  0  0  0
 34 95  1  0  0  0  0
 38 96  1  0  0  0  0
 38 97  1  0  0  0  0
 39 98  1  0  0  0  0
 40 99  1  0  0  0  0
 40100  1  0  0  0  0
 41101  1  0  0  0  0
 41102  1  0  0  0  0
 42103  1  0  0  0  0
 42104  1  0  0  0  0
 44105  1  0  0  0  0
 44106  1  0  0  0  0
 44107  1  0  0  0  0
 45108  1  0  0  0  0
 45109  1  0  0  0  0
 45110  1  0  0  0  0
M  END
>  <energy>
303.0821328157287

$$$$
