CC(C)CCCCCCC(=O)N=C1C=C2C(=O)N(C)C(=C(Cl)C=C2Cl)NN1
                    3D

 53 54  0  0  0  0  0  0  0  0999 V2000
   -4.2862    1.8301   -0.9222 C   0  0  0  0  0  0  0  0  0  0  0  0
   -2.9613    2.2357   -0.2768 C   0  0  0  0  0  0  0  0  0  0  0  0
   -3.1925    3.2037    0.8822 C   0  0  0  0  0  0  0  0  0  0  0  0
   -2.1169    1.0159    0.1353 C   0  0  0  0  0  0  0  0  0  0  0  0
   -2.7482    0.0754    1.1737 C   0  0  0  0  0  0  0  0  0  0  0  0
   -2.9398   -1.3410    0.6269 C   0  0  0  0  0  0  0  0  0  0  0  0
   -1.6145   -2.0887    0.4064 C   0  0  0  0  0  0  0  0  0  0  0  0
   -1.6394   -2.8767   -0.9051 C   0  0  0  0  0  0  0  0  0  0  0  0
   -0.4467   -3.8124   -1.0819 C   0  0  0  0  0  0  0  0  0  0  0  0
    0.9150   -3.1967   -1.3494 C   0  0  0  0  0  0  0  0  0  0  0  0
    1.9149   -3.9141   -1.3175 O   0  0  0  0  0  0  0  0  0  0  0  0
    0.9390   -1.8763   -1.7290 N   0  0  0  0  0  0  0  0  0  0  0  0
    1.8289   -1.0775   -1.1962 C   0  0  0  0  0  0  0  0  0  0  0  0
    2.8038   -1.5305   -0.1206 C   0  0  0  0  0  0  0  0  0  0  0  0
    2.9956   -0.8538    1.0324 C   0  0  0  0  0  0  0  0  0  0  0  0
    2.1100    0.3137    1.3232 C   0  0  0  0  0  0  0  0  0  0  0  0
    1.1262    0.2044    2.0460 O   0  0  0  0  0  0  0  0  0  0  0  0
    2.5743    1.4865    0.7172 N   0  0  0  0  0  0  0  0  0  0  0  0
    1.7356    2.6686    0.7949 C   0  0  0  0  0  0  0  0  0  0  0  0
    3.4926    1.3891   -0.3405 C   0  0  0  0  0  0  0  0  0  0  0  0
    4.7802    0.9990   -0.0915 C   0  0  0  0  0  0  0  0  0  0  0  0
    5.9310    0.8377   -1.3918 Cl  0  0  0  0  0  0  0  0  0  0  0  0
    5.1522    0.2603    1.1228 C   0  0  0  0  0  0  0  0  0  0  0  0
    4.3326   -0.7050    1.6058 C   0  0  0  0  0  0  0  0  0  0  0  0
    4.7719   -1.6857    2.9452 Cl  0  0  0  0  0  0  0  0  0  0  0  0
    2.9375    1.1350   -1.6145 N   0  0  0  0  0  0  0  0  0  0  0  0
    1.8496    0.2327   -1.7066 N   0  0  0  0  0  0  0  0  0  0  0  0
   -4.1207    1.1223   -1.7405 H   0  0  0  0  0  0  0  0  0  0  0  0
   -4.9678    1.3667   -0.2031 H   0  0  0  0  0  0  0  0  0  0  0  0
   -4.7934    2.7070   -1.3371 H   0  0  0  0  0  0  0  0  0  0  0  0
   -2.3830    2.7780   -1.0377 H   0  0  0  0  0  0  0  0  0  0  0  0
   -2.2405    3.5136    1.3260 H   0  0  0  0  0  0  0  0  0  0  0  0
   -3.8079    2.7620    1.6712 H   0  0  0  0  0  0  0  0  0  0  0  0
   -3.7038    4.1061    0.5313 H   0  0  0  0  0  0  0  0  0  0  0  0
   -1.8522    0.4634   -0.7758 H   0  0  0  0  0  0  0  0  0  0  0  0
   -1.1684    1.3800    0.5422 H   0  0  0  0  0  0  0  0  0  0  0  0
   -3.7181    0.4518    1.5141 H   0  0  0  0  0  0  0  0  0  0  0  0
   -2.1073    0.0351    2.0637 H   0  0  0  0  0  0  0  0  0  0  0  0
   -3.5460   -1.9140    1.3399 H   0  0  0  0  0  0  0  0  0  0  0  0
   -3.5244   -1.2883   -0.2997 H   0  0  0  0  0  0  0  0  0  0  0  0
   -1.4526   -2.7718    1.2504 H   0  0  0  0  0  0  0  0  0  0  0  0
   -0.7671   -1.3969    0.4050 H   0  0  0  0  0  0  0  0  0  0  0  0
   -2.5491   -3.4904   -0.9241 H   0  0  0  0  0  0  0  0  0  0  0  0
   -1.7091   -2.1832   -1.7507 H   0  0  0  0  0  0  0  0  0  0  0  0
   -0.6528   -4.4668   -1.9373 H   0  0  0  0  0  0  0  0  0  0  0  0
   -0.3482   -4.4522   -0.1961 H   0  0  0  0  0  0  0  0  0  0  0  0
    3.5216   -2.2685   -0.4605 H   0  0  0  0  0  0  0  0  0  0  0  0
    0.7031    2.4118    1.0385 H   0  0  0  0  0  0  0  0  0  0  0  0
    1.7518    3.2367   -0.1409 H   0  0  0  0  0  0  0  0  0  0  0  0
    2.1270    3.2963    1.6011 H   0  0  0  0  0  0  0  0  0  0  0  0
    6.1438    0.4219    1.5328 H   0  0  0  0  0  0  0  0  0  0  0  0
    3.6869    0.8874   -2.2722 H   0  0  0  0  0  0  0  0  0  0  0  0
    1.2328    0.3622   -2.5089 H   0  0  0  0  0  0  0  0  0  0  0  0
  2  1  1  0  0  0  0
  3  2  1  0  0  0  0
  4  2  1  0  0  0  0
  5  4  1  0  0  0  0
  6  5  1  0  0  0  0
  7  6  1  0  0  0  0
  8  7  1  0  0  0  0
  9  8  1  0  0  0  0
 10  9  1  0  0  0  0
 11 10  2  0  0  0  0
 12 10  1  0  0  0  0
 13 12  2  0  0  0  0
 14 13  1  0  0  0  0
 15 14  2  0  0  0  0
 16 15  1  0  0  0  0
 17 16  2  0  0  0  0
 18 16  1  0  0  0  0
 19 18  1  0  0  0  0
 20 18  1  0  0  0  0
 21 20  2  0  0  0  0
 22 21  1  0  0  0  0
 23 21  1  0  0  0  0
 24 23  2  0  0  0  0
 24 15  1  0  0  0  0
 25 24  1  0  0  0  0
 26 20  1  0  0  0  0
 27 26  1  0  0  0  0
 27 13  1  0  0  0  0
  1 28  1  0  0  0  0
  1 29  1  0  0  0  0
  1 30  1  0  0  0  0
  2 31  1  0  0  0  0
  3 32  1  0  0  0  0
  3 33  1  0  0  0  0
  3 34  1  0  0  0  0
  4 35  1  0  0  0  0
  4 36  1  0  0  0  0
  5 37  1  0  0  0  0
  5 38  1  0  0  0  0
  6 39  1  0  0  0  0
  6 40  1  0  0  0  0
  7 41  1  0  0  0  0
  7 42  1  0  0  0  0
  8 43  1  0  0  0  0
  8 44  1  0  0  0  0
  9 45  1  0  0  0  0
  9 46  1  0  0  0  0
 14 47  1  0  0  0  0
 19 48  1  0  0  0  0
 19 49  1  0  0  0  0
 19 50  1  0  0  0  0
 23 51  1  0  0  0  0
 26 52  1  0  0  0  0
 27 53  1  0  0  0  0
M  END
>  <energy>
80.594736498648814

$$$$
