COC1C(C)(O)C2C(Br)CC13C1CC4CC(C)C(CCC43C)(OC3OC31)C1CCC(C)C(C(=O)O)=CC21C
                    3D

 83 89  0  0  0  0  0  0  0  0999 V2000
   -2.8753    4.1303   -1.7153 C   0  0  0  0  0  0  0  0  0  0  0  0
   -2.2412    2.8566   -1.7268 O   0  0  0  0  0  0  0  0  0  0  0  0
   -1.5334    2.5102   -0.5123 C   0  0  0  0  0  0  0  0  0  0  0  0
    0.0456    2.6034   -0.8608 C   0  0  0  0  0  0  0  0  0  0  0  0
    0.4407    2.7315   -2.3405 C   0  0  0  0  0  0  0  0  0  0  0  0
    0.3621    3.9872   -0.4192 O   0  0  0  0  0  0  0  0  0  0  0  0
    1.0185    1.7155    0.0391 C   0  0  0  0  0  0  0  0  0  0  0  0
    0.4629    1.7842    1.4694 C   0  0  0  0  0  0  0  0  0  0  0  0
    1.1871    3.3409    2.4940 Br  0  0  0  0  0  0  0  0  0  0  0  0
   -1.0983    1.8177    1.6060 C   0  0  0  0  0  0  0  0  0  0  0  0
   -1.8811    1.0941    0.3478 C   0  0  0  0  0  0  0  0  0  0  0  0
   -3.1723    0.7659   -0.7194 C   0  0  0  0  0  0  0  0  0  0  0  0
   -4.2677   -0.1867   -0.2229 C   0  0  0  0  0  0  0  0  0  0  0  0
   -3.4983   -1.0479    0.7177 C   0  0  0  0  0  0  0  0  0  0  0  0
   -2.8089   -2.3052    0.0246 C   0  0  0  0  0  0  0  0  0  0  0  0
   -1.2602   -2.7059    0.0994 C   0  0  0  0  0  0  0  0  0  0  0  0
   -0.9856   -3.7432   -1.0028 C   0  0  0  0  0  0  0  0  0  0  0  0
   -0.3012   -1.4692    0.2606 C   0  0  0  0  0  0  0  0  0  0  0  0
   -0.5163   -1.2156    1.8153 C   0  0  0  0  0  0  0  0  0  0  0  0
   -1.8510   -0.7992    2.3883 C   0  0  0  0  0  0  0  0  0  0  0  0
   -2.7105    0.0833    1.4514 C   0  0  0  0  0  0  0  0  0  0  0  0
   -3.7043    0.9167    2.3401 C   0  0  0  0  0  0  0  0  0  0  0  0
   -0.6535   -0.4502   -0.6432 O   0  0  0  0  0  0  0  0  0  0  0  0
   -1.3163   -0.6682   -1.8941 C   0  0  0  0  0  0  0  0  0  0  0  0
   -1.5088    0.5320   -2.6545 O   0  0  0  0  0  0  0  0  0  0  0  0
   -2.6533    0.0376   -1.9873 C   0  0  0  0  0  0  0  0  0  0  0  0
    1.2774   -1.2771    0.1637 C   0  0  0  0  0  0  0  0  0  0  0  0
    1.9609   -2.4946   -0.4890 C   0  0  0  0  0  0  0  0  0  0  0  0
    3.4959   -2.5583   -0.4804 C   0  0  0  0  0  0  0  0  0  0  0  0
    4.1570   -1.9052    0.7432 C   0  0  0  0  0  0  0  0  0  0  0  0
    5.5240   -2.5732    0.9721 C   0  0  0  0  0  0  0  0  0  0  0  0
    4.2152   -0.4027    0.5893 C   0  0  0  0  0  0  0  0  0  0  0  0
    5.5124    0.2688    0.8216 C   0  0  0  0  0  0  0  0  0  0  0  0
    6.4139    0.3811    0.0087 O   0  0  0  0  0  0  0  0  0  0  0  0
    5.5862    0.7771    2.0611 O   0  0  0  0  0  0  0  0  0  0  0  0
    3.2742    0.4439    0.1157 C   0  0  0  0  0  0  0  0  0  0  0  0
    1.8108    0.2293   -0.3830 C   0  0  0  0  0  0  0  0  0  0  0  0
    2.0100    0.1571   -1.9152 C   0  0  0  0  0  0  0  0  0  0  0  0
   -3.6403    4.1758   -0.9340 H   0  0  0  0  0  0  0  0  0  0  0  0
   -3.3646    4.2813   -2.6824 H   0  0  0  0  0  0  0  0  0  0  0  0
   -2.1442    4.9302   -1.5744 H   0  0  0  0  0  0  0  0  0  0  0  0
   -1.7884    3.3582    0.1323 H   0  0  0  0  0  0  0  0  0  0  0  0
    0.2904    1.8445   -2.9431 H   0  0  0  0  0  0  0  0  0  0  0  0
    1.4942    3.0228   -2.4264 H   0  0  0  0  0  0  0  0  0  0  0  0
   -0.1031    3.5453   -2.8399 H   0  0  0  0  0  0  0  0  0  0  0  0
   -0.1191    4.5998   -0.9995 H   0  0  0  0  0  0  0  0  0  0  0  0
    1.8898    2.3861    0.0507 H   0  0  0  0  0  0  0  0  0  0  0  0
    0.9557    1.0377    2.0806 H   0  0  0  0  0  0  0  0  0  0  0  0
   -1.4816    2.8265    1.8186 H   0  0  0  0  0  0  0  0  0  0  0  0
   -1.2437    1.3987    2.5971 H   0  0  0  0  0  0  0  0  0  0  0  0
   -3.7527    1.6539   -0.9767 H   0  0  0  0  0  0  0  0  0  0  0  0
   -4.7861   -0.7571   -1.0040 H   0  0  0  0  0  0  0  0  0  0  0  0
   -5.0592    0.3750    0.2862 H   0  0  0  0  0  0  0  0  0  0  0  0
   -4.2318   -1.4898    1.4095 H   0  0  0  0  0  0  0  0  0  0  0  0
   -3.3400   -3.1787    0.4400 H   0  0  0  0  0  0  0  0  0  0  0  0
   -3.1216   -2.3395   -1.0273 H   0  0  0  0  0  0  0  0  0  0  0  0
   -1.1681   -3.3254    1.0044 H   0  0  0  0  0  0  0  0  0  0  0  0
   -1.6859   -4.5833   -0.8973 H   0  0  0  0  0  0  0  0  0  0  0  0
   -1.1266   -3.3716   -2.0165 H   0  0  0  0  0  0  0  0  0  0  0  0
    0.0076   -4.1852   -0.9357 H   0  0  0  0  0  0  0  0  0  0  0  0
    0.2003   -0.5308    2.2316 H   0  0  0  0  0  0  0  0  0  0  0  0
   -0.2162   -2.1325    2.3485 H   0  0  0  0  0  0  0  0  0  0  0  0
   -1.6838   -0.3246    3.3637 H   0  0  0  0  0  0  0  0  0  0  0  0
   -2.4018   -1.7042    2.6838 H   0  0  0  0  0  0  0  0  0  0  0  0
   -3.2107    1.4047    3.1861 H   0  0  0  0  0  0  0  0  0  0  0  0
   -4.1926    1.7098    1.7635 H   0  0  0  0  0  0  0  0  0  0  0  0
   -4.4799    0.2757    2.7749 H   0  0  0  0  0  0  0  0  0  0  0  0
   -1.0561   -1.4998   -2.5265 H   0  0  0  0  0  0  0  0  0  0  0  0
   -3.4277   -0.3560   -2.6302 H   0  0  0  0  0  0  0  0  0  0  0  0
    1.6578   -1.3207    1.1918 H   0  0  0  0  0  0  0  0  0  0  0  0
    1.6389   -3.3773    0.0783 H   0  0  0  0  0  0  0  0  0  0  0  0
    1.6034   -2.6290   -1.5144 H   0  0  0  0  0  0  0  0  0  0  0  0
    3.7662   -3.6209   -0.5332 H   0  0  0  0  0  0  0  0  0  0  0  0
    3.9109   -2.1352   -1.4032 H   0  0  0  0  0  0  0  0  0  0  0  0
    3.5747   -2.1329    1.6435 H   0  0  0  0  0  0  0  0  0  0  0  0
    6.1933   -2.4362    0.1164 H   0  0  0  0  0  0  0  0  0  0  0  0
    6.0137   -2.1801    1.8701 H   0  0  0  0  0  0  0  0  0  0  0  0
    5.4011   -3.6532    1.1218 H   0  0  0  0  0  0  0  0  0  0  0  0
    6.4591    1.2201    2.0807 H   0  0  0  0  0  0  0  0  0  0  0  0
    3.6192    1.4761    0.0007 H   0  0  0  0  0  0  0  0  0  0  0  0
    1.0739    0.0184   -2.4446 H   0  0  0  0  0  0  0  0  0  0  0  0
    2.6357   -0.6797   -2.2232 H   0  0  0  0  0  0  0  0  0  0  0  0
    2.5224    1.0413   -2.3050 H   0  0  0  0  0  0  0  0  0  0  0  0
  2  1  1  0  0  0  0
  3  2  1  0  0  0  0
  4  3  1  0  0  0  0
  5  4  1  0  0  0  0
  6  4  1  0  0  0  0
  7  4  1  0  0  0  0
  8  7  1  0  0  0  0
  9  8  1  0  0  0  0
 10  8  1  0  0  0  0
 11 10  1  0  0  0  0
 11  3  1  0  0  0  0
 12 11  1  0  0  0  0
 13 12  1  0  0  0  0
 14 13  1  0  0  0  0
 15 14  1  0  0  0  0
 16 15  1  0  0  0  0
 17 16  1  0  0  0  0
 18 16  1  0  0  0  0
 19 18  1  0  0  0  0
 20 19  1  0  0  0  0
 21 20  1  0  0  0  0
 21 14  1  0  0  0  0
 21 11  1  0  0  0  0
 22 21  1  0  0  0  0
 23 18  1  0  0  0  0
 24 23  1  0  0  0  0
 25 24  1  0  0  0  0
 26 25  1  0  0  0  0
 26 24  1  0  0  0  0
 26 12  1  0  0  0  0
 27 18  1  0  0  0  0
 28 27  1  0  0  0  0
 29 28  1  0  0  0  0
 30 29  1  0  0  0  0
 31 30  1  0  0  0  0
 32 30  1  0  0  0  0
 33 32  1  0  0  0  0
 34 33  2  0  0  0  0
 35 33  1  0  0  0  0
 36 32  2  0  0  0  0
 37 36  1  0  0  0  0
 37  7  1  0  0  0  0
 37 27  1  0  0  0  0
 38 37  1  0  0  0  0
  1 39  1  0  0  0  0
  1 40  1  0  0  0  0
  1 41  1  0  0  0  0
  3 42  1  0  0  0  0
  5 43  1  0  0  0  0
  5 44  1  0  0  0  0
  5 45  1  0  0  0  0
  6 46  1  0  0  0  0
  7 47  1  0  0  0  0
  8 48  1  0  0  0  0
 10 49  1  0  0  0  0
 10 50  1  0  0  0  0
 12 51  1  0  0  0  0
 13 52  1  0  0  0  0
 13 53  1  0  0  0  0
 14 54  1  0  0  0  0
 15 55  1  0  0  0  0
 15 56  1  0  0  0  0
 16 57  1  0  0  0  0
 17 58  1  0  0  0  0
 17 59  1  0  0  0  0
 17 60  1  0  0  0  0
 19 61  1  0  0  0  0
 19 62  1  0  0  0  0
 20 63  1  0  0  0  0
 20 64  1  0  0  0  0
 22 65  1  0  0  0  0
 22 66  1  0  0  0  0
 22 67  1  0  0  0  0
 24 68  1  0  0  0  0
 26 69  1  0  0  0  0
 27 70  1  0  0  0  0
 28 71  1  0  0  0  0
 28 72  1  0  0  0  0
 29 73  1  0  0  0  0
 29 74  1  0  0  0  0
 30 75  1  0  0  0  0
 31 76  1  0  0  0  0
 31 77  1  0  0  0  0
 31 78  1  0  0  0  0
 35 79  1  0  0  0  0
 36 80  1  0  0  0  0
 38 81  1  0  0  0  0
 38 82  1  0  0  0  0
 38 83  1  0  0  0  0
M  END
>  <energy>
474.2195505194702

$$$$
