CC1C(=O)C2(C)C(C)C1(C)C(O)CCC1OC=C3COC4C(Cl)C(O)C(C)(C)C25OC3(C2CC3C(C)(C)C13C42
                    3D

 93100  0  0  0  0  0  0  0  0999 V2000
    3.9879   -1.6572   -2.8512 C   0  0  0  0  0  0  0  0  0  0  0  0
    2.9750   -1.2047   -1.8148 C   0  0  0  0  0  0  0  0  0  0  0  0
    3.1570    0.2718   -1.4636 C   0  0  0  0  0  0  0  0  0  0  0  0
    3.5863    1.0967   -2.2647 O   0  0  0  0  0  0  0  0  0  0  0  0
    2.6598    0.6571   -0.0461 C   0  0  0  0  0  0  0  0  0  0  0  0
    3.8362    1.3824    0.5910 C   0  0  0  0  0  0  0  0  0  0  0  0
    2.4649   -0.8100    0.5693 C   0  0  0  0  0  0  0  0  0  0  0  0
    2.9366   -0.9569    2.0257 C   0  0  0  0  0  0  0  0  0  0  0  0
    2.9795   -1.9127   -0.4309 C   0  0  0  0  0  0  0  0  0  0  0  0
    4.4479   -2.2888   -0.0780 C   0  0  0  0  0  0  0  0  0  0  0  0
    2.0368   -3.2320   -0.5090 C   0  0  0  0  0  0  0  0  0  0  0  0
    2.7203   -4.2231    0.2938 O   0  0  0  0  0  0  0  0  0  0  0  0
    0.5262   -3.3299   -0.0252 C   0  0  0  0  0  0  0  0  0  0  0  0
   -0.7335   -2.6038   -0.6604 C   0  0  0  0  0  0  0  0  0  0  0  0
   -2.0088   -2.3946    0.3022 C   0  0  0  0  0  0  0  0  0  0  0  0
   -1.6829   -2.6795    1.6173 O   0  0  0  0  0  0  0  0  0  0  0  0
   -0.9320   -1.6906    2.0951 C   0  0  0  0  0  0  0  0  0  0  0  0
   -0.5085   -0.5147    1.5990 C   0  0  0  0  0  0  0  0  0  0  0  0
   -0.3879    0.3607    2.8459 C   0  0  0  0  0  0  0  0  0  0  0  0
   -1.7183    0.8011    3.0571 O   0  0  0  0  0  0  0  0  0  0  0  0
   -2.2785    1.4875    1.9273 C   0  0  0  0  0  0  0  0  0  0  0  0
   -1.4465    2.9927    1.6789 C   0  0  0  0  0  0  0  0  0  0  0  0
   -2.7746    4.2877    1.8398 Cl  0  0  0  0  0  0  0  0  0  0  0  0
   -0.4535    3.5549    0.4357 C   0  0  0  0  0  0  0  0  0  0  0  0
   -0.3205    5.0019    0.6265 O   0  0  0  0  0  0  0  0  0  0  0  0
    1.1538    3.0751    0.1273 C   0  0  0  0  0  0  0  0  0  0  0  0
    1.9281    3.5090    1.4106 C   0  0  0  0  0  0  0  0  0  0  0  0
    1.7183    3.8730   -1.0571 C   0  0  0  0  0  0  0  0  0  0  0  0
    1.2617    1.5142   -0.1421 C   0  0  0  0  0  0  0  0  0  0  0  0
    0.3060    1.2659    0.8264 O   0  0  0  0  0  0  0  0  0  0  0  0
   -0.5215    0.2862    0.1818 C   0  0  0  0  0  0  0  0  0  0  0  0
   -1.8637    0.8017   -0.4068 C   0  0  0  0  0  0  0  0  0  0  0  0
   -2.5320    0.1409   -1.6616 C   0  0  0  0  0  0  0  0  0  0  0  0
   -3.3624   -1.0416   -1.2823 C   0  0  0  0  0  0  0  0  0  0  0  0
   -4.5068   -1.5460   -0.3583 C   0  0  0  0  0  0  0  0  0  0  0  0
   -5.7164   -0.8347    0.1957 C   0  0  0  0  0  0  0  0  0  0  0  0
   -4.9117   -2.9844   -0.7031 C   0  0  0  0  0  0  0  0  0  0  0  0
   -3.1125   -1.1465    0.2002 C   0  0  0  0  0  0  0  0  0  0  0  0
   -2.8755    0.6073    0.6467 C   0  0  0  0  0  0  0  0  0  0  0  0
   -4.1076    1.5039    0.2180 C   0  0  0  0  0  0  0  0  0  0  0  0
    0.4168    0.6115   -1.0752 C   0  0  0  0  0  0  0  0  0  0  0  0
    0.1876    1.3559   -2.4022 C   0  0  0  0  0  0  0  0  0  0  0  0
    5.0071   -1.3744   -2.5809 H   0  0  0  0  0  0  0  0  0  0  0  0
    3.9347   -2.7382   -2.9959 H   0  0  0  0  0  0  0  0  0  0  0  0
    3.7763   -1.1853   -3.8175 H   0  0  0  0  0  0  0  0  0  0  0  0
    2.0092   -1.3485   -2.3040 H   0  0  0  0  0  0  0  0  0  0  0  0
    4.7547    0.7843    0.5238 H   0  0  0  0  0  0  0  0  0  0  0  0
    4.0673    2.3181    0.0783 H   0  0  0  0  0  0  0  0  0  0  0  0
    3.6718    1.5847    1.6512 H   0  0  0  0  0  0  0  0  0  0  0  0
    1.4197   -1.0224    0.6110 H   0  0  0  0  0  0  0  0  0  0  0  0
    2.4369   -0.2313    2.6755 H   0  0  0  0  0  0  0  0  0  0  0  0
    2.7128   -1.9548    2.4148 H   0  0  0  0  0  0  0  0  0  0  0  0
    4.0111   -0.7944    2.1374 H   0  0  0  0  0  0  0  0  0  0  0  0
    4.8531   -3.0359   -0.7681 H   0  0  0  0  0  0  0  0  0  0  0  0
    5.1171   -1.4191   -0.1155 H   0  0  0  0  0  0  0  0  0  0  0  0
    4.5394   -2.7127    0.9263 H   0  0  0  0  0  0  0  0  0  0  0  0
    2.0703   -3.6182   -1.5341 H   0  0  0  0  0  0  0  0  0  0  0  0
    2.2399   -5.0724    0.2356 H   0  0  0  0  0  0  0  0  0  0  0  0
    0.2705   -4.3987   -0.1050 H   0  0  0  0  0  0  0  0  0  0  0  0
    0.5682   -3.1990    1.0555 H   0  0  0  0  0  0  0  0  0  0  0  0
   -0.4578   -1.6949   -1.1592 H   0  0  0  0  0  0  0  0  0  0  0  0
   -1.0734   -3.2373   -1.4946 H   0  0  0  0  0  0  0  0  0  0  0  0
   -2.5972   -3.2781    0.0586 H   0  0  0  0  0  0  0  0  0  0  0  0
   -0.7876   -1.9775    3.1380 H   0  0  0  0  0  0  0  0  0  0  0  0
    0.3080    1.2059    2.8608 H   0  0  0  0  0  0  0  0  0  0  0  0
   -0.0714   -0.1881    3.7367 H   0  0  0  0  0  0  0  0  0  0  0  0
   -3.2028    1.8096    2.4207 H   0  0  0  0  0  0  0  0  0  0  0  0
   -0.8836    3.1720    2.6056 H   0  0  0  0  0  0  0  0  0  0  0  0
   -1.0148    3.5055   -0.4926 H   0  0  0  0  0  0  0  0  0  0  0  0
   -1.1531    5.3237    1.0254 H   0  0  0  0  0  0  0  0  0  0  0  0
    1.8731    2.7650    2.2060 H   0  0  0  0  0  0  0  0  0  0  0  0
    1.5540    4.4450    1.8381 H   0  0  0  0  0  0  0  0  0  0  0  0
    2.9767    3.7178    1.2045 H   0  0  0  0  0  0  0  0  0  0  0  0
    0.9732    4.0120   -1.8467 H   0  0  0  0  0  0  0  0  0  0  0  0
    2.5784    3.3651   -1.5020 H   0  0  0  0  0  0  0  0  0  0  0  0
    2.0583    4.8694   -0.7453 H   0  0  0  0  0  0  0  0  0  0  0  0
   -1.7783    1.8398   -0.6788 H   0  0  0  0  0  0  0  0  0  0  0  0
   -1.7877   -0.1930   -2.3806 H   0  0  0  0  0  0  0  0  0  0  0  0
   -3.1436    0.8650   -2.2083 H   0  0  0  0  0  0  0  0  0  0  0  0
   -3.0871   -1.8169   -2.0041 H   0  0  0  0  0  0  0  0  0  0  0  0
   -5.5401   -0.5143    1.2276 H   0  0  0  0  0  0  0  0  0  0  0  0
   -6.0519   -0.0131   -0.4322 H   0  0  0  0  0  0  0  0  0  0  0  0
   -6.5897   -1.4963    0.2524 H   0  0  0  0  0  0  0  0  0  0  0  0
   -4.1343   -3.5538   -1.2183 H   0  0  0  0  0  0  0  0  0  0  0  0
   -5.7674   -2.9754   -1.3918 H   0  0  0  0  0  0  0  0  0  0  0  0
   -5.2018   -3.5349    0.1948 H   0  0  0  0  0  0  0  0  0  0  0  0
   -3.8002    2.5344    0.0257 H   0  0  0  0  0  0  0  0  0  0  0  0
   -4.5857    1.2174   -0.7190 H   0  0  0  0  0  0  0  0  0  0  0  0
   -4.8714    1.5445    1.0010 H   0  0  0  0  0  0  0  0  0  0  0  0
    0.8200   -0.3254   -1.3926 H   0  0  0  0  0  0  0  0  0  0  0  0
    1.1257    1.7542   -2.7952 H   0  0  0  0  0  0  0  0  0  0  0  0
   -0.4991    2.1991   -2.3182 H   0  0  0  0  0  0  0  0  0  0  0  0
   -0.1785    0.6844   -3.1838 H   0  0  0  0  0  0  0  0  0  0  0  0
  2  1  1  0  0  0  0
  3  2  1  0  0  0  0
  4  3  2  0  0  0  0
  5  3  1  0  0  0  0
  6  5  1  0  0  0  0
  7  5  1  0  0  0  0
  8  7  1  0  0  0  0
  9  7  1  0  0  0  0
  9  2  1  0  0  0  0
 10  9  1  0  0  0  0
 11  9  1  0  0  0  0
 12 11  1  0  0  0  0
 13 11  1  0  0  0  0
 14 13  1  0  0  0  0
 15 14  1  0  0  0  0
 16 15  1  0  0  0  0
 17 16  1  0  0  0  0
 18 17  2  0  0  0  0
 19 18  1  0  0  0  0
 20 19  1  0  0  0  0
 21 20  1  0  0  0  0
 22 21  1  0  0  0  0
 23 22  1  0  0  0  0
 24 22  1  0  0  0  0
 25 24  1  0  0  0  0
 26 24  1  0  0  0  0
 27 26  1  0  0  0  0
 28 26  1  0  0  0  0
 29 26  1  0  0  0  0
 29  5  1  0  0  0  0
 30 29  1  0  0  0  0
 31 30  1  0  0  0  0
 31 18  1  0  0  0  0
 32 31  1  0  0  0  0
 33 32  1  0  0  0  0
 34 33  1  0  0  0  0
 35 34  1  0  0  0  0
 36 35  1  0  0  0  0
 37 35  1  0  0  0  0
 38 35  1  0  0  0  0
 38 15  1  0  0  0  0
 38 34  1  0  0  0  0
 39 38  1  0  0  0  0
 39 21  1  0  0  0  0
 39 32  1  0  0  0  0
 40 39  1  0  0  0  0
 41 31  1  0  0  0  0
 41 29  1  0  0  0  0
 42 41  1  0  0  0  0
  1 43  1  0  0  0  0
  1 44  1  0  0  0  0
  1 45  1  0  0  0  0
  2 46  1  0  0  0  0
  6 47  1  0  0  0  0
  6 48  1  0  0  0  0
  6 49  1  0  0  0  0
  7 50  1  0  0  0  0
  8 51  1  0  0  0  0
  8 52  1  0  0  0  0
  8 53  1  0  0  0  0
 10 54  1  0  0  0  0
 10 55  1  0  0  0  0
 10 56  1  0  0  0  0
 11 57  1  0  0  0  0
 12 58  1  0  0  0  0
 13 59  1  0  0  0  0
 13 60  1  0  0  0  0
 14 61  1  0  0  0  0
 14 62  1  0  0  0  0
 15 63  1  0  0  0  0
 17 64  1  0  0  0  0
 19 65  1  0  0  0  0
 19 66  1  0  0  0  0
 21 67  1  0  0  0  0
 22 68  1  0  0  0  0
 24 69  1  0  0  0  0
 25 70  1  0  0  0  0
 27 71  1  0  0  0  0
 27 72  1  0  0  0  0
 27 73  1  0  0  0  0
 28 74  1  0  0  0  0
 28 75  1  0  0  0  0
 28 76  1  0  0  0  0
 32 77  1  0  0  0  0
 33 78  1  0  0  0  0
 33 79  1  0  0  0  0
 34 80  1  0  0  0  0
 36 81  1  0  0  0  0
 36 82  1  0  0  0  0
 36 83  1  0  0  0  0
 37 84  1  0  0  0  0
 37 85  1  0  0  0  0
 37 86  1  0  0  0  0
 40 87  1  0  0  0  0
 40 88  1  0  0  0  0
 40 89  1  0  0  0  0
 41 90  1  0  0  0  0
 42 91  1  0  0  0  0
 42 92  1  0  0  0  0
 42 93  1  0  0  0  0
M  END
>  <energy>
577.53748844376094

$$$$
