REMARK  7 active torsions:
REMARK  status: ('A' for Active; 'I' for Inactive)
REMARK    1  A    between atoms: O1_1  and  C1_3 
REMARK    2  A    between atoms: C1_3  and  C2_4 
REMARK    3  A    between atoms: C3_5  and  O2_6 
REMARK    4  A    between atoms: C5_9  and  O3_10 
REMARK    5  A    between atoms: C6_12  and  O4_13 
REMARK    6  A    between atoms: C7_15  and  O5_16 
REMARK    7  A    between atoms: C8_18  and  B1_19 
ROOT
HETATM    1  C2  UNL     1      -1.131   0.077  -0.643  1.00  0.00     0.038 C 
HETATM    2  C3  UNL     1      -0.475  -1.194  -1.072  1.00  0.00     0.126 C 
HETATM    3  C4  UNL     1       0.347  -1.875  -0.040  1.00  0.00     0.066 C 
HETATM    4  C5  UNL     1       1.760  -1.400   0.061  1.00  0.00     0.151 C 
HETATM    5  C6  UNL     1       1.970   0.026   0.307  1.00  0.00     0.175 C 
HETATM    6  C7  UNL     1       0.786   0.802   0.812  1.00  0.00     0.147 C 
HETATM    7  C8  UNL     1      -0.102   1.120  -0.341  1.00  0.00     0.017 C 
ENDROOT
BRANCH   1   8
HETATM    8  C1  UNL     1      -2.141  -0.123   0.440  1.00  0.00     0.170 C 
BRANCH   8   9
HETATM    9  O1  UNL     1      -2.724   1.084   0.806  1.00  0.00    -0.400 OA
ATOM     10  H1  UNL     1      -3.366   0.957   1.495  1.00  0.00     0.209 HD
ENDBRANCH   8   9
ENDBRANCH   1   8
BRANCH   2  11
HETATM   11  O2  UNL     1      -1.496  -2.069  -1.512  1.00  0.00    -0.395 OA
ATOM     12  H2  UNL     1      -1.079  -2.878  -1.785  1.00  0.00     0.210 HD
ENDBRANCH   2  11
BRANCH   7  13
HETATM   13  B1  UNL     1      -0.767   2.567  -0.180  1.00  0.00     0.391 B 
HETATM   14  F1  UNL     1      -0.936   3.446  -1.324  1.00  0.00    -0.357 F 
ENDBRANCH   7  13
BRANCH   6  15
HETATM   15  O5  UNL     1       1.287   2.015   1.295  1.00  0.00    -0.393 OA
ATOM     16  H5  UNL     1       0.539   2.505   1.614  1.00  0.00     0.210 HD
ENDBRANCH   6  15
BRANCH   4  17
HETATM   17  O3  UNL     1       2.412  -1.745  -1.147  1.00  0.00    -0.393 OA
ATOM     18  H3  UNL     1       3.310  -1.443  -1.083  1.00  0.00     0.210 HD
ENDBRANCH   4  17
BRANCH   5  19
HETATM   19  O4  UNL     1       2.987   0.192   1.249  1.00  0.00    -0.390 OA
ATOM     20  H4  UNL     1       3.123   1.118   1.409  1.00  0.00     0.210 HD
ENDBRANCH   5  19
TORSDOF 7
