REMARK  10 active torsions:
REMARK  status: ('A' for Active; 'I' for Inactive)
REMARK    1  A    between atoms: C2_2  and  B1_3 
REMARK    2  A    between atoms: C2_2  and  C3_5 
REMARK    3  A    between atoms: C2_2  and  C18_26 
REMARK    4  A    between atoms: C3_5  and  C4_6 
REMARK    5  A    between atoms: C9_11  and  C10_12 
REMARK    6  A    between atoms: C10_12  and  C11_13 
REMARK    7  A    between atoms: N1_15  and  C13_16 
REMARK    8  A    between atoms: C16_20  and  O2_21 
REMARK    9  A    between atoms: C18_26  and  O4_27 
REMARK   10  A    between atoms: N2_29  and  O5_31 
ROOT
HETATM    1  C4  UNL     1      -2.069  -0.477   0.804  1.00  0.00    -0.010 C 
HETATM    2  C5  UNL     1      -2.675  -1.794   1.161  1.00  0.00     0.005 C 
HETATM    3  C6  UNL     1      -2.614  -2.828   0.054  1.00  0.00     0.000 C 
HETATM    4  C7  UNL     1      -1.278  -2.802  -0.602  1.00  0.00     0.000 C 
HETATM    5  C8  UNL     1      -0.269  -2.127   0.319  1.00  0.00     0.005 C 
HETATM    6  C9  UNL     1      -0.584  -0.685   0.538  1.00  0.00    -0.006 C 
ENDROOT
BRANCH   6   7
HETATM    7  C10 UNL     1      -0.058   0.259  -0.484  1.00  0.00     0.052 C 
BRANCH   7   8
HETATM    8  C11 UNL     1       1.391   0.032  -0.720  1.00  0.00     0.004 A 
HETATM    9  C12 UNL     1       2.469   0.578  -0.064  1.00  0.00     0.110 A 
HETATM   10  N1  UNL     1       3.662   0.246  -0.458  1.00  0.00    -0.308 N 
HETATM   11  C17 UNL     1       3.793  -0.605  -1.476  1.00  0.00     0.291 A 
HETATM   12  O3  UNL     1       4.882  -1.048  -2.002  1.00  0.00    -0.259 OA
HETATM   13  S1  UNL     1       2.172  -0.943  -1.886  1.00  0.00    -0.032 SA
BRANCH  10  14
HETATM   14  C13 UNL     1       4.886   0.784   0.190  1.00  0.00     0.147 C 
HETATM   15  C14 UNL     1       5.666  -0.372   0.714  1.00  0.00     0.196 C 
HETATM   16  O1  UNL     1       6.986  -0.218   0.383  1.00  0.00    -0.386 OA
HETATM   17  C15 UNL     1       7.103   0.673  -0.650  1.00  0.00     0.201 C 
HETATM   18  C16 UNL     1       5.810   1.393  -0.830  1.00  0.00     0.167 C 
BRANCH  18  19
HETATM   19  O2  UNL     1       6.029   2.765  -0.564  1.00  0.00    -0.391 OA
ATOM     20  H2  UNL     1       6.612   3.149  -1.208  1.00  0.00     0.210 HD
ENDBRANCH  18  19
ENDBRANCH  10  14
ENDBRANCH   7   8
ENDBRANCH   6   7
BRANCH   1  21
HETATM   21  C3  UNL     1      -2.729   0.344  -0.216  1.00  0.00     0.014 C 
BRANCH  21  22
HETATM   22  C2  UNL     1      -4.113   0.850   0.000  1.00  0.00     0.025 C 
HETATM   23  C1  UNL     1      -5.200  -0.150   0.183  1.00  0.00     0.015 C 
BRANCH  22  24
HETATM   24  B1  UNL     1      -4.157   1.809   1.302  1.00  0.00     0.400 B 
HETATM   25  F1  UNL     1      -4.749   1.351   2.538  1.00  0.00    -0.356 F 
ENDBRANCH  22  24
BRANCH  22  26
HETATM   26  C18 UNL     1      -4.467   1.622  -1.224  1.00  0.00     0.136 C 
HETATM   27  N2  UNL     1      -4.617   2.862  -1.208  1.00  0.00    -0.251 N 
ATOM     28  H2  UNL     1      -4.857   3.245  -2.122  1.00  0.00     0.196 HD
BRANCH  26  29
HETATM   29  O4  UNL     1      -4.632   0.931  -2.414  1.00  0.00    -0.348 OA
ATOM     30  H4  UNL     1      -4.858   1.423  -3.195  1.00  0.00     0.219 HD
ENDBRANCH  26  29
BRANCH  27  31
HETATM   31  O5  UNL     1      -4.533   3.794  -0.260  1.00  0.00    -0.288 OA
ATOM     32  H5  UNL     1      -4.647   4.737  -0.248  1.00  0.00     0.244 HD
ENDBRANCH  27  31
ENDBRANCH  22  26
ENDBRANCH  21  22
ENDBRANCH   1  21
TORSDOF 10
