MODEL 1
REMARK VINA RESULT: -6.833809387      0.000      0.000
REMARK  11 active torsions:
REMARK  status: ('A' for Active; 'I' for Inactive)
REMARK    1  A    between atoms: O1_2  and  C2_3 
REMARK    2  A    between atoms: C2_3  and  C3_5 
REMARK    3  A    between atoms: C6_8  and  C7_9 
REMARK    4  A    between atoms: C12_16  and  O5_17 
REMARK    5  A    between atoms: O5_17  and  C13_18 
REMARK    6  A    between atoms: C15_21  and  C16_22 
REMARK    7  A    between atoms: C17_24  and  O8_25 
REMARK    8  A    between atoms: C18_27  and  C19_28 
REMARK    9  A    between atoms: C20_31  and  C21_32 
REMARK   10  A    between atoms: C21_32  and  O11_35 
REMARK   11  A    between atoms: O11_35  and  C24_36 
ROOT
HETATM    1  C3  UNL     1      15.290 -15.687  20.531  1.00  0.00     0.081 A 
HETATM    2  C4  UNL     1      15.777 -14.416  21.155  1.00  0.00     0.015 C 
HETATM    3  C5  UNL     1      14.763 -13.494  21.720  1.00  0.00     0.028 C 
HETATM    4  C6  UNL     1      14.679 -12.456  20.626  1.00  0.00     0.068 C 
HETATM    5  C8  UNL     1      16.189 -12.129  20.667  1.00  0.00     0.031 C 
HETATM    6  C9  UNL     1      16.676 -13.568  20.363  1.00  0.00    -0.035 C 
HETATM    7  C10 UNL     1      18.125 -13.611  20.870  1.00  0.00     0.016 C 
HETATM    8  C11 UNL     1      16.697 -13.573  18.903  1.00  0.00     0.043 C 
HETATM    9  C12 UNL     1      15.503 -12.847  18.307  1.00  0.00     0.151 C 
HETATM   10  C15 UNL     1      14.326 -12.948  19.297  1.00  0.00     0.084 C 
HETATM   11  C17 UNL     1      13.726 -14.272  19.078  1.00  0.00     0.158 C 
HETATM   12  C18 UNL     1      14.382 -15.537  19.387  1.00  0.00     0.101 A 
HETATM   13  C20 UNL     1      13.910 -16.171  20.675  1.00  0.00     0.063 A 
ENDROOT
BRANCH  13  14
HETATM   14  C21 UNL     1      13.356 -17.511  20.866  1.00  0.00     0.070 C 
HETATM   15  C22 UNL     1      11.787 -17.407  20.978  1.00  0.00     0.047 C 
HETATM   16  C23 UNL     1      13.710 -17.952  22.309  1.00  0.00     0.047 C 
BRANCH  14  17
HETATM   17  O11 UNL     1      13.547 -18.489  19.928  1.00  0.00    -0.311 OA
BRANCH  17  18
HETATM   18  C24 UNL     1      13.164 -19.783  20.063  1.00  0.00     0.255 C 
HETATM   19  C25 UNL     1      11.952 -20.346  19.353  1.00  0.00     0.126 C 
HETATM   20  O12 UNL     1      13.783 -20.593  20.778  1.00  0.00    -0.266 OA
ENDBRANCH  17  18
ENDBRANCH  14  17
ENDBRANCH  13  14
BRANCH   1  21
HETATM   21  C2  UNL     1      16.359 -16.689  20.497  1.00  0.00     0.269 C 
HETATM   22  O2  UNL     1      17.369 -16.552  21.190  1.00  0.00    -0.264 OA
BRANCH  21  23
HETATM   23  O1  UNL     1      16.402 -17.856  19.742  1.00  0.00    -0.326 OA
HETATM   24  C1  UNL     1      16.948 -19.063  20.189  1.00  0.00     0.213 C 
ENDBRANCH  21  23
ENDBRANCH   1  21
BRANCH  12  25
HETATM   25  C19 UNL     1      14.545 -16.518  18.271  1.00  0.00     0.186 C 
HETATM   26  O9  UNL     1      15.635 -16.835  17.745  1.00  0.00    -0.647 OA
HETATM   27  O10 UNL     1      13.411 -17.133  17.767  1.00  0.00    -0.647 OA
ENDBRANCH  12  25
BRANCH  11  28
HETATM   28  O8  UNL     1      12.356 -14.250  19.480  1.00  0.00    -0.393 OA
ATOM     29  H8  UNL     1      12.273 -14.615  20.353  1.00  0.00     0.210 HD
ENDBRANCH  11  28
BRANCH  10  30
HETATM   30  C16 UNL     1      13.330 -11.973  18.725  1.00  0.00     0.247 C 
HETATM   31  O7  UNL     1      13.528 -11.359  17.697  1.00  0.00    -0.306 OA
ENDBRANCH  10  30
BRANCH   4  32
HETATM   32  C7  UNL     1      14.042 -11.209  21.088  1.00  0.00     0.183 C 
HETATM   33  O3  UNL     1      14.413 -10.094  20.677  1.00  0.00    -0.647 OA
HETATM   34  O4  UNL     1      13.011 -11.280  21.996  1.00  0.00    -0.647 OA
ENDBRANCH   4  32
BRANCH   9  35
HETATM   35  O5  UNL     1      15.177 -13.435  17.064  1.00  0.00    -0.315 OA
BRANCH  35  36
HETATM   36  C13 UNL     1      15.905 -13.338  15.915  1.00  0.00     0.255 C 
HETATM   37  C14 UNL     1      16.428 -14.548  15.227  1.00  0.00     0.126 C 
HETATM   38  O6  UNL     1      16.134 -12.207  15.438  1.00  0.00    -0.266 OA
ENDBRANCH  35  36
ENDBRANCH   9  35
TORSDOF 11
ENDMDL
MODEL 2
REMARK VINA RESULT: -6.805075884      2.074      4.896
REMARK  11 active torsions:
REMARK  status: ('A' for Active; 'I' for Inactive)
REMARK    1  A    between atoms: O1_2  and  C2_3 
REMARK    2  A    between atoms: C2_3  and  C3_5 
REMARK    3  A    between atoms: C6_8  and  C7_9 
REMARK    4  A    between atoms: C12_16  and  O5_17 
REMARK    5  A    between atoms: O5_17  and  C13_18 
REMARK    6  A    between atoms: C15_21  and  C16_22 
REMARK    7  A    between atoms: C17_24  and  O8_25 
REMARK    8  A    between atoms: C18_27  and  C19_28 
REMARK    9  A    between atoms: C20_31  and  C21_32 
REMARK   10  A    between atoms: C21_32  and  O11_35 
REMARK   11  A    between atoms: O11_35  and  C24_36 
ROOT
HETATM    1  C3  UNL     1      16.162 -13.253  19.614  1.00  0.00     0.081 A 
HETATM    2  C4  UNL     1      15.242 -12.097  19.371  1.00  0.00     0.015 C 
HETATM    3  C5  UNL     1      14.895 -11.238  20.528  1.00  0.00     0.028 C 
HETATM    4  C6  UNL     1      13.514 -11.750  20.862  1.00  0.00     0.068 C 
HETATM    5  C8  UNL     1      12.950 -11.478  19.448  1.00  0.00     0.031 C 
HETATM    6  C9  UNL     1      13.969 -12.369  18.693  1.00  0.00    -0.035 C 
HETATM    7  C10 UNL     1      13.950 -11.851  17.247  1.00  0.00     0.016 C 
HETATM    8  C11 UNL     1      13.310 -13.670  18.726  1.00  0.00     0.043 C 
HETATM    9  C12 UNL     1      12.644 -13.945  20.063  1.00  0.00     0.151 C 
HETATM   10  C15 UNL     1      13.411 -13.177  21.157  1.00  0.00     0.084 C 
HETATM   11  C17 UNL     1      14.582 -14.002  21.486  1.00  0.00     0.158 C 
HETATM   12  C18 UNL     1      15.694 -14.258  20.577  1.00  0.00     0.101 A 
HETATM   13  C20 UNL     1      16.920 -13.422  20.862  1.00  0.00     0.063 A 
ENDROOT
BRANCH  13  14
HETATM   14  C21 UNL     1      18.281 -13.886  21.126  1.00  0.00     0.070 C 
HETATM   15  C22 UNL     1      18.569 -13.782  22.672  1.00  0.00     0.047 C 
HETATM   16  C23 UNL     1      19.249 -12.802  20.589  1.00  0.00     0.047 C 
BRANCH  14  17
HETATM   17  O11 UNL     1      18.659 -15.165  20.815  1.00  0.00    -0.311 OA
BRANCH  17  18
HETATM   18  C24 UNL     1      19.594 -15.885  21.484  1.00  0.00     0.255 C 
HETATM   19  C25 UNL     1      19.238 -17.098  22.315  1.00  0.00     0.126 C 
HETATM   20  O12 UNL     1      20.806 -15.597  21.457  1.00  0.00    -0.266 OA
ENDBRANCH  17  18
ENDBRANCH  14  17
ENDBRANCH  13  14
BRANCH   1  21
HETATM   21  C2  UNL     1      16.807 -13.671  18.367  1.00  0.00     0.269 C 
HETATM   22  O2  UNL     1      17.922 -13.242  18.063  1.00  0.00    -0.264 OA
BRANCH  21  23
HETATM   23  O1  UNL     1      16.307 -14.545  17.407  1.00  0.00    -0.326 OA
HETATM   24  C1  UNL     1      16.249 -14.262  16.039  1.00  0.00     0.213 C 
ENDBRANCH  21  23
ENDBRANCH   1  21
BRANCH  12  25
HETATM   25  C19 UNL     1      16.010 -15.684  20.261  1.00  0.00     0.186 C 
HETATM   26  O9  UNL     1      16.211 -16.139  19.114  1.00  0.00    -0.647 OA
HETATM   27  O10 UNL     1      16.091 -16.585  21.310  1.00  0.00    -0.647 OA
ENDBRANCH  12  25
BRANCH  11  28
HETATM   28  O8  UNL     1      15.015 -13.715  22.816  1.00  0.00    -0.393 OA
ATOM     29  H8  UNL     1      14.266 -13.701  23.400  1.00  0.00     0.210 HD
ENDBRANCH  11  28
BRANCH  10  30
HETATM   30  C16 UNL     1      12.501 -13.306  22.351  1.00  0.00     0.247 C 
HETATM   31  O7  UNL     1      11.301 -13.460  22.248  1.00  0.00    -0.306 OA
ENDBRANCH  10  30
BRANCH   4  32
HETATM   32  C7  UNL     1      12.764 -10.815  21.720  1.00  0.00     0.183 C 
HETATM   33  O3  UNL     1      13.260 -10.340  22.758  1.00  0.00    -0.647 OA
HETATM   34  O4  UNL     1      11.484 -10.459  21.364  1.00  0.00    -0.647 OA
ENDBRANCH   4  32
BRANCH   9  35
HETATM   35  O5  UNL     1      12.658 -15.337  20.311  1.00  0.00    -0.315 OA
BRANCH  35  36
HETATM   36  C13 UNL     1      12.146 -16.302  19.495  1.00  0.00     0.255 C 
HETATM   37  C14 UNL     1      12.952 -17.487  19.100  1.00  0.00     0.126 C 
HETATM   38  O6  UNL     1      10.977 -16.180  19.075  1.00  0.00    -0.266 OA
ENDBRANCH  35  36
ENDBRANCH   9  35
TORSDOF 11
ENDMDL
MODEL 3
REMARK VINA RESULT: -6.744257559      2.207      4.494
REMARK  11 active torsions:
REMARK  status: ('A' for Active; 'I' for Inactive)
REMARK    1  A    between atoms: O1_2  and  C2_3 
REMARK    2  A    between atoms: C2_3  and  C3_5 
REMARK    3  A    between atoms: C6_8  and  C7_9 
REMARK    4  A    between atoms: C12_16  and  O5_17 
REMARK    5  A    between atoms: O5_17  and  C13_18 
REMARK    6  A    between atoms: C15_21  and  C16_22 
REMARK    7  A    between atoms: C17_24  and  O8_25 
REMARK    8  A    between atoms: C18_27  and  C19_28 
REMARK    9  A    between atoms: C20_31  and  C21_32 
REMARK   10  A    between atoms: C21_32  and  O11_35 
REMARK   11  A    between atoms: O11_35  and  C24_36 
ROOT
HETATM    1  C3  UNL     1      16.071 -16.985  20.165  1.00  0.00     0.081 A 
HETATM    2  C4  UNL     1      16.113 -16.076  18.976  1.00  0.00     0.015 C 
HETATM    3  C5  UNL     1      16.367 -14.636  19.219  1.00  0.00     0.028 C 
HETATM    4  C6  UNL     1      14.970 -14.075  19.096  1.00  0.00     0.068 C 
HETATM    5  C8  UNL     1      14.751 -14.633  17.672  1.00  0.00     0.031 C 
HETATM    6  C9  UNL     1      14.981 -16.120  18.043  1.00  0.00    -0.035 C 
HETATM    7  C10 UNL     1      15.338 -16.807  16.716  1.00  0.00     0.016 C 
HETATM    8  C11 UNL     1      13.640 -16.541  18.435  1.00  0.00     0.043 C 
HETATM    9  C12 UNL     1      12.917 -15.480  19.246  1.00  0.00     0.151 C 
HETATM   10  C15 UNL     1      13.968 -14.639  19.997  1.00  0.00     0.084 C 
HETATM   11  C17 UNL     1      14.328 -15.415  21.192  1.00  0.00     0.158 C 
HETATM   12  C18 UNL     1      15.041 -16.687  21.168  1.00  0.00     0.101 A 
HETATM   13  C20 UNL     1      16.509 -16.570  21.504  1.00  0.00     0.063 A 
ENDROOT
BRANCH  13  14
HETATM   14  C21 UNL     1      17.248 -17.270  22.555  1.00  0.00     0.070 C 
HETATM   15  C22 UNL     1      17.144 -16.446  23.894  1.00  0.00     0.047 C 
HETATM   16  C23 UNL     1      18.757 -17.105  22.242  1.00  0.00     0.047 C 
BRANCH  14  17
HETATM   17  O11 UNL     1      16.898 -18.539  22.931  1.00  0.00    -0.311 OA
BRANCH  17  18
HETATM   18  C24 UNL     1      17.240 -19.124  24.107  1.00  0.00     0.255 C 
HETATM   19  C25 UNL     1      16.234 -19.362  25.213  1.00  0.00     0.126 C 
HETATM   20  O12 UNL     1      18.399 -19.504  24.354  1.00  0.00    -0.266 OA
ENDBRANCH  17  18
ENDBRANCH  14  17
ENDBRANCH  13  14
BRANCH   1  21
HETATM   21  C2  UNL     1      16.331 -18.371  19.765  1.00  0.00     0.269 C 
HETATM   22  O2  UNL     1      17.386 -18.927  20.079  1.00  0.00    -0.264 OA
BRANCH  21  23
HETATM   23  O1  UNL     1      15.500 -19.210  19.030  1.00  0.00    -0.326 OA
HETATM   24  C1  UNL     1      15.958 -20.212  18.168  1.00  0.00     0.213 C 
ENDBRANCH  21  23
ENDBRANCH   1  21
BRANCH  12  25
HETATM   25  C19 UNL     1      14.378 -17.860  21.814  1.00  0.00     0.186 C 
HETATM   26  O9  UNL     1      14.209 -18.976  21.278  1.00  0.00    -0.647 OA
HETATM   27  O10 UNL     1      13.907 -17.715  23.109  1.00  0.00    -0.647 OA
ENDBRANCH  12  25
BRANCH  11  28
HETATM   28  O8  UNL     1      14.808 -14.535  22.210  1.00  0.00    -0.393 OA
ATOM     29  H8  UNL     1      14.494 -14.825  23.058  1.00  0.00     0.210 HD
ENDBRANCH  11  28
BRANCH  10  30
HETATM   30  C16 UNL     1      13.155 -13.483  20.518  1.00  0.00     0.247 C 
HETATM   31  O7  UNL     1      12.393 -13.586  21.457  1.00  0.00    -0.306 OA
ENDBRANCH  10  30
BRANCH   4  32
HETATM   32  C7  UNL     1      14.971 -12.614  18.899  1.00  0.00     0.183 C 
HETATM   33  O3  UNL     1      14.232 -12.067  18.060  1.00  0.00    -0.647 OA
HETATM   34  O4  UNL     1      15.810 -11.835  19.662  1.00  0.00    -0.647 OA
ENDBRANCH   4  32
BRANCH   9  35
HETATM   35  O5  UNL     1      12.029 -16.110  20.147  1.00  0.00    -0.315 OA
BRANCH  35  36
HETATM   36  C13 UNL     1      11.153 -17.110  19.842  1.00  0.00     0.255 C 
HETATM   37  C14 UNL     1      10.312 -17.053  18.616  1.00  0.00     0.126 C 
HETATM   38  O6  UNL     1      11.060 -18.088  20.611  1.00  0.00    -0.266 OA
ENDBRANCH  35  36
ENDBRANCH   9  35
TORSDOF 11
ENDMDL
MODEL 4
REMARK VINA RESULT: -6.661270016      2.137      5.344
REMARK  11 active torsions:
REMARK  status: ('A' for Active; 'I' for Inactive)
REMARK    1  A    between atoms: O1_2  and  C2_3 
REMARK    2  A    between atoms: C2_3  and  C3_5 
REMARK    3  A    between atoms: C6_8  and  C7_9 
REMARK    4  A    between atoms: C12_16  and  O5_17 
REMARK    5  A    between atoms: O5_17  and  C13_18 
REMARK    6  A    between atoms: C15_21  and  C16_22 
REMARK    7  A    between atoms: C17_24  and  O8_25 
REMARK    8  A    between atoms: C18_27  and  C19_28 
REMARK    9  A    between atoms: C20_31  and  C21_32 
REMARK   10  A    between atoms: C21_32  and  O11_35 
REMARK   11  A    between atoms: O11_35  and  C24_36 
ROOT
HETATM    1  C3  UNL     1      14.141 -13.881  21.475  1.00  0.00     0.081 A 
HETATM    2  C4  UNL     1      15.238 -14.820  21.869  1.00  0.00     0.015 C 
HETATM    3  C5  UNL     1      16.527 -14.229  22.301  1.00  0.00     0.028 C 
HETATM    4  C6  UNL     1      17.360 -14.416  21.054  1.00  0.00     0.068 C 
HETATM    5  C8  UNL     1      17.141 -15.946  21.003  1.00  0.00     0.031 C 
HETATM    6  C9  UNL     1      15.595 -15.887  20.926  1.00  0.00    -0.035 C 
HETATM    7  C10 UNL     1      15.123 -17.270  21.397  1.00  0.00     0.016 C 
HETATM    8  C11 UNL     1      15.372 -15.787  19.487  1.00  0.00     0.043 C 
HETATM    9  C12 UNL     1      16.374 -14.868  18.811  1.00  0.00     0.151 C 
HETATM   10  C15 UNL     1      16.835 -13.811  19.833  1.00  0.00     0.084 C 
HETATM   11  C17 UNL     1      15.787 -12.780  19.850  1.00  0.00     0.158 C 
HETATM   12  C18 UNL     1      14.431 -12.989  20.345  1.00  0.00     0.101 A 
HETATM   13  C20 UNL     1      14.196 -12.435  21.731  1.00  0.00     0.063 A 
ENDROOT
BRANCH  13  14
HETATM   14  C21 UNL     1      13.176 -11.475  22.153  1.00  0.00     0.070 C 
HETATM   15  C22 UNL     1      11.901 -11.645  21.243  1.00  0.00     0.047 C 
HETATM   16  C23 UNL     1      13.654 -10.071  21.705  1.00  0.00     0.047 C 
BRANCH  14  17
HETATM   17  O11 UNL     1      12.669 -11.505  23.424  1.00  0.00    -0.311 OA
BRANCH  17  18
HETATM   18  C24 UNL     1      11.666 -10.714  23.881  1.00  0.00     0.255 C 
HETATM   19  C25 UNL     1      11.906  -9.298  24.357  1.00  0.00     0.126 C 
HETATM   20  O12 UNL     1      10.483 -11.099  23.938  1.00  0.00    -0.266 OA
ENDBRANCH  17  18
ENDBRANCH  14  17
ENDBRANCH  13  14
BRANCH   1  21
HETATM   21  C2  UNL     1      12.836 -14.538  21.578  1.00  0.00     0.269 C 
HETATM   22  O2  UNL     1      12.135 -14.388  22.580  1.00  0.00    -0.264 OA
BRANCH  21  23
HETATM   23  O1  UNL     1      12.229 -15.368  20.640  1.00  0.00    -0.326 OA
HETATM   24  C1  UNL     1      11.729 -16.643  20.924  1.00  0.00     0.213 C 
ENDBRANCH  21  23
ENDBRANCH   1  21
BRANCH  12  25
HETATM   25  C19 UNL     1      13.305 -12.718  19.401  1.00  0.00     0.186 C 
HETATM   26  O9  UNL     1      12.332 -13.478  19.204  1.00  0.00    -0.647 OA
HETATM   27  O10 UNL     1      13.324 -11.535  18.679  1.00  0.00    -0.647 OA
ENDBRANCH  12  25
BRANCH  11  28
HETATM   28  O8  UNL     1      16.343 -11.537  20.277  1.00  0.00    -0.393 OA
ATOM     29  H8  UNL     1      17.265 -11.503  20.050  1.00  0.00     0.210 HD
ENDBRANCH  11  28
BRANCH  10  30
HETATM   30  C16 UNL     1      18.002 -13.164  19.135  1.00  0.00     0.247 C 
HETATM   31  O7  UNL     1      17.867 -12.389  18.211  1.00  0.00    -0.306 OA
ENDBRANCH  10  30
BRANCH   4  32
HETATM   32  C7  UNL     1      18.803 -14.281  21.322  1.00  0.00     0.183 C 
HETATM   33  O3  UNL     1      19.300 -13.204  21.701  1.00  0.00    -0.647 OA
HETATM   34  O4  UNL     1      19.622 -15.372  21.149  1.00  0.00    -0.647 OA
ENDBRANCH   4  32
BRANCH   9  35
HETATM   35  O5  UNL     1      15.763 -14.262  17.689  1.00  0.00    -0.315 OA
BRANCH  35  36
HETATM   36  C13 UNL     1      15.941 -14.623  16.386  1.00  0.00     0.255 C 
HETATM   37  C14 UNL     1      15.815 -16.040  15.954  1.00  0.00     0.126 C 
HETATM   38  O6  UNL     1      16.216 -13.741  15.547  1.00  0.00    -0.266 OA
ENDBRANCH  35  36
ENDBRANCH   9  35
TORSDOF 11
ENDMDL
MODEL 5
REMARK VINA RESULT: -6.659118477      1.795      6.133
REMARK  11 active torsions:
REMARK  status: ('A' for Active; 'I' for Inactive)
REMARK    1  A    between atoms: O1_2  and  C2_3 
REMARK    2  A    between atoms: C2_3  and  C3_5 
REMARK    3  A    between atoms: C6_8  and  C7_9 
REMARK    4  A    between atoms: C12_16  and  O5_17 
REMARK    5  A    between atoms: O5_17  and  C13_18 
REMARK    6  A    between atoms: C15_21  and  C16_22 
REMARK    7  A    between atoms: C17_24  and  O8_25 
REMARK    8  A    between atoms: C18_27  and  C19_28 
REMARK    9  A    between atoms: C20_31  and  C21_32 
REMARK   10  A    between atoms: C21_32  and  O11_35 
REMARK   11  A    between atoms: O11_35  and  C24_36 
ROOT
HETATM    1  C3  UNL     1      14.538 -14.389  19.447  1.00  0.00     0.081 A 
HETATM    2  C4  UNL     1      13.848 -15.415  18.601  1.00  0.00     0.015 C 
HETATM    3  C5  UNL     1      12.526 -15.906  19.055  1.00  0.00     0.028 C 
HETATM    4  C6  UNL     1      12.907 -17.240  19.655  1.00  0.00     0.068 C 
HETATM    5  C8  UNL     1      13.567 -17.760  18.357  1.00  0.00     0.031 C 
HETATM    6  C9  UNL     1      14.606 -16.616  18.233  1.00  0.00    -0.035 C 
HETATM    7  C10 UNL     1      15.023 -16.621  16.755  1.00  0.00     0.016 C 
HETATM    8  C11 UNL     1      15.715 -17.135  19.028  1.00  0.00     0.043 C 
HETATM    9  C12 UNL     1      15.243 -17.831  20.292  1.00  0.00     0.151 C 
HETATM   10  C15 UNL     1      13.902 -17.204  20.723  1.00  0.00     0.084 C 
HETATM   11  C17 UNL     1      14.246 -15.969  21.442  1.00  0.00     0.158 C 
HETATM   12  C18 UNL     1      14.849 -14.794  20.824  1.00  0.00     0.101 A 
HETATM   13  C20 UNL     1      13.868 -13.679  20.546  1.00  0.00     0.063 A 
ENDROOT
BRANCH  13  14
HETATM   14  C21 UNL     1      13.935 -12.290  20.999  1.00  0.00     0.070 C 
HETATM   15  C22 UNL     1      12.933 -11.422  20.147  1.00  0.00     0.047 C 
HETATM   16  C23 UNL     1      15.288 -11.713  20.514  1.00  0.00     0.047 C 
BRANCH  14  17
HETATM   17  O11 UNL     1      13.626 -11.960  22.291  1.00  0.00    -0.311 OA
BRANCH  17  18
HETATM   18  C24 UNL     1      12.379 -11.985  22.825  1.00  0.00     0.255 C 
HETATM   19  C25 UNL     1      11.707 -10.743  23.368  1.00  0.00     0.126 C 
HETATM   20  O12 UNL     1      11.704 -13.029  22.901  1.00  0.00    -0.266 OA
ENDBRANCH  17  18
ENDBRANCH  14  17
ENDBRANCH  13  14
BRANCH   1  21
HETATM   21  C2  UNL     1      15.521 -13.644  18.658  1.00  0.00     0.269 C 
HETATM   22  O2  UNL     1      16.690 -14.029  18.585  1.00  0.00    -0.264 OA
BRANCH  21  23
HETATM   23  O1  UNL     1      15.311 -12.480  17.925  1.00  0.00    -0.326 OA
HETATM   24  C1  UNL     1      14.696 -12.440  16.670  1.00  0.00     0.213 C 
ENDBRANCH  21  23
ENDBRANCH   1  21
BRANCH  12  25
HETATM   25  C19 UNL     1      16.148 -14.313  21.384  1.00  0.00     0.186 C 
HETATM   26  O9  UNL     1      17.232 -14.281  20.762  1.00  0.00    -0.647 OA
HETATM   27  O10 UNL     1      16.170 -13.862  22.694  1.00  0.00    -0.647 OA
ENDBRANCH  12  25
BRANCH  11  28
HETATM   28  O8  UNL     1      13.196 -15.634  22.351  1.00  0.00    -0.393 OA
ATOM     29  H8  UNL     1      13.448 -15.877  23.234  1.00  0.00     0.210 HD
ENDBRANCH  11  28
BRANCH  10  30
HETATM   30  C16 UNL     1      13.423 -18.152  21.791  1.00  0.00     0.247 C 
HETATM   31  O7  UNL     1      13.898 -18.177  22.908  1.00  0.00    -0.306 OA
ENDBRANCH  10  30
BRANCH   4  32
HETATM   32  C7  UNL     1      11.742 -18.126  19.830  1.00  0.00     0.183 C 
HETATM   33  O3  UNL     1      10.744 -17.771  20.485  1.00  0.00    -0.647 OA
HETATM   34  O4  UNL     1      11.758 -19.375  19.256  1.00  0.00    -0.647 OA
ENDBRANCH   4  32
BRANCH   9  35
HETATM   35  O5  UNL     1      16.224 -17.681  21.299  1.00  0.00    -0.315 OA
BRANCH  35  36
HETATM   36  C13 UNL     1      17.508 -18.137  21.242  1.00  0.00     0.255 C 
HETATM   37  C14 UNL     1      17.811 -19.545  20.872  1.00  0.00     0.126 C 
HETATM   38  O6  UNL     1      18.440 -17.351  21.507  1.00  0.00    -0.266 OA
ENDBRANCH  35  36
ENDBRANCH   9  35
TORSDOF 11
ENDMDL
