MODEL 1
REMARK VINA RESULT: -8.094243030      0.000      0.000
REMARK  7 active torsions:
REMARK  status: ('A' for Active; 'I' for Inactive)
REMARK    1  A    between atoms: C2_2  and  O1_3 
REMARK    2  A    between atoms: O1_3  and  C3_4 
REMARK    3  A    between atoms: C3_4  and  C4_5 
REMARK    4  A    between atoms: C17_19  and  O3_20 
REMARK    5  A    between atoms: C20_25  and  C21_26 
REMARK    6  A    between atoms: C23_30  and  O7_31 
REMARK    7  A    between atoms: O7_31  and  C24_32 
ROOT
HETATM    1  C3  UNL     1      25.496  13.737  22.188  1.00  0.00     0.172 C 
HETATM    2  C6  UNL     1      26.486  14.629  21.474  1.00  0.00     0.094 C 
HETATM    3  C7  UNL     1      27.793  14.246  21.125  1.00  0.00     0.095 A 
HETATM    4  C8  UNL     1      28.384  15.271  20.123  1.00  0.00     0.074 C 
HETATM    5  C9  UNL     1      27.552  15.088  18.900  1.00  0.00    -0.085 C 
HETATM    6  C10 UNL     1      27.074  16.398  18.294  1.00  0.00     0.043 C 
HETATM    7  C11 UNL     1      27.219  13.943  18.336  1.00  0.00    -0.023 C 
HETATM    8  C12 UNL     1      27.540  12.573  18.706  1.00  0.00     0.042 C 
HETATM    9  C13 UNL     1      26.616  11.940  19.767  1.00  0.00     0.004 A 
HETATM   10  C14 UNL     1      26.749  10.465  19.739  1.00  0.00     0.027 A 
HETATM   11  C15 UNL     1      27.163  11.412  20.918  1.00  0.00    -0.007 A 
HETATM   12  C16 UNL     1      28.103  10.753  21.724  1.00  0.00     0.040 A 
HETATM   13  C17 UNL     1      29.580  10.835  21.268  1.00  0.00     0.136 A 
HETATM   14  C18 UNL     1      28.551  11.880  21.055  1.00  0.00     0.031 A 
HETATM   15  C19 UNL     1      28.729  13.298  21.317  1.00  0.00     0.170 A 
HETATM   16  O4  UNL     1      28.568  14.074  22.386  1.00  0.00    -0.368 OA
HETATM   17  C20 UNL     1      25.269  12.554  19.935  1.00  0.00     0.030 C 
HETATM   18  C23 UNL     1      24.765  12.768  21.334  1.00  0.00     0.107 C 
ENDROOT
BRANCH   1  19
HETATM   19  O1  UNL     1      26.137  13.275  23.252  1.00  0.00    -0.366 OA
BRANCH  19  20
HETATM   20  C2  UNL     1      25.895  13.361  24.535  1.00  0.00     0.165 C 
HETATM   21  C1  UNL     1      26.992  14.184  25.290  1.00  0.00     0.033 C 
ENDBRANCH  19  20
ENDBRANCH   1  19
BRANCH   1  22
HETATM   22  C4  UNL     1      24.428  14.770  22.579  1.00  0.00     0.164 C 
HETATM   23  C5  UNL     1      24.219  16.018  21.827  1.00  0.00     0.094 C 
HETATM   24  O2  UNL     1      23.743  14.539  23.540  1.00  0.00    -0.295 OA
ENDBRANCH   1  22
BRANCH  18  25
HETATM   25  O7  UNL     1      24.361  11.618  22.026  1.00  0.00    -0.279 OA
BRANCH  25  26
HETATM   26  C24 UNL     1      23.127  11.426  22.641  1.00  0.00     0.259 C 
HETATM   27  C25 UNL     1      21.902  12.173  22.266  1.00  0.00     0.126 C 
HETATM   28  O8  UNL     1      23.057  10.588  23.546  1.00  0.00    -0.265 OA
ENDBRANCH  25  26
ENDBRANCH  18  25
BRANCH  17  29
HETATM   29  C21 UNL     1      24.270  12.056  18.950  1.00  0.00     0.253 A 
HETATM   30  C22 UNL     1      22.993  11.370  19.308  1.00  0.00     0.090 C 
HETATM   31  O5  UNL     1      24.760  11.711  17.689  1.00  0.00    -0.190 OA
HETATM   32  O6  UNL     1      24.111  12.826  17.756  1.00  0.00    -0.190 OA
ENDBRANCH  17  29
BRANCH  13  33
HETATM   33  O3  UNL     1      30.542  10.967  22.251  1.00  0.00    -0.394 OA
ATOM     34  H3  UNL     1      31.142  10.241  22.377  1.00  0.00     0.210 HD
ENDBRANCH  13  33
TORSDOF 7
ENDMDL
MODEL 2
REMARK VINA RESULT: -8.015699278      1.196      1.287
REMARK  7 active torsions:
REMARK  status: ('A' for Active; 'I' for Inactive)
REMARK    1  A    between atoms: C2_2  and  O1_3 
REMARK    2  A    between atoms: O1_3  and  C3_4 
REMARK    3  A    between atoms: C3_4  and  C4_5 
REMARK    4  A    between atoms: C17_19  and  O3_20 
REMARK    5  A    between atoms: C20_25  and  C21_26 
REMARK    6  A    between atoms: C23_30  and  O7_31 
REMARK    7  A    between atoms: O7_31  and  C24_32 
ROOT
HETATM    1  C3  UNL     1      26.123  14.109  22.161  1.00  0.00     0.172 C 
HETATM    2  C6  UNL     1      27.419  14.764  21.741  1.00  0.00     0.094 C 
HETATM    3  C7  UNL     1      28.657  14.103  21.668  1.00  0.00     0.095 A 
HETATM    4  C8  UNL     1      29.669  14.980  20.886  1.00  0.00     0.074 C 
HETATM    5  C9  UNL     1      29.121  14.998  19.500  1.00  0.00    -0.085 C 
HETATM    6  C10 UNL     1      29.088  16.388  18.883  1.00  0.00     0.043 C 
HETATM    7  C11 UNL     1      28.688  13.962  18.808  1.00  0.00    -0.023 C 
HETATM    8  C12 UNL     1      28.613  12.551  19.156  1.00  0.00     0.042 C 
HETATM    9  C13 UNL     1      27.355  12.131  19.946  1.00  0.00     0.004 A 
HETATM   10  C14 UNL     1      27.171  10.664  19.860  1.00  0.00     0.027 A 
HETATM   11  C15 UNL     1      27.497  11.484  21.156  1.00  0.00    -0.007 A 
HETATM   12  C16 UNL     1      28.062  10.623  22.109  1.00  0.00     0.040 A 
HETATM   13  C17 UNL     1      29.587  10.377  21.998  1.00  0.00     0.136 A 
HETATM   14  C18 UNL     1      28.883  11.628  21.625  1.00  0.00     0.031 A 
HETATM   15  C19 UNL     1      29.297  12.968  22.006  1.00  0.00     0.170 A 
HETATM   16  O4  UNL     1      29.066  13.750  23.056  1.00  0.00    -0.368 OA
HETATM   17  C20 UNL     1      26.171  13.029  19.847  1.00  0.00     0.030 C 
HETATM   18  C23 UNL     1      25.417  13.337  21.110  1.00  0.00     0.107 C 
ENDROOT
BRANCH   1  19
HETATM   19  O1  UNL     1      26.387  13.506  23.312  1.00  0.00    -0.366 OA
BRANCH  19  20
HETATM   20  C2  UNL     1      25.794  13.528  24.477  1.00  0.00     0.165 C 
HETATM   21  C1  UNL     1      26.719  14.106  25.601  1.00  0.00     0.033 C 
ENDBRANCH  19  20
ENDBRANCH   1  19
BRANCH   1  22
HETATM   22  C4  UNL     1      25.242  15.352  22.368  1.00  0.00     0.164 C 
HETATM   23  C5  UNL     1      25.707  16.541  23.100  1.00  0.00     0.094 C 
HETATM   24  O2  UNL     1      24.130  15.338  21.909  1.00  0.00    -0.295 OA
ENDBRANCH   1  22
BRANCH  18  25
HETATM   25  O7  UNL     1      24.627  12.300  21.625  1.00  0.00    -0.279 OA
BRANCH  25  26
HETATM   26  C24 UNL     1      23.239  12.302  21.723  1.00  0.00     0.259 C 
HETATM   27  C25 UNL     1      22.347  11.695  20.706  1.00  0.00     0.126 C 
HETATM   28  O8  UNL     1      22.731  12.839  22.713  1.00  0.00    -0.265 OA
ENDBRANCH  25  26
ENDBRANCH  18  25
BRANCH  17  29
HETATM   29  C21 UNL     1      25.342  12.776  18.637  1.00  0.00     0.253 A 
HETATM   30  C22 UNL     1      24.720  11.464  18.292  1.00  0.00     0.090 C 
HETATM   31  O5  UNL     1      25.598  13.587  17.529  1.00  0.00    -0.190 OA
HETATM   32  O6  UNL     1      24.520  13.856  18.188  1.00  0.00    -0.190 OA
ENDBRANCH  17  29
BRANCH  13  33
HETATM   33  O3  UNL     1      30.302  10.283  23.176  1.00  0.00    -0.394 OA
ATOM     34  H3  UNL     1      30.058  10.867  23.884  1.00  0.00     0.210 HD
ENDBRANCH  13  33
TORSDOF 7
ENDMDL
MODEL 3
REMARK VINA RESULT: -7.697818240      1.999      4.026
REMARK  7 active torsions:
REMARK  status: ('A' for Active; 'I' for Inactive)
REMARK    1  A    between atoms: C2_2  and  O1_3 
REMARK    2  A    between atoms: O1_3  and  C3_4 
REMARK    3  A    between atoms: C3_4  and  C4_5 
REMARK    4  A    between atoms: C17_19  and  O3_20 
REMARK    5  A    between atoms: C20_25  and  C21_26 
REMARK    6  A    between atoms: C23_30  and  O7_31 
REMARK    7  A    between atoms: O7_31  and  C24_32 
ROOT
HETATM    1  C3  UNL     1      27.770  13.929  22.275  1.00  0.00     0.172 C 
HETATM    2  C6  UNL     1      28.564  12.913  21.487  1.00  0.00     0.094 C 
HETATM    3  C7  UNL     1      28.055  11.683  21.033  1.00  0.00     0.095 A 
HETATM    4  C8  UNL     1      29.024  11.072  19.989  1.00  0.00     0.074 C 
HETATM    5  C9  UNL     1      28.938  12.013  18.836  1.00  0.00    -0.085 C 
HETATM    6  C10 UNL     1      30.295  12.402  18.272  1.00  0.00     0.043 C 
HETATM    7  C11 UNL     1      27.838  12.504  18.299  1.00  0.00    -0.023 C 
HETATM    8  C12 UNL     1      26.439  12.296  18.640  1.00  0.00     0.042 C 
HETATM    9  C13 UNL     1      25.893  13.193  19.771  1.00  0.00     0.004 A 
HETATM   10  C14 UNL     1      24.412  13.213  19.730  1.00  0.00     0.027 A 
HETATM   11  C15 UNL     1      25.301  12.612  20.873  1.00  0.00    -0.007 A 
HETATM   12  C16 UNL     1      24.542  11.684  21.601  1.00  0.00     0.040 A 
HETATM   13  C17 UNL     1      24.479  10.246  21.028  1.00  0.00     0.136 A 
HETATM   14  C18 UNL     1      25.624  11.178  20.900  1.00  0.00     0.031 A 
HETATM   15  C19 UNL     1      27.015  10.836  21.149  1.00  0.00     0.170 A 
HETATM   16  O4  UNL     1      27.793  10.832  22.228  1.00  0.00    -0.368 OA
HETATM   17  C20 UNL     1      26.638  14.453  20.046  1.00  0.00     0.030 C 
HETATM   18  C23 UNL     1      26.889  14.820  21.481  1.00  0.00     0.107 C 
ENDROOT
BRANCH   1  19
HETATM   19  O1  UNL     1      27.236  13.255  23.285  1.00  0.00    -0.366 OA
BRANCH  19  20
HETATM   20  C2  UNL     1      26.947  13.591  24.515  1.00  0.00     0.165 C 
HETATM   21  C1  UNL     1      25.433  13.367  24.849  1.00  0.00     0.033 C 
ENDBRANCH  19  20
ENDBRANCH   1  19
BRANCH   1  22
HETATM   22  C4  UNL     1      28.903  14.852  22.753  1.00  0.00     0.164 C 
HETATM   23  C5  UNL     1      29.247  16.106  22.062  1.00  0.00     0.094 C 
HETATM   24  O2  UNL     1      29.525  14.525  23.727  1.00  0.00    -0.295 OA
ENDBRANCH   1  22
BRANCH  18  25
HETATM   25  O7  UNL     1      25.779  15.282  22.202  1.00  0.00    -0.279 OA
BRANCH  25  26
HETATM   26  C24 UNL     1      25.606  16.571  22.697  1.00  0.00     0.259 C 
HETATM   27  C25 UNL     1      24.690  16.900  23.816  1.00  0.00     0.126 C 
HETATM   28  O8  UNL     1      26.251  17.484  22.171  1.00  0.00    -0.265 OA
ENDBRANCH  25  26
ENDBRANCH  18  25
BRANCH  17  29
HETATM   29  C21 UNL     1      26.253  15.572  19.144  1.00  0.00     0.253 A 
HETATM   30  C22 UNL     1      24.947  16.293  19.193  1.00  0.00     0.090 C 
HETATM   31  O5  UNL     1      26.861  15.592  17.886  1.00  0.00    -0.190 OA
HETATM   32  O6  UNL     1      27.301  16.455  18.739  1.00  0.00    -0.190 OA
ENDBRANCH  17  29
BRANCH  13  33
HETATM   33  O3  UNL     1      24.504   9.201  21.932  1.00  0.00    -0.394 OA
ATOM     34  H3  UNL     1      25.194   8.555  21.834  1.00  0.00     0.210 HD
ENDBRANCH  13  33
TORSDOF 7
ENDMDL
MODEL 4
REMARK VINA RESULT: -7.675084623      1.891      5.052
REMARK  7 active torsions:
REMARK  status: ('A' for Active; 'I' for Inactive)
REMARK    1  A    between atoms: C2_2  and  O1_3 
REMARK    2  A    between atoms: O1_3  and  C3_4 
REMARK    3  A    between atoms: C3_4  and  C4_5 
REMARK    4  A    between atoms: C17_19  and  O3_20 
REMARK    5  A    between atoms: C20_25  and  C21_26 
REMARK    6  A    between atoms: C23_30  and  O7_31 
REMARK    7  A    between atoms: O7_31  and  C24_32 
ROOT
HETATM    1  C3  UNL     1      24.209  11.262  21.482  1.00  0.00     0.172 C 
HETATM    2  C6  UNL     1      25.615  10.816  21.152  1.00  0.00     0.094 C 
HETATM    3  C7  UNL     1      26.458  11.457  20.227  1.00  0.00     0.095 A 
HETATM    4  C8  UNL     1      27.909  10.941  20.401  1.00  0.00     0.074 C 
HETATM    5  C9  UNL     1      28.303  11.445  21.747  1.00  0.00    -0.085 C 
HETATM    6  C10 UNL     1      28.973  10.391  22.613  1.00  0.00     0.043 C 
HETATM    7  C11 UNL     1      28.126  12.665  22.217  1.00  0.00    -0.023 C 
HETATM    8  C12 UNL     1      27.525  13.841  21.605  1.00  0.00     0.042 C 
HETATM    9  C13 UNL     1      25.988  13.931  21.714  1.00  0.00     0.004 A 
HETATM   10  C14 UNL     1      25.544  15.322  21.467  1.00  0.00     0.027 A 
HETATM   11  C15 UNL     1      25.233  14.075  20.569  1.00  0.00    -0.007 A 
HETATM   12  C16 UNL     1      24.904  14.514  19.278  1.00  0.00     0.040 A 
HETATM   13  C17 UNL     1      26.089  14.786  18.319  1.00  0.00     0.136 A 
HETATM   14  C18 UNL     1      26.064  13.767  19.396  1.00  0.00     0.031 A 
HETATM   15  C19 UNL     1      26.482  12.383  19.250  1.00  0.00     0.170 A 
HETATM   16  O4  UNL     1      25.874  11.262  18.871  1.00  0.00    -0.368 OA
HETATM   17  C20 UNL     1      25.345  13.135  22.796  1.00  0.00     0.030 C 
HETATM   18  C23 UNL     1      24.095  12.373  22.459  1.00  0.00     0.107 C 
ENDROOT
BRANCH   1  19
HETATM   19  O1  UNL     1      23.594  11.388  20.314  1.00  0.00    -0.366 OA
BRANCH  19  20
HETATM   20  C2  UNL     1      22.748  10.622  19.675  1.00  0.00     0.165 C 
HETATM   21  C1  UNL     1      21.281  11.165  19.757  1.00  0.00     0.033 C 
ENDBRANCH  19  20
ENDBRANCH   1  19
BRANCH   1  22
HETATM   22  C4  UNL     1      23.705  10.032  22.253  1.00  0.00     0.164 C 
HETATM   23  C5  UNL     1      22.746  10.133  23.365  1.00  0.00     0.094 C 
HETATM   24  O2  UNL     1      24.118   8.952  21.927  1.00  0.00    -0.295 OA
ENDBRANCH   1  22
BRANCH  18  25
HETATM   25  O7  UNL     1      22.933  13.138  22.289  1.00  0.00    -0.279 OA
BRANCH  25  26
HETATM   26  C24 UNL     1      21.810  13.111  23.110  1.00  0.00     0.259 C 
HETATM   27  C25 UNL     1      21.772  13.718  24.463  1.00  0.00     0.126 C 
HETATM   28  O8  UNL     1      20.796  12.550  22.683  1.00  0.00    -0.265 OA
ENDBRANCH  25  26
ENDBRANCH  18  25
BRANCH  17  29
HETATM   29  C21 UNL     1      25.353  13.823  24.116  1.00  0.00     0.253 A 
HETATM   30  C22 UNL     1      24.884  15.221  24.348  1.00  0.00     0.090 C 
HETATM   31  O5  UNL     1      26.311  13.391  25.036  1.00  0.00    -0.190 OA
HETATM   32  O6  UNL     1      25.098  13.009  25.263  1.00  0.00    -0.190 OA
ENDBRANCH  17  29
BRANCH  13  33
HETATM   33  O3  UNL     1      25.928  14.431  16.994  1.00  0.00    -0.394 OA
ATOM     34  H3  UNL     1      25.138  14.723  16.555  1.00  0.00     0.210 HD
ENDBRANCH  13  33
TORSDOF 7
ENDMDL
MODEL 5
REMARK VINA RESULT: -7.624065676      1.687      5.067
REMARK  7 active torsions:
REMARK  status: ('A' for Active; 'I' for Inactive)
REMARK    1  A    between atoms: C2_2  and  O1_3 
REMARK    2  A    between atoms: O1_3  and  C3_4 
REMARK    3  A    between atoms: C3_4  and  C4_5 
REMARK    4  A    between atoms: C17_19  and  O3_20 
REMARK    5  A    between atoms: C20_25  and  C21_26 
REMARK    6  A    between atoms: C23_30  and  O7_31 
REMARK    7  A    between atoms: O7_31  and  C24_32 
ROOT
HETATM    1  C3  UNL     1      24.216  11.872  21.777  1.00  0.00     0.172 C 
HETATM    2  C6  UNL     1      25.068  11.518  20.580  1.00  0.00     0.094 C 
HETATM    3  C7  UNL     1      25.412  12.416  19.555  1.00  0.00     0.095 A 
HETATM    4  C8  UNL     1      26.553  11.813  18.696  1.00  0.00     0.074 C 
HETATM    5  C9  UNL     1      27.714  11.775  19.629  1.00  0.00    -0.085 C 
HETATM    6  C10 UNL     1      28.460  10.451  19.611  1.00  0.00     0.043 C 
HETATM    7  C11 UNL     1      28.121  12.747  20.424  1.00  0.00    -0.023 C 
HETATM    8  C12 UNL     1      27.596  14.088  20.629  1.00  0.00     0.042 C 
HETATM    9  C13 UNL     1      26.433  14.196  21.638  1.00  0.00     0.004 A 
HETATM   10  C14 UNL     1      26.283  15.599  22.089  1.00  0.00     0.027 A 
HETATM   11  C15 UNL     1      25.246  14.779  21.247  1.00  0.00    -0.007 A 
HETATM   12  C16 UNL     1      24.398  15.671  20.574  1.00  0.00     0.040 A 
HETATM   13  C17 UNL     1      24.911  16.223  19.222  1.00  0.00     0.136 A 
HETATM   14  C18 UNL     1      25.216  14.885  19.780  1.00  0.00     0.031 A 
HETATM   15  C19 UNL     1      25.137  13.632  19.047  1.00  0.00     0.170 A 
HETATM   16  O4  UNL     1      24.168  12.753  18.809  1.00  0.00    -0.368 OA
HETATM   17  C20 UNL     1      26.296  13.088  22.624  1.00  0.00     0.030 C 
HETATM   18  C23 UNL     1      24.917  12.554  22.892  1.00  0.00     0.107 C 
ENDROOT
BRANCH   1  19
HETATM   19  O1  UNL     1      23.125  12.439  21.281  1.00  0.00    -0.366 OA
BRANCH  19  20
HETATM   20  C2  UNL     1      21.863  12.099  21.308  1.00  0.00     0.165 C 
HETATM   21  C1  UNL     1      21.457  11.235  20.065  1.00  0.00     0.033 C 
ENDBRANCH  19  20
ENDBRANCH   1  19
BRANCH   1  22
HETATM   22  C4  UNL     1      23.918  10.467  22.327  1.00  0.00     0.164 C 
HETATM   23  C5  UNL     1      24.407   9.241  21.676  1.00  0.00     0.094 C 
HETATM   24  O2  UNL     1      23.258  10.381  23.328  1.00  0.00    -0.295 OA
ENDBRANCH   1  22
BRANCH  18  25
HETATM   25  O7  UNL     1      24.075  13.376  23.652  1.00  0.00    -0.279 OA
BRANCH  25  26
HETATM   26  C24 UNL     1      23.275  12.967  24.715  1.00  0.00     0.259 C 
HETATM   27  C25 UNL     1      21.830  13.281  24.818  1.00  0.00     0.126 C 
HETATM   28  O8  UNL     1      23.805  12.308  25.616  1.00  0.00    -0.265 OA
ENDBRANCH  25  26
ENDBRANCH  18  25
BRANCH  17  29
HETATM   29  C21 UNL     1      27.176  13.248  23.814  1.00  0.00     0.253 A 
HETATM   30  C22 UNL     1      26.724  13.749  25.145  1.00  0.00     0.090 C 
HETATM   31  O5  UNL     1      28.531  13.475  23.557  1.00  0.00    -0.190 OA
HETATM   32  O6  UNL     1      28.225  12.289  23.967  1.00  0.00    -0.190 OA
ENDBRANCH  17  29
BRANCH  13  33
HETATM   33  O3  UNL     1      23.986  16.382  18.208  1.00  0.00    -0.394 OA
ATOM     34  H3  UNL     1      23.708  17.268  18.005  1.00  0.00     0.210 HD
ENDBRANCH  13  33
TORSDOF 7
ENDMDL
