MODEL 1
REMARK VINA RESULT: -8.258517423      0.000      0.000
REMARK  8 active torsions:
REMARK  status: ('A' for Active; 'I' for Inactive)
REMARK    1  A    between atoms: C2_2  and  C4_4 
REMARK    2  A    between atoms: C6_6  and  C7_7 
REMARK    3  A    between atoms: C6_6  and  C9_11 
REMARK    4  A    between atoms: C7_7  and  O2_9 
REMARK    5  A    between atoms: C11_14  and  C12_15 
REMARK    6  A    between atoms: C11_14  and  C19_24 
REMARK    7  A    between atoms: C20_25  and  O6_26 
REMARK    8  A    between atoms: C25_33  and  O8_34 
ROOT
HETATM    1  C4  UNL     1      24.740  14.751  22.847  1.00  0.00    -0.058 C 
HETATM    2  C5  UNL     1      23.315  14.216  22.844  1.00  0.00     0.063 C 
HETATM    3  C6  UNL     1      23.127  12.990  23.698  1.00  0.00     0.127 C 
HETATM    4  C19 UNL     1      25.727  13.681  23.059  1.00  0.00     0.058 C 
HETATM    5  C20 UNL     1      27.129  14.200  23.337  1.00  0.00     0.166 C 
HETATM    6  C21 UNL     1      27.120  14.799  24.732  1.00  0.00     0.187 A 
HETATM    7  O7  UNL     1      27.494  14.019  25.789  1.00  0.00    -0.366 OA
HETATM    8  C22 UNL     1      26.063  14.301  25.393  1.00  0.00     0.094 A 
HETATM    9  C23 UNL     1      25.343  14.696  26.633  1.00  0.00     0.049 C 
HETATM   10  C24 UNL     1      25.487  13.180  24.498  1.00  0.00     0.071 C 
HETATM   11  C25 UNL     1      24.049  13.094  24.867  1.00  0.00     0.150 C 
ENDROOT
BRANCH   3  12
HETATM   12  C7  UNL     1      21.734  12.990  24.232  1.00  0.00     0.275 C 
HETATM   13  O1  UNL     1      20.844  13.717  23.714  1.00  0.00    -0.264 OA
BRANCH  12  14
HETATM   14  O2  UNL     1      21.442  12.185  25.295  1.00  0.00    -0.326 OA
HETATM   15  C8  UNL     1      20.188  12.336  25.968  1.00  0.00     0.213 C 
ENDBRANCH  12  14
ENDBRANCH   3  12
BRANCH   3  16
HETATM   16  C9  UNL     1      23.412  11.706  22.905  1.00  0.00     0.284 C 
HETATM   17  O3  UNL     1      22.509  10.804  23.290  1.00  0.00    -0.356 OA
HETATM   18  C10 UNL     1      21.337  10.649  22.680  1.00  0.00     0.214 C 
HETATM   19  C11 UNL     1      20.919  11.719  21.691  1.00  0.00     0.118 C 
HETATM   20  O4  UNL     1      21.682  11.510  20.588  1.00  0.00    -0.337 OA
HETATM   21  C16 UNL     1      23.000  11.255  20.655  1.00  0.00     0.161 C 
HETATM   22  C17 UNL     1      23.602  11.697  19.291  1.00  0.00     0.078 C 
HETATM   23  C18 UNL     1      23.496   9.836  20.689  1.00  0.00     0.078 C 
HETATM   24  O5  UNL     1      23.569  12.059  21.604  1.00  0.00    -0.325 OA
BRANCH  19  25
HETATM   25  C12 UNL     1      19.544  11.261  21.407  1.00  0.00     0.016 C 
HETATM   26  C13 UNL     1      19.072  10.609  20.392  1.00  0.00    -0.088 C 
HETATM   27  C14 UNL     1      17.584  10.245  20.328  1.00  0.00     0.042 C 
HETATM   28  C15 UNL     1      19.831  10.128  19.210  1.00  0.00     0.042 C 
ENDBRANCH  19  25
ENDBRANCH   3  16
BRANCH  11  29
HETATM   29  O8  UNL     1      23.901  11.963  25.704  1.00  0.00    -0.394 OA
ATOM     30  H8  UNL     1      24.573  11.965  26.376  1.00  0.00     0.210 HD
ENDBRANCH  11  29
BRANCH   1  31
HETATM   31  C2  UNL     1      24.951  15.886  21.971  1.00  0.00    -0.068 C 
HETATM   32  C1  UNL     1      25.328  17.073  22.416  1.00  0.00     0.018 C 
HETATM   33  C3  UNL     1      24.832  15.950  20.490  1.00  0.00     0.047 C 
ENDBRANCH   1  31
BRANCH   5  34
HETATM   34  O6  UNL     1      28.023  13.100  23.451  1.00  0.00    -0.392 OA
ATOM     35  H6  UNL     1      28.381  13.076  24.331  1.00  0.00     0.210 HD
ENDBRANCH   5  34
TORSDOF 8
ENDMDL
MODEL 2
REMARK VINA RESULT: -8.237021209      1.589      2.184
REMARK  8 active torsions:
REMARK  status: ('A' for Active; 'I' for Inactive)
REMARK    1  A    between atoms: C2_2  and  C4_4 
REMARK    2  A    between atoms: C6_6  and  C7_7 
REMARK    3  A    between atoms: C6_6  and  C9_11 
REMARK    4  A    between atoms: C7_7  and  O2_9 
REMARK    5  A    between atoms: C11_14  and  C12_15 
REMARK    6  A    between atoms: C11_14  and  C19_24 
REMARK    7  A    between atoms: C20_25  and  O6_26 
REMARK    8  A    between atoms: C25_33  and  O8_34 
ROOT
HETATM    1  C4  UNL     1      24.411  14.548  23.267  1.00  0.00    -0.058 C 
HETATM    2  C5  UNL     1      22.959  14.430  23.712  1.00  0.00     0.063 C 
HETATM    3  C6  UNL     1      22.800  13.959  25.134  1.00  0.00     0.127 C 
HETATM    4  C19 UNL     1      25.279  13.590  23.966  1.00  0.00     0.058 C 
HETATM    5  C20 UNL     1      26.761  13.852  23.754  1.00  0.00     0.166 C 
HETATM    6  C21 UNL     1      27.113  15.108  24.532  1.00  0.00     0.187 A 
HETATM    7  O7  UNL     1      27.596  14.985  25.804  1.00  0.00    -0.366 OA
HETATM    8  C22 UNL     1      26.161  15.306  25.457  1.00  0.00     0.094 A 
HETATM    9  C23 UNL     1      25.764  16.467  26.297  1.00  0.00     0.049 C 
HETATM   10  C24 UNL     1      25.279  14.036  25.442  1.00  0.00     0.071 C 
HETATM   11  C25 UNL     1      23.947  14.486  25.929  1.00  0.00     0.150 C 
ENDROOT
BRANCH   3  12
HETATM   12  C7  UNL     1      21.557  14.559  25.698  1.00  0.00     0.275 C 
HETATM   13  O1  UNL     1      21.284  14.451  26.924  1.00  0.00    -0.264 OA
BRANCH  12  14
HETATM   14  O2  UNL     1      20.717  15.231  24.858  1.00  0.00    -0.326 OA
HETATM   15  C8  UNL     1      19.353  15.435  25.241  1.00  0.00     0.213 C 
ENDBRANCH  12  14
ENDBRANCH   3  12
BRANCH   3  16
HETATM   16  C9  UNL     1      22.755  12.425  25.214  1.00  0.00     0.284 C 
HETATM   17  O3  UNL     1      21.586  12.100  25.766  1.00  0.00    -0.356 OA
HETATM   18  C10 UNL     1      20.489  11.867  25.050  1.00  0.00     0.214 C 
HETATM   19  C11 UNL     1      20.519  12.252  23.584  1.00  0.00     0.118 C 
HETATM   20  O4  UNL     1      21.286  11.310  22.978  1.00  0.00    -0.337 OA
HETATM   21  C16 UNL     1      22.450  10.880  23.496  1.00  0.00     0.161 C 
HETATM   22  C17 UNL     1      23.290  10.345  22.302  1.00  0.00     0.078 C 
HETATM   23  C18 UNL     1      22.482   9.662  24.377  1.00  0.00     0.078 C 
HETATM   24  O5  UNL     1      23.141  11.944  24.006  1.00  0.00    -0.325 OA
BRANCH  19  25
HETATM   25  C12 UNL     1      19.105  12.001  23.240  1.00  0.00     0.016 C 
HETATM   26  C13 UNL     1      18.580  11.526  22.154  1.00  0.00    -0.088 C 
HETATM   27  C14 UNL     1      17.060  11.358  22.038  1.00  0.00     0.042 C 
HETATM   28  C15 UNL     1      19.301  11.086  20.933  1.00  0.00     0.042 C 
ENDBRANCH  19  25
ENDBRANCH   3  16
BRANCH  11  29
HETATM   29  O8  UNL     1      23.835  14.074  27.277  1.00  0.00    -0.394 OA
ATOM     30  H8  UNL     1      23.809  14.832  27.849  1.00  0.00     0.210 HD
ENDBRANCH  11  29
BRANCH   1  31
HETATM   31  C2  UNL     1      24.576  14.929  21.879  1.00  0.00    -0.068 C 
HETATM   32  C1  UNL     1      24.620  16.190  21.483  1.00  0.00     0.018 C 
HETATM   33  C3  UNL     1      24.755  14.053  20.690  1.00  0.00     0.047 C 
ENDBRANCH   1  31
BRANCH   5  34
HETATM   34  O6  UNL     1      27.516  12.836  24.401  1.00  0.00    -0.392 OA
ATOM     35  H6  UNL     1      27.628  13.063  25.317  1.00  0.00     0.210 HD
ENDBRANCH   5  34
TORSDOF 8
ENDMDL
MODEL 3
REMARK VINA RESULT: -8.215332328      2.540      6.161
REMARK  8 active torsions:
REMARK  status: ('A' for Active; 'I' for Inactive)
REMARK    1  A    between atoms: C2_2  and  C4_4 
REMARK    2  A    between atoms: C6_6  and  C7_7 
REMARK    3  A    between atoms: C6_6  and  C9_11 
REMARK    4  A    between atoms: C7_7  and  O2_9 
REMARK    5  A    between atoms: C11_14  and  C12_15 
REMARK    6  A    between atoms: C11_14  and  C19_24 
REMARK    7  A    between atoms: C20_25  and  O6_26 
REMARK    8  A    between atoms: C25_33  and  O8_34 
ROOT
HETATM    1  C4  UNL     1      20.687  12.141  23.303  1.00  0.00    -0.058 C 
HETATM    2  C5  UNL     1      20.534  13.470  24.031  1.00  0.00     0.063 C 
HETATM    3  C6  UNL     1      21.819  13.986  24.623  1.00  0.00     0.127 C 
HETATM    4  C19 UNL     1      21.770  11.326  23.871  1.00  0.00     0.058 C 
HETATM    5  C20 UNL     1      22.133  10.123  23.016  1.00  0.00     0.166 C 
HETATM    6  C21 UNL     1      22.848  10.646  21.783  1.00  0.00     0.187 A 
HETATM    7  O7  UNL     1      24.213  10.710  21.787  1.00  0.00    -0.366 OA
HETATM    8  C22 UNL     1      23.296  11.882  22.053  1.00  0.00     0.094 A 
HETATM    9  C23 UNL     1      23.782  13.009  21.214  1.00  0.00     0.049 C 
HETATM   10  C24 UNL     1      23.070  12.097  23.567  1.00  0.00     0.071 C 
HETATM   11  C25 UNL     1      22.941  13.570  23.731  1.00  0.00     0.150 C 
ENDROOT
BRANCH   3  12
HETATM   12  C7  UNL     1      21.780  15.477  24.620  1.00  0.00     0.275 C 
HETATM   13  O1  UNL     1      20.711  16.095  24.368  1.00  0.00    -0.264 OA
BRANCH  12  14
HETATM   14  O2  UNL     1      22.929  16.161  24.896  1.00  0.00    -0.326 OA
HETATM   15  C8  UNL     1      22.847  17.484  25.437  1.00  0.00     0.213 C 
ENDBRANCH  12  14
ENDBRANCH   3  12
BRANCH   3  16
HETATM   16  C9  UNL     1      22.038  13.445  26.044  1.00  0.00     0.284 C 
HETATM   17  O3  UNL     1      21.894  14.475  26.878  1.00  0.00    -0.356 OA
HETATM   18  C10 UNL     1      20.727  14.802  27.427  1.00  0.00     0.214 C 
HETATM   19  C11 UNL     1      19.483  14.140  26.868  1.00  0.00     0.118 C 
HETATM   20  O4  UNL     1      19.509  12.866  27.337  1.00  0.00    -0.337 OA
HETATM   21  C16 UNL     1      20.625  12.116  27.336  1.00  0.00     0.161 C 
HETATM   22  C17 UNL     1      20.155  10.634  27.327  1.00  0.00     0.078 C 
HETATM   23  C18 UNL     1      21.513  12.080  28.549  1.00  0.00     0.078 C 
HETATM   24  O5  UNL     1      21.302  12.311  26.165  1.00  0.00    -0.325 OA
BRANCH  19  25
HETATM   25  C12 UNL     1      18.454  14.895  27.610  1.00  0.00     0.016 C 
HETATM   26  C13 UNL     1      17.502  15.659  27.176  1.00  0.00    -0.088 C 
HETATM   27  C14 UNL     1      16.547  16.344  28.161  1.00  0.00     0.042 C 
HETATM   28  C15 UNL     1      17.186  15.974  25.759  1.00  0.00     0.042 C 
ENDBRANCH  19  25
ENDBRANCH   3  16
BRANCH  11  29
HETATM   29  O8  UNL     1      24.171  14.041  24.246  1.00  0.00    -0.394 OA
ATOM     30  H8  UNL     1      24.369  14.898  23.886  1.00  0.00     0.210 HD
ENDBRANCH  11  29
BRANCH   1  31
HETATM   31  C2  UNL     1      19.445  11.597  22.792  1.00  0.00    -0.068 C 
HETATM   32  C1  UNL     1      18.373  11.428  23.548  1.00  0.00     0.018 C 
HETATM   33  C3  UNL     1      19.117  11.176  21.403  1.00  0.00     0.047 C 
ENDBRANCH   1  31
BRANCH   5  34
HETATM   34  O6  UNL     1      23.130   9.356  23.680  1.00  0.00    -0.392 OA
ATOM     35  H6  UNL     1      22.756   8.960  24.458  1.00  0.00     0.210 HD
ENDBRANCH   5  34
TORSDOF 8
ENDMDL
MODEL 4
REMARK VINA RESULT: -8.056769066      1.319      1.602
REMARK  8 active torsions:
REMARK  status: ('A' for Active; 'I' for Inactive)
REMARK    1  A    between atoms: C2_2  and  C4_4 
REMARK    2  A    between atoms: C6_6  and  C7_7 
REMARK    3  A    between atoms: C6_6  and  C9_11 
REMARK    4  A    between atoms: C7_7  and  O2_9 
REMARK    5  A    between atoms: C11_14  and  C12_15 
REMARK    6  A    between atoms: C11_14  and  C19_24 
REMARK    7  A    between atoms: C20_25  and  O6_26 
REMARK    8  A    between atoms: C25_33  and  O8_34 
ROOT
HETATM    1  C4  UNL     1      25.227  14.581  21.589  1.00  0.00    -0.058 C 
HETATM    2  C5  UNL     1      23.871  14.192  22.162  1.00  0.00     0.063 C 
HETATM    3  C6  UNL     1      23.960  13.352  23.409  1.00  0.00     0.127 C 
HETATM    4  C19 UNL     1      26.257  13.574  21.886  1.00  0.00     0.058 C 
HETATM    5  C20 UNL     1      27.668  14.043  21.571  1.00  0.00     0.166 C 
HETATM    6  C21 UNL     1      28.040  15.083  22.613  1.00  0.00     0.187 A 
HETATM    7  O7  UNL     1      28.716  14.686  23.733  1.00  0.00    -0.366 OA
HETATM    8  C22 UNL     1      27.225  14.928  23.668  1.00  0.00     0.094 A 
HETATM    9  C23 UNL     1      26.876  15.780  24.836  1.00  0.00     0.049 C 
HETATM   10  C24 UNL     1      26.445  13.617  23.416  1.00  0.00     0.071 C 
HETATM   11  C25 UNL     1      25.171  13.777  24.169  1.00  0.00     0.150 C 
ENDROOT
BRANCH   3  12
HETATM   12  C7  UNL     1      22.774  13.646  24.266  1.00  0.00     0.275 C 
HETATM   13  O1  UNL     1      22.688  13.178  25.433  1.00  0.00    -0.264 OA
BRANCH  12  14
HETATM   14  O2  UNL     1      21.781  14.434  23.759  1.00  0.00    -0.326 OA
HETATM   15  C8  UNL     1      20.489  14.421  24.375  1.00  0.00     0.213 C 
ENDBRANCH  12  14
ENDBRANCH   3  12
BRANCH   3  16
HETATM   16  C9  UNL     1      24.037  11.856  23.072  1.00  0.00     0.284 C 
HETATM   17  O3  UNL     1      23.016  11.265  23.692  1.00  0.00    -0.356 OA
HETATM   18  C10 UNL     1      21.825  11.098  23.123  1.00  0.00     0.214 C 
HETATM   19  C11 UNL     1      21.557  11.848  21.833  1.00  0.00     0.118 C 
HETATM   20  O4  UNL     1      22.264  11.190  20.879  1.00  0.00    -0.337 OA
HETATM   21  C16 UNL     1      23.530  10.780  21.068  1.00  0.00     0.161 C 
HETATM   22  C17 UNL     1      24.171  10.673  19.655  1.00  0.00     0.078 C 
HETATM   23  C18 UNL     1      23.809   9.389  21.565  1.00  0.00     0.078 C 
HETATM   24  O5  UNL     1      24.227  11.750  21.733  1.00  0.00    -0.325 OA
BRANCH  19  25
HETATM   25  C12 UNL     1      20.124  11.531  21.662  1.00  0.00     0.016 C 
HETATM   26  C13 UNL     1      19.496  11.022  20.651  1.00  0.00    -0.088 C 
HETATM   27  C14 UNL     1      17.982  10.785  20.718  1.00  0.00     0.042 C 
HETATM   28  C15 UNL     1      20.084  10.602  19.353  1.00  0.00     0.042 C 
ENDBRANCH  19  25
ENDBRANCH   3  16
BRANCH  11  29
HETATM   29  O8  UNL     1      25.292  13.018  25.356  1.00  0.00    -0.394 OA
ATOM     30  H8  UNL     1      26.114  13.216  25.788  1.00  0.00     0.210 HD
ENDBRANCH  11  29
BRANCH   1  31
HETATM   31  C2  UNL     1      25.156  15.326  20.349  1.00  0.00    -0.068 C 
HETATM   32  C1  UNL     1      25.162  16.648  20.306  1.00  0.00     0.018 C 
HETATM   33  C3  UNL     1      25.102  14.807  18.955  1.00  0.00     0.047 C 
ENDBRANCH   1  31
BRANCH   5  34
HETATM   34  O6  UNL     1      28.582  12.982  21.818  1.00  0.00    -0.392 OA
ATOM     35  H6  UNL     1      28.674  12.457  21.032  1.00  0.00     0.210 HD
ENDBRANCH   5  34
TORSDOF 8
ENDMDL
MODEL 5
REMARK VINA RESULT: -8.041922099      2.260      6.437
REMARK  8 active torsions:
REMARK  status: ('A' for Active; 'I' for Inactive)
REMARK    1  A    between atoms: C2_2  and  C4_4 
REMARK    2  A    between atoms: C6_6  and  C7_7 
REMARK    3  A    between atoms: C6_6  and  C9_11 
REMARK    4  A    between atoms: C7_7  and  O2_9 
REMARK    5  A    between atoms: C11_14  and  C12_15 
REMARK    6  A    between atoms: C11_14  and  C19_24 
REMARK    7  A    between atoms: C20_25  and  O6_26 
REMARK    8  A    between atoms: C25_33  and  O8_34 
ROOT
HETATM    1  C4  UNL     1      23.470  13.871  22.889  1.00  0.00    -0.058 C 
HETATM    2  C5  UNL     1      24.292  14.056  21.621  1.00  0.00     0.063 C 
HETATM    3  C6  UNL     1      24.689  12.760  20.964  1.00  0.00     0.127 C 
HETATM    4  C19 UNL     1      23.798  12.614  23.577  1.00  0.00     0.058 C 
HETATM    5  C20 UNL     1      22.822  12.262  24.689  1.00  0.00     0.166 C 
HETATM    6  C21 UNL     1      21.520  11.843  24.029  1.00  0.00     0.187 A 
HETATM    7  O7  UNL     1      21.297  10.517  23.787  1.00  0.00    -0.366 OA
HETATM    8  C22 UNL     1      21.785  11.509  22.756  1.00  0.00     0.094 A 
HETATM    9  C23 UNL     1      20.945  11.320  21.544  1.00  0.00     0.049 C 
HETATM   10  C24 UNL     1      23.325  11.492  22.630  1.00  0.00     0.071 C 
HETATM   11  C25 UNL     1      23.597  11.770  21.194  1.00  0.00     0.150 C 
ENDROOT
BRANCH   3  12
HETATM   12  C7  UNL     1      24.782  12.982  19.492  1.00  0.00     0.275 C 
HETATM   13  O1  UNL     1      24.583  14.123  18.996  1.00  0.00    -0.264 OA
BRANCH  12  14
HETATM   14  O2  UNL     1      25.089  11.921  18.690  1.00  0.00    -0.326 OA
HETATM   15  C8  UNL     1      24.364  11.727  17.471  1.00  0.00     0.213 C 
ENDBRANCH  12  14
ENDBRANCH   3  12
BRANCH   3  16
HETATM   16  C9  UNL     1      26.018  12.232  21.525  1.00  0.00     0.284 C 
HETATM   17  O3  UNL     1      26.874  12.175  20.506  1.00  0.00    -0.356 OA
HETATM   18  C10 UNL     1      27.677  13.184  20.179  1.00  0.00     0.214 C 
HETATM   19  C11 UNL     1      27.405  14.528  20.826  1.00  0.00     0.118 C 
HETATM   20  O4  UNL     1      27.841  14.408  22.106  1.00  0.00    -0.337 OA
HETATM   21  C16 UNL     1      27.580  13.329  22.863  1.00  0.00     0.161 C 
HETATM   22  C17 UNL     1      27.659  13.802  24.342  1.00  0.00     0.078 C 
HETATM   23  C18 UNL     1      28.560  12.190  22.921  1.00  0.00     0.078 C 
HETATM   24  O5  UNL     1      26.288  12.931  22.656  1.00  0.00    -0.325 OA
BRANCH  19  25
HETATM   25  C12 UNL     1      28.369  15.357  20.075  1.00  0.00     0.016 C 
HETATM   26  C13 UNL     1      28.167  16.262  19.169  1.00  0.00    -0.088 C 
HETATM   27  C14 UNL     1      29.351  16.994  18.527  1.00  0.00     0.042 C 
HETATM   28  C15 UNL     1      26.856  16.720  18.643  1.00  0.00     0.042 C 
ENDBRANCH  19  25
ENDBRANCH   3  16
BRANCH  11  29
HETATM   29  O8  UNL     1      23.924  10.535  20.586  1.00  0.00    -0.394 OA
ATOM     30  H8  UNL     1      23.979  10.641  19.644  1.00  0.00     0.210 HD
ENDBRANCH  11  29
BRANCH   1  31
HETATM   31  C2  UNL     1      23.144  15.107  23.571  1.00  0.00    -0.068 C 
HETATM   32  C1  UNL     1      24.022  16.080  23.748  1.00  0.00     0.018 C 
HETATM   33  C3  UNL     1      21.841  15.535  24.147  1.00  0.00     0.047 C 
ENDBRANCH   1  31
BRANCH   5  34
HETATM   34  O6  UNL     1      23.261  11.077  25.342  1.00  0.00    -0.392 OA
ATOM     35  H6  UNL     1      23.262  10.358  24.722  1.00  0.00     0.210 HD
ENDBRANCH   5  34
TORSDOF 8
ENDMDL
