MODEL 1
REMARK VINA RESULT: -6.824514490      0.000      0.000
REMARK  4 active torsions:
REMARK  status: ('A' for Active; 'I' for Inactive)
REMARK    1  A    between atoms: C2_2  and  C3_3 
REMARK    2  A    between atoms: C3_3  and  C4_4 
REMARK    3  A    between atoms: C4_4  and  O1_5 
REMARK    4  A    between atoms: C5_9  and  N2_10 
ROOT
HETATM    1  C3  UNL     1      14.296  36.965  73.983  1.00  0.00     0.087 A 
HETATM    2  N1  UNL     1      14.657  36.258  75.180  1.00  0.00    -0.359 N 
ATOM      3  H1  UNL     1      14.504  36.590  76.132  1.00  0.00     0.162 HD
HETATM    4  C5  UNL     1      15.207  35.136  74.857  1.00  0.00     0.118 A 
HETATM    5  C11 UNL     1      15.261  34.994  73.401  1.00  0.00     0.064 A 
HETATM    6  C12 UNL     1      14.705  36.110  72.848  1.00  0.00     0.034 A 
HETATM    7  S1  UNL     1      15.254  34.969  71.614  1.00  0.00    -0.086 SA
ENDROOT
BRANCH   4   8
HETATM    8  N2  UNL     1      15.677  34.201  75.793  1.00  0.00    -0.366 N 
HETATM    9  C6  UNL     1      15.390  34.374  77.183  1.00  0.00     0.124 C 
HETATM   10  C7  UNL     1      16.563  34.113  78.081  1.00  0.00     0.020 C 
HETATM   11  C8  UNL     1      17.195  32.806  77.703  1.00  0.00     0.003 C 
HETATM   12  C9  UNL     1      17.617  32.763  76.255  1.00  0.00     0.020 C 
HETATM   13  C10 UNL     1      16.443  33.076  75.352  1.00  0.00     0.124 C 
ENDBRANCH   4   8
BRANCH   1  14
HETATM   14  C2  UNL     1      14.998  38.296  73.842  1.00  0.00     0.034 C 
HETATM   15  C1  UNL     1      15.198  38.863  75.232  1.00  0.00     0.008 C 
ENDBRANCH   1  14
BRANCH   1  16
HETATM   16  C4  UNL     1      12.785  37.131  73.996  1.00  0.00     0.200 C 
BRANCH  16  17
HETATM   17  O1  UNL     1      12.415  38.395  73.549  1.00  0.00    -0.398 OA
ATOM     18  H1  UNL     1      11.549  38.380  73.157  1.00  0.00     0.209 HD
ENDBRANCH  16  17
ENDBRANCH   1  16
TORSDOF 4
ENDMDL
MODEL 2
REMARK VINA RESULT: -6.751431777      3.099      4.403
REMARK  4 active torsions:
REMARK  status: ('A' for Active; 'I' for Inactive)
REMARK    1  A    between atoms: C2_2  and  C3_3 
REMARK    2  A    between atoms: C3_3  and  C4_4 
REMARK    3  A    between atoms: C4_4  and  O1_5 
REMARK    4  A    between atoms: C5_9  and  N2_10 
ROOT
HETATM    1  C3  UNL     1      15.538  33.901  76.526  1.00  0.00     0.087 A 
HETATM    2  N1  UNL     1      16.780  33.314  76.109  1.00  0.00    -0.359 N 
ATOM      3  H1  UNL     1      17.532  33.014  76.730  1.00  0.00     0.162 HD
HETATM    4  C5  UNL     1      16.794  33.227  74.821  1.00  0.00     0.118 A 
HETATM    5  C11 UNL     1      15.547  33.754  74.261  1.00  0.00     0.064 A 
HETATM    6  C12 UNL     1      14.765  34.172  75.297  1.00  0.00     0.034 A 
HETATM    7  S1  UNL     1      13.979  34.428  73.733  1.00  0.00    -0.086 SA
ENDROOT
BRANCH   4   8
HETATM    8  N2  UNL     1      17.866  32.696  74.086  1.00  0.00    -0.366 N 
HETATM    9  C6  UNL     1      19.167  32.618  74.676  1.00  0.00     0.124 C 
HETATM   10  C7  UNL     1      20.275  33.044  73.757  1.00  0.00     0.020 C 
HETATM   11  C8  UNL     1      20.114  32.355  72.435  1.00  0.00     0.003 C 
HETATM   12  C9  UNL     1      18.771  32.619  71.802  1.00  0.00     0.020 C 
HETATM   13  C10 UNL     1      17.654  32.235  72.749  1.00  0.00     0.124 C 
ENDBRANCH   4   8
BRANCH   1  14
HETATM   14  C2  UNL     1      15.715  35.207  77.265  1.00  0.00     0.034 C 
HETATM   15  C1  UNL     1      15.066  36.298  76.440  1.00  0.00     0.008 C 
ENDBRANCH   1  14
BRANCH   1  16
HETATM   16  C4  UNL     1      14.819  32.871  77.382  1.00  0.00     0.200 C 
BRANCH  16  17
HETATM   17  O1  UNL     1      14.612  33.345  78.673  1.00  0.00    -0.398 OA
ATOM     18  H1  UNL     1      14.423  34.276  78.670  1.00  0.00     0.209 HD
ENDBRANCH  16  17
ENDBRANCH   1  16
TORSDOF 4
ENDMDL
MODEL 3
REMARK VINA RESULT: -6.661858874      3.123      4.271
REMARK  4 active torsions:
REMARK  status: ('A' for Active; 'I' for Inactive)
REMARK    1  A    between atoms: C2_2  and  C3_3 
REMARK    2  A    between atoms: C3_3  and  C4_4 
REMARK    3  A    between atoms: C4_4  and  O1_5 
REMARK    4  A    between atoms: C5_9  and  N2_10 
ROOT
HETATM    1  C3  UNL     1      14.702  34.419  73.926  1.00  0.00     0.087 A 
HETATM    2  N1  UNL     1      15.845  33.982  73.174  1.00  0.00    -0.359 N 
ATOM      3  H1  UNL     1      15.987  34.128  72.174  1.00  0.00     0.162 HD
HETATM    4  C5  UNL     1      16.663  33.373  73.965  1.00  0.00     0.118 A 
HETATM    5  C11 UNL     1      16.132  33.352  75.330  1.00  0.00     0.064 A 
HETATM    6  C12 UNL     1      14.927  33.990  75.322  1.00  0.00     0.034 A 
HETATM    7  S1  UNL     1      15.353  33.407  76.936  1.00  0.00    -0.086 SA
ENDROOT
BRANCH   4   8
HETATM    8  N2  UNL     1      17.885  32.821  73.550  1.00  0.00    -0.366 N 
HETATM    9  C6  UNL     1      18.953  32.661  74.488  1.00  0.00     0.124 C 
HETATM   10  C7  UNL     1      20.295  33.069  73.954  1.00  0.00     0.020 C 
HETATM   11  C8  UNL     1      20.506  32.437  72.610  1.00  0.00     0.003 C 
HETATM   12  C9  UNL     1      19.417  32.786  71.627  1.00  0.00     0.020 C 
HETATM   13  C10 UNL     1      18.059  32.420  72.188  1.00  0.00     0.124 C 
ENDBRANCH   4   8
BRANCH   1  14
HETATM   14  C2  UNL     1      13.406  33.803  73.450  1.00  0.00     0.034 C 
HETATM   15  C1  UNL     1      13.227  34.170  71.992  1.00  0.00     0.008 C 
ENDBRANCH   1  14
BRANCH   1  16
HETATM   16  C4  UNL     1      14.662  35.936  73.842  1.00  0.00     0.200 C 
BRANCH  16  17
HETATM   17  O1  UNL     1      15.538  36.410  72.872  1.00  0.00    -0.398 OA
ATOM     18  H1  UNL     1      15.329  37.304  72.628  1.00  0.00     0.209 HD
ENDBRANCH  16  17
ENDBRANCH   1  16
TORSDOF 4
ENDMDL
MODEL 4
REMARK VINA RESULT: -6.608915047      2.038      2.537
REMARK  4 active torsions:
REMARK  status: ('A' for Active; 'I' for Inactive)
REMARK    1  A    between atoms: C2_2  and  C3_3 
REMARK    2  A    between atoms: C3_3  and  C4_4 
REMARK    3  A    between atoms: C4_4  and  O1_5 
REMARK    4  A    between atoms: C5_9  and  N2_10 
ROOT
HETATM    1  C3  UNL     1      14.252  36.107  73.147  1.00  0.00     0.087 A 
HETATM    2  N1  UNL     1      14.665  34.891  73.790  1.00  0.00    -0.359 N 
ATOM      3  H1  UNL     1      14.593  33.955  73.388  1.00  0.00     0.162 HD
HETATM    4  C5  UNL     1      15.142  35.171  74.956  1.00  0.00     0.118 A 
HETATM    5  C11 UNL     1      15.087  36.615  75.196  1.00  0.00     0.064 A 
HETATM    6  C12 UNL     1      14.543  37.205  74.093  1.00  0.00     0.034 A 
HETATM    7  S1  UNL     1      14.955  38.391  75.338  1.00  0.00    -0.086 SA
ENDROOT
BRANCH   4   8
HETATM    8  N2  UNL     1      15.637  34.207  75.849  1.00  0.00    -0.366 N 
HETATM    9  C6  UNL     1      15.361  34.320  77.248  1.00  0.00     0.124 C 
HETATM   10  C7  UNL     1      16.548  34.043  78.123  1.00  0.00     0.020 C 
HETATM   11  C8  UNL     1      17.197  32.763  77.687  1.00  0.00     0.003 C 
HETATM   12  C9  UNL     1      17.604  32.785  76.234  1.00  0.00     0.020 C 
HETATM   13  C10 UNL     1      16.416  33.114  75.356  1.00  0.00     0.124 C 
ENDBRANCH   4   8
BRANCH   1  14
HETATM   14  C2  UNL     1      12.774  36.141  72.831  1.00  0.00     0.034 C 
HETATM   15  C1  UNL     1      12.364  37.592  72.695  1.00  0.00     0.008 C 
ENDBRANCH   1  14
BRANCH   1  16
HETATM   16  C4  UNL     1      15.093  36.261  71.890  1.00  0.00     0.200 C 
BRANCH  16  17
HETATM   17  O1  UNL     1      15.857  35.123  71.655  1.00  0.00    -0.398 OA
ATOM     18  H1  UNL     1      16.660  35.337  71.195  1.00  0.00     0.209 HD
ENDBRANCH  16  17
ENDBRANCH   1  16
TORSDOF 4
ENDMDL
MODEL 5
REMARK VINA RESULT: -6.528372686      2.400      3.477
REMARK  4 active torsions:
REMARK  status: ('A' for Active; 'I' for Inactive)
REMARK    1  A    between atoms: C2_2  and  C3_3 
REMARK    2  A    between atoms: C3_3  and  C4_4 
REMARK    3  A    between atoms: C4_4  and  O1_5 
REMARK    4  A    between atoms: C5_9  and  N2_10 
ROOT
HETATM    1  C3  UNL     1      14.419  34.082  73.571  1.00  0.00     0.087 A 
HETATM    2  N1  UNL     1      14.871  33.308  74.694  1.00  0.00    -0.359 N 
ATOM      3  H1  UNL     1      14.871  32.289  74.750  1.00  0.00     0.162 HD
HETATM    4  C5  UNL     1      15.276  34.109  75.622  1.00  0.00     0.118 A 
HETATM    5  C11 UNL     1      15.129  35.502  75.194  1.00  0.00     0.064 A 
HETATM    6  C12 UNL     1      14.603  35.502  73.936  1.00  0.00     0.034 A 
HETATM    7  S1  UNL     1      14.889  37.143  74.530  1.00  0.00    -0.086 SA
ENDROOT
BRANCH   4   8
HETATM    8  N2  UNL     1      15.784  33.678  76.858  1.00  0.00    -0.366 N 
HETATM    9  C6  UNL     1      16.136  32.304  77.045  1.00  0.00     0.124 C 
HETATM   10  C7  UNL     1      15.681  31.736  78.358  1.00  0.00     0.020 C 
HETATM   11  C8  UNL     1      16.076  32.669  79.465  1.00  0.00     0.003 C 
HETATM   12  C9  UNL     1      15.530  34.062  79.273  1.00  0.00     0.020 C 
HETATM   13  C10 UNL     1      15.948  34.615  77.927  1.00  0.00     0.124 C 
ENDBRANCH   4   8
BRANCH   1  14
HETATM   14  C2  UNL     1      12.958  33.867  73.250  1.00  0.00     0.034 C 
HETATM   15  C1  UNL     1      12.769  34.113  71.768  1.00  0.00     0.008 C 
ENDBRANCH   1  14
BRANCH   1  16
HETATM   16  C4  UNL     1      15.308  33.723  72.391  1.00  0.00     0.200 C 
BRANCH  16  17
HETATM   17  O1  UNL     1      16.144  34.781  72.052  1.00  0.00    -0.398 OA
ATOM     18  H1  UNL     1      15.842  35.220  71.265  1.00  0.00     0.209 HD
ENDBRANCH  16  17
ENDBRANCH   1  16
TORSDOF 4
ENDMDL
