MODEL 1
REMARK VINA RESULT: -4.749107335      0.000      0.000
REMARK  2 active torsions:
REMARK  status: ('A' for Active; 'I' for Inactive)
REMARK    1  A    between atoms: C4_4  and  C5_5 
REMARK    2  A    between atoms: C6_9  and  O1_10 
ROOT
HETATM    1  C1  UNL     1     -14.037  19.980  -4.274  1.00  0.00     0.027 C 
HETATM    2  C2  UNL     1     -14.541  18.893  -4.114  1.00  0.00    -0.026 C 
HETATM    3  C3  UNL     1     -15.131  17.611  -3.902  1.00  0.00    -0.014 C 
HETATM    4  C4  UNL     1     -15.629  16.529  -3.703  1.00  0.00    -0.055 C 
ENDROOT
BRANCH   4   5
HETATM    5  C5  UNL     1     -16.224  15.218  -3.437  1.00  0.00     0.324 A 
HETATM    6  N1  UNL     1     -15.827  14.099  -4.304  1.00  0.00    -0.027 N 
HETATM    7  C6  UNL     1     -17.139  14.672  -4.515  1.00  0.00     0.363 A 
ATOM      8  H12 UNL     1     -15.027  13.932  -4.915  1.00  0.00     0.282 HD
ATOM      9  H11 UNL     1     -15.495  13.151  -4.121  1.00  0.00     0.282 HD
BRANCH   7  10
HETATM   10  O1  UNL     1     -18.272  13.978  -4.168  1.00  0.00    -0.367 OA
ATOM     11  H1  UNL     1     -19.082  14.444  -3.995  1.00  0.00     0.212 HD
ENDBRANCH   7  10
ENDBRANCH   4   5
TORSDOF 2
ENDMDL
MODEL 2
REMARK VINA RESULT: -4.745578907      3.099      3.658
REMARK  2 active torsions:
REMARK  status: ('A' for Active; 'I' for Inactive)
REMARK    1  A    between atoms: C4_4  and  C5_5 
REMARK    2  A    between atoms: C6_9  and  O1_10 
ROOT
HETATM    1  C1  UNL     1     -15.151  17.945  -4.795  1.00  0.00     0.027 C 
HETATM    2  C2  UNL     1     -16.031  17.240  -5.231  1.00  0.00    -0.026 C 
HETATM    3  C3  UNL     1     -17.059  16.388  -5.735  1.00  0.00    -0.014 C 
HETATM    4  C4  UNL     1     -17.923  15.653  -6.149  1.00  0.00    -0.055 C 
ENDROOT
BRANCH   4   5
HETATM    5  C5  UNL     1     -18.957  14.742  -6.643  1.00  0.00     0.324 A 
HETATM    6  N1  UNL     1     -19.810  15.208  -7.745  1.00  0.00    -0.027 N 
HETATM    7  C6  UNL     1     -20.391  15.180  -6.421  1.00  0.00     0.363 A 
ATOM      8  H12 UNL     1     -19.709  15.937  -8.453  1.00  0.00     0.282 HD
ATOM      9  H11 UNL     1     -20.084  14.804  -8.642  1.00  0.00     0.282 HD
BRANCH   7  10
HETATM   10  O1  UNL     1     -21.350  14.253  -6.094  1.00  0.00    -0.367 OA
ATOM     11  H1  UNL     1     -22.270  14.453  -6.225  1.00  0.00     0.212 HD
ENDBRANCH   7  10
ENDBRANCH   4   5
TORSDOF 2
ENDMDL
MODEL 3
REMARK VINA RESULT: -4.731777977      3.912      5.272
REMARK  2 active torsions:
REMARK  status: ('A' for Active; 'I' for Inactive)
REMARK    1  A    between atoms: C4_4  and  C5_5 
REMARK    2  A    between atoms: C6_9  and  O1_10 
ROOT
HETATM    1  C1  UNL     1     -16.998  14.987  -1.455  1.00  0.00     0.027 C 
HETATM    2  C2  UNL     1     -16.195  15.814  -1.820  1.00  0.00    -0.026 C 
HETATM    3  C3  UNL     1     -15.259  16.806  -2.237  1.00  0.00    -0.014 C 
HETATM    4  C4  UNL     1     -14.475  17.659  -2.578  1.00  0.00    -0.055 C 
ENDROOT
BRANCH   4   5
HETATM    5  C5  UNL     1     -13.538  18.710  -2.980  1.00  0.00     0.324 A 
HETATM    6  N1  UNL     1     -14.093  20.030  -3.312  1.00  0.00    -0.027 N 
HETATM    7  C6  UNL     1     -13.657  19.196  -4.410  1.00  0.00     0.363 A 
ATOM      8  H12 UNL     1     -14.972  20.499  -3.091  1.00  0.00     0.282 HD
ATOM      9  H11 UNL     1     -13.868  20.981  -3.019  1.00  0.00     0.282 HD
BRANCH   7  10
HETATM   10  O1  UNL     1     -12.528  19.510  -5.126  1.00  0.00    -0.367 OA
ATOM     11  H1  UNL     1     -11.823  18.878  -5.206  1.00  0.00     0.212 HD
ENDBRANCH   7  10
ENDBRANCH   4   5
TORSDOF 2
ENDMDL
MODEL 4
REMARK VINA RESULT: -4.667438608      4.301      5.058
REMARK  2 active torsions:
REMARK  status: ('A' for Active; 'I' for Inactive)
REMARK    1  A    between atoms: C4_4  and  C5_5 
REMARK    2  A    between atoms: C6_9  and  O1_10 
ROOT
HETATM    1  C1  UNL     1     -15.558  14.180  -4.238  1.00  0.00     0.027 C 
HETATM    2  C2  UNL     1     -16.621  14.553  -4.677  1.00  0.00    -0.026 C 
HETATM    3  C3  UNL     1     -17.867  15.016  -5.197  1.00  0.00    -0.014 C 
HETATM    4  C4  UNL     1     -18.912  15.424  -5.642  1.00  0.00    -0.055 C 
ENDROOT
BRANCH   4   5
HETATM    5  C5  UNL     1     -20.172  15.944  -6.178  1.00  0.00     0.324 A 
HETATM    6  N1  UNL     1     -20.523  15.593  -7.562  1.00  0.00    -0.027 N 
HETATM    7  C6  UNL     1     -20.051  16.939  -7.315  1.00  0.00     0.363 A 
ATOM      8  H12 UNL     1     -20.227  14.850  -8.195  1.00  0.00     0.282 HD
ATOM      9  H11 UNL     1     -21.363  15.212  -7.998  1.00  0.00     0.282 HD
BRANCH   7  10
HETATM   10  O1  UNL     1     -20.909  18.009  -7.387  1.00  0.00    -0.367 OA
ATOM     11  H1  UNL     1     -20.565  18.894  -7.420  1.00  0.00     0.212 HD
ENDBRANCH   7  10
ENDBRANCH   4   5
TORSDOF 2
ENDMDL
MODEL 5
REMARK VINA RESULT: -4.601017991      3.025      3.493
REMARK  2 active torsions:
REMARK  status: ('A' for Active; 'I' for Inactive)
REMARK    1  A    between atoms: C4_4  and  C5_5 
REMARK    2  A    between atoms: C6_9  and  O1_10 
ROOT
HETATM    1  C1  UNL     1     -15.211  16.078  -1.719  1.00  0.00     0.027 C 
HETATM    2  C2  UNL     1     -15.932  15.805  -2.651  1.00  0.00    -0.026 C 
HETATM    3  C3  UNL     1     -16.764  15.469  -3.760  1.00  0.00    -0.014 C 
HETATM    4  C4  UNL     1     -17.455  15.171  -4.704  1.00  0.00    -0.055 C 
ENDROOT
BRANCH   4   5
HETATM    5  C5  UNL     1     -18.273  14.799  -5.860  1.00  0.00     0.324 A 
HETATM    6  N1  UNL     1     -18.761  15.880  -6.729  1.00  0.00    -0.027 N 
HETATM    7  C6  UNL     1     -19.715  15.264  -5.833  1.00  0.00     0.363 A 
ATOM      8  H12 UNL     1     -18.464  16.843  -6.887  1.00  0.00     0.282 HD
ATOM      9  H11 UNL     1     -18.741  16.033  -7.738  1.00  0.00     0.282 HD
BRANCH   7  10
HETATM   10  O1  UNL     1     -20.710  14.450  -6.317  1.00  0.00    -0.367 OA
ATOM     11  H1  UNL     1     -21.579  14.801  -6.473  1.00  0.00     0.212 HD
ENDBRANCH   7  10
ENDBRANCH   4   5
TORSDOF 2
ENDMDL
