MODEL 1
REMARK VINA RESULT: -7.341442532      0.000      0.000
REMARK  16 active torsions:
REMARK  status: ('A' for Active; 'I' for Inactive)
REMARK    1  A    between atoms: C2_2  and  N1_3 
REMARK    2  A    between atoms: N1_3  and  C3_5 
REMARK    3  A    between atoms: C3_5  and  N2_7 
REMARK    4  A    between atoms: C4_9  and  C5_10 
REMARK    5  A    between atoms: C5_10  and  C6_11 
REMARK    6  A    between atoms: N3_19  and  C13_20 
REMARK    7  A    between atoms: C13_20  and  C14_21 
REMARK    8  A    between atoms: C14_21  and  C15_22 
REMARK    9  A    between atoms: C15_22  and  C16_23 
REMARK   10  A    between atoms: C16_23  and  C17_24 
REMARK   11  A    between atoms: C17_24  and  C18_25 
REMARK   12  A    between atoms: C18_25  and  N4_26 
REMARK       I    between atoms: N4_26  and  C19_28 
REMARK   13  A    between atoms: N6_30  and  C20_32 
REMARK   14  A    between atoms: C20_32  and  C21_33 
REMARK   15  A    between atoms: C21_33  and  C22_34 
REMARK   16  A    between atoms: C22_34  and  N7_35 
ROOT
HETATM    1  C6  UNL     1       7.001   0.966  31.836  1.00  0.00    -0.052 A 
HETATM    2  C7  UNL     1       6.597   2.188  32.332  1.00  0.00     0.008 A 
HETATM    3  C8  UNL     1       6.680   3.346  31.591  1.00  0.00     0.018 A 
HETATM    4  C9  UNL     1       7.187   3.324  30.287  1.00  0.00     0.048 A 
HETATM    5  C10 UNL     1       7.586   2.104  29.804  1.00  0.00     0.048 A 
HETATM    6  C11 UNL     1       7.502   0.938  30.552  1.00  0.00     0.025 A 
HETATM    7  C12 UNL     1       8.068   2.375  28.421  1.00  0.00     0.262 A 
HETATM    8  O1  UNL     1       8.506   1.441  27.714  1.00  0.00    -0.267 OA
HETATM    9  N3  UNL     1       7.935   3.727  28.143  1.00  0.00    -0.276 N 
HETATM   10  C23 UNL     1       7.375   4.381  29.310  1.00  0.00     0.262 A 
HETATM   11  O2  UNL     1       7.111   5.620  29.426  1.00  0.00    -0.267 OA
ENDROOT
BRANCH   9  12
HETATM   12  C13 UNL     1       8.234   4.492  26.936  1.00  0.00     0.163 C 
BRANCH  12  13
HETATM   13  C14 UNL     1       7.053   4.715  26.088  1.00  0.00    -0.007 C 
BRANCH  13  14
HETATM   14  C15 UNL     1       7.141   5.330  24.776  1.00  0.00    -0.006 C 
BRANCH  14  15
HETATM   15  C16 UNL     1       8.426   5.598  24.100  1.00  0.00    -0.022 C 
BRANCH  15  16
HETATM   16  C17 UNL     1       9.148   6.849  24.196  1.00  0.00     0.071 C 
BRANCH  16  17
HETATM   17  C18 UNL     1      10.551   6.685  24.734  1.00  0.00     0.067 C 
BRANCH  17  18
HETATM   18  N4  UNL     1      11.172   5.438  24.617  1.00  0.00    -0.344 N 
HETATM   19  C19 UNL     1      11.667   4.566  25.615  1.00  0.00     0.187 C 
HETATM   20  N5  UNL     1      12.403   5.033  26.724  1.00  0.00    -0.064 NA
HETATM   21  N6  UNL     1      11.483   3.277  25.558  1.00  0.00    -0.364 N 
ATOM     22  H6  UNL     1      11.864   2.699  26.307  1.00  0.00     0.162 HD
ATOM     23  H4  UNL     1      11.287   5.103  23.660  1.00  0.00     0.167 HD
BRANCH  21  24
HETATM   24  C20 UNL     1      10.774   2.635  24.498  1.00  0.00     0.124 C 
BRANCH  24  25
HETATM   25  C21 UNL     1      11.667   2.182  23.360  1.00  0.00     0.047 C 
BRANCH  25  26
HETATM   26  C22 UNL     1      10.932   1.187  22.490  1.00  0.00     0.231 C 
BRANCH  26  27
HETATM   27  N7  UNL     1      11.832   0.338  21.756  1.00  0.00    -0.079 N 
ATOM     28  H73 UNL     1      12.570   0.882  21.310  1.00  0.00     0.274 HD
ATOM     29  H72 UNL     1      12.403  -0.226  22.385  1.00  0.00     0.274 HD
ATOM     30  H71 UNL     1      11.343  -0.246  21.077  1.00  0.00     0.274 HD
ENDBRANCH  26  27
ENDBRANCH  25  26
ENDBRANCH  24  25
ENDBRANCH  21  24
ENDBRANCH  17  18
ENDBRANCH  16  17
ENDBRANCH  15  16
ENDBRANCH  14  15
ENDBRANCH  13  14
ENDBRANCH  12  13
ENDBRANCH   9  12
BRANCH   1  31
HETATM   31  C5  UNL     1       6.893  -0.283  32.660  1.00  0.00     0.083 C 
BRANCH  31  32
HETATM   32  C4  UNL     1       6.848  -1.494  31.816  1.00  0.00     0.068 C 
HETATM   33  N2  UNL     1       5.759  -2.134  31.602  1.00  0.00    -0.347 N 
ATOM     34  H2  UNL     1       5.794  -2.963  31.009  1.00  0.00     0.167 HD
BRANCH  33  35
HETATM   35  C3  UNL     1       4.521  -1.756  32.139  1.00  0.00     0.171 C 
HETATM   36  S1  UNL     1       4.112  -2.255  33.632  1.00  0.00    -0.041 SA
BRANCH  35  37
HETATM   37  N1  UNL     1       3.610  -0.946  31.415  1.00  0.00    -0.367 N 
ATOM     38  H1  UNL     1       3.128  -1.359  30.616  1.00  0.00     0.161 HD
BRANCH  37  39
HETATM   39  C2  UNL     1       3.330   0.422  31.744  1.00  0.00     0.117 C 
HETATM   40  C1  UNL     1       3.512   1.370  30.580  1.00  0.00     0.026 C 
ENDBRANCH  37  39
ENDBRANCH  35  37
ENDBRANCH  33  35
ENDBRANCH  31  32
ENDBRANCH   1  31
TORSDOF 16
ENDMDL
MODEL 2
REMARK VINA RESULT: -7.241963634      3.290      4.864
REMARK  16 active torsions:
REMARK  status: ('A' for Active; 'I' for Inactive)
REMARK    1  A    between atoms: C2_2  and  N1_3 
REMARK    2  A    between atoms: N1_3  and  C3_5 
REMARK    3  A    between atoms: C3_5  and  N2_7 
REMARK    4  A    between atoms: C4_9  and  C5_10 
REMARK    5  A    between atoms: C5_10  and  C6_11 
REMARK    6  A    between atoms: N3_19  and  C13_20 
REMARK    7  A    between atoms: C13_20  and  C14_21 
REMARK    8  A    between atoms: C14_21  and  C15_22 
REMARK    9  A    between atoms: C15_22  and  C16_23 
REMARK   10  A    between atoms: C16_23  and  C17_24 
REMARK   11  A    between atoms: C17_24  and  C18_25 
REMARK   12  A    between atoms: C18_25  and  N4_26 
REMARK       I    between atoms: N4_26  and  C19_28 
REMARK   13  A    between atoms: N6_30  and  C20_32 
REMARK   14  A    between atoms: C20_32  and  C21_33 
REMARK   15  A    between atoms: C21_33  and  C22_34 
REMARK   16  A    between atoms: C22_34  and  N7_35 
ROOT
HETATM    1  C6  UNL     1       6.913   0.545  31.841  1.00  0.00    -0.052 A 
HETATM    2  C7  UNL     1       6.436   1.695  32.431  1.00  0.00     0.008 A 
HETATM    3  C8  UNL     1       6.571   2.934  31.844  1.00  0.00     0.018 A 
HETATM    4  C9  UNL     1       7.210   3.070  30.605  1.00  0.00     0.048 A 
HETATM    5  C10 UNL     1       7.681   1.919  30.028  1.00  0.00     0.048 A 
HETATM    6  C11 UNL     1       7.543   0.673  30.621  1.00  0.00     0.025 A 
HETATM    7  C12 UNL     1       8.296   2.356  28.744  1.00  0.00     0.262 A 
HETATM    8  O1  UNL     1       8.824   1.516  27.982  1.00  0.00    -0.267 OA
HETATM    9  N3  UNL     1       8.167   3.730  28.614  1.00  0.00    -0.276 N 
HETATM   10  C23 UNL     1       7.476   4.238  29.784  1.00  0.00     0.262 A 
HETATM   11  O2  UNL     1       7.177   5.452  30.017  1.00  0.00    -0.267 OA
ENDROOT
BRANCH   9  12
HETATM   12  C13 UNL     1       8.573   4.635  27.543  1.00  0.00     0.163 C 
BRANCH  12  13
HETATM   13  C14 UNL     1       9.928   5.176  27.729  1.00  0.00    -0.007 C 
BRANCH  13  14
HETATM   14  C15 UNL     1      10.172   6.567  28.065  1.00  0.00    -0.006 C 
BRANCH  14  15
HETATM   15  C16 UNL     1      10.983   7.467  27.221  1.00  0.00    -0.022 C 
BRANCH  15  16
HETATM   16  C17 UNL     1      11.637   7.060  25.996  1.00  0.00     0.071 C 
BRANCH  16  17
HETATM   17  C18 UNL     1      12.332   8.199  25.286  1.00  0.00     0.067 C 
BRANCH  17  18
HETATM   18  N4  UNL     1      13.670   8.464  25.595  1.00  0.00    -0.344 N 
HETATM   19  C19 UNL     1      14.617   9.278  24.931  1.00  0.00     0.187 C 
HETATM   20  N5  UNL     1      14.749   9.286  23.527  1.00  0.00    -0.064 NA
HETATM   21  N6  UNL     1      15.434  10.058  25.582  1.00  0.00    -0.364 N 
ATOM     22  H6  UNL     1      16.096  10.622  25.049  1.00  0.00     0.162 HD
ATOM     23  H4  UNL     1      14.019   7.996  26.432  1.00  0.00     0.167 HD
BRANCH  21  24
HETATM   24  C20 UNL     1      15.447  10.161  27.006  1.00  0.00     0.124 C 
BRANCH  24  25
HETATM   25  C21 UNL     1      15.202  11.569  27.513  1.00  0.00     0.047 C 
BRANCH  25  26
HETATM   26  C22 UNL     1      15.879  11.761  28.852  1.00  0.00     0.231 C 
BRANCH  26  27
HETATM   27  N7  UNL     1      16.195  10.510  29.486  1.00  0.00    -0.079 N 
ATOM     28  H73 UNL     1      15.464   9.819  29.323  1.00  0.00     0.274 HD
ATOM     29  H72 UNL     1      16.969  10.042  29.014  1.00  0.00     0.274 HD
ATOM     30  H71 UNL     1      16.384  10.620  30.483  1.00  0.00     0.274 HD
ENDBRANCH  26  27
ENDBRANCH  25  26
ENDBRANCH  24  25
ENDBRANCH  21  24
ENDBRANCH  17  18
ENDBRANCH  16  17
ENDBRANCH  15  16
ENDBRANCH  14  15
ENDBRANCH  13  14
ENDBRANCH  12  13
ENDBRANCH   9  12
BRANCH   1  31
HETATM   31  C5  UNL     1       6.745  -0.794  32.496  1.00  0.00     0.083 C 
BRANCH  31  32
HETATM   32  C4  UNL     1       6.145  -1.783  31.579  1.00  0.00     0.068 C 
HETATM   33  N2  UNL     1       4.923  -2.154  31.683  1.00  0.00    -0.347 N 
ATOM     34  H2  UNL     1       4.568  -2.841  31.017  1.00  0.00     0.167 HD
BRANCH  33  35
HETATM   35  C3  UNL     1       4.048  -1.668  32.664  1.00  0.00     0.171 C 
HETATM   36  S1  UNL     1       3.727  -2.581  33.971  1.00  0.00    -0.041 SA
BRANCH  35  37
HETATM   37  N1  UNL     1       3.431  -0.397  32.549  1.00  0.00    -0.367 N 
ATOM     38  H1  UNL     1       3.407   0.203  33.374  1.00  0.00     0.161 HD
BRANCH  37  39
HETATM   39  C2  UNL     1       2.840   0.091  31.336  1.00  0.00     0.117 C 
HETATM   40  C1  UNL     1       2.904   1.597  31.200  1.00  0.00     0.026 C 
ENDBRANCH  37  39
ENDBRANCH  35  37
ENDBRANCH  33  35
ENDBRANCH  31  32
ENDBRANCH   1  31
TORSDOF 16
ENDMDL
MODEL 3
REMARK VINA RESULT: -7.241160145      1.945      2.744
REMARK  16 active torsions:
REMARK  status: ('A' for Active; 'I' for Inactive)
REMARK    1  A    between atoms: C2_2  and  N1_3 
REMARK    2  A    between atoms: N1_3  and  C3_5 
REMARK    3  A    between atoms: C3_5  and  N2_7 
REMARK    4  A    between atoms: C4_9  and  C5_10 
REMARK    5  A    between atoms: C5_10  and  C6_11 
REMARK    6  A    between atoms: N3_19  and  C13_20 
REMARK    7  A    between atoms: C13_20  and  C14_21 
REMARK    8  A    between atoms: C14_21  and  C15_22 
REMARK    9  A    between atoms: C15_22  and  C16_23 
REMARK   10  A    between atoms: C16_23  and  C17_24 
REMARK   11  A    between atoms: C17_24  and  C18_25 
REMARK   12  A    between atoms: C18_25  and  N4_26 
REMARK       I    between atoms: N4_26  and  C19_28 
REMARK   13  A    between atoms: N6_30  and  C20_32 
REMARK   14  A    between atoms: C20_32  and  C21_33 
REMARK   15  A    between atoms: C21_33  and  C22_34 
REMARK   16  A    between atoms: C22_34  and  N7_35 
ROOT
HETATM    1  C6  UNL     1       6.791   1.035  31.413  1.00  0.00    -0.052 A 
HETATM    2  C7  UNL     1       6.256   1.832  32.402  1.00  0.00     0.008 A 
HETATM    3  C8  UNL     1       6.243   3.206  32.313  1.00  0.00     0.018 A 
HETATM    4  C9  UNL     1       6.782   3.854  31.196  1.00  0.00     0.048 A 
HETATM    5  C10 UNL     1       7.311   3.052  30.218  1.00  0.00     0.048 A 
HETATM    6  C11 UNL     1       7.323   1.668  30.310  1.00  0.00     0.025 A 
HETATM    7  C12 UNL     1       7.798   3.991  29.170  1.00  0.00     0.262 A 
HETATM    8  O1  UNL     1       8.345   3.550  28.135  1.00  0.00    -0.267 OA
HETATM    9  N3  UNL     1       7.541   5.296  29.563  1.00  0.00    -0.276 N 
HETATM   10  C23 UNL     1       6.889   5.262  30.859  1.00  0.00     0.262 A 
HETATM   11  O2  UNL     1       6.502   6.268  31.535  1.00  0.00    -0.267 OA
ENDROOT
BRANCH   9  12
HETATM   12  C13 UNL     1       7.793   6.568  28.893  1.00  0.00     0.163 C 
BRANCH  12  13
HETATM   13  C14 UNL     1       9.129   7.113  29.177  1.00  0.00    -0.007 C 
BRANCH  13  14
HETATM   14  C15 UNL     1      10.261   6.901  28.292  1.00  0.00    -0.006 C 
BRANCH  14  15
HETATM   15  C16 UNL     1      11.011   5.631  28.240  1.00  0.00    -0.022 C 
BRANCH  15  16
HETATM   16  C17 UNL     1      11.701   5.143  27.064  1.00  0.00     0.071 C 
BRANCH  16  17
HETATM   17  C18 UNL     1      10.773   4.527  26.043  1.00  0.00     0.067 C 
BRANCH  17  18
HETATM   18  N4  UNL     1      11.217   3.417  25.317  1.00  0.00    -0.344 N 
HETATM   19  C19 UNL     1      10.711   2.098  25.265  1.00  0.00     0.187 C 
HETATM   20  N5  UNL     1      10.295   1.406  26.421  1.00  0.00    -0.064 NA
HETATM   21  N6  UNL     1      10.613   1.439  24.143  1.00  0.00    -0.364 N 
ATOM     22  H6  UNL     1      10.241   0.490  24.169  1.00  0.00     0.162 HD
ATOM     23  H4  UNL     1      12.036   3.586  24.733  1.00  0.00     0.167 HD
BRANCH  21  24
HETATM   24  C20 UNL     1      11.003   1.984  22.882  1.00  0.00     0.124 C 
BRANCH  24  25
HETATM   25  C21 UNL     1      12.307   1.416  22.355  1.00  0.00     0.047 C 
BRANCH  25  26
HETATM   26  C22 UNL     1      12.034   0.492  21.189  1.00  0.00     0.231 C 
BRANCH  26  27
HETATM   27  N7  UNL     1      12.516  -0.841  21.428  1.00  0.00    -0.079 N 
ATOM     28  H73 UNL     1      13.507  -0.838  21.669  1.00  0.00     0.274 HD
ATOM     29  H72 UNL     1      12.139  -1.220  22.296  1.00  0.00     0.274 HD
ATOM     30  H71 UNL     1      12.330  -1.465  20.642  1.00  0.00     0.274 HD
ENDBRANCH  26  27
ENDBRANCH  25  26
ENDBRANCH  24  25
ENDBRANCH  21  24
ENDBRANCH  17  18
ENDBRANCH  16  17
ENDBRANCH  15  16
ENDBRANCH  14  15
ENDBRANCH  13  14
ENDBRANCH  12  13
ENDBRANCH   9  12
BRANCH   1  31
HETATM   31  C5  UNL     1       6.785  -0.461  31.529  1.00  0.00     0.083 C 
BRANCH  31  32
HETATM   32  C4  UNL     1       6.678  -0.902  32.934  1.00  0.00     0.068 C 
HETATM   33  N2  UNL     1       5.632  -1.489  33.384  1.00  0.00    -0.347 N 
ATOM     34  H2  UNL     1       5.621  -1.770  34.365  1.00  0.00     0.167 HD
BRANCH  33  35
HETATM   35  C3  UNL     1       4.503  -1.767  32.603  1.00  0.00     0.171 C 
HETATM   36  S1  UNL     1       3.109  -0.985  32.908  1.00  0.00    -0.041 SA
BRANCH  35  37
HETATM   37  N1  UNL     1       4.540  -2.712  31.548  1.00  0.00    -0.367 N 
ATOM     38  H1  UNL     1       4.173  -2.434  30.637  1.00  0.00     0.161 HD
BRANCH  37  39
HETATM   39  C2  UNL     1       5.065  -4.040  31.691  1.00  0.00     0.117 C 
HETATM   40  C1  UNL     1       6.214  -4.335  30.752  1.00  0.00     0.026 C 
ENDBRANCH  37  39
ENDBRANCH  35  37
ENDBRANCH  33  35
ENDBRANCH  31  32
ENDBRANCH   1  31
TORSDOF 16
ENDMDL
MODEL 4
REMARK VINA RESULT: -7.215410417      1.896      3.585
REMARK  16 active torsions:
REMARK  status: ('A' for Active; 'I' for Inactive)
REMARK    1  A    between atoms: C2_2  and  N1_3 
REMARK    2  A    between atoms: N1_3  and  C3_5 
REMARK    3  A    between atoms: C3_5  and  N2_7 
REMARK    4  A    between atoms: C4_9  and  C5_10 
REMARK    5  A    between atoms: C5_10  and  C6_11 
REMARK    6  A    between atoms: N3_19  and  C13_20 
REMARK    7  A    between atoms: C13_20  and  C14_21 
REMARK    8  A    between atoms: C14_21  and  C15_22 
REMARK    9  A    between atoms: C15_22  and  C16_23 
REMARK   10  A    between atoms: C16_23  and  C17_24 
REMARK   11  A    between atoms: C17_24  and  C18_25 
REMARK   12  A    between atoms: C18_25  and  N4_26 
REMARK       I    between atoms: N4_26  and  C19_28 
REMARK   13  A    between atoms: N6_30  and  C20_32 
REMARK   14  A    between atoms: C20_32  and  C21_33 
REMARK   15  A    between atoms: C21_33  and  C22_34 
REMARK   16  A    between atoms: C22_34  and  N7_35 
ROOT
HETATM    1  C6  UNL     1       6.962   1.288  31.860  1.00  0.00    -0.052 A 
HETATM    2  C7  UNL     1       6.536   2.572  32.125  1.00  0.00     0.008 A 
HETATM    3  C8  UNL     1       6.669   3.594  31.212  1.00  0.00     0.018 A 
HETATM    4  C9  UNL     1       7.251   3.362  29.960  1.00  0.00     0.048 A 
HETATM    5  C10 UNL     1       7.671   2.082  29.707  1.00  0.00     0.048 A 
HETATM    6  C11 UNL     1       7.537   1.053  30.629  1.00  0.00     0.025 A 
HETATM    7  C12 UNL     1       8.235   2.126  28.329  1.00  0.00     0.262 A 
HETATM    8  O1  UNL     1       8.709   1.091  27.810  1.00  0.00    -0.267 OA
HETATM    9  N3  UNL     1       8.126   3.414  27.827  1.00  0.00    -0.276 N 
HETATM   10  C23 UNL     1       7.502   4.247  28.837  1.00  0.00     0.262 A 
HETATM   11  O2  UNL     1       7.239   5.488  28.735  1.00  0.00    -0.267 OA
ENDROOT
BRANCH   9  12
HETATM   12  C13 UNL     1       8.500   3.974  26.532  1.00  0.00     0.163 C 
BRANCH  12  13
HETATM   13  C14 UNL     1       9.868   3.620  26.124  1.00  0.00    -0.007 C 
BRANCH  13  14
HETATM   14  C15 UNL     1      10.235   3.401  24.737  1.00  0.00    -0.006 C 
BRANCH  14  15
HETATM   15  C16 UNL     1      10.871   4.439  23.902  1.00  0.00    -0.022 C 
BRANCH  15  16
HETATM   16  C17 UNL     1      10.224   5.671  23.505  1.00  0.00     0.071 C 
BRANCH  16  17
HETATM   17  C18 UNL     1      10.812   6.893  24.173  1.00  0.00     0.067 C 
BRANCH  17  18
HETATM   18  N4  UNL     1      11.221   6.796  25.506  1.00  0.00    -0.344 N 
HETATM   19  C19 UNL     1      11.825   7.759  26.349  1.00  0.00     0.187 C 
HETATM   20  N5  UNL     1      12.858   8.608  25.902  1.00  0.00    -0.064 NA
HETATM   21  N6  UNL     1      11.468   7.905  27.595  1.00  0.00    -0.364 N 
ATOM     22  H6  UNL     1      11.940   8.616  28.154  1.00  0.00     0.162 HD
ATOM     23  H4  UNL     1      11.059   5.887  25.940  1.00  0.00     0.167 HD
BRANCH  21  24
HETATM   24  C20 UNL     1      10.449   7.119  28.214  1.00  0.00     0.124 C 
BRANCH  24  25
HETATM   25  C21 UNL     1      10.155   7.527  29.644  1.00  0.00     0.047 C 
BRANCH  25  26
HETATM   26  C22 UNL     1       8.873   8.328  29.700  1.00  0.00     0.231 C 
BRANCH  26  27
HETATM   27  N7  UNL     1       8.195   8.357  28.432  1.00  0.00    -0.079 N 
ATOM     28  H73 UNL     1       8.443   9.191  27.900  1.00  0.00     0.274 HD
ATOM     29  H72 UNL     1       8.563   7.646  27.800  1.00  0.00     0.274 HD
ATOM     30  H71 UNL     1       7.184   8.273  28.534  1.00  0.00     0.274 HD
ENDBRANCH  26  27
ENDBRANCH  25  26
ENDBRANCH  24  25
ENDBRANCH  21  24
ENDBRANCH  17  18
ENDBRANCH  16  17
ENDBRANCH  15  16
ENDBRANCH  14  15
ENDBRANCH  13  14
ENDBRANCH  12  13
ENDBRANCH   9  12
BRANCH   1  31
HETATM   31  C5  UNL     1       6.799   0.189  32.868  1.00  0.00     0.083 C 
BRANCH  31  32
HETATM   32  C4  UNL     1       7.121  -1.133  32.295  1.00  0.00     0.068 C 
HETATM   33  N2  UNL     1       6.226  -2.031  32.111  1.00  0.00    -0.347 N 
ATOM     34  H2  UNL     1       6.513  -2.925  31.710  1.00  0.00     0.167 HD
BRANCH  33  35
HETATM   35  C3  UNL     1       4.873  -1.853  32.431  1.00  0.00     0.171 C 
HETATM   36  S1  UNL     1       4.315  -2.383  33.864  1.00  0.00    -0.041 SA
BRANCH  35  37
HETATM   37  N1  UNL     1       3.973  -1.220  31.537  1.00  0.00    -0.367 N 
ATOM     38  H1  UNL     1       3.847  -1.628  30.611  1.00  0.00     0.161 HD
BRANCH  37  39
HETATM   39  C2  UNL     1       3.229  -0.037  31.866  1.00  0.00     0.117 C 
HETATM   40  C1  UNL     1       3.364   1.062  30.835  1.00  0.00     0.026 C 
ENDBRANCH  37  39
ENDBRANCH  35  37
ENDBRANCH  33  35
ENDBRANCH  31  32
ENDBRANCH   1  31
TORSDOF 16
ENDMDL
MODEL 5
REMARK VINA RESULT: -7.108679045      1.457      2.098
REMARK  16 active torsions:
REMARK  status: ('A' for Active; 'I' for Inactive)
REMARK    1  A    between atoms: C2_2  and  N1_3 
REMARK    2  A    between atoms: N1_3  and  C3_5 
REMARK    3  A    between atoms: C3_5  and  N2_7 
REMARK    4  A    between atoms: C4_9  and  C5_10 
REMARK    5  A    between atoms: C5_10  and  C6_11 
REMARK    6  A    between atoms: N3_19  and  C13_20 
REMARK    7  A    between atoms: C13_20  and  C14_21 
REMARK    8  A    between atoms: C14_21  and  C15_22 
REMARK    9  A    between atoms: C15_22  and  C16_23 
REMARK   10  A    between atoms: C16_23  and  C17_24 
REMARK   11  A    between atoms: C17_24  and  C18_25 
REMARK   12  A    between atoms: C18_25  and  N4_26 
REMARK       I    between atoms: N4_26  and  C19_28 
REMARK   13  A    between atoms: N6_30  and  C20_32 
REMARK   14  A    between atoms: C20_32  and  C21_33 
REMARK   15  A    between atoms: C21_33  and  C22_34 
REMARK   16  A    between atoms: C22_34  and  N7_35 
ROOT
HETATM    1  C6  UNL     1       6.910   0.551  32.132  1.00  0.00    -0.052 A 
HETATM    2  C7  UNL     1       6.377   1.712  32.651  1.00  0.00     0.008 A 
HETATM    3  C8  UNL     1       6.466   2.920  31.995  1.00  0.00     0.018 A 
HETATM    4  C9  UNL     1       7.111   3.013  30.756  1.00  0.00     0.048 A 
HETATM    5  C10 UNL     1       7.637   1.853  30.250  1.00  0.00     0.048 A 
HETATM    6  C11 UNL     1       7.547   0.637  30.912  1.00  0.00     0.025 A 
HETATM    7  C12 UNL     1       8.247   2.242  28.948  1.00  0.00     0.262 A 
HETATM    8  O1  UNL     1       8.818   1.383  28.239  1.00  0.00    -0.267 OA
HETATM    9  N3  UNL     1       8.059   3.599  28.737  1.00  0.00    -0.276 N 
HETATM   10  C23 UNL     1       7.335   4.142  29.871  1.00  0.00     0.262 A 
HETATM   11  O2  UNL     1       6.982   5.354  30.031  1.00  0.00    -0.267 OA
ENDROOT
BRANCH   9  12
HETATM   12  C13 UNL     1       8.437   4.458  27.619  1.00  0.00     0.163 C 
BRANCH  12  13
HETATM   13  C14 UNL     1       9.852   4.859  27.653  1.00  0.00    -0.007 C 
BRANCH  13  14
HETATM   14  C15 UNL     1      10.414   5.812  26.713  1.00  0.00    -0.006 C 
BRANCH  14  15
HETATM   15  C16 UNL     1      11.295   5.414  25.598  1.00  0.00    -0.022 C 
BRANCH  15  16
HETATM   16  C17 UNL     1      10.904   5.447  24.204  1.00  0.00     0.071 C 
BRANCH  16  17
HETATM   17  C18 UNL     1      10.232   4.174  23.745  1.00  0.00     0.067 C 
BRANCH  17  18
HETATM   18  N4  UNL     1      11.028   3.056  23.473  1.00  0.00    -0.344 N 
HETATM   19  C19 UNL     1      10.930   1.727  23.948  1.00  0.00     0.187 C 
HETATM   20  N5  UNL     1      10.653   1.430  25.298  1.00  0.00    -0.064 NA
HETATM   21  N6  UNL     1      11.106   0.700  23.165  1.00  0.00    -0.364 N 
ATOM     22  H6  UNL     1      11.024  -0.235  23.565  1.00  0.00     0.162 HD
ATOM     23  H4  UNL     1      11.802   3.226  22.830  1.00  0.00     0.167 HD
BRANCH  21  24
HETATM   24  C20 UNL     1      11.409   0.820  21.774  1.00  0.00     0.124 C 
BRANCH  24  25
HETATM   25  C21 UNL     1      12.779   0.285  21.405  1.00  0.00     0.047 C 
BRANCH  25  26
HETATM   26  C22 UNL     1      12.715  -1.214  21.216  1.00  0.00     0.231 C 
BRANCH  26  27
HETATM   27  N7  UNL     1      13.927  -1.866  21.631  1.00  0.00    -0.079 N 
ATOM     28  H73 UNL     1      13.758  -2.495  22.416  1.00  0.00     0.274 HD
ATOM     29  H72 UNL     1      14.234  -2.549  20.939  1.00  0.00     0.274 HD
ATOM     30  H71 UNL     1      14.669  -1.200  21.847  1.00  0.00     0.274 HD
ENDBRANCH  26  27
ENDBRANCH  25  26
ENDBRANCH  24  25
ENDBRANCH  21  24
ENDBRANCH  17  18
ENDBRANCH  16  17
ENDBRANCH  15  16
ENDBRANCH  14  15
ENDBRANCH  13  14
ENDBRANCH  12  13
ENDBRANCH   9  12
BRANCH   1  31
HETATM   31  C5  UNL     1       6.793  -0.754  32.862  1.00  0.00     0.083 C 
BRANCH  31  32
HETATM   32  C4  UNL     1       6.603  -1.887  31.934  1.00  0.00     0.068 C 
HETATM   33  N2  UNL     1       5.439  -2.283  31.574  1.00  0.00    -0.347 N 
ATOM     34  H2  UNL     1       5.375  -3.071  30.930  1.00  0.00     0.167 HD
BRANCH  33  35
HETATM   35  C3  UNL     1       4.249  -1.692  32.018  1.00  0.00     0.171 C 
HETATM   36  S1  UNL     1       3.509  -2.282  33.342  1.00  0.00    -0.041 SA
BRANCH  35  37
HETATM   37  N1  UNL     1       3.667  -0.589  31.345  1.00  0.00    -0.367 N 
ATOM     38  H1  UNL     1       4.152  -0.211  30.531  1.00  0.00     0.161 HD
BRANCH  37  39
HETATM   39  C2  UNL     1       2.433   0.024  31.745  1.00  0.00     0.117 C 
HETATM   40  C1  UNL     1       2.413   1.523  31.543  1.00  0.00     0.026 C 
ENDBRANCH  37  39
ENDBRANCH  35  37
ENDBRANCH  33  35
ENDBRANCH  31  32
ENDBRANCH   1  31
TORSDOF 16
ENDMDL
