MODEL 1
REMARK VINA RESULT: -7.758393760      0.000      0.000
REMARK  13 active torsions:
REMARK  status: ('A' for Active; 'I' for Inactive)
REMARK    1  A    between atoms: C2_2  and  C3_3 
REMARK    2  A    between atoms: C3_3  and  C4_4 
REMARK    3  A    between atoms: C4_4  and  C5_5 
REMARK    4  A    between atoms: C5_5  and  C6_6 
REMARK    5  A    between atoms: C6_6  and  N1_7 
REMARK       I    between atoms: N1_7  and  C7_8 
REMARK    6  A    between atoms: C7_8  and  C8_10 
REMARK    7  A    between atoms: C13_15  and  C14_16 
REMARK       I    between atoms: C14_16  and  N2_18 
REMARK    8  A    between atoms: C17_21  and  N3_22 
REMARK       I    between atoms: N3_22  and  C18_24 
REMARK    9  A    between atoms: C18_24  and  C19_26 
REMARK   10  A    between atoms: C19_26  and  C21_28 
REMARK   11  A    between atoms: C21_28  and  C22_29 
REMARK   12  A    between atoms: C22_29  and  C23_30 
REMARK   13  A    between atoms: C23_30  and  N4_31 
ROOT
HETATM    1  C14 UNL     1      11.083   7.389  26.051  1.00  0.00     0.240 C 
HETATM    2  O2  UNL     1      12.030   8.159  26.397  1.00  0.00    -0.272 OA
HETATM    3  N2  UNL     1      10.730   7.292  24.687  1.00  0.00    -0.263 N 
HETATM    4  C15 UNL     1       9.687   6.444  24.079  1.00  0.00     0.151 C 
HETATM    5  C16 UNL     1       9.166   7.468  23.054  1.00  0.00     0.066 C 
HETATM    6  C17 UNL     1      10.558   7.850  22.471  1.00  0.00     0.200 C 
HETATM    7  N7  UNL     1      11.328   8.035  23.645  1.00  0.00    -0.111 NA
ENDROOT
BRANCH   1   8
HETATM    8  C13 UNL     1      10.319   6.578  27.018  1.00  0.00     0.093 C 
HETATM    9  C8  UNL     1      11.057   5.426  27.616  1.00  0.00     0.106 C 
HETATM   10  C9  UNL     1      10.075   4.571  28.381  1.00  0.00     0.016 C 
HETATM   11  C10 UNL     1       8.733   5.259  28.565  1.00  0.00     0.001 C 
HETATM   12  C11 UNL     1       8.825   6.706  28.915  1.00  0.00     0.001 C 
HETATM   13  C12 UNL     1       9.915   7.451  28.218  1.00  0.00     0.015 C 
BRANCH   9  14
HETATM   14  C7  UNL     1      11.776   4.577  26.598  1.00  0.00     0.295 C 
HETATM   15  N1  UNL     1      11.101   3.694  25.808  1.00  0.00    -0.387 NA
HETATM   16  O1  UNL     1      13.024   4.818  26.602  1.00  0.00    -0.257 OA
BRANCH  15  17
HETATM   17  C6  UNL     1      10.423   2.807  25.016  1.00  0.00     0.159 C 
BRANCH  17  18
HETATM   18  C5  UNL     1      10.627   2.860  23.522  1.00  0.00     0.059 C 
BRANCH  18  19
HETATM   19  C4  UNL     1      10.919   1.539  22.901  1.00  0.00     0.006 C 
BRANCH  19  20
HETATM   20  C3  UNL     1      12.305   1.483  22.321  1.00  0.00     0.000 C 
BRANCH  20  21
HETATM   21  C2  UNL     1      12.364   0.684  21.038  1.00  0.00    -0.005 C 
HETATM   22  C1  UNL     1      12.781  -0.748  21.337  1.00  0.00     0.005 C 
ENDBRANCH  20  21
ENDBRANCH  19  20
ENDBRANCH  18  19
ENDBRANCH  17  18
ENDBRANCH  15  17
ENDBRANCH   9  14
ENDBRANCH   1   8
BRANCH   6  23
HETATM   23  N3  UNL     1      10.418   8.987  21.604  1.00  0.00    -0.341 N 
HETATM   24  C18 UNL     1      10.511   8.940  20.222  1.00  0.00     0.222 C 
HETATM   25  O3  UNL     1      10.733   7.821  19.645  1.00  0.00    -0.273 OA
ATOM     26  H3  UNL     1      10.237   9.893  22.036  1.00  0.00     0.164 HD
BRANCH  24  27
HETATM   27  C19 UNL     1      10.380  10.119  19.283  1.00  0.00     0.074 C 
HETATM   28  C20 UNL     1       8.947  10.519  19.181  1.00  0.00     0.020 C 
BRANCH  27  29
HETATM   29  C21 UNL     1      11.336  11.188  19.684  1.00  0.00     0.015 C 
BRANCH  29  30
HETATM   30  C22 UNL     1      12.788  10.967  19.590  1.00  0.00     0.020 C 
BRANCH  30  31
HETATM   31  C23 UNL     1      13.532  10.430  20.763  1.00  0.00     0.122 C 
BRANCH  31  32
HETATM   32  N4  UNL     1      14.982  10.438  20.463  1.00  0.00    -0.367 N 
HETATM   33  C24 UNL     1      15.873  10.067  21.278  1.00  0.00     0.196 C 
HETATM   34  N5  UNL     1      17.254  10.103  20.919  1.00  0.00    -0.067 NA
HETATM   35  N6  UNL     1      15.548   9.602  22.579  1.00  0.00    -0.067 NA
ATOM     36  H4  UNL     1      15.280  10.763  19.543  1.00  0.00     0.161 HD
ENDBRANCH  31  32
ENDBRANCH  30  31
ENDBRANCH  29  30
ENDBRANCH  27  29
ENDBRANCH  24  27
ENDBRANCH   6  23
TORSDOF 13
ENDMDL
MODEL 2
REMARK VINA RESULT: -7.553393149      2.027      2.702
REMARK  13 active torsions:
REMARK  status: ('A' for Active; 'I' for Inactive)
REMARK    1  A    between atoms: C2_2  and  C3_3 
REMARK    2  A    between atoms: C3_3  and  C4_4 
REMARK    3  A    between atoms: C4_4  and  C5_5 
REMARK    4  A    between atoms: C5_5  and  C6_6 
REMARK    5  A    between atoms: C6_6  and  N1_7 
REMARK       I    between atoms: N1_7  and  C7_8 
REMARK    6  A    between atoms: C7_8  and  C8_10 
REMARK    7  A    between atoms: C13_15  and  C14_16 
REMARK       I    between atoms: C14_16  and  N2_18 
REMARK    8  A    between atoms: C17_21  and  N3_22 
REMARK       I    between atoms: N3_22  and  C18_24 
REMARK    9  A    between atoms: C18_24  and  C19_26 
REMARK   10  A    between atoms: C19_26  and  C21_28 
REMARK   11  A    between atoms: C21_28  and  C22_29 
REMARK   12  A    between atoms: C22_29  and  C23_30 
REMARK   13  A    between atoms: C23_30  and  N4_31 
ROOT
HETATM    1  C14 UNL     1      11.328   7.551  26.195  1.00  0.00     0.240 C 
HETATM    2  O2  UNL     1      12.249   8.304  26.635  1.00  0.00    -0.272 OA
HETATM    3  N2  UNL     1      11.062   7.517  24.808  1.00  0.00    -0.263 N 
HETATM    4  C15 UNL     1      10.061   6.698  24.097  1.00  0.00     0.151 C 
HETATM    5  C16 UNL     1       9.603   7.769  23.090  1.00  0.00     0.066 C 
HETATM    6  C17 UNL     1      11.028   8.177  22.614  1.00  0.00     0.200 C 
HETATM    7  N7  UNL     1      11.722   8.307  23.842  1.00  0.00    -0.111 NA
ENDROOT
BRANCH   1   8
HETATM    8  C13 UNL     1      10.506   6.696  27.074  1.00  0.00     0.093 C 
HETATM    9  C8  UNL     1      11.198   5.498  27.634  1.00  0.00     0.106 C 
HETATM   10  C9  UNL     1      10.169   4.615  28.299  1.00  0.00     0.016 C 
HETATM   11  C10 UNL     1       8.829   5.314  28.461  1.00  0.00     0.001 C 
HETATM   12  C11 UNL     1       8.924   6.735  28.903  1.00  0.00     0.001 C 
HETATM   13  C12 UNL     1      10.058   7.502  28.304  1.00  0.00     0.015 C 
BRANCH   9  14
HETATM   14  C7  UNL     1      11.954   4.700  26.602  1.00  0.00     0.295 C 
HETATM   15  N1  UNL     1      11.307   3.860  25.744  1.00  0.00    -0.387 NA
HETATM   16  O1  UNL     1      13.201   4.936  26.665  1.00  0.00    -0.257 OA
BRANCH  15  17
HETATM   17  C6  UNL     1      10.658   3.017  24.883  1.00  0.00     0.159 C 
BRANCH  17  18
HETATM   18  C5  UNL     1      11.347   2.607  23.606  1.00  0.00     0.059 C 
BRANCH  18  19
HETATM   19  C4  UNL     1      10.965   1.255  23.115  1.00  0.00     0.006 C 
BRANCH  19  20
HETATM   20  C3  UNL     1      11.351   1.048  21.677  1.00  0.00     0.000 C 
BRANCH  20  21
HETATM   21  C2  UNL     1      12.786   0.593  21.522  1.00  0.00    -0.005 C 
HETATM   22  C1  UNL     1      12.834  -0.910  21.300  1.00  0.00     0.005 C 
ENDBRANCH  20  21
ENDBRANCH  19  20
ENDBRANCH  18  19
ENDBRANCH  17  18
ENDBRANCH  15  17
ENDBRANCH   9  14
ENDBRANCH   1   8
BRANCH   6  23
HETATM   23  N3  UNL     1      10.939   9.352  21.794  1.00  0.00    -0.341 N 
HETATM   24  C18 UNL     1      10.894   9.345  20.408  1.00  0.00     0.222 C 
HETATM   25  O3  UNL     1      10.927   8.229  19.785  1.00  0.00    -0.273 OA
ATOM     26  H3  UNL     1      10.907  10.257  22.264  1.00  0.00     0.164 HD
BRANCH  24  27
HETATM   27  C19 UNL     1      10.813  10.564  19.516  1.00  0.00     0.074 C 
HETATM   28  C20 UNL     1       9.445  10.664  18.931  1.00  0.00     0.020 C 
BRANCH  27  29
HETATM   29  C21 UNL     1      11.303  11.760  20.255  1.00  0.00     0.015 C 
BRANCH  29  30
HETATM   30  C22 UNL     1      10.370  12.829  20.650  1.00  0.00     0.020 C 
BRANCH  30  31
HETATM   31  C23 UNL     1       9.763  12.814  22.010  1.00  0.00     0.122 C 
BRANCH  31  32
HETATM   32  N4  UNL     1      10.751  13.326  22.987  1.00  0.00    -0.367 N 
HETATM   33  C24 UNL     1      10.477  13.603  24.189  1.00  0.00     0.196 C 
HETATM   34  N5  UNL     1      11.483  14.094  25.074  1.00  0.00    -0.067 NA
HETATM   35  N6  UNL     1       9.167  13.443  24.712  1.00  0.00    -0.067 NA
ATOM     36  H4  UNL     1      11.711  13.464  22.671  1.00  0.00     0.161 HD
ENDBRANCH  31  32
ENDBRANCH  30  31
ENDBRANCH  29  30
ENDBRANCH  27  29
ENDBRANCH  24  27
ENDBRANCH   6  23
TORSDOF 13
ENDMDL
MODEL 3
REMARK VINA RESULT: -7.531744561      3.590      5.427
REMARK  13 active torsions:
REMARK  status: ('A' for Active; 'I' for Inactive)
REMARK    1  A    between atoms: C2_2  and  C3_3 
REMARK    2  A    between atoms: C3_3  and  C4_4 
REMARK    3  A    between atoms: C4_4  and  C5_5 
REMARK    4  A    between atoms: C5_5  and  C6_6 
REMARK    5  A    between atoms: C6_6  and  N1_7 
REMARK       I    between atoms: N1_7  and  C7_8 
REMARK    6  A    between atoms: C7_8  and  C8_10 
REMARK    7  A    between atoms: C13_15  and  C14_16 
REMARK       I    between atoms: C14_16  and  N2_18 
REMARK    8  A    between atoms: C17_21  and  N3_22 
REMARK       I    between atoms: N3_22  and  C18_24 
REMARK    9  A    between atoms: C18_24  and  C19_26 
REMARK   10  A    between atoms: C19_26  and  C21_28 
REMARK   11  A    between atoms: C21_28  and  C22_29 
REMARK   12  A    between atoms: C22_29  and  C23_30 
REMARK   13  A    between atoms: C23_30  and  N4_31 
ROOT
HETATM    1  C14 UNL     1      10.185   6.548  27.405  1.00  0.00     0.240 C 
HETATM    2  O2  UNL     1      11.278   5.949  27.642  1.00  0.00    -0.272 OA
HETATM    3  N2  UNL     1       9.873   6.925  26.081  1.00  0.00    -0.263 N 
HETATM    4  C15 UNL     1       8.654   7.601  25.594  1.00  0.00     0.151 C 
HETATM    5  C16 UNL     1       9.335   8.542  24.583  1.00  0.00     0.066 C 
HETATM    6  C17 UNL     1      10.179   7.445  23.870  1.00  0.00     0.200 C 
HETATM    7  N7  UNL     1      10.718   6.729  24.967  1.00  0.00    -0.111 NA
ENDROOT
BRANCH   1   8
HETATM    8  C13 UNL     1       9.208   6.876  28.462  1.00  0.00     0.093 C 
HETATM    9  C8  UNL     1       8.607   5.706  29.168  1.00  0.00     0.106 C 
HETATM   10  C9  UNL     1       7.470   6.197  30.031  1.00  0.00     0.016 C 
HETATM   11  C10 UNL     1       7.455   7.711  30.159  1.00  0.00     0.001 C 
HETATM   12  C11 UNL     1       8.800   8.326  30.354  1.00  0.00     0.001 C 
HETATM   13  C12 UNL     1       9.900   7.690  29.569  1.00  0.00     0.015 C 
BRANCH   9  14
HETATM   14  C7  UNL     1       8.104   4.633  28.236  1.00  0.00     0.295 C 
HETATM   15  N1  UNL     1       8.586   3.359  28.297  1.00  0.00    -0.387 NA
HETATM   16  O1  UNL     1       7.215   5.089  27.451  1.00  0.00    -0.257 OA
BRANCH  15  17
HETATM   17  C6  UNL     1       9.071   2.080  28.358  1.00  0.00     0.159 C 
BRANCH  17  18
HETATM   18  C5  UNL     1       8.610   1.178  29.476  1.00  0.00     0.059 C 
BRANCH  18  19
HETATM   19  C4  UNL     1       7.411   1.675  30.205  1.00  0.00     0.006 C 
BRANCH  19  20
HETATM   20  C3  UNL     1       7.168   0.912  31.476  1.00  0.00     0.000 C 
BRANCH  20  21
HETATM   21  C2  UNL     1       6.418   1.727  32.507  1.00  0.00    -0.005 C 
HETATM   22  C1  UNL     1       6.326   3.177  32.056  1.00  0.00     0.005 C 
ENDBRANCH  20  21
ENDBRANCH  19  20
ENDBRANCH  18  19
ENDBRANCH  17  18
ENDBRANCH  15  17
ENDBRANCH   9  14
ENDBRANCH   1   8
BRANCH   6  23
HETATM   23  N3  UNL     1      11.118   8.068  22.980  1.00  0.00    -0.341 N 
HETATM   24  C18 UNL     1      12.052   9.020  23.359  1.00  0.00     0.222 C 
HETATM   25  O3  UNL     1      12.111   9.390  24.581  1.00  0.00    -0.273 OA
ATOM     26  H3  UNL     1      11.097   7.790  21.999  1.00  0.00     0.164 HD
BRANCH  24  27
HETATM   27  C19 UNL     1      13.045   9.702  22.445  1.00  0.00     0.074 C 
HETATM   28  C20 UNL     1      12.335  10.701  21.594  1.00  0.00     0.020 C 
BRANCH  27  29
HETATM   29  C21 UNL     1      14.193  10.214  23.243  1.00  0.00     0.015 C 
BRANCH  29  30
HETATM   30  C22 UNL     1      15.233   9.293  23.732  1.00  0.00     0.020 C 
BRANCH  30  31
HETATM   31  C23 UNL     1      15.541   9.232  25.187  1.00  0.00     0.122 C 
BRANCH  31  32
HETATM   32  N4  UNL     1      15.053  10.469  25.838  1.00  0.00    -0.367 N 
HETATM   33  C24 UNL     1      15.269  10.762  27.048  1.00  0.00     0.196 C 
HETATM   34  N5  UNL     1      14.765  11.974  27.608  1.00  0.00    -0.067 NA
HETATM   35  N6  UNL     1      16.014   9.908  27.902  1.00  0.00    -0.067 NA
ATOM     36  H4  UNL     1      14.509  11.124  25.276  1.00  0.00     0.161 HD
ENDBRANCH  31  32
ENDBRANCH  30  31
ENDBRANCH  29  30
ENDBRANCH  27  29
ENDBRANCH  24  27
ENDBRANCH   6  23
TORSDOF 13
ENDMDL
MODEL 4
REMARK VINA RESULT: -7.454313939      1.921      2.531
REMARK  13 active torsions:
REMARK  status: ('A' for Active; 'I' for Inactive)
REMARK    1  A    between atoms: C2_2  and  C3_3 
REMARK    2  A    between atoms: C3_3  and  C4_4 
REMARK    3  A    between atoms: C4_4  and  C5_5 
REMARK    4  A    between atoms: C5_5  and  C6_6 
REMARK    5  A    between atoms: C6_6  and  N1_7 
REMARK       I    between atoms: N1_7  and  C7_8 
REMARK    6  A    between atoms: C7_8  and  C8_10 
REMARK    7  A    between atoms: C13_15  and  C14_16 
REMARK       I    between atoms: C14_16  and  N2_18 
REMARK    8  A    between atoms: C17_21  and  N3_22 
REMARK       I    between atoms: N3_22  and  C18_24 
REMARK    9  A    between atoms: C18_24  and  C19_26 
REMARK   10  A    between atoms: C19_26  and  C21_28 
REMARK   11  A    between atoms: C21_28  and  C22_29 
REMARK   12  A    between atoms: C22_29  and  C23_30 
REMARK   13  A    between atoms: C23_30  and  N4_31 
ROOT
HETATM    1  C14 UNL     1       9.933   6.972  27.076  1.00  0.00     0.240 C 
HETATM    2  O2  UNL     1      11.185   6.786  27.167  1.00  0.00    -0.272 OA
HETATM    3  N2  UNL     1       9.369   7.292  25.821  1.00  0.00    -0.263 N 
HETATM    4  C15 UNL     1       7.947   7.519  25.498  1.00  0.00     0.151 C 
HETATM    5  C16 UNL     1       8.146   8.698  24.528  1.00  0.00     0.066 C 
HETATM    6  C17 UNL     1       9.236   8.015  23.651  1.00  0.00     0.200 C 
HETATM    7  N7  UNL     1      10.104   7.474  24.630  1.00  0.00    -0.111 NA
ENDROOT
BRANCH   1   8
HETATM    8  C13 UNL     1       9.023   6.870  28.233  1.00  0.00     0.093 C 
HETATM    9  C8  UNL     1       8.698   5.481  28.675  1.00  0.00     0.106 C 
HETATM   10  C9  UNL     1       7.584   5.549  29.692  1.00  0.00     0.016 C 
HETATM   11  C10 UNL     1       7.329   6.966  30.174  1.00  0.00     0.001 C 
HETATM   12  C11 UNL     1       8.564   7.761  30.434  1.00  0.00     0.001 C 
HETATM   13  C12 UNL     1       9.673   7.531  29.460  1.00  0.00     0.015 C 
BRANCH   9  14
HETATM   14  C7  UNL     1       8.294   4.568  27.546  1.00  0.00     0.295 C 
HETATM   15  N1  UNL     1       9.220   3.847  26.852  1.00  0.00    -0.387 NA
HETATM   16  O1  UNL     1       7.034   4.583  27.375  1.00  0.00    -0.257 OA
BRANCH  15  17
HETATM   17  C6  UNL     1      10.150   3.123  26.155  1.00  0.00     0.159 C 
BRANCH  17  18
HETATM   18  C5  UNL     1      10.847   3.767  24.983  1.00  0.00     0.059 C 
BRANCH  18  19
HETATM   19  C4  UNL     1      10.320   3.347  23.656  1.00  0.00     0.006 C 
BRANCH  19  20
HETATM   20  C3  UNL     1      10.680   1.925  23.330  1.00  0.00     0.000 C 
BRANCH  20  21
HETATM   21  C2  UNL     1      12.043   1.806  22.684  1.00  0.00    -0.005 C 
HETATM   22  C1  UNL     1      12.032   0.693  21.648  1.00  0.00     0.005 C 
ENDBRANCH  20  21
ENDBRANCH  19  20
ENDBRANCH  18  19
ENDBRANCH  17  18
ENDBRANCH  15  17
ENDBRANCH   9  14
ENDBRANCH   1   8
BRANCH   6  23
HETATM   23  N3  UNL     1       9.799   8.982  22.750  1.00  0.00    -0.341 N 
HETATM   24  C18 UNL     1      10.838   8.727  21.868  1.00  0.00     0.222 C 
HETATM   25  O3  UNL     1      11.352   7.557  21.826  1.00  0.00    -0.273 OA
ATOM     26  H3  UNL     1       9.406   9.923  22.760  1.00  0.00     0.164 HD
BRANCH  24  27
HETATM   27  C19 UNL     1      11.460   9.725  20.917  1.00  0.00     0.074 C 
HETATM   28  C20 UNL     1      10.436  10.181  19.933  1.00  0.00     0.020 C 
BRANCH  27  29
HETATM   29  C21 UNL     1      12.152  10.792  21.691  1.00  0.00     0.015 C 
BRANCH  29  30
HETATM   30  C22 UNL     1      12.943  10.456  22.887  1.00  0.00     0.020 C 
BRANCH  30  31
HETATM   31  C23 UNL     1      14.376  10.075  22.742  1.00  0.00     0.122 C 
BRANCH  31  32
HETATM   32  N4  UNL     1      14.832   9.424  23.991  1.00  0.00    -0.367 N 
HETATM   33  C24 UNL     1      15.982   8.924  24.147  1.00  0.00     0.196 C 
HETATM   34  N5  UNL     1      16.353   8.310  25.381  1.00  0.00    -0.067 NA
HETATM   35  N6  UNL     1      16.953   8.947  23.111  1.00  0.00    -0.067 NA
ATOM     36  H4  UNL     1      14.179   9.375  24.773  1.00  0.00     0.161 HD
ENDBRANCH  31  32
ENDBRANCH  30  31
ENDBRANCH  29  30
ENDBRANCH  27  29
ENDBRANCH  24  27
ENDBRANCH   6  23
TORSDOF 13
ENDMDL
MODEL 5
REMARK VINA RESULT: -7.363692270      3.807      6.270
REMARK  13 active torsions:
REMARK  status: ('A' for Active; 'I' for Inactive)
REMARK    1  A    between atoms: C2_2  and  C3_3 
REMARK    2  A    between atoms: C3_3  and  C4_4 
REMARK    3  A    between atoms: C4_4  and  C5_5 
REMARK    4  A    between atoms: C5_5  and  C6_6 
REMARK    5  A    between atoms: C6_6  and  N1_7 
REMARK       I    between atoms: N1_7  and  C7_8 
REMARK    6  A    between atoms: C7_8  and  C8_10 
REMARK    7  A    between atoms: C13_15  and  C14_16 
REMARK       I    between atoms: C14_16  and  N2_18 
REMARK    8  A    between atoms: C17_21  and  N3_22 
REMARK       I    between atoms: N3_22  and  C18_24 
REMARK    9  A    between atoms: C18_24  and  C19_26 
REMARK   10  A    between atoms: C19_26  and  C21_28 
REMARK   11  A    between atoms: C21_28  and  C22_29 
REMARK   12  A    between atoms: C22_29  and  C23_30 
REMARK   13  A    between atoms: C23_30  and  N4_31 
ROOT
HETATM    1  C14 UNL     1      10.099   4.331  26.455  1.00  0.00     0.240 C 
HETATM    2  O2  UNL     1      10.554   3.718  25.441  1.00  0.00    -0.272 OA
HETATM    3  N2  UNL     1      10.430   5.690  26.651  1.00  0.00    -0.263 N 
HETATM    4  C15 UNL     1       9.989   6.582  27.740  1.00  0.00     0.151 C 
HETATM    5  C16 UNL     1      11.325   7.317  27.954  1.00  0.00     0.066 C 
HETATM    6  C17 UNL     1      11.567   7.670  26.457  1.00  0.00     0.200 C 
HETATM    7  N7  UNL     1      11.287   6.439  25.816  1.00  0.00    -0.111 NA
ENDROOT
BRANCH   1   8
HETATM    8  C13 UNL     1       9.229   3.684  27.456  1.00  0.00     0.093 C 
HETATM    9  C8  UNL     1       7.797   3.532  27.060  1.00  0.00     0.106 C 
HETATM   10  C9  UNL     1       7.009   3.085  28.269  1.00  0.00     0.016 C 
HETATM   11  C10 UNL     1       7.908   2.650  29.414  1.00  0.00     0.001 C 
HETATM   12  C11 UNL     1       9.081   1.828  28.999  1.00  0.00     0.001 C 
HETATM   13  C12 UNL     1       9.719   2.250  27.716  1.00  0.00     0.015 C 
BRANCH   9  14
HETATM   14  C7  UNL     1       7.188   4.792  26.501  1.00  0.00     0.295 C 
HETATM   15  N1  UNL     1       6.712   5.772  27.321  1.00  0.00    -0.387 NA
HETATM   16  O1  UNL     1       7.204   4.783  25.230  1.00  0.00    -0.257 OA
BRANCH  15  17
HETATM   17  C6  UNL     1       6.234   6.757  28.144  1.00  0.00     0.159 C 
BRANCH  17  18
HETATM   18  C5  UNL     1       6.654   6.764  29.592  1.00  0.00     0.059 C 
BRANCH  18  19
HETATM   19  C4  UNL     1       5.751   5.997  30.492  1.00  0.00     0.006 C 
BRANCH  19  20
HETATM   20  C3  UNL     1       6.510   5.279  31.574  1.00  0.00     0.000 C 
BRANCH  20  21
HETATM   21  C2  UNL     1       5.620   4.386  32.410  1.00  0.00    -0.005 C 
HETATM   22  C1  UNL     1       6.185   2.975  32.445  1.00  0.00     0.005 C 
ENDBRANCH  20  21
ENDBRANCH  19  20
ENDBRANCH  18  19
ENDBRANCH  17  18
ENDBRANCH  15  17
ENDBRANCH   9  14
ENDBRANCH   1   8
BRANCH   6  23
HETATM   23  N3  UNL     1      12.895   8.194  26.299  1.00  0.00    -0.341 N 
HETATM   24  C18 UNL     1      13.271   9.107  25.326  1.00  0.00     0.222 C 
HETATM   25  O3  UNL     1      12.398   9.536  24.496  1.00  0.00    -0.273 OA
ATOM     26  H3  UNL     1      13.612   7.873  26.949  1.00  0.00     0.164 HD
BRANCH  24  27
HETATM   27  C19 UNL     1      14.661   9.669  25.126  1.00  0.00     0.074 C 
HETATM   28  C20 UNL     1      15.480   9.420  26.347  1.00  0.00     0.020 C 
BRANCH  27  29
HETATM   29  C21 UNL     1      15.224   9.169  23.841  1.00  0.00     0.015 C 
BRANCH  29  30
HETATM   30  C22 UNL     1      15.253  10.035  22.650  1.00  0.00     0.020 C 
BRANCH  30  31
HETATM   31  C23 UNL     1      16.412   9.970  21.717  1.00  0.00     0.122 C 
BRANCH  31  32
HETATM   32  N4  UNL     1      16.062  10.673  20.461  1.00  0.00    -0.367 N 
HETATM   33  C24 UNL     1      16.911  11.206  19.692  1.00  0.00     0.196 C 
HETATM   34  N5  UNL     1      16.500  11.868  18.496  1.00  0.00    -0.067 NA
HETATM   35  N6  UNL     1      18.301  11.173  19.976  1.00  0.00    -0.067 NA
ATOM     36  H4  UNL     1      15.077  10.731  20.202  1.00  0.00     0.161 HD
ENDBRANCH  31  32
ENDBRANCH  30  31
ENDBRANCH  29  30
ENDBRANCH  27  29
ENDBRANCH  24  27
ENDBRANCH   6  23
TORSDOF 13
ENDMDL
