MODEL 1
REMARK VINA RESULT: -7.036271517      0.000      0.000
REMARK  2 active torsions:
REMARK  status: ('A' for Active; 'I' for Inactive)
REMARK    1  A    between atoms: C2_2  and  C3_3 
REMARK    2  A    between atoms: C4_4  and  C5_5 
ROOT
HETATM    1  C5  UNL     1      26.612   7.639   4.263  1.00  0.00     0.012 C 
HETATM    2  C6  UNL     1      27.891   7.298   3.456  1.00  0.00     0.013 C 
HETATM    3  C7  UNL     1      28.353   8.668   3.134  1.00  0.00    -0.013 C 
HETATM    4  C8  UNL     1      27.059   9.367   2.741  1.00  0.00     0.010 C 
HETATM    5  C9  UNL     1      26.718   9.142   4.222  1.00  0.00    -0.006 C 
HETATM    6  C10 UNL     1      28.174   9.383   4.482  1.00  0.00     0.010 C 
ENDROOT
BRANCH   1   7
HETATM    7  C4  UNL     1      26.672   7.085   5.605  1.00  0.00    -0.022 C 
HETATM    8  C3  UNL     1      26.132   5.973   5.981  1.00  0.00    -0.004 C 
BRANCH   8   9
HETATM    9  C2  UNL     1      25.380   5.115   5.099  1.00  0.00    -0.011 C 
HETATM   10  C1  UNL     1      25.938   4.383   4.148  1.00  0.00     0.011 C 
ENDBRANCH   8   9
ENDBRANCH   1   7
TORSDOF 2
ENDMDL
MODEL 2
REMARK VINA RESULT: -6.867450680      0.805      1.323
REMARK  2 active torsions:
REMARK  status: ('A' for Active; 'I' for Inactive)
REMARK    1  A    between atoms: C2_2  and  C3_3 
REMARK    2  A    between atoms: C4_4  and  C5_5 
ROOT
HETATM    1  C5  UNL     1      27.579   7.601   4.550  1.00  0.00     0.012 C 
HETATM    2  C6  UNL     1      28.385   8.924   4.577  1.00  0.00     0.013 C 
HETATM    3  C7  UNL     1      28.013   9.468   3.250  1.00  0.00    -0.013 C 
HETATM    4  C8  UNL     1      28.104   8.239   2.355  1.00  0.00     0.010 C 
HETATM    5  C9  UNL     1      26.914   7.773   3.208  1.00  0.00    -0.006 C 
HETATM    6  C10 UNL     1      26.499   9.212   3.222  1.00  0.00     0.010 C 
ENDROOT
BRANCH   1   7
HETATM    7  C4  UNL     1      26.644   7.530   5.660  1.00  0.00    -0.022 C 
HETATM    8  C3  UNL     1      26.017   6.467   6.044  1.00  0.00    -0.004 C 
BRANCH   8   9
HETATM    9  C2  UNL     1      26.163   5.182   5.408  1.00  0.00    -0.011 C 
HETATM   10  C1  UNL     1      25.401   4.778   4.404  1.00  0.00     0.011 C 
ENDBRANCH   8   9
ENDBRANCH   1   7
TORSDOF 2
ENDMDL
MODEL 3
REMARK VINA RESULT: -6.511860580      1.244      1.991
REMARK  2 active torsions:
REMARK  status: ('A' for Active; 'I' for Inactive)
REMARK    1  A    between atoms: C2_2  and  C3_3 
REMARK    2  A    between atoms: C4_4  and  C5_5 
ROOT
HETATM    1  C5  UNL     1      26.858   8.323   2.938  1.00  0.00     0.012 C 
HETATM    2  C6  UNL     1      28.163   7.943   2.192  1.00  0.00     0.013 C 
HETATM    3  C7  UNL     1      28.192   9.022   1.178  1.00  0.00    -0.013 C 
HETATM    4  C8  UNL     1      26.741   9.083   0.722  1.00  0.00     0.010 C 
HETATM    5  C9  UNL     1      26.514   9.569   2.161  1.00  0.00    -0.006 C 
HETATM    6  C10 UNL     1      27.839  10.255   2.023  1.00  0.00     0.010 C 
ENDROOT
BRANCH   1   7
HETATM    7  C4  UNL     1      27.108   8.565   4.348  1.00  0.00    -0.022 C 
HETATM    8  C3  UNL     1      26.761   7.781   5.315  1.00  0.00    -0.004 C 
BRANCH   8   9
HETATM    9  C2  UNL     1      26.061   6.536   5.119  1.00  0.00    -0.011 C 
HETATM   10  C1  UNL     1      25.977   5.596   6.046  1.00  0.00     0.011 C 
ENDBRANCH   8   9
ENDBRANCH   1   7
TORSDOF 2
ENDMDL
MODEL 4
REMARK VINA RESULT: -6.404486185      0.911      4.235
REMARK  2 active torsions:
REMARK  status: ('A' for Active; 'I' for Inactive)
REMARK    1  A    between atoms: C2_2  and  C3_3 
REMARK    2  A    between atoms: C4_4  and  C5_5 
ROOT
HETATM    1  C5  UNL     1      26.428   7.044   4.543  1.00  0.00     0.012 C 
HETATM    2  C6  UNL     1      26.080   6.616   5.991  1.00  0.00     0.013 C 
HETATM    3  C7  UNL     1      25.677   5.212   5.744  1.00  0.00    -0.013 C 
HETATM    4  C8  UNL     1      24.826   5.331   4.487  1.00  0.00     0.010 C 
HETATM    5  C9  UNL     1      26.169   5.729   3.854  1.00  0.00    -0.006 C 
HETATM    6  C10 UNL     1      26.782   4.733   4.791  1.00  0.00     0.010 C 
ENDROOT
BRANCH   1   7
HETATM    7  C4  UNL     1      27.805   7.495   4.443  1.00  0.00    -0.022 C 
HETATM    8  C3  UNL     1      28.206   8.539   3.795  1.00  0.00    -0.004 C 
BRANCH   8   9
HETATM    9  C2  UNL     1      27.321   9.415   3.069  1.00  0.00    -0.011 C 
HETATM   10  C1  UNL     1      27.577   9.857   1.848  1.00  0.00     0.011 C 
ENDBRANCH   8   9
ENDBRANCH   1   7
TORSDOF 2
ENDMDL
MODEL 5
REMARK VINA RESULT: -6.343511013      1.549      2.319
REMARK  2 active torsions:
REMARK  status: ('A' for Active; 'I' for Inactive)
REMARK    1  A    between atoms: C2_2  and  C3_3 
REMARK    2  A    between atoms: C4_4  and  C5_5 
ROOT
HETATM    1  C5  UNL     1      27.185   7.769   2.031  1.00  0.00     0.012 C 
HETATM    2  C6  UNL     1      27.807   8.826   1.083  1.00  0.00     0.013 C 
HETATM    3  C7  UNL     1      27.628  10.040   1.913  1.00  0.00    -0.013 C 
HETATM    4  C8  UNL     1      26.215   9.863   2.452  1.00  0.00     0.010 C 
HETATM    5  C9  UNL     1      26.855   8.677   3.189  1.00  0.00    -0.006 C 
HETATM    6  C10 UNL     1      28.075   9.541   3.295  1.00  0.00     0.010 C 
ENDROOT
BRANCH   1   7
HETATM    7  C4  UNL     1      28.142   6.728   2.360  1.00  0.00    -0.022 C 
HETATM    8  C3  UNL     1      27.843   5.526   2.732  1.00  0.00    -0.004 C 
BRANCH   8   9
HETATM    9  C2  UNL     1      26.490   5.050   2.875  1.00  0.00    -0.011 C 
HETATM   10  C1  UNL     1      25.978   4.652   4.028  1.00  0.00     0.011 C 
ENDBRANCH   8   9
ENDBRANCH   1   7
TORSDOF 2
ENDMDL
