MODEL 1
REMARK VINA RESULT: -4.033506346      0.000      0.000
REMARK  2 active torsions:
REMARK  status: ('A' for Active; 'I' for Inactive)
REMARK    1  A    between atoms: C2_2  and  N1_4 
REMARK    2  A    between atoms: N1_4  and  C3_6 
ROOT
HETATM    1  N1  UNL     1      26.432   6.337   4.341  1.00  0.00    -0.381 N 
ATOM      2  H1  UNL     1      25.485   6.599   4.068  1.00  0.00     0.160 HD
ENDROOT
BRANCH   1   3
HETATM    3  C2  UNL     1      27.428   6.159   3.319  1.00  0.00     0.069 C 
HETATM    4  C1  UNL     1      27.514   4.933   2.511  1.00  0.00     0.081 C 
HETATM    5  S1  UNL     1      28.511   7.370   3.048  1.00  0.00    -0.066 SA
ENDBRANCH   1   3
BRANCH   1   6
HETATM    6  C3  UNL     1      26.730   6.155   5.736  1.00  0.00     0.074 C 
HETATM    7  C4  UNL     1      25.720   5.202   6.308  1.00  0.00     0.031 C 
HETATM    8  C5  UNL     1      26.741   7.490   6.428  1.00  0.00     0.031 C 
ENDBRANCH   1   6
TORSDOF 2
ENDMDL
MODEL 2
REMARK VINA RESULT: -4.012065418      1.164      1.438
REMARK  2 active torsions:
REMARK  status: ('A' for Active; 'I' for Inactive)
REMARK    1  A    between atoms: C2_2  and  N1_4 
REMARK    2  A    between atoms: N1_4  and  C3_6 
ROOT
HETATM    1  N1  UNL     1      26.495   6.388   4.372  1.00  0.00    -0.381 N 
ATOM      2  H1  UNL     1      25.541   6.562   4.058  1.00  0.00     0.160 HD
ENDROOT
BRANCH   1   3
HETATM    3  C2  UNL     1      27.552   6.344   3.398  1.00  0.00     0.069 C 
HETATM    4  C1  UNL     1      28.557   7.412   3.282  1.00  0.00     0.081 C 
HETATM    5  S1  UNL     1      27.636   5.056   2.376  1.00  0.00    -0.066 SA
ENDBRANCH   1   3
BRANCH   1   6
HETATM    6  C3  UNL     1      26.742   6.194   5.776  1.00  0.00     0.074 C 
HETATM    7  C4  UNL     1      25.724   5.222   6.298  1.00  0.00     0.031 C 
HETATM    8  C5  UNL     1      26.710   7.520   6.482  1.00  0.00     0.031 C 
ENDBRANCH   1   6
TORSDOF 2
ENDMDL
MODEL 3
REMARK VINA RESULT: -3.872586194      1.698      3.613
REMARK  2 active torsions:
REMARK  status: ('A' for Active; 'I' for Inactive)
REMARK    1  A    between atoms: C2_2  and  N1_4 
REMARK    2  A    between atoms: N1_4  and  C3_6 
ROOT
HETATM    1  N1  UNL     1      26.811   6.709   3.742  1.00  0.00    -0.381 N 
ATOM      2  H1  UNL     1      26.225   7.407   3.285  1.00  0.00     0.160 HD
ENDROOT
BRANCH   1   3
HETATM    3  C2  UNL     1      26.436   6.229   5.045  1.00  0.00     0.069 C 
HETATM    4  C1  UNL     1      25.581   5.047   5.230  1.00  0.00     0.081 C 
HETATM    5  S1  UNL     1      26.979   7.036   6.374  1.00  0.00    -0.066 SA
ENDBRANCH   1   3
BRANCH   1   6
HETATM    6  C3  UNL     1      27.987   6.234   3.064  1.00  0.00     0.074 C 
HETATM    7  C4  UNL     1      28.480   7.331   2.165  1.00  0.00     0.031 C 
HETATM    8  C5  UNL     1      27.667   4.964   2.327  1.00  0.00     0.031 C 
ENDBRANCH   1   6
TORSDOF 2
ENDMDL
MODEL 4
REMARK VINA RESULT: -3.851295136      1.911      3.877
REMARK  2 active torsions:
REMARK  status: ('A' for Active; 'I' for Inactive)
REMARK    1  A    between atoms: C2_2  and  N1_4 
REMARK    2  A    between atoms: N1_4  and  C3_6 
ROOT
HETATM    1  N1  UNL     1      26.741   6.476   3.813  1.00  0.00    -0.381 N 
ATOM      2  H1  UNL     1      25.922   6.751   3.271  1.00  0.00     0.160 HD
ENDROOT
BRANCH   1   3
HETATM    3  C2  UNL     1      26.655   6.470   5.249  1.00  0.00     0.069 C 
HETATM    4  C1  UNL     1      27.302   7.498   6.078  1.00  0.00     0.081 C 
HETATM    5  S1  UNL     1      25.805   5.269   5.987  1.00  0.00    -0.066 SA
ENDBRANCH   1   3
BRANCH   1   6
HETATM    6  C3  UNL     1      27.945   6.106   3.119  1.00  0.00     0.074 C 
HETATM    7  C4  UNL     1      28.411   7.296   2.330  1.00  0.00     0.031 C 
HETATM    8  C5  UNL     1      27.685   4.897   2.266  1.00  0.00     0.031 C 
ENDBRANCH   1   6
TORSDOF 2
ENDMDL
MODEL 5
REMARK VINA RESULT: -3.833715554      1.049      1.221
REMARK  2 active torsions:
REMARK  status: ('A' for Active; 'I' for Inactive)
REMARK    1  A    between atoms: C2_2  and  N1_4 
REMARK    2  A    between atoms: N1_4  and  C3_6 
ROOT
HETATM    1  N1  UNL     1      27.061   6.501   4.313  1.00  0.00    -0.381 N 
ATOM      2  H1  UNL     1      27.189   7.410   4.759  1.00  0.00     0.160 HD
ENDROOT
BRANCH   1   3
HETATM    3  C2  UNL     1      27.711   6.246   3.056  1.00  0.00     0.069 C 
HETATM    4  C1  UNL     1      27.738   4.909   2.444  1.00  0.00     0.081 C 
HETATM    5  S1  UNL     1      28.453   7.493   2.279  1.00  0.00    -0.066 SA
ENDBRANCH   1   3
BRANCH   1   6
HETATM    6  C3  UNL     1      26.237   5.517   4.960  1.00  0.00     0.074 C 
HETATM    7  C4  UNL     1      24.849   5.629   4.397  1.00  0.00     0.031 C 
HETATM    8  C5  UNL     1      26.288   5.715   6.449  1.00  0.00     0.031 C 
ENDBRANCH   1   6
TORSDOF 2
ENDMDL
