MODEL 1
REMARK VINA RESULT: -3.897986503      0.000      0.000
REMARK  1 active torsions:
REMARK  status: ('A' for Active; 'I' for Inactive)
REMARK    1  A    between atoms: C7_7  and  O1_9 
ROOT
HETATM    1  C1  UNL     1      28.106   7.290   4.243  1.00  0.00     0.018 C 
HETATM    2  C2  UNL     1      26.989   6.576   4.815  1.00  0.00    -0.013 C 
HETATM    3  C3  UNL     1      26.888   6.349   6.291  1.00  0.00     0.012 C 
HETATM    4  C4  UNL     1      25.554   5.578   6.330  1.00  0.00     0.008 C 
HETATM    5  C5  UNL     1      25.197   5.648   4.883  1.00  0.00     0.021 C 
HETATM    6  C6  UNL     1      25.571   7.094   4.524  1.00  0.00     0.019 C 
HETATM    7  C7  UNL     1      26.502   5.295   4.196  1.00  0.00     0.065 C 
HETATM    8  C8  UNL     1      27.154   4.041   4.659  1.00  0.00     0.047 C 
ENDROOT
BRANCH   7   9
HETATM    9  O1  UNL     1      26.326   5.329   2.821  1.00  0.00    -0.389 OA
ATOM     10  H1  UNL     1      26.030   6.160   2.470  1.00  0.00     0.210 HD
ENDBRANCH   7   9
TORSDOF 1
ENDMDL
MODEL 2
REMARK VINA RESULT: -3.843115005      1.162      2.287
REMARK  1 active torsions:
REMARK  status: ('A' for Active; 'I' for Inactive)
REMARK    1  A    between atoms: C7_7  and  O1_9 
ROOT
HETATM    1  C1  UNL     1      24.247   5.933   3.994  1.00  0.00     0.018 C 
HETATM    2  C2  UNL     1      25.482   6.081   4.728  1.00  0.00    -0.013 C 
HETATM    3  C3  UNL     1      26.040   7.435   5.040  1.00  0.00     0.012 C 
HETATM    4  C4  UNL     1      27.305   7.007   5.808  1.00  0.00     0.008 C 
HETATM    5  C5  UNL     1      27.092   5.530   5.814  1.00  0.00     0.021 C 
HETATM    6  C6  UNL     1      25.589   5.418   6.110  1.00  0.00     0.019 C 
HETATM    7  C7  UNL     1      26.682   5.242   4.382  1.00  0.00     0.065 C 
HETATM    8  C8  UNL     1      27.590   5.778   3.333  1.00  0.00     0.047 C 
ENDROOT
BRANCH   7   9
HETATM    9  O1  UNL     1      26.435   3.887   4.234  1.00  0.00    -0.389 OA
ATOM     10  H1  UNL     1      26.056   3.631   3.402  1.00  0.00     0.210 HD
ENDBRANCH   7   9
TORSDOF 1
ENDMDL
MODEL 3
REMARK VINA RESULT: -3.601533929      1.523      2.646
REMARK  1 active torsions:
REMARK  status: ('A' for Active; 'I' for Inactive)
REMARK    1  A    between atoms: C7_7  and  O1_9 
ROOT
HETATM    1  C1  UNL     1      26.687   7.202   6.297  1.00  0.00     0.018 C 
HETATM    2  C2  UNL     1      26.690   6.262   5.201  1.00  0.00    -0.013 C 
HETATM    3  C3  UNL     1      27.249   6.634   3.863  1.00  0.00     0.012 C 
HETATM    4  C4  UNL     1      27.006   5.306   3.119  1.00  0.00     0.008 C 
HETATM    5  C5  UNL     1      26.459   4.497   4.247  1.00  0.00     0.021 C 
HETATM    6  C6  UNL     1      27.375   4.903   5.413  1.00  0.00     0.019 C 
HETATM    7  C7  UNL     1      25.465   5.445   4.891  1.00  0.00     0.065 C 
HETATM    8  C8  UNL     1      24.471   6.057   3.970  1.00  0.00     0.047 C 
ENDROOT
BRANCH   7   9
HETATM    9  O1  UNL     1      24.874   4.825   5.981  1.00  0.00    -0.389 OA
ATOM     10  H1  UNL     1      24.089   4.328   5.789  1.00  0.00     0.210 HD
ENDBRANCH   7   9
TORSDOF 1
ENDMDL
MODEL 4
REMARK VINA RESULT: -3.501995303      1.370      1.899
REMARK  1 active torsions:
REMARK  status: ('A' for Active; 'I' for Inactive)
REMARK    1  A    between atoms: C7_7  and  O1_9 
ROOT
HETATM    1  C1  UNL     1      27.169   5.240   3.019  1.00  0.00     0.018 C 
HETATM    2  C2  UNL     1      26.854   6.067   4.160  1.00  0.00    -0.013 C 
HETATM    3  C3  UNL     1      27.869   6.998   4.747  1.00  0.00     0.012 C 
HETATM    4  C4  UNL     1      27.021   7.601   5.883  1.00  0.00     0.008 C 
HETATM    5  C5  UNL     1      25.721   6.928   5.593  1.00  0.00     0.021 C 
HETATM    6  C6  UNL     1      25.645   7.011   4.061  1.00  0.00     0.019 C 
HETATM    7  C7  UNL     1      26.133   5.489   5.348  1.00  0.00     0.065 C 
HETATM    8  C8  UNL     1      26.977   4.873   6.405  1.00  0.00     0.047 C 
ENDROOT
BRANCH   7   9
HETATM    9  O1  UNL     1      25.012   4.730   5.050  1.00  0.00    -0.389 OA
ATOM     10  H1  UNL     1      25.186   3.886   4.652  1.00  0.00     0.210 HD
ENDBRANCH   7   9
TORSDOF 1
ENDMDL
MODEL 5
REMARK VINA RESULT: -3.441128499      1.499      2.603
REMARK  1 active torsions:
REMARK  status: ('A' for Active; 'I' for Inactive)
REMARK    1  A    between atoms: C7_7  and  O1_9 
ROOT
HETATM    1  C1  UNL     1      26.655   3.869   4.134  1.00  0.00     0.018 C 
HETATM    2  C2  UNL     1      26.484   5.282   4.376  1.00  0.00    -0.013 C 
HETATM    3  C3  UNL     1      27.429   6.288   3.795  1.00  0.00     0.012 C 
HETATM    4  C4  UNL     1      26.789   7.575   4.350  1.00  0.00     0.008 C 
HETATM    5  C5  UNL     1      25.598   6.978   5.022  1.00  0.00     0.021 C 
HETATM    6  C6  UNL     1      25.140   5.926   4.001  1.00  0.00     0.019 C 
HETATM    7  C7  UNL     1      26.188   5.791   5.761  1.00  0.00     0.065 C 
HETATM    8  C8  UNL     1      27.360   6.090   6.626  1.00  0.00     0.047 C 
ENDROOT
BRANCH   7   9
HETATM    9  O1  UNL     1      25.182   5.120   6.436  1.00  0.00    -0.389 OA
ATOM     10  H1  UNL     1      24.353   5.058   5.977  1.00  0.00     0.210 HD
ENDBRANCH   7   9
TORSDOF 1
ENDMDL
