MODEL 1
REMARK VINA RESULT: -4.313037280      0.000      0.000
REMARK  1 active torsions:
REMARK  status: ('A' for Active; 'I' for Inactive)
REMARK    1  A    between atoms: N1_1  and  C1_5 
ROOT
HETATM    1  C1  UNL     1      28.034   6.958   3.442  1.00  0.00     0.185 C 
HETATM    2  C2  UNL     1      27.407   5.569   3.664  1.00  0.00     0.042 C 
HETATM    3  C3  UNL     1      26.487   6.272   4.601  1.00  0.00    -0.037 C 
HETATM    4  C4  UNL     1      25.184   5.711   4.921  1.00  0.00     0.010 C 
HETATM    5  C5  UNL     1      25.813   5.163   6.211  1.00  0.00     0.002 C 
HETATM    6  C6  UNL     1      26.854   6.281   6.049  1.00  0.00     0.010 C 
HETATM    7  C7  UNL     1      26.640   7.493   3.804  1.00  0.00     0.042 C 
ENDROOT
BRANCH   1   8
HETATM    8  N1  UNL     1      28.468   7.199   2.121  1.00  0.00    -0.075 N 
ATOM      9  H13 UNL     1      29.469   7.393   2.106  1.00  0.00     0.274 HD
ATOM     10  H12 UNL     1      28.449   6.336   1.577  1.00  0.00     0.274 HD
ATOM     11  H11 UNL     1      27.955   7.936   1.635  1.00  0.00     0.274 HD
ENDBRANCH   1   8
TORSDOF 1
ENDMDL
MODEL 2
REMARK VINA RESULT: -4.127315086      0.921      1.528
REMARK  1 active torsions:
REMARK  status: ('A' for Active; 'I' for Inactive)
REMARK    1  A    between atoms: N1_1  and  C1_5 
ROOT
HETATM    1  C1  UNL     1      27.416   6.776   2.772  1.00  0.00     0.185 C 
HETATM    2  C2  UNL     1      27.530   6.854   4.306  1.00  0.00     0.042 C 
HETATM    3  C3  UNL     1      26.668   5.639   4.307  1.00  0.00    -0.037 C 
HETATM    4  C4  UNL     1      26.675   4.727   5.440  1.00  0.00     0.010 C 
HETATM    5  C5  UNL     1      25.398   5.433   5.926  1.00  0.00     0.002 C 
HETATM    6  C6  UNL     1      25.196   5.840   4.459  1.00  0.00     0.010 C 
HETATM    7  C7  UNL     1      27.222   5.269   3.001  1.00  0.00     0.042 C 
ENDROOT
BRANCH   1   8
HETATM    8  N1  UNL     1      28.585   7.153   2.078  1.00  0.00    -0.075 N 
ATOM      9  H13 UNL     1      29.259   7.571   2.719  1.00  0.00     0.274 HD
ATOM     10  H12 UNL     1      29.109   6.326   1.788  1.00  0.00     0.274 HD
ATOM     11  H11 UNL     1      28.423   7.768   1.280  1.00  0.00     0.274 HD
ENDBRANCH   1   8
TORSDOF 1
ENDMDL
MODEL 3
REMARK VINA RESULT: -3.959355545      1.337      2.058
REMARK  1 active torsions:
REMARK  status: ('A' for Active; 'I' for Inactive)
REMARK    1  A    between atoms: N1_1  and  C1_5 
ROOT
HETATM    1  C1  UNL     1      26.840   5.183   2.926  1.00  0.00     0.185 C 
HETATM    2  C2  UNL     1      27.470   6.098   3.993  1.00  0.00     0.042 C 
HETATM    3  C3  UNL     1      26.575   5.387   4.949  1.00  0.00    -0.037 C 
HETATM    4  C4  UNL     1      26.899   5.334   6.367  1.00  0.00     0.010 C 
HETATM    5  C5  UNL     1      25.913   6.497   6.564  1.00  0.00     0.002 C 
HETATM    6  C6  UNL     1      25.258   6.020   5.259  1.00  0.00     0.010 C 
HETATM    7  C7  UNL     1      26.629   4.202   4.089  1.00  0.00     0.042 C 
ENDROOT
BRANCH   1   8
HETATM    8  N1  UNL     1      27.731   4.764   1.915  1.00  0.00    -0.075 N 
ATOM      9  H13 UNL     1      28.598   4.416   2.326  1.00  0.00     0.274 HD
ATOM     10  H12 UNL     1      27.392   3.910   1.472  1.00  0.00     0.274 HD
ATOM     11  H11 UNL     1      27.933   5.473   1.209  1.00  0.00     0.274 HD
ENDBRANCH   1   8
TORSDOF 1
ENDMDL
MODEL 4
REMARK VINA RESULT: -3.840576681      1.462      1.517
REMARK  1 active torsions:
REMARK  status: ('A' for Active; 'I' for Inactive)
REMARK    1  A    between atoms: N1_1  and  C1_5 
ROOT
HETATM    1  C1  UNL     1      27.416   5.374   2.927  1.00  0.00     0.185 C 
HETATM    2  C2  UNL     1      27.258   4.561   4.226  1.00  0.00     0.042 C 
HETATM    3  C3  UNL     1      26.311   5.637   4.634  1.00  0.00    -0.037 C 
HETATM    4  C4  UNL     1      25.284   5.380   5.632  1.00  0.00     0.010 C 
HETATM    5  C5  UNL     1      26.217   6.038   6.661  1.00  0.00     0.002 C 
HETATM    6  C6  UNL     1      26.855   6.755   5.462  1.00  0.00     0.010 C 
HETATM    7  C7  UNL     1      25.991   5.864   3.223  1.00  0.00     0.042 C 
ENDROOT
BRANCH   1   8
HETATM    8  N1  UNL     1      27.575   4.591   1.764  1.00  0.00    -0.075 N 
ATOM      9  H13 UNL     1      28.565   4.446   1.566  1.00  0.00     0.274 HD
ATOM     10  H12 UNL     1      27.290   3.628   1.941  1.00  0.00     0.274 HD
ATOM     11  H11 UNL     1      27.097   4.957   0.939  1.00  0.00     0.274 HD
ENDBRANCH   1   8
TORSDOF 1
ENDMDL
MODEL 5
REMARK VINA RESULT: -3.838141110      1.651      1.971
REMARK  1 active torsions:
REMARK  status: ('A' for Active; 'I' for Inactive)
REMARK    1  A    between atoms: N1_1  and  C1_5 
ROOT
HETATM    1  C1  UNL     1      28.026   7.482   5.598  1.00  0.00     0.185 C 
HETATM    2  C2  UNL     1      27.466   6.880   4.294  1.00  0.00     0.042 C 
HETATM    3  C3  UNL     1      26.342   6.402   5.146  1.00  0.00    -0.037 C 
HETATM    4  C4  UNL     1      25.043   6.105   4.560  1.00  0.00     0.010 C 
HETATM    5  C5  UNL     1      25.459   4.624   4.563  1.00  0.00     0.002 C 
HETATM    6  C6  UNL     1      26.431   5.012   5.686  1.00  0.00     0.010 C 
HETATM    7  C7  UNL     1      26.555   7.545   6.037  1.00  0.00     0.042 C 
ENDROOT
BRANCH   1   8
HETATM    8  N1  UNL     1      28.680   8.721   5.436  1.00  0.00    -0.075 N 
ATOM      9  H13 UNL     1      28.904   8.880   4.453  1.00  0.00     0.274 HD
ATOM     10  H12 UNL     1      28.028   9.491   5.593  1.00  0.00     0.274 HD
ATOM     11  H11 UNL     1      29.513   8.838   6.014  1.00  0.00     0.274 HD
ENDBRANCH   1   8
TORSDOF 1
ENDMDL
