MODEL 1
REMARK VINA RESULT: -4.438136044      0.000      0.000
REMARK  1 active torsions:
REMARK  status: ('A' for Active; 'I' for Inactive)
REMARK    1  A    between atoms: C4_4  and  O1_5 
ROOT
HETATM    1  C1  UNL     1      26.863   5.118   6.889  1.00  0.00     0.011 C 
HETATM    2  C2  UNL     1      26.023   5.983   6.038  1.00  0.00    -0.006 C 
HETATM    3  C3  UNL     1      26.710   7.335   5.813  1.00  0.00     0.037 C 
HETATM    4  C4  UNL     1      26.750   7.024   4.339  1.00  0.00     0.126 C 
HETATM    5  C5  UNL     1      25.948   5.765   4.590  1.00  0.00    -0.018 C 
HETATM    6  C6  UNL     1      26.498   4.517   3.998  1.00  0.00     0.018 C 
HETATM    7  C7  UNL     1      24.527   5.981   4.046  1.00  0.00     0.018 C 
ENDROOT
BRANCH   4   8
HETATM    8  O1  UNL     1      28.024   6.823   3.829  1.00  0.00    -0.395 OA
ATOM      9  H1  UNL     1      28.107   6.062   3.267  1.00  0.00     0.210 HD
ENDBRANCH   4   8
TORSDOF 1
ENDMDL
MODEL 2
REMARK VINA RESULT: -3.965666787      1.354      2.279
REMARK  1 active torsions:
REMARK  status: ('A' for Active; 'I' for Inactive)
REMARK    1  A    between atoms: C4_4  and  O1_5 
ROOT
HETATM    1  C1  UNL     1      27.644   7.354   5.443  1.00  0.00     0.011 C 
HETATM    2  C2  UNL     1      26.679   6.874   4.434  1.00  0.00    -0.006 C 
HETATM    3  C3  UNL     1      27.377   5.957   3.424  1.00  0.00     0.037 C 
HETATM    4  C4  UNL     1      26.473   4.839   3.876  1.00  0.00     0.126 C 
HETATM    5  C5  UNL     1      25.721   5.813   4.757  1.00  0.00    -0.018 C 
HETATM    6  C6  UNL     1      25.528   5.393   6.171  1.00  0.00     0.018 C 
HETATM    7  C7  UNL     1      24.342   6.067   4.129  1.00  0.00     0.018 C 
ENDROOT
BRANCH   4   8
HETATM    8  O1  UNL     1      27.121   3.812   4.546  1.00  0.00    -0.395 OA
ATOM      9  H1  UNL     1      27.643   4.095   5.288  1.00  0.00     0.210 HD
ENDBRANCH   4   8
TORSDOF 1
ENDMDL
MODEL 3
REMARK VINA RESULT: -3.823553015      1.261      1.524
REMARK  1 active torsions:
REMARK  status: ('A' for Active; 'I' for Inactive)
REMARK    1  A    between atoms: C4_4  and  O1_5 
ROOT
HETATM    1  C1  UNL     1      27.422   6.969   6.329  1.00  0.00     0.011 C 
HETATM    2  C2  UNL     1      26.587   7.030   5.113  1.00  0.00    -0.006 C 
HETATM    3  C3  UNL     1      27.465   7.249   3.876  1.00  0.00     0.037 C 
HETATM    4  C4  UNL     1      26.989   5.917   3.353  1.00  0.00     0.126 C 
HETATM    5  C5  UNL     1      26.034   5.808   4.522  1.00  0.00    -0.018 C 
HETATM    6  C6  UNL     1      26.081   4.529   5.280  1.00  0.00     0.018 C 
HETATM    7  C7  UNL     1      24.604   6.014   3.998  1.00  0.00     0.018 C 
ENDROOT
BRANCH   4   8
HETATM    8  O1  UNL     1      27.971   4.940   3.296  1.00  0.00    -0.395 OA
ATOM      9  H1  UNL     1      27.678   4.073   3.553  1.00  0.00     0.210 HD
ENDBRANCH   4   8
TORSDOF 1
ENDMDL
MODEL 4
REMARK VINA RESULT: -3.626993868      1.359      2.175
REMARK  1 active torsions:
REMARK  status: ('A' for Active; 'I' for Inactive)
REMARK    1  A    between atoms: C4_4  and  O1_5 
ROOT
HETATM    1  C1  UNL     1      26.632   4.128   4.373  1.00  0.00     0.011 C 
HETATM    2  C2  UNL     1      25.823   5.295   4.779  1.00  0.00    -0.006 C 
HETATM    3  C3  UNL     1      25.767   5.397   6.307  1.00  0.00     0.037 C 
HETATM    4  C4  UNL     1      26.462   6.731   6.202  1.00  0.00     0.126 C 
HETATM    5  C5  UNL     1      26.370   6.652   4.694  1.00  0.00    -0.018 C 
HETATM    6  C6  UNL     1      27.636   6.897   3.953  1.00  0.00     0.018 C 
HETATM    7  C7  UNL     1      25.320   7.669   4.220  1.00  0.00     0.018 C 
ENDROOT
BRANCH   4   8
HETATM    8  O1  UNL     1      27.749   6.751   6.717  1.00  0.00    -0.395 OA
ATOM      9  H1  UNL     1      27.792   6.777   7.666  1.00  0.00     0.210 HD
ENDBRANCH   4   8
TORSDOF 1
ENDMDL
MODEL 5
REMARK VINA RESULT: -3.595889065      1.547      2.826
REMARK  1 active torsions:
REMARK  status: ('A' for Active; 'I' for Inactive)
REMARK    1  A    between atoms: C4_4  and  O1_5 
ROOT
HETATM    1  C1  UNL     1      27.994   5.632   3.027  1.00  0.00     0.011 C 
HETATM    2  C2  UNL     1      26.617   5.255   3.402  1.00  0.00    -0.006 C 
HETATM    3  C3  UNL     1      26.634   4.036   4.331  1.00  0.00     0.037 C 
HETATM    4  C4  UNL     1      25.998   4.891   5.398  1.00  0.00     0.126 C 
HETATM    5  C5  UNL     1      25.875   6.025   4.404  1.00  0.00    -0.018 C 
HETATM    6  C6  UNL     1      26.390   7.344   4.858  1.00  0.00     0.018 C 
HETATM    7  C7  UNL     1      24.392   6.181   4.031  1.00  0.00     0.018 C 
ENDROOT
BRANCH   4   8
HETATM    8  O1  UNL     1      26.814   5.146   6.490  1.00  0.00    -0.395 OA
ATOM      9  H1  UNL     1      27.004   6.066   6.631  1.00  0.00     0.210 HD
ENDBRANCH   4   8
TORSDOF 1
ENDMDL
