MODEL 1
REMARK VINA RESULT: -6.285921549      0.000      0.000
REMARK  3 active torsions:
REMARK  status: ('A' for Active; 'I' for Inactive)
REMARK    1  A    between atoms: C2_2  and  C3_3 
REMARK    2  A    between atoms: C3_3  and  C5_5 
REMARK    3  A    between atoms: C5_5  and  C7_7 
ROOT
HETATM    1  C5  UNL     1      27.776   7.555   3.803  1.00  0.00     0.017 C 
HETATM    2  C6  UNL     1      28.402   8.358   4.933  1.00  0.00     0.015 C 
ENDROOT
BRANCH   1   3
HETATM    3  C3  UNL     1      26.601   6.768   4.269  1.00  0.00     0.011 C 
HETATM    4  C4  UNL     1      26.605   5.399   3.578  1.00  0.00     0.015 C 
BRANCH   3   5
HETATM    5  C2  UNL     1      26.433   6.595   5.699  1.00  0.00    -0.032 C 
HETATM    6  C1  UNL     1      25.898   5.487   6.200  1.00  0.00     0.007 C 
ENDBRANCH   3   5
ENDBRANCH   1   3
BRANCH   1   7
HETATM    7  C7  UNL     1      27.678   8.295   2.558  1.00  0.00    -0.084 C 
HETATM    8  C8  UNL     1      26.870   9.576   2.541  1.00  0.00     0.043 C 
HETATM    9  C9  UNL     1      28.239   7.935   1.448  1.00  0.00    -0.028 C 
HETATM   10  C10 UNL     1      28.097   8.739   0.203  1.00  0.00     0.036 C 
ENDBRANCH   1   7
TORSDOF 3
ENDMDL
MODEL 2
REMARK VINA RESULT: -6.176594613      0.782      4.215
REMARK  3 active torsions:
REMARK  status: ('A' for Active; 'I' for Inactive)
REMARK    1  A    between atoms: C2_2  and  C3_3 
REMARK    2  A    between atoms: C3_3  and  C5_5 
REMARK    3  A    between atoms: C5_5  and  C7_7 
ROOT
HETATM    1  C5  UNL     1      27.287   8.132   4.087  1.00  0.00     0.017 C 
HETATM    2  C6  UNL     1      28.664   8.469   4.638  1.00  0.00     0.015 C 
ENDROOT
BRANCH   1   3
HETATM    3  C3  UNL     1      27.244   8.242   2.603  1.00  0.00     0.011 C 
HETATM    4  C4  UNL     1      27.031   9.709   2.213  1.00  0.00     0.015 C 
BRANCH   3   5
HETATM    5  C2  UNL     1      28.359   7.693   1.855  1.00  0.00    -0.032 C 
HETATM    6  C1  UNL     1      28.691   8.174   0.662  1.00  0.00     0.007 C 
ENDBRANCH   3   5
ENDBRANCH   1   3
BRANCH   1   7
HETATM    7  C7  UNL     1      26.681   6.976   4.725  1.00  0.00    -0.084 C 
HETATM    8  C8  UNL     1      26.477   7.004   6.225  1.00  0.00     0.043 C 
HETATM    9  C9  UNL     1      26.299   5.912   4.096  1.00  0.00    -0.028 C 
HETATM   10  C10 UNL     1      25.686   4.759   4.810  1.00  0.00     0.036 C 
ENDBRANCH   1   7
TORSDOF 3
ENDMDL
MODEL 3
REMARK VINA RESULT: -6.059664564      1.333      3.750
REMARK  3 active torsions:
REMARK  status: ('A' for Active; 'I' for Inactive)
REMARK    1  A    between atoms: C2_2  and  C3_3 
REMARK    2  A    between atoms: C3_3  and  C5_5 
REMARK    3  A    between atoms: C5_5  and  C7_7 
ROOT
HETATM    1  C5  UNL     1      26.443   7.206   4.690  1.00  0.00     0.017 C 
HETATM    2  C6  UNL     1      26.646   7.022   6.186  1.00  0.00     0.015 C 
ENDROOT
BRANCH   1   3
HETATM    3  C3  UNL     1      27.099   8.446   4.192  1.00  0.00     0.011 C 
HETATM    4  C4  UNL     1      28.621   8.288   4.296  1.00  0.00     0.015 C 
BRANCH   3   5
HETATM    5  C2  UNL     1      26.743   8.908   2.864  1.00  0.00    -0.032 C 
HETATM    6  C1  UNL     1      27.520   9.757   2.200  1.00  0.00     0.007 C 
ENDBRANCH   3   5
ENDBRANCH   1   3
BRANCH   1   7
HETATM    7  C7  UNL     1      26.596   5.976   3.934  1.00  0.00    -0.084 C 
HETATM    8  C8  UNL     1      25.797   4.763   4.360  1.00  0.00     0.043 C 
HETATM    9  C9  UNL     1      27.377   5.841   2.911  1.00  0.00    -0.028 C 
HETATM   10  C10 UNL     1      27.491   4.549   2.180  1.00  0.00     0.036 C 
ENDBRANCH   1   7
TORSDOF 3
ENDMDL
MODEL 4
REMARK VINA RESULT: -6.047526652      0.465      4.426
REMARK  3 active torsions:
REMARK  status: ('A' for Active; 'I' for Inactive)
REMARK    1  A    between atoms: C2_2  and  C3_3 
REMARK    2  A    between atoms: C3_3  and  C5_5 
REMARK    3  A    between atoms: C5_5  and  C7_7 
ROOT
HETATM    1  C5  UNL     1      27.286   8.064   3.964  1.00  0.00     0.017 C 
HETATM    2  C6  UNL     1      28.611   8.466   4.591  1.00  0.00     0.015 C 
ENDROOT
BRANCH   1   3
HETATM    3  C3  UNL     1      27.295   8.249   2.487  1.00  0.00     0.011 C 
HETATM    4  C4  UNL     1      27.045   9.726   2.162  1.00  0.00     0.015 C 
BRANCH   3   5
HETATM    5  C2  UNL     1      28.457   7.777   1.757  1.00  0.00    -0.032 C 
HETATM    6  C1  UNL     1      28.710   8.195   0.522  1.00  0.00     0.007 C 
ENDBRANCH   3   5
ENDBRANCH   1   3
BRANCH   1   7
HETATM    7  C7  UNL     1      26.738   6.837   4.516  1.00  0.00    -0.084 C 
HETATM    8  C8  UNL     1      26.576   5.643   3.600  1.00  0.00     0.043 C 
HETATM    9  C9  UNL     1      26.375   6.691   5.749  1.00  0.00    -0.028 C 
HETATM   10  C10 UNL     1      25.816   5.406   6.253  1.00  0.00     0.036 C 
ENDBRANCH   1   7
TORSDOF 3
ENDMDL
MODEL 5
REMARK VINA RESULT: -6.020157801      0.983      4.588
REMARK  3 active torsions:
REMARK  status: ('A' for Active; 'I' for Inactive)
REMARK    1  A    between atoms: C2_2  and  C3_3 
REMARK    2  A    between atoms: C3_3  and  C5_5 
REMARK    3  A    between atoms: C5_5  and  C7_7 
ROOT
HETATM    1  C5  UNL     1      27.574   6.621   3.434  1.00  0.00     0.017 C 
HETATM    2  C6  UNL     1      27.624   5.992   2.050  1.00  0.00     0.015 C 
ENDROOT
BRANCH   1   3
HETATM    3  C3  UNL     1      27.517   8.107   3.363  1.00  0.00     0.011 C 
HETATM    4  C4  UNL     1      28.588   8.697   4.289  1.00  0.00     0.015 C 
BRANCH   3   5
HETATM    5  C2  UNL     1      27.609   8.722   2.053  1.00  0.00    -0.032 C 
HETATM    6  C1  UNL     1      27.537  10.041   1.905  1.00  0.00     0.007 C 
ENDBRANCH   3   5
ENDBRANCH   1   3
BRANCH   1   7
HETATM    7  C7  UNL     1      26.687   5.925   4.349  1.00  0.00    -0.084 C 
HETATM    8  C8  UNL     1      26.137   4.577   3.935  1.00  0.00     0.043 C 
HETATM    9  C9  UNL     1      26.330   6.381   5.506  1.00  0.00    -0.028 C 
HETATM   10  C10 UNL     1      25.413   5.618   6.398  1.00  0.00     0.036 C 
ENDBRANCH   1   7
TORSDOF 3
ENDMDL
