MODEL 1
REMARK VINA RESULT: -6.439738934      0.000      0.000
REMARK  3 active torsions:
REMARK  status: ('A' for Active; 'I' for Inactive)
REMARK    1  A    between atoms: C2_2  and  N1_3 
REMARK    2  A    between atoms: N1_3  and  C3_5 
REMARK    3  A    between atoms: C3_5  and  C4_6 
ROOT
HETATM    1  C4  UNL     1      27.312   7.301   4.451  1.00  0.00     0.003 C 
HETATM    2  C5  UNL     1      27.245   6.119   3.577  1.00  0.00     0.006 C 
HETATM    3  C6  UNL     1      26.125   5.177   3.749  1.00  0.00     0.000 C 
HETATM    4  C7  UNL     1      25.265   5.394   4.951  1.00  0.00     0.000 C 
HETATM    5  C8  UNL     1      26.211   5.786   6.094  1.00  0.00     0.000 C 
HETATM    6  C9  UNL     1      26.628   7.203   5.765  1.00  0.00     0.006 C 
ENDROOT
BRANCH   1   7
HETATM    7  C3  UNL     1      26.827   8.583   3.757  1.00  0.00     0.123 C 
BRANCH   7   8
HETATM    8  N1  UNL     1      27.866   9.121   2.899  1.00  0.00    -0.399 N 
ATOM      9  H1  UNL     1      28.864   9.071   3.105  1.00  0.00     0.158 HD
BRANCH   8  10
HETATM   10  C2  UNL     1      27.314   9.731   1.728  1.00  0.00     0.072 C 
HETATM   11  C1  UNL     1      27.383   9.155   0.532  1.00  0.00     0.029 C 
ENDBRANCH   8  10
ENDBRANCH   7   8
ENDBRANCH   1   7
TORSDOF 3
ENDMDL
MODEL 2
REMARK VINA RESULT: -6.220185443      0.963      1.905
REMARK  3 active torsions:
REMARK  status: ('A' for Active; 'I' for Inactive)
REMARK    1  A    between atoms: C2_2  and  N1_3 
REMARK    2  A    between atoms: N1_3  and  C3_5 
REMARK    3  A    between atoms: C3_5  and  C4_6 
ROOT
HETATM    1  C4  UNL     1      26.829   7.145   3.878  1.00  0.00     0.003 C 
HETATM    2  C5  UNL     1      26.605   7.769   5.191  1.00  0.00     0.006 C 
HETATM    3  C6  UNL     1      26.444   6.898   6.369  1.00  0.00     0.000 C 
HETATM    4  C7  UNL     1      26.307   5.436   6.089  1.00  0.00     0.000 C 
HETATM    5  C8  UNL     1      25.431   5.318   4.834  1.00  0.00     0.000 C 
HETATM    6  C9  UNL     1      26.336   5.755   3.703  1.00  0.00     0.006 C 
ENDROOT
BRANCH   1   7
HETATM    7  C3  UNL     1      28.302   7.185   3.443  1.00  0.00     0.123 C 
BRANCH   7   8
HETATM    8  N1  UNL     1      28.410   7.571   2.048  1.00  0.00    -0.399 N 
ATOM      9  H1  UNL     1      28.918   7.038   1.343  1.00  0.00     0.158 HD
BRANCH   8  10
HETATM   10  C2  UNL     1      27.714   8.794   1.788  1.00  0.00     0.072 C 
HETATM   11  C1  UNL     1      27.667   9.336   0.576  1.00  0.00     0.029 C 
ENDBRANCH   8  10
ENDBRANCH   7   8
ENDBRANCH   1   7
TORSDOF 3
ENDMDL
MODEL 3
REMARK VINA RESULT: -5.936809149      1.528      4.702
REMARK  3 active torsions:
REMARK  status: ('A' for Active; 'I' for Inactive)
REMARK    1  A    between atoms: C2_2  and  N1_3 
REMARK    2  A    between atoms: N1_3  and  C3_5 
REMARK    3  A    between atoms: C3_5  and  C4_6 
ROOT
HETATM    1  C4  UNL     1      28.077   8.033   3.279  1.00  0.00     0.003 C 
HETATM    2  C5  UNL     1      27.995   9.496   3.142  1.00  0.00     0.006 C 
HETATM    3  C6  UNL     1      27.502  10.059   1.873  1.00  0.00     0.000 C 
HETATM    4  C7  UNL     1      27.330   9.090   0.748  1.00  0.00     0.000 C 
HETATM    5  C8  UNL     1      28.518   8.122   0.829  1.00  0.00     0.000 C 
HETATM    6  C9  UNL     1      28.210   7.248   2.025  1.00  0.00     0.006 C 
ENDROOT
BRANCH   1   7
HETATM    7  C3  UNL     1      26.912   7.443   4.088  1.00  0.00     0.123 C 
BRANCH   7   8
HETATM    8  N1  UNL     1      27.251   7.381   5.497  1.00  0.00    -0.399 N 
ATOM      9  H1  UNL     1      28.078   7.812   5.908  1.00  0.00     0.158 HD
BRANCH   8  10
HETATM   10  C2  UNL     1      26.277   6.638   6.238  1.00  0.00     0.072 C 
HETATM   11  C1  UNL     1      25.818   5.463   5.821  1.00  0.00     0.029 C 
ENDBRANCH   8  10
ENDBRANCH   7   8
ENDBRANCH   1   7
TORSDOF 3
ENDMDL
MODEL 4
REMARK VINA RESULT: -5.772103566      1.578      4.694
REMARK  3 active torsions:
REMARK  status: ('A' for Active; 'I' for Inactive)
REMARK    1  A    between atoms: C2_2  and  N1_3 
REMARK    2  A    between atoms: N1_3  and  C3_5 
REMARK    3  A    between atoms: C3_5  and  C4_6 
ROOT
HETATM    1  C4  UNL     1      28.043   7.893   3.348  1.00  0.00     0.003 C 
HETATM    2  C5  UNL     1      27.984   9.361   3.264  1.00  0.00     0.006 C 
HETATM    3  C6  UNL     1      27.509   9.978   2.013  1.00  0.00     0.000 C 
HETATM    4  C7  UNL     1      27.331   9.053   0.852  1.00  0.00     0.000 C 
HETATM    5  C8  UNL     1      28.503   8.064   0.905  1.00  0.00     0.000 C 
HETATM    6  C9  UNL     1      28.172   7.153   2.066  1.00  0.00     0.006 C 
ENDROOT
BRANCH   1   7
HETATM    7  C3  UNL     1      26.862   7.292   4.126  1.00  0.00     0.123 C 
BRANCH   7   8
HETATM    8  N1  UNL     1      26.669   5.901   3.763  1.00  0.00    -0.399 N 
ATOM      9  H1  UNL     1      27.126   5.445   2.974  1.00  0.00     0.158 HD
BRANCH   8  10
HETATM   10  C2  UNL     1      25.754   5.251   4.650  1.00  0.00     0.072 C 
HETATM   11  C1  UNL     1      25.784   5.448   5.965  1.00  0.00     0.029 C 
ENDBRANCH   8  10
ENDBRANCH   7   8
ENDBRANCH   1   7
TORSDOF 3
ENDMDL
MODEL 5
REMARK VINA RESULT: -5.578775257      1.650      4.444
REMARK  3 active torsions:
REMARK  status: ('A' for Active; 'I' for Inactive)
REMARK    1  A    between atoms: C2_2  and  N1_3 
REMARK    2  A    between atoms: N1_3  and  C3_5 
REMARK    3  A    between atoms: C3_5  and  C4_6 
ROOT
HETATM    1  C4  UNL     1      27.421   8.229   3.152  1.00  0.00     0.003 C 
HETATM    2  C5  UNL     1      28.008   7.285   2.187  1.00  0.00     0.006 C 
HETATM    3  C6  UNL     1      28.570   7.817   0.932  1.00  0.00     0.000 C 
HETATM    4  C7  UNL     1      28.297   9.259   0.651  1.00  0.00     0.000 C 
HETATM    5  C8  UNL     1      26.852   9.520   1.098  1.00  0.00     0.000 C 
HETATM    6  C9  UNL     1      26.922   9.518   2.610  1.00  0.00     0.006 C 
ENDROOT
BRANCH   1   7
HETATM    7  C3  UNL     1      28.360   8.539   4.328  1.00  0.00     0.123 C 
BRANCH   7   8
HETATM    8  N1  UNL     1      28.077   7.663   5.449  1.00  0.00    -0.399 N 
ATOM      9  H1  UNL     1      28.790   7.246   6.047  1.00  0.00     0.158 HD
BRANCH   8  10
HETATM   10  C2  UNL     1      26.670   7.456   5.610  1.00  0.00     0.072 C 
HETATM   11  C1  UNL     1      26.176   6.343   6.143  1.00  0.00     0.029 C 
ENDBRANCH   8  10
ENDBRANCH   7   8
ENDBRANCH   1   7
TORSDOF 3
ENDMDL
