MODEL 1
REMARK VINA RESULT: -7.227550379      0.000      0.000
REMARK  3 active torsions:
REMARK  status: ('A' for Active; 'I' for Inactive)
REMARK    1  A    between atoms: C2_2  and  C3_3 
REMARK    2  A    between atoms: C4_4  and  C5_5 
REMARK    3  A    between atoms: C6_6  and  C7_7 
ROOT
HETATM    1  C5  UNL     1      28.171   8.214   4.751  1.00  0.00    -0.004 C 
HETATM    2  C6  UNL     1      28.296   8.987   3.727  1.00  0.00    -0.022 C 
ENDROOT
BRANCH   1   3
HETATM    3  C4  UNL     1      27.160   7.192   4.856  1.00  0.00    -0.000 C 
HETATM    4  C3  UNL     1      26.742   6.759   6.056  1.00  0.00    -0.001 C 
BRANCH   4   5
HETATM    5  C2  UNL     1      25.730   5.736   6.108  1.00  0.00    -0.010 C 
HETATM    6  C1  UNL     1      25.440   5.037   5.032  1.00  0.00     0.011 C 
ENDBRANCH   4   5
ENDBRANCH   1   3
BRANCH   2   7
HETATM    7  C7  UNL     1      27.410   8.901   2.559  1.00  0.00     0.008 C 
HETATM    8  C8  UNL     1      27.517  10.116   1.633  1.00  0.00     0.008 C 
HETATM    9  C9  UNL     1      27.531   9.141   0.476  1.00  0.00     0.001 C 
HETATM   10  C10 UNL     1      28.139   8.142   1.437  1.00  0.00     0.008 C 
ENDBRANCH   2   7
TORSDOF 3
ENDMDL
MODEL 2
REMARK VINA RESULT: -6.842011556      0.812      4.787
REMARK  3 active torsions:
REMARK  status: ('A' for Active; 'I' for Inactive)
REMARK    1  A    between atoms: C2_2  and  C3_3 
REMARK    2  A    between atoms: C4_4  and  C5_5 
REMARK    3  A    between atoms: C6_6  and  C7_7 
ROOT
HETATM    1  C5  UNL     1      27.845   8.389   4.697  1.00  0.00    -0.004 C 
HETATM    2  C6  UNL     1      27.376   7.390   5.364  1.00  0.00    -0.022 C 
ENDROOT
BRANCH   1   3
HETATM    3  C4  UNL     1      27.237   8.898   3.493  1.00  0.00    -0.000 C 
HETATM    4  C3  UNL     1      27.966   9.090   2.383  1.00  0.00    -0.001 C 
BRANCH   4   5
HETATM    5  C2  UNL     1      27.312   9.600   1.205  1.00  0.00    -0.010 C 
HETATM    6  C1  UNL     1      27.266   8.874   0.110  1.00  0.00     0.011 C 
ENDBRANCH   4   5
ENDBRANCH   1   3
BRANCH   2   7
HETATM    7  C7  UNL     1      26.166   6.666   4.954  1.00  0.00     0.008 C 
HETATM    8  C8  UNL     1      26.447   5.553   3.939  1.00  0.00     0.008 C 
HETATM    9  C9  UNL     1      25.518   4.678   4.753  1.00  0.00     0.001 C 
HETATM   10  C10 UNL     1      25.911   5.520   5.948  1.00  0.00     0.008 C 
ENDBRANCH   2   7
TORSDOF 3
ENDMDL
MODEL 3
REMARK VINA RESULT: -6.444641692      1.226      5.124
REMARK  3 active torsions:
REMARK  status: ('A' for Active; 'I' for Inactive)
REMARK    1  A    between atoms: C2_2  and  C3_3 
REMARK    2  A    between atoms: C4_4  and  C5_5 
REMARK    3  A    between atoms: C6_6  and  C7_7 
ROOT
HETATM    1  C5  UNL     1      27.838   6.162   2.464  1.00  0.00    -0.004 C 
HETATM    2  C6  UNL     1      27.159   5.552   3.375  1.00  0.00    -0.022 C 
ENDROOT
BRANCH   1   3
HETATM    3  C4  UNL     1      27.791   7.587   2.258  1.00  0.00    -0.000 C 
HETATM    4  C3  UNL     1      27.882   8.107   1.024  1.00  0.00    -0.001 C 
BRANCH   4   5
HETATM    5  C2  UNL     1      27.829   9.538   0.870  1.00  0.00    -0.010 C 
HETATM    6  C1  UNL     1      27.619  10.307   1.915  1.00  0.00     0.011 C 
ENDBRANCH   4   5
ENDBRANCH   1   3
BRANCH   2   7
HETATM    7  C7  UNL     1      26.261   6.260   4.297  1.00  0.00     0.008 C 
HETATM    8  C8  UNL     1      25.619   5.336   5.337  1.00  0.00     0.008 C 
HETATM    9  C9  UNL     1      25.930   6.401   6.366  1.00  0.00     0.001 C 
HETATM   10  C10 UNL     1      27.086   6.802   5.477  1.00  0.00     0.008 C 
ENDBRANCH   2   7
TORSDOF 3
ENDMDL
MODEL 4
REMARK VINA RESULT: -6.141994114      0.777      4.806
REMARK  3 active torsions:
REMARK  status: ('A' for Active; 'I' for Inactive)
REMARK    1  A    between atoms: C2_2  and  C3_3 
REMARK    2  A    between atoms: C4_4  and  C5_5 
REMARK    3  A    between atoms: C6_6  and  C7_7 
ROOT
HETATM    1  C5  UNL     1      27.855   8.398   4.822  1.00  0.00    -0.004 C 
HETATM    2  C6  UNL     1      27.263   7.533   5.573  1.00  0.00    -0.022 C 
ENDROOT
BRANCH   1   3
HETATM    3  C4  UNL     1      28.225   8.142   3.453  1.00  0.00    -0.000 C 
HETATM    4  C3  UNL     1      27.628   8.797   2.445  1.00  0.00    -0.001 C 
BRANCH   4   5
HETATM    5  C2  UNL     1      28.033   8.506   1.094  1.00  0.00    -0.010 C 
HETATM    6  C1  UNL     1      27.300   8.918   0.083  1.00  0.00     0.011 C 
ENDBRANCH   4   5
ENDBRANCH   1   3
BRANCH   2   7
HETATM    7  C7  UNL     1      26.907   6.189   5.099  1.00  0.00     0.008 C 
HETATM    8  C8  UNL     1      26.141   5.369   6.141  1.00  0.00     0.008 C 
HETATM    9  C9  UNL     1      25.212   4.950   5.022  1.00  0.00     0.001 C 
HETATM   10  C10 UNL     1      25.561   6.264   4.357  1.00  0.00     0.008 C 
ENDBRANCH   2   7
TORSDOF 3
ENDMDL
MODEL 5
REMARK VINA RESULT: -6.140293163      1.146      2.009
REMARK  3 active torsions:
REMARK  status: ('A' for Active; 'I' for Inactive)
REMARK    1  A    between atoms: C2_2  and  C3_3 
REMARK    2  A    between atoms: C4_4  and  C5_5 
REMARK    3  A    between atoms: C6_6  and  C7_7 
ROOT
HETATM    1  C5  UNL     1      27.912   6.101   2.491  1.00  0.00    -0.004 C 
HETATM    2  C6  UNL     1      28.058   7.127   1.724  1.00  0.00    -0.022 C 
ENDROOT
BRANCH   1   3
HETATM    3  C4  UNL     1      27.008   6.069   3.613  1.00  0.00    -0.000 C 
HETATM    4  C3  UNL     1      26.259   4.984   3.861  1.00  0.00    -0.001 C 
BRANCH   4   5
HETATM    5  C2  UNL     1      25.370   5.000   4.995  1.00  0.00    -0.010 C 
HETATM    6  C1  UNL     1      25.713   5.638   6.093  1.00  0.00     0.011 C 
ENDBRANCH   4   5
ENDBRANCH   1   3
BRANCH   2   7
HETATM    7  C7  UNL     1      27.309   8.375   1.923  1.00  0.00     0.008 C 
HETATM    8  C8  UNL     1      28.027   9.363   2.847  1.00  0.00     0.008 C 
HETATM    9  C9  UNL     1      27.660  10.444   1.852  1.00  0.00     0.001 C 
HETATM   10  C10 UNL     1      27.673   9.359   0.798  1.00  0.00     0.008 C 
ENDBRANCH   2   7
TORSDOF 3
ENDMDL
