MODEL 1
REMARK VINA RESULT: -5.904320156      0.000      0.000
REMARK  0 active torsions:
REMARK  status: ('A' for Active; 'I' for Inactive)
ROOT
HETATM    1  C1  UNL     1      27.753   4.847   2.554  1.00  0.00     0.012 C 
HETATM    2  C2  UNL     1      26.828   5.447   3.048  1.00  0.00    -0.113 C 
HETATM    3  C3  UNL     1      25.715   6.176   3.667  1.00  0.00     0.064 C 
HETATM    4  C4  UNL     1      25.173   5.435   4.865  1.00  0.00     0.017 C 
HETATM    5  C5  UNL     1      26.168   5.320   5.981  1.00  0.00     0.001 C 
HETATM    6  C6  UNL     1      26.816   6.609   6.359  1.00  0.00     0.000 C 
HETATM    7  C7  UNL     1      27.391   7.258   5.111  1.00  0.00     0.001 C 
HETATM    8  C8  UNL     1      26.202   7.535   4.194  1.00  0.00     0.017 C 
ENDROOT
TORSDOF 0
ENDMDL
MODEL 2
REMARK VINA RESULT: -5.483546992      2.079      3.509
REMARK  0 active torsions:
REMARK  status: ('A' for Active; 'I' for Inactive)
ROOT
HETATM    1  C1  UNL     1      27.360   9.911   1.897  1.00  0.00     0.012 C 
HETATM    2  C2  UNL     1      27.894   9.212   2.724  1.00  0.00    -0.113 C 
HETATM    3  C3  UNL     1      28.528   8.346   3.725  1.00  0.00     0.064 C 
HETATM    4  C4  UNL     1      27.557   7.968   4.817  1.00  0.00     0.017 C 
HETATM    5  C5  UNL     1      26.415   7.134   4.319  1.00  0.00     0.001 C 
HETATM    6  C6  UNL     1      26.826   5.960   3.496  1.00  0.00     0.000 C 
HETATM    7  C7  UNL     1      27.746   6.434   2.384  1.00  0.00     0.001 C 
HETATM    8  C8  UNL     1      28.972   7.026   3.076  1.00  0.00     0.017 C 
ENDROOT
TORSDOF 0
ENDMDL
MODEL 3
REMARK VINA RESULT: -5.368334166      1.178      1.511
REMARK  0 active torsions:
REMARK  status: ('A' for Active; 'I' for Inactive)
ROOT
HETATM    1  C1  UNL     1      28.486   6.869   2.990  1.00  0.00     0.012 C 
HETATM    2  C2  UNL     1      27.407   7.042   3.507  1.00  0.00    -0.113 C 
HETATM    3  C3  UNL     1      26.102   7.235   4.148  1.00  0.00     0.064 C 
HETATM    4  C4  UNL     1      25.271   5.977   4.089  1.00  0.00     0.017 C 
HETATM    5  C5  UNL     1      25.869   4.844   4.869  1.00  0.00     0.001 C 
HETATM    6  C6  UNL     1      26.260   5.200   6.264  1.00  0.00     0.000 C 
HETATM    7  C7  UNL     1      27.146   6.433   6.230  1.00  0.00     0.001 C 
HETATM    8  C8  UNL     1      26.289   7.552   5.640  1.00  0.00     0.017 C 
ENDROOT
TORSDOF 0
ENDMDL
MODEL 4
REMARK VINA RESULT: -5.057834929      2.263      3.476
REMARK  0 active torsions:
REMARK  status: ('A' for Active; 'I' for Inactive)
ROOT
HETATM    1  C1  UNL     1      27.483   9.599   1.349  1.00  0.00     0.012 C 
HETATM    2  C2  UNL     1      27.959   8.623   1.878  1.00  0.00    -0.113 C 
HETATM    3  C3  UNL     1      28.524   7.442   2.539  1.00  0.00     0.064 C 
HETATM    4  C4  UNL     1      29.306   7.826   3.772  1.00  0.00     0.017 C 
HETATM    5  C5  UNL     1      28.449   8.437   4.841  1.00  0.00     0.001 C 
HETATM    6  C6  UNL     1      27.225   7.651   5.169  1.00  0.00     0.000 C 
HETATM    7  C7  UNL     1      26.464   7.363   3.886  1.00  0.00     0.001 C 
HETATM    8  C8  UNL     1      27.397   6.517   3.023  1.00  0.00     0.017 C 
ENDROOT
TORSDOF 0
ENDMDL
MODEL 5
REMARK VINA RESULT: -5.011584772      2.162      3.303
REMARK  0 active torsions:
REMARK  status: ('A' for Active; 'I' for Inactive)
ROOT
HETATM    1  C1  UNL     1      27.769   8.814   0.867  1.00  0.00     0.012 C 
HETATM    2  C2  UNL     1      28.217   8.157   1.777  1.00  0.00    -0.113 C 
HETATM    3  C3  UNL     1      28.740   7.355   2.888  1.00  0.00     0.064 C 
HETATM    4  C4  UNL     1      28.314   7.921   4.221  1.00  0.00     0.017 C 
HETATM    5  C5  UNL     1      26.830   7.867   4.430  1.00  0.00     0.001 C 
HETATM    6  C6  UNL     1      26.222   6.532   4.162  1.00  0.00     0.000 C 
HETATM    7  C7  UNL     1      26.645   6.065   2.780  1.00  0.00     0.001 C 
HETATM    8  C8  UNL     1      28.166   5.931   2.828  1.00  0.00     0.017 C 
ENDROOT
TORSDOF 0
ENDMDL
