MODEL 1
REMARK VINA RESULT: -5.910735820      0.000      0.000
REMARK  0 active torsions:
REMARK  status: ('A' for Active; 'I' for Inactive)
ROOT
HETATM    1  C1  UNL     1      25.961   4.764   4.896  1.00  0.00     0.001 C 
HETATM    2  C2  UNL     1      25.957   5.375   6.303  1.00  0.00     0.001 C 
HETATM    3  C3  UNL     1      26.611   6.727   6.068  1.00  0.00     0.009 C 
HETATM    4  C4  UNL     1      26.545   6.982   4.601  1.00  0.00    -0.040 A 
HETATM    5  C5  UNL     1      25.515   6.005   4.106  1.00  0.00     0.009 C 
HETATM    6  C6  UNL     1      27.790   7.053   3.766  1.00  0.00     0.010 A 
HETATM    7  C7  UNL     1      26.870   8.228   3.957  1.00  0.00     0.010 A 
ENDROOT
TORSDOF 0
ENDMDL
MODEL 2
REMARK VINA RESULT: -5.451821222      0.656      1.778
REMARK  0 active torsions:
REMARK  status: ('A' for Active; 'I' for Inactive)
ROOT
HETATM    1  C1  UNL     1      25.717   6.094   6.170  1.00  0.00     0.001 C 
HETATM    2  C2  UNL     1      25.773   4.985   5.111  1.00  0.00     0.001 C 
HETATM    3  C3  UNL     1      26.467   5.683   3.952  1.00  0.00     0.009 C 
HETATM    4  C4  UNL     1      27.119   6.899   4.517  1.00  0.00    -0.040 A 
HETATM    5  C5  UNL     1      27.140   6.647   6.000  1.00  0.00     0.009 C 
HETATM    6  C6  UNL     1      26.672   8.276   4.124  1.00  0.00     0.010 A 
HETATM    7  C7  UNL     1      28.047   7.748   3.815  1.00  0.00     0.010 A 
ENDROOT
TORSDOF 0
ENDMDL
MODEL 3
REMARK VINA RESULT: -5.418251067      0.922      3.076
REMARK  0 active torsions:
REMARK  status: ('A' for Active; 'I' for Inactive)
ROOT
HETATM    1  C1  UNL     1      28.120   7.884   4.376  1.00  0.00     0.001 C 
HETATM    2  C2  UNL     1      28.349   7.169   3.038  1.00  0.00     0.001 C 
HETATM    3  C3  UNL     1      27.343   6.030   3.106  1.00  0.00     0.009 C 
HETATM    4  C4  UNL     1      26.367   6.389   4.174  1.00  0.00    -0.040 A 
HETATM    5  C5  UNL     1      26.583   7.862   4.387  1.00  0.00     0.009 C 
HETATM    6  C6  UNL     1      26.263   5.583   5.435  1.00  0.00     0.010 A 
HETATM    7  C7  UNL     1      25.136   5.692   4.445  1.00  0.00     0.010 A 
ENDROOT
TORSDOF 0
ENDMDL
MODEL 4
REMARK VINA RESULT: -5.404758114      0.865      2.760
REMARK  0 active torsions:
REMARK  status: ('A' for Active; 'I' for Inactive)
ROOT
HETATM    1  C1  UNL     1      27.189   7.965   3.661  1.00  0.00     0.001 C 
HETATM    2  C2  UNL     1      27.615   8.058   5.133  1.00  0.00     0.001 C 
HETATM    3  C3  UNL     1      26.858   6.896   5.759  1.00  0.00     0.009 C 
HETATM    4  C4  UNL     1      26.440   6.008   4.638  1.00  0.00    -0.040 A 
HETATM    5  C5  UNL     1      27.301   6.443   3.485  1.00  0.00     0.009 C 
HETATM    6  C6  UNL     1      24.991   5.814   4.298  1.00  0.00     0.010 A 
HETATM    7  C7  UNL     1      25.869   4.694   4.786  1.00  0.00     0.010 A 
ENDROOT
TORSDOF 0
ENDMDL
MODEL 5
REMARK VINA RESULT: -5.320404857      1.245      1.750
REMARK  0 active torsions:
REMARK  status: ('A' for Active; 'I' for Inactive)
ROOT
HETATM    1  C1  UNL     1      25.740   5.346   5.951  1.00  0.00     0.001 C 
HETATM    2  C2  UNL     1      26.414   6.715   6.116  1.00  0.00     0.001 C 
HETATM    3  C3  UNL     1      27.127   6.884   4.783  1.00  0.00     0.009 C 
HETATM    4  C4  UNL     1      26.508   5.906   3.844  1.00  0.00    -0.040 A 
HETATM    5  C5  UNL     1      25.220   5.518   4.515  1.00  0.00     0.009 C 
HETATM    6  C6  UNL     1      27.295   4.756   3.288  1.00  0.00     0.010 A 
HETATM    7  C7  UNL     1      26.741   5.856   2.423  1.00  0.00     0.010 A 
ENDROOT
TORSDOF 0
ENDMDL
