MODEL 1
REMARK VINA RESULT: -6.304010136      0.000      0.000
REMARK  0 active torsions:
REMARK  status: ('A' for Active; 'I' for Inactive)
ROOT
HETATM    1  C1  UNL     1      27.032   6.838   5.824  1.00  0.00     0.001 C 
HETATM    2  C2  UNL     1      25.980   5.883   6.320  1.00  0.00     0.005 C 
HETATM    3  C3  UNL     1      25.575   4.998   5.205  1.00  0.00    -0.009 C 
HETATM    4  C4  UNL     1      24.791   5.713   4.096  1.00  0.00     0.015 C 
HETATM    5  C5  UNL     1      26.162   5.947   3.635  1.00  0.00    -0.036 A 
HETATM    6  C6  UNL     1      26.696   7.140   4.400  1.00  0.00     0.010 C 
HETATM    7  C7  UNL     1      27.064   5.213   2.921  1.00  0.00     0.015 A 
HETATM    8  C8  UNL     1      26.596   4.672   4.189  1.00  0.00    -0.001 A 
ENDROOT
TORSDOF 0
ENDMDL
MODEL 2
REMARK VINA RESULT: -5.711131080      1.914      3.427
REMARK  0 active torsions:
REMARK  status: ('A' for Active; 'I' for Inactive)
ROOT
HETATM    1  C1  UNL     1      27.198   6.061   2.978  1.00  0.00     0.001 C 
HETATM    2  C2  UNL     1      26.670   6.431   4.338  1.00  0.00     0.005 C 
HETATM    3  C3  UNL     1      26.857   7.884   4.544  1.00  0.00    -0.009 C 
HETATM    4  C4  UNL     1      28.324   8.308   4.699  1.00  0.00     0.015 C 
HETATM    5  C5  UNL     1      28.193   8.360   3.241  1.00  0.00    -0.036 A 
HETATM    6  C6  UNL     1      28.373   6.948   2.722  1.00  0.00     0.010 C 
HETATM    7  C7  UNL     1      27.718   9.289   2.361  1.00  0.00     0.015 A 
HETATM    8  C8  UNL     1      26.796   8.755   3.353  1.00  0.00    -0.001 A 
ENDROOT
TORSDOF 0
ENDMDL
MODEL 3
REMARK VINA RESULT: -5.661623246      1.490      3.465
REMARK  0 active torsions:
REMARK  status: ('A' for Active; 'I' for Inactive)
ROOT
HETATM    1  C1  UNL     1      27.803   5.980   2.724  1.00  0.00     0.001 C 
HETATM    2  C2  UNL     1      28.305   7.330   2.286  1.00  0.00     0.005 C 
HETATM    3  C3  UNL     1      28.030   8.312   3.358  1.00  0.00    -0.009 C 
HETATM    4  C4  UNL     1      26.539   8.626   3.547  1.00  0.00     0.015 C 
HETATM    5  C5  UNL     1      26.671   7.457   4.420  1.00  0.00    -0.036 A 
HETATM    6  C6  UNL     1      26.578   6.226   3.542  1.00  0.00     0.010 C 
HETATM    7  C7  UNL     1      27.090   7.271   5.706  1.00  0.00     0.015 A 
HETATM    8  C8  UNL     1      28.041   7.822   4.751  1.00  0.00    -0.001 A 
ENDROOT
TORSDOF 0
ENDMDL
MODEL 4
REMARK VINA RESULT: -5.558529905      0.831      1.129
REMARK  0 active torsions:
REMARK  status: ('A' for Active; 'I' for Inactive)
ROOT
HETATM    1  C1  UNL     1      27.644   7.150   4.890  1.00  0.00     0.001 C 
HETATM    2  C2  UNL     1      26.492   7.201   5.856  1.00  0.00     0.005 C 
HETATM    3  C3  UNL     1      25.659   5.991   5.670  1.00  0.00    -0.009 C 
HETATM    4  C4  UNL     1      24.895   5.960   4.338  1.00  0.00     0.015 C 
HETATM    5  C5  UNL     1      26.164   5.357   3.923  1.00  0.00    -0.036 A 
HETATM    6  C6  UNL     1      27.134   6.489   3.651  1.00  0.00     0.010 C 
HETATM    7  C7  UNL     1      26.684   4.096   3.985  1.00  0.00     0.015 A 
HETATM    8  C8  UNL     1      26.341   4.754   5.237  1.00  0.00    -0.001 A 
ENDROOT
TORSDOF 0
ENDMDL
MODEL 5
REMARK VINA RESULT: -5.448077093      0.685      2.651
REMARK  0 active torsions:
REMARK  status: ('A' for Active; 'I' for Inactive)
ROOT
HETATM    1  C1  UNL     1      27.518   4.822   3.292  1.00  0.00     0.001 C 
HETATM    2  C2  UNL     1      27.083   6.218   2.936  1.00  0.00     0.005 C 
HETATM    3  C3  UNL     1      26.236   6.747   4.029  1.00  0.00    -0.009 C 
HETATM    4  C4  UNL     1      24.869   6.058   4.145  1.00  0.00     0.015 C 
HETATM    5  C5  UNL     1      25.680   5.166   4.978  1.00  0.00    -0.036 A 
HETATM    6  C6  UNL     1      26.389   4.203   4.048  1.00  0.00     0.010 C 
HETATM    7  C7  UNL     1      26.098   5.196   6.277  1.00  0.00     0.015 A 
HETATM    8  C8  UNL     1      26.521   6.277   5.400  1.00  0.00    -0.001 A 
ENDROOT
TORSDOF 0
ENDMDL
