MODEL 1
REMARK VINA RESULT: -4.699217882      0.000      0.000
REMARK  0 active torsions:
REMARK  status: ('A' for Active; 'I' for Inactive)
ROOT
HETATM    1  C1  UNL     1      27.146   6.443   3.313  1.00  0.00     0.010 C 
HETATM    2  C2  UNL     1      26.666   7.794   3.888  1.00  0.00    -0.010 C 
HETATM    3  C3  UNL     1      27.723   7.811   5.014  1.00  0.00     0.010 C 
HETATM    4  C4  UNL     1      28.891   7.983   4.016  1.00  0.00    -0.010 C 
HETATM    5  C5  UNL     1      28.379   9.364   3.545  1.00  0.00     0.010 C 
HETATM    6  C6  UNL     1      27.140   8.752   2.851  1.00  0.00    -0.010 C 
HETATM    7  C7  UNL     1      27.989   7.943   1.849  1.00  0.00     0.010 C 
HETATM    8  C8  UNL     1      28.537   7.008   2.951  1.00  0.00    -0.010 C 
ENDROOT
TORSDOF 0
ENDMDL
MODEL 2
REMARK VINA RESULT: -4.670732967      0.053      2.482
REMARK  0 active torsions:
REMARK  status: ('A' for Active; 'I' for Inactive)
ROOT
HETATM    1  C1  UNL     1      28.388   9.407   3.562  1.00  0.00     0.010 C 
HETATM    2  C2  UNL     1      27.160   8.793   2.854  1.00  0.00    -0.010 C 
HETATM    3  C3  UNL     1      28.010   7.957   1.873  1.00  0.00     0.010 C 
HETATM    4  C4  UNL     1      28.550   7.047   3.001  1.00  0.00    -0.010 C 
HETATM    5  C5  UNL     1      27.144   6.491   3.323  1.00  0.00     0.010 C 
HETATM    6  C6  UNL     1      26.656   7.846   3.887  1.00  0.00    -0.010 C 
HETATM    7  C7  UNL     1      27.688   7.843   5.033  1.00  0.00     0.010 C 
HETATM    8  C8  UNL     1      28.878   8.032   4.065  1.00  0.00    -0.010 C 
ENDROOT
TORSDOF 0
ENDMDL
MODEL 3
REMARK VINA RESULT: -4.669741148      0.111      2.244
REMARK  0 active torsions:
REMARK  status: ('A' for Active; 'I' for Inactive)
ROOT
HETATM    1  C1  UNL     1      27.227   6.430   3.314  1.00  0.00     0.010 C 
HETATM    2  C2  UNL     1      28.556   7.111   2.917  1.00  0.00    -0.010 C 
HETATM    3  C3  UNL     1      27.893   8.040   1.877  1.00  0.00     0.010 C 
HETATM    4  C4  UNL     1      27.131   8.835   2.963  1.00  0.00    -0.010 C 
HETATM    5  C5  UNL     1      28.441   9.355   3.600  1.00  0.00     0.010 C 
HETATM    6  C6  UNL     1      28.837   7.951   4.113  1.00  0.00    -0.010 C 
HETATM    7  C7  UNL     1      27.606   7.842   5.036  1.00  0.00     0.010 C 
HETATM    8  C8  UNL     1      26.625   7.750   3.845  1.00  0.00    -0.010 C 
ENDROOT
TORSDOF 0
ENDMDL
MODEL 4
REMARK VINA RESULT: -4.656110977      0.120      2.244
REMARK  0 active torsions:
REMARK  status: ('A' for Active; 'I' for Inactive)
ROOT
HETATM    1  C1  UNL     1      28.457   9.375   3.611  1.00  0.00     0.010 C 
HETATM    2  C2  UNL     1      28.856   7.969   4.112  1.00  0.00    -0.010 C 
HETATM    3  C3  UNL     1      27.611   7.820   5.013  1.00  0.00     0.010 C 
HETATM    4  C4  UNL     1      26.651   7.757   3.803  1.00  0.00    -0.010 C 
HETATM    5  C5  UNL     1      27.276   6.441   3.285  1.00  0.00     0.010 C 
HETATM    6  C6  UNL     1      28.606   7.133   2.906  1.00  0.00    -0.010 C 
HETATM    7  C7  UNL     1      27.936   8.047   1.859  1.00  0.00     0.010 C 
HETATM    8  C8  UNL     1      27.170   8.849   2.937  1.00  0.00    -0.010 C 
ENDROOT
TORSDOF 0
ENDMDL
MODEL 5
REMARK VINA RESULT: -4.523055940      0.661      2.054
REMARK  0 active torsions:
REMARK  status: ('A' for Active; 'I' for Inactive)
ROOT
HETATM    1  C1  UNL     1      28.026   8.172   1.875  1.00  0.00     0.010 C 
HETATM    2  C2  UNL     1      28.100   6.996   2.873  1.00  0.00    -0.010 C 
HETATM    3  C3  UNL     1      29.359   7.538   3.583  1.00  0.00     0.010 C 
HETATM    4  C4  UNL     1      28.599   8.752   4.166  1.00  0.00    -0.010 C 
HETATM    5  C5  UNL     1      27.674   7.852   5.019  1.00  0.00     0.010 C 
HETATM    6  C6  UNL     1      26.951   7.288   3.774  1.00  0.00    -0.010 C 
HETATM    7  C7  UNL     1      26.397   8.667   3.359  1.00  0.00     0.010 C 
HETATM    8  C8  UNL     1      27.799   9.207   2.999  1.00  0.00    -0.010 C 
ENDROOT
TORSDOF 0
ENDMDL
