MODEL 1
REMARK VINA RESULT: -6.405641589      0.000      0.000
REMARK  0 active torsions:
REMARK  status: ('A' for Active; 'I' for Inactive)
ROOT
HETATM    1  C1  UNL     1      27.939   6.152   2.876  1.00  0.00     0.000 C 
HETATM    2  C2  UNL     1      26.893   5.131   2.468  1.00  0.00     0.000 C 
HETATM    3  C3  UNL     1      26.492   4.456   3.789  1.00  0.00     0.005 C 
HETATM    4  C4  UNL     1      25.642   5.471   4.488  1.00  0.00    -0.010 C 
HETATM    5  C5  UNL     1      25.640   5.362   5.999  1.00  0.00     0.005 C 
HETATM    6  C6  UNL     1      26.481   6.605   6.052  1.00  0.00     0.005 C 
HETATM    7  C7  UNL     1      26.191   6.828   4.563  1.00  0.00    -0.010 C 
HETATM    8  C8  UNL     1      27.379   7.169   3.789  1.00  0.00     0.005 C 
ENDROOT
TORSDOF 0
ENDMDL
MODEL 2
REMARK VINA RESULT: -6.311879326      0.772      3.018
REMARK  0 active torsions:
REMARK  status: ('A' for Active; 'I' for Inactive)
ROOT
HETATM    1  C1  UNL     1      26.564   6.796   6.295  1.00  0.00     0.000 C 
HETATM    2  C2  UNL     1      26.805   7.828   5.208  1.00  0.00     0.000 C 
HETATM    3  C3  UNL     1      27.552   7.051   4.112  1.00  0.00     0.005 C 
HETATM    4  C4  UNL     1      26.499   6.201   3.470  1.00  0.00    -0.010 C 
HETATM    5  C5  UNL     1      27.017   4.926   2.836  1.00  0.00     0.005 C 
HETATM    6  C6  UNL     1      26.394   4.157   3.966  1.00  0.00     0.005 C 
HETATM    7  C7  UNL     1      25.650   5.431   4.382  1.00  0.00    -0.010 C 
HETATM    8  C8  UNL     1      25.709   5.691   5.815  1.00  0.00     0.005 C 
ENDROOT
TORSDOF 0
ENDMDL
MODEL 3
REMARK VINA RESULT: -6.219322248      0.723      3.290
REMARK  0 active torsions:
REMARK  status: ('A' for Active; 'I' for Inactive)
ROOT
HETATM    1  C1  UNL     1      25.985   5.509   6.202  1.00  0.00     0.000 C 
HETATM    2  C2  UNL     1      26.238   7.004   6.126  1.00  0.00     0.000 C 
HETATM    3  C3  UNL     1      27.412   7.136   5.143  1.00  0.00     0.005 C 
HETATM    4  C4  UNL     1      26.807   6.880   3.797  1.00  0.00    -0.010 C 
HETATM    5  C5  UNL     1      27.770   6.328   2.765  1.00  0.00     0.005 C 
HETATM    6  C6  UNL     1      27.084   4.998   2.892  1.00  0.00     0.005 C 
HETATM    7  C7  UNL     1      25.966   5.685   3.687  1.00  0.00    -0.010 C 
HETATM    8  C8  UNL     1      25.584   4.958   4.891  1.00  0.00     0.005 C 
ENDROOT
TORSDOF 0
ENDMDL
MODEL 4
REMARK VINA RESULT: -6.037076643      0.950      2.966
REMARK  0 active torsions:
REMARK  status: ('A' for Active; 'I' for Inactive)
ROOT
HETATM    1  C1  UNL     1      26.148   4.776   4.862  1.00  0.00     0.000 C 
HETATM    2  C2  UNL     1      25.583   5.706   5.922  1.00  0.00     0.000 C 
HETATM    3  C3  UNL     1      26.718   6.709   6.184  1.00  0.00     0.005 C 
HETATM    4  C4  UNL     1      26.710   7.607   4.984  1.00  0.00    -0.010 C 
HETATM    5  C5  UNL     1      28.046   8.244   4.663  1.00  0.00     0.005 C 
HETATM    6  C6  UNL     1      28.160   7.321   3.484  1.00  0.00     0.005 C 
HETATM    7  C7  UNL     1      26.688   6.938   3.681  1.00  0.00    -0.010 C 
HETATM    8  C8  UNL     1      26.452   5.501   3.611  1.00  0.00     0.005 C 
ENDROOT
TORSDOF 0
ENDMDL
MODEL 5
REMARK VINA RESULT: -5.997751948      1.010      2.650
REMARK  0 active torsions:
REMARK  status: ('A' for Active; 'I' for Inactive)
ROOT
HETATM    1  C1  UNL     1      25.322   5.247   5.542  1.00  0.00     0.000 C 
HETATM    2  C2  UNL     1      26.126   4.638   4.407  1.00  0.00     0.000 C 
HETATM    3  C3  UNL     1      26.336   5.805   3.429  1.00  0.00     0.005 C 
HETATM    4  C4  UNL     1      27.373   6.665   4.085  1.00  0.00    -0.010 C 
HETATM    5  C5  UNL     1      27.314   8.129   3.701  1.00  0.00     0.005 C 
HETATM    6  C6  UNL     1      26.767   8.426   5.068  1.00  0.00     0.005 C 
HETATM    7  C7  UNL     1      27.135   6.998   5.492  1.00  0.00    -0.010 C 
HETATM    8  C8  UNL     1      26.070   6.322   6.223  1.00  0.00     0.005 C 
ENDROOT
TORSDOF 0
ENDMDL
