MODEL 1
REMARK VINA RESULT: -6.570005740      0.000      0.000
REMARK  11 active torsions:
REMARK  status: ('A' for Active; 'I' for Inactive)
REMARK    1  A    between atoms: C2_5  and  O2_6 
REMARK    2  A    between atoms: C3_11  and  C4_12 
REMARK    3  A    between atoms: C4_12  and  C5_13 
REMARK    4  A    between atoms: C6_14  and  C7_15 
REMARK    5  A    between atoms: C7_15  and  C8_16 
REMARK    6  A    between atoms: C8_16  and  C9_17 
REMARK    7  A    between atoms: C9_17  and  C10_18 
REMARK    8  A    between atoms: C10_18  and  C11_19 
REMARK    9  A    between atoms: C11_19  and  C12_20 
REMARK   10  A    between atoms: C12_20  and  S1_21 
REMARK   11  A    between atoms: S1_21  and  C13_22 
ROOT
HETATM    1  C5  UNL     1      10.575  17.891  59.014  1.00  0.00    -0.028 C 
HETATM    2  C6  UNL     1      11.062  17.022  58.153  1.00  0.00    -0.031 C 
ENDROOT
BRANCH   2   3
HETATM    3  C7  UNL     1      11.790  17.546  56.943  1.00  0.00     0.027 C 
BRANCH   3   4
HETATM    4  C8  UNL     1      12.469  18.837  57.261  1.00  0.00     0.004 C 
BRANCH   4   5
HETATM    5  C9  UNL     1      13.751  18.581  58.002  1.00  0.00     0.000 C 
BRANCH   5   6
HETATM    6  C10 UNL     1      14.022  19.643  59.028  1.00  0.00     0.001 C 
BRANCH   6   7
HETATM    7  C11 UNL     1      13.347  20.948  58.641  1.00  0.00     0.010 C 
BRANCH   7   8
HETATM    8  C12 UNL     1      14.433  21.992  58.500  1.00  0.00     0.074 C 
BRANCH   8   9
HETATM    9  S1  UNL     1      14.792  22.287  56.745  1.00  0.00    -0.164 SA
BRANCH   9  10
HETATM   10  C13 UNL     1      16.044  21.135  56.118  1.00  0.00     0.047 C 
HETATM   11  C14 UNL     1      17.263  21.910  55.743  1.00  0.00     0.015 C 
HETATM   12  C15 UNL     1      17.680  21.755  54.309  1.00  0.00     0.001 C 
HETATM   13  C16 UNL     1      16.561  21.965  53.329  1.00  0.00     0.000 C 
HETATM   14  C17 UNL     1      15.227  21.495  53.856  1.00  0.00     0.001 C 
HETATM   15  C18 UNL     1      15.425  20.414  54.923  1.00  0.00     0.015 C 
ENDBRANCH   9  10
ENDBRANCH   8   9
ENDBRANCH   7   8
ENDBRANCH   6   7
ENDBRANCH   5   6
ENDBRANCH   4   5
ENDBRANCH   3   4
ENDBRANCH   2   3
BRANCH   1  16
HETATM   16  C4  UNL     1       9.842  17.517  60.237  1.00  0.00     0.070 C 
BRANCH  16  17
HETATM   17  C3  UNL     1       9.826  18.578  61.287  1.00  0.00     0.285 C 
HETATM   18  C1  UNL     1      10.229  17.983  62.617  1.00  0.00     0.252 C 
HETATM   19  O1  UNL     1       9.742  16.924  63.036  1.00  0.00    -0.271 OA
HETATM   20  N1  UNL     1      11.194  18.853  63.193  1.00  0.00    -0.310 N 
HETATM   21  C2  UNL     1      11.295  19.994  62.329  1.00  0.00     0.429 C 
ATOM     22  H1  UNL     1      11.716  18.697  64.055  1.00  0.00     0.166 HD
HETATM   23  N2  UNL     1      10.931  19.491  61.017  1.00  0.00    -0.018 N 
ATOM     24  H22 UNL     1      10.718  20.217  60.333  1.00  0.00     0.283 HD
ATOM     25  H21 UNL     1      11.703  19.074  60.498  1.00  0.00     0.283 HD
BRANCH  21  26
HETATM   26  O2  UNL     1      12.577  20.550  62.332  1.00  0.00    -0.354 OA
ATOM     27  H2  UNL     1      13.006  20.472  61.488  1.00  0.00     0.214 HD
ENDBRANCH  21  26
ENDBRANCH  16  17
ENDBRANCH   1  16
TORSDOF 11
ENDMDL
MODEL 2
REMARK VINA RESULT: -6.538701563      1.251      1.629
REMARK  11 active torsions:
REMARK  status: ('A' for Active; 'I' for Inactive)
REMARK    1  A    between atoms: C2_5  and  O2_6 
REMARK    2  A    between atoms: C3_11  and  C4_12 
REMARK    3  A    between atoms: C4_12  and  C5_13 
REMARK    4  A    between atoms: C6_14  and  C7_15 
REMARK    5  A    between atoms: C7_15  and  C8_16 
REMARK    6  A    between atoms: C8_16  and  C9_17 
REMARK    7  A    between atoms: C9_17  and  C10_18 
REMARK    8  A    between atoms: C10_18  and  C11_19 
REMARK    9  A    between atoms: C11_19  and  C12_20 
REMARK   10  A    between atoms: C12_20  and  S1_21 
REMARK   11  A    between atoms: S1_21  and  C13_22 
ROOT
HETATM    1  C5  UNL     1      10.885  18.560  60.416  1.00  0.00    -0.028 C 
HETATM    2  C6  UNL     1      10.448  17.632  59.590  1.00  0.00    -0.031 C 
ENDROOT
BRANCH   2   3
HETATM    3  C7  UNL     1      10.639  17.845  58.111  1.00  0.00     0.027 C 
BRANCH   3   4
HETATM    4  C8  UNL     1      12.006  17.415  57.694  1.00  0.00     0.004 C 
BRANCH   4   5
HETATM    5  C9  UNL     1      12.838  18.613  57.331  1.00  0.00     0.000 C 
BRANCH   5   6
HETATM    6  C10 UNL     1      13.877  18.905  58.375  1.00  0.00     0.001 C 
BRANCH   6   7
HETATM    7  C11 UNL     1      13.971  20.399  58.636  1.00  0.00     0.010 C 
BRANCH   7   8
HETATM    8  C12 UNL     1      13.593  21.106  57.353  1.00  0.00     0.074 C 
BRANCH   8   9
HETATM    9  S1  UNL     1      14.992  22.093  56.748  1.00  0.00    -0.164 SA
BRANCH   9  10
HETATM   10  C13 UNL     1      16.247  21.053  55.954  1.00  0.00     0.047 C 
HETATM   11  C14 UNL     1      17.415  21.906  55.588  1.00  0.00     0.015 C 
HETATM   12  C15 UNL     1      17.756  21.897  54.126  1.00  0.00     0.001 C 
HETATM   13  C16 UNL     1      16.578  22.148  53.230  1.00  0.00     0.000 C 
HETATM   14  C17 UNL     1      15.292  21.579  53.780  1.00  0.00     0.001 C 
HETATM   15  C18 UNL     1      15.588  20.417  54.732  1.00  0.00     0.015 C 
ENDBRANCH   9  10
ENDBRANCH   8   9
ENDBRANCH   7   8
ENDBRANCH   6   7
ENDBRANCH   5   6
ENDBRANCH   4   5
ENDBRANCH   3   4
ENDBRANCH   2   3
BRANCH   1  16
HETATM   16  C4  UNL     1      10.764  18.481  61.883  1.00  0.00     0.070 C 
BRANCH  16  17
HETATM   17  C3  UNL     1      11.106  19.750  62.593  1.00  0.00     0.285 C 
HETATM   18  C1  UNL     1      12.264  19.509  63.534  1.00  0.00     0.252 C 
HETATM   19  O1  UNL     1      12.294  18.537  64.302  1.00  0.00    -0.271 OA
HETATM   20  N1  UNL     1      13.197  20.562  63.332  1.00  0.00    -0.310 N 
HETATM   21  C2  UNL     1      12.596  21.479  62.407  1.00  0.00     0.429 C 
ATOM     22  H1  UNL     1      14.117  20.650  63.762  1.00  0.00     0.166 HD
HETATM   23  N2  UNL     1      11.693  20.662  61.618  1.00  0.00    -0.018 N 
ATOM     24  H22 UNL     1      11.011  21.193  61.076  1.00  0.00     0.283 HD
ATOM     25  H21 UNL     1      12.131  20.201  60.821  1.00  0.00     0.283 HD
BRANCH  21  26
HETATM   26  O2  UNL     1      13.544  22.123  61.606  1.00  0.00    -0.354 OA
ATOM     27  H2  UNL     1      13.295  23.017  61.400  1.00  0.00     0.214 HD
ENDBRANCH  21  26
ENDBRANCH  16  17
ENDBRANCH   1  16
TORSDOF 11
ENDMDL
MODEL 3
REMARK VINA RESULT: -6.394294744      2.810      3.126
REMARK  11 active torsions:
REMARK  status: ('A' for Active; 'I' for Inactive)
REMARK    1  A    between atoms: C2_5  and  O2_6 
REMARK    2  A    between atoms: C3_11  and  C4_12 
REMARK    3  A    between atoms: C4_12  and  C5_13 
REMARK    4  A    between atoms: C6_14  and  C7_15 
REMARK    5  A    between atoms: C7_15  and  C8_16 
REMARK    6  A    between atoms: C8_16  and  C9_17 
REMARK    7  A    between atoms: C9_17  and  C10_18 
REMARK    8  A    between atoms: C10_18  and  C11_19 
REMARK    9  A    between atoms: C11_19  and  C12_20 
REMARK   10  A    between atoms: C12_20  and  S1_21 
REMARK   11  A    between atoms: S1_21  and  C13_22 
ROOT
HETATM    1  C5  UNL     1       9.757  18.387  59.612  1.00  0.00    -0.028 C 
HETATM    2  C6  UNL     1      10.206  17.384  58.886  1.00  0.00    -0.031 C 
ENDROOT
BRANCH   2   3
HETATM    3  C7  UNL     1      11.536  17.541  58.197  1.00  0.00     0.027 C 
BRANCH   3   4
HETATM    4  C8  UNL     1      12.456  18.379  59.021  1.00  0.00     0.004 C 
BRANCH   4   5
HETATM    5  C9  UNL     1      13.459  19.069  58.140  1.00  0.00     0.000 C 
BRANCH   5   6
HETATM    6  C10 UNL     1      12.874  20.281  57.475  1.00  0.00     0.001 C 
BRANCH   6   7
HETATM    7  C11 UNL     1      13.010  21.503  58.368  1.00  0.00     0.010 C 
BRANCH   7   8
HETATM    8  C12 UNL     1      14.470  21.898  58.370  1.00  0.00     0.074 C 
BRANCH   8   9
HETATM    9  S1  UNL     1      14.996  22.360  56.695  1.00  0.00    -0.164 SA
BRANCH   9  10
HETATM   10  C13 UNL     1      16.179  21.167  56.015  1.00  0.00     0.047 C 
HETATM   11  C14 UNL     1      17.427  21.892  55.636  1.00  0.00     0.015 C 
HETATM   12  C15 UNL     1      17.810  21.756  54.191  1.00  0.00     0.001 C 
HETATM   13  C16 UNL     1      16.685  22.045  53.239  1.00  0.00     0.000 C 
HETATM   14  C17 UNL     1      15.339  21.625  53.780  1.00  0.00     0.001 C 
HETATM   15  C18 UNL     1      15.504  20.509  54.814  1.00  0.00     0.015 C 
ENDBRANCH   9  10
ENDBRANCH   8   9
ENDBRANCH   7   8
ENDBRANCH   6   7
ENDBRANCH   5   6
ENDBRANCH   4   5
ENDBRANCH   3   4
ENDBRANCH   2   3
BRANCH   1  16
HETATM   16  C4  UNL     1       8.474  18.368  60.338  1.00  0.00     0.070 C 
BRANCH  16  17
HETATM   17  C3  UNL     1       7.292  18.725  59.497  1.00  0.00     0.285 C 
HETATM   18  C1  UNL     1       6.087  18.948  60.382  1.00  0.00     0.252 C 
HETATM   19  O1  UNL     1       5.780  18.155  61.282  1.00  0.00    -0.271 OA
HETATM   20  N1  UNL     1       5.473  20.159  59.960  1.00  0.00    -0.310 N 
HETATM   21  C2  UNL     1       6.182  20.601  58.794  1.00  0.00     0.429 C 
ATOM     22  H1  UNL     1       4.681  20.624  60.402  1.00  0.00     0.166 HD
HETATM   23  N2  UNL     1       7.519  20.059  58.952  1.00  0.00    -0.018 N 
ATOM     24  H22 UNL     1       8.082  20.075  58.102  1.00  0.00     0.283 HD
ATOM     25  H21 UNL     1       8.145  20.640  59.510  1.00  0.00     0.283 HD
BRANCH  21  26
HETATM   26  O2  UNL     1       6.199  21.995  58.680  1.00  0.00    -0.354 OA
ATOM     27  H2  UNL     1       5.694  22.302  57.937  1.00  0.00     0.214 HD
ENDBRANCH  21  26
ENDBRANCH  16  17
ENDBRANCH   1  16
TORSDOF 11
ENDMDL
MODEL 4
REMARK VINA RESULT: -6.367897902      3.812      8.658
REMARK  11 active torsions:
REMARK  status: ('A' for Active; 'I' for Inactive)
REMARK    1  A    between atoms: C2_5  and  O2_6 
REMARK    2  A    between atoms: C3_11  and  C4_12 
REMARK    3  A    between atoms: C4_12  and  C5_13 
REMARK    4  A    between atoms: C6_14  and  C7_15 
REMARK    5  A    between atoms: C7_15  and  C8_16 
REMARK    6  A    between atoms: C8_16  and  C9_17 
REMARK    7  A    between atoms: C9_17  and  C10_18 
REMARK    8  A    between atoms: C10_18  and  C11_19 
REMARK    9  A    between atoms: C11_19  and  C12_20 
REMARK   10  A    between atoms: C12_20  and  S1_21 
REMARK   11  A    between atoms: S1_21  and  C13_22 
ROOT
HETATM    1  C5  UNL     1      13.036  18.753  58.624  1.00  0.00    -0.028 C 
HETATM    2  C6  UNL     1      12.424  18.176  57.611  1.00  0.00    -0.031 C 
ENDROOT
BRANCH   2   3
HETATM    3  C7  UNL     1      11.252  17.276  57.903  1.00  0.00     0.027 C 
BRANCH   3   4
HETATM    4  C8  UNL     1      10.204  18.015  58.665  1.00  0.00     0.004 C 
BRANCH   4   5
HETATM    5  C9  UNL     1      10.133  17.505  60.078  1.00  0.00     0.000 C 
BRANCH   5   6
HETATM    6  C10 UNL     1       9.857  18.612  61.055  1.00  0.00     0.001 C 
BRANCH   6   7
HETATM    7  C11 UNL     1      11.113  18.972  61.829  1.00  0.00     0.010 C 
BRANCH   7   8
HETATM    8  C12 UNL     1      10.682  19.399  63.214  1.00  0.00     0.074 C 
BRANCH   8   9
HETATM    9  S1  UNL     1      11.211  18.169  64.441  1.00  0.00    -0.164 SA
BRANCH   9  10
HETATM   10  C13 UNL     1       9.797  17.464  65.330  1.00  0.00     0.047 C 
HETATM   11  C14 UNL     1      10.283  16.351  66.197  1.00  0.00     0.015 C 
HETATM   12  C15 UNL     1       9.641  15.022  65.920  1.00  0.00     0.001 C 
HETATM   13  C16 UNL     1       9.646  14.641  64.468  1.00  0.00     0.000 C 
HETATM   14  C17 UNL     1       9.507  15.832  63.550  1.00  0.00     0.001 C 
HETATM   15  C18 UNL     1       8.804  16.984  64.273  1.00  0.00     0.015 C 
ENDBRANCH   9  10
ENDBRANCH   8   9
ENDBRANCH   7   8
ENDBRANCH   6   7
ENDBRANCH   5   6
ENDBRANCH   4   5
ENDBRANCH   3   4
ENDBRANCH   2   3
BRANCH   1  16
HETATM   16  C4  UNL     1      14.194  19.655  58.482  1.00  0.00     0.070 C 
BRANCH  16  17
HETATM   17  C3  UNL     1      14.138  20.532  57.274  1.00  0.00     0.285 C 
HETATM   18  C1  UNL     1      13.977  21.974  57.700  1.00  0.00     0.252 C 
HETATM   19  O1  UNL     1      13.143  22.317  58.549  1.00  0.00    -0.271 OA
HETATM   20  N1  UNL     1      14.919  22.739  56.960  1.00  0.00    -0.310 N 
HETATM   21  C2  UNL     1      15.546  21.844  56.031  1.00  0.00     0.429 C 
ATOM     22  H1  UNL     1      15.113  23.734  57.069  1.00  0.00     0.166 HD
HETATM   23  N2  UNL     1      15.464  20.542  56.668  1.00  0.00    -0.018 N 
ATOM     24  H22 UNL     1      15.646  19.757  56.043  1.00  0.00     0.283 HD
ATOM     25  H21 UNL     1      16.225  20.344  57.318  1.00  0.00     0.283 HD
BRANCH  21  26
HETATM   26  O2  UNL     1      16.869  22.204  55.757  1.00  0.00    -0.354 OA
ATOM     27  H2  UNL     1      17.487  21.529  56.013  1.00  0.00     0.214 HD
ENDBRANCH  21  26
ENDBRANCH  16  17
ENDBRANCH   1  16
TORSDOF 11
ENDMDL
MODEL 5
REMARK VINA RESULT: -6.355912185      3.574      7.138
REMARK  11 active torsions:
REMARK  status: ('A' for Active; 'I' for Inactive)
REMARK    1  A    between atoms: C2_5  and  O2_6 
REMARK    2  A    between atoms: C3_11  and  C4_12 
REMARK    3  A    between atoms: C4_12  and  C5_13 
REMARK    4  A    between atoms: C6_14  and  C7_15 
REMARK    5  A    between atoms: C7_15  and  C8_16 
REMARK    6  A    between atoms: C8_16  and  C9_17 
REMARK    7  A    between atoms: C9_17  and  C10_18 
REMARK    8  A    between atoms: C10_18  and  C11_19 
REMARK    9  A    between atoms: C11_19  and  C12_20 
REMARK   10  A    between atoms: C12_20  and  S1_21 
REMARK   11  A    between atoms: S1_21  and  C13_22 
ROOT
HETATM    1  C5  UNL     1      12.961  18.742  58.627  1.00  0.00    -0.028 C 
HETATM    2  C6  UNL     1      12.279  18.276  57.602  1.00  0.00    -0.031 C 
ENDROOT
BRANCH   2   3
HETATM    3  C7  UNL     1      11.109  17.368  57.876  1.00  0.00     0.027 C 
BRANCH   3   4
HETATM    4  C8  UNL     1      10.705  17.455  59.310  1.00  0.00     0.004 C 
BRANCH   4   5
HETATM    5  C9  UNL     1       9.431  18.241  59.444  1.00  0.00     0.000 C 
BRANCH   5   6
HETATM    6  C10 UNL     1       9.083  18.494  60.882  1.00  0.00     0.001 C 
BRANCH   6   7
HETATM    7  C11 UNL     1       9.714  17.444  61.780  1.00  0.00     0.010 C 
BRANCH   7   8
HETATM    8  C12 UNL     1       9.537  17.908  63.209  1.00  0.00     0.074 C 
BRANCH   8   9
HETATM    9  S1  UNL     1      10.018  19.652  63.364  1.00  0.00    -0.164 SA
BRANCH   9  10
HETATM   10  C13 UNL     1      11.759  19.822  63.839  1.00  0.00     0.047 C 
HETATM   11  C14 UNL     1      11.973  21.192  64.392  1.00  0.00     0.015 C 
HETATM   12  C15 UNL     1      13.011  21.999  63.666  1.00  0.00     0.001 C 
HETATM   13  C16 UNL     1      12.824  22.021  62.176  1.00  0.00     0.000 C 
HETATM   14  C17 UNL     1      12.259  20.728  61.638  1.00  0.00     0.001 C 
HETATM   15  C18 UNL     1      12.589  19.569  62.582  1.00  0.00     0.015 C 
ENDBRANCH   9  10
ENDBRANCH   8   9
ENDBRANCH   7   8
ENDBRANCH   6   7
ENDBRANCH   5   6
ENDBRANCH   4   5
ENDBRANCH   3   4
ENDBRANCH   2   3
BRANCH   1  16
HETATM   16  C4  UNL     1      14.126  19.637  58.502  1.00  0.00     0.070 C 
BRANCH  16  17
HETATM   17  C3  UNL     1      14.083  20.530  57.306  1.00  0.00     0.285 C 
HETATM   18  C1  UNL     1      13.947  21.969  57.749  1.00  0.00     0.252 C 
HETATM   19  O1  UNL     1      13.120  22.316  58.603  1.00  0.00    -0.271 OA
HETATM   20  N1  UNL     1      14.901  22.727  57.018  1.00  0.00    -0.310 N 
HETATM   21  C2  UNL     1      15.511  21.833  56.077  1.00  0.00     0.429 C 
ATOM     22  H1  UNL     1      15.111  23.717  57.138  1.00  0.00     0.166 HD
HETATM   23  N2  UNL     1      15.409  20.525  56.698  1.00  0.00    -0.018 N 
ATOM     24  H22 UNL     1      15.577  19.744  56.063  1.00  0.00     0.283 HD
ATOM     25  H21 UNL     1      16.167  20.306  57.344  1.00  0.00     0.283 HD
BRANCH  21  26
HETATM   26  O2  UNL     1      16.840  22.174  55.806  1.00  0.00    -0.354 OA
ATOM     27  H2  UNL     1      17.107  21.916  54.931  1.00  0.00     0.214 HD
ENDBRANCH  21  26
ENDBRANCH  16  17
ENDBRANCH   1  16
TORSDOF 11
ENDMDL
