MODEL 1
REMARK VINA RESULT: -7.278805820      0.000      0.000
REMARK  12 active torsions:
REMARK  status: ('A' for Active; 'I' for Inactive)
REMARK    1  A    between atoms: O1_2  and  C2_3 
REMARK    2  A    between atoms: C2_3  and  C3_4 
REMARK    3  A    between atoms: C3_4  and  N1_5 
REMARK    4  A    between atoms: N1_5  and  C4_7 
REMARK    5  A    between atoms: C5_10  and  C6_11 
REMARK    6  A    between atoms: C6_11  and  O2_12 
REMARK    7  A    between atoms: O2_12  and  C7_13 
REMARK    8  A    between atoms: C7_13  and  C8_14 
REMARK    9  A    between atoms: C8_14  and  C9_15 
REMARK   10  A    between atoms: C9_15  and  C10_16 
REMARK   11  A    between atoms: C10_16  and  C11_17 
REMARK   12  A    between atoms: C18_24  and  N3_25 
ROOT
HETATM    1  C4  UNL     1       9.832  18.221  59.236  1.00  0.00     0.680 A 
HETATM    2  N2  UNL     1      10.648  18.899  60.067  1.00  0.00    -0.193 N 
ATOM      3  H2  UNL     1      10.256  19.374  60.880  1.00  0.00     0.184 HD
HETATM    4  C5  UNL     1      11.967  18.956  59.839  1.00  0.00     0.053 A 
HETATM    5  C17 UNL     1      12.468  18.303  58.733  1.00  0.00     0.076 A 
HETATM    6  C18 UNL     1      11.632  17.599  57.869  1.00  0.00     0.116 A 
HETATM    7  N4  UNL     1      10.328  17.583  58.155  1.00  0.00    -0.177 N 
ATOM      8  H4  UNL     1       9.690  17.076  57.540  1.00  0.00     0.185 HD
ENDROOT
BRANCH   4   9
HETATM    9  C6  UNL     1      12.923  19.700  60.736  1.00  0.00     0.225 C 
BRANCH   9  10
HETATM   10  O2  UNL     1      13.659  20.501  59.935  1.00  0.00    -0.382 OA
BRANCH  10  11
HETATM   11  C7  UNL     1      13.249  21.831  59.821  1.00  0.00     0.195 C 
BRANCH  11  12
HETATM   12  C8  UNL     1      13.856  22.530  58.691  1.00  0.00    -0.001 C 
BRANCH  12  13
HETATM   13  C9  UNL     1      14.241  21.885  57.454  1.00  0.00    -0.006 C 
BRANCH  13  14
HETATM   14  C10 UNL     1      15.389  22.222  56.640  1.00  0.00    -0.022 C 
BRANCH  14  15
HETATM   15  C11 UNL     1      16.193  21.196  55.940  1.00  0.00     0.008 C 
HETATM   16  C12 UNL     1      15.322  20.541  54.881  1.00  0.00     0.008 C 
HETATM   17  C13 UNL     1      15.272  21.213  53.582  1.00  0.00     0.001 C 
HETATM   18  C14 UNL     1      16.449  22.037  53.176  1.00  0.00     0.000 C 
HETATM   19  C15 UNL     1      17.153  22.715  54.317  1.00  0.00     0.001 C 
HETATM   20  C16 UNL     1      17.468  21.648  55.320  1.00  0.00     0.008 C 
ENDBRANCH  14  15
ENDBRANCH  13  14
ENDBRANCH  12  13
ENDBRANCH  11  12
ENDBRANCH  10  11
ENDBRANCH   9  10
ENDBRANCH   4   9
BRANCH   1  21
HETATM   21  N1  UNL     1       8.559  18.186  59.487  1.00  0.00    -0.224 N 
ATOM     22  H1  UNL     1       7.921  17.708  58.851  1.00  0.00     0.177 HD
BRANCH  21  23
HETATM   23  C3  UNL     1       8.052  18.839  60.686  1.00  0.00     0.164 C 
BRANCH  23  24
HETATM   24  C2  UNL     1       6.566  18.799  60.742  1.00  0.00     0.187 C 
BRANCH  24  25
HETATM   25  O1  UNL     1       6.028  18.226  59.627  1.00  0.00    -0.394 OA
HETATM   26  C1  UNL     1       4.698  18.545  59.440  1.00  0.00     0.201 C 
ENDBRANCH  24  25
ENDBRANCH  23  24
ENDBRANCH  21  23
ENDBRANCH   1  21
BRANCH   6  27
HETATM   27  N3  UNL     1      12.087  16.985  56.833  1.00  0.00    -0.385 N 
ATOM     28  H32 UNL     1      11.725  17.193  55.902  1.00  0.00     0.157 HD
ATOM     29  H31 UNL     1      12.817  16.276  56.903  1.00  0.00     0.157 HD
ENDBRANCH   6  27
TORSDOF 12
ENDMDL
MODEL 2
REMARK VINA RESULT: -6.902480083      2.011      2.252
REMARK  12 active torsions:
REMARK  status: ('A' for Active; 'I' for Inactive)
REMARK    1  A    between atoms: O1_2  and  C2_3 
REMARK    2  A    between atoms: C2_3  and  C3_4 
REMARK    3  A    between atoms: C3_4  and  N1_5 
REMARK    4  A    between atoms: N1_5  and  C4_7 
REMARK    5  A    between atoms: C5_10  and  C6_11 
REMARK    6  A    between atoms: C6_11  and  O2_12 
REMARK    7  A    between atoms: O2_12  and  C7_13 
REMARK    8  A    between atoms: C7_13  and  C8_14 
REMARK    9  A    between atoms: C8_14  and  C9_15 
REMARK   10  A    between atoms: C9_15  and  C10_16 
REMARK   11  A    between atoms: C10_16  and  C11_17 
REMARK   12  A    between atoms: C18_24  and  N3_25 
ROOT
HETATM    1  C4  UNL     1      10.598  17.900  59.652  1.00  0.00     0.680 A 
HETATM    2  N2  UNL     1      11.609  18.690  60.063  1.00  0.00    -0.193 N 
ATOM      3  H2  UNL     1      11.545  19.160  60.966  1.00  0.00     0.184 HD
HETATM    4  C5  UNL     1      12.697  18.867  59.301  1.00  0.00     0.053 A 
HETATM    5  C17 UNL     1      12.755  18.218  58.085  1.00  0.00     0.076 A 
HETATM    6  C18 UNL     1      11.716  17.399  57.653  1.00  0.00     0.116 A 
HETATM    7  N4  UNL     1      10.661  17.268  58.461  1.00  0.00    -0.177 N 
ATOM      8  H4  UNL     1       9.883  16.674  58.171  1.00  0.00     0.185 HD
ENDROOT
BRANCH   4   9
HETATM    9  C6  UNL     1      13.855  19.739  59.713  1.00  0.00     0.225 C 
BRANCH   9  10
HETATM   10  O2  UNL     1      13.339  20.734  60.467  1.00  0.00    -0.382 OA
BRANCH  10  11
HETATM   11  C7  UNL     1      13.121  21.960  59.834  1.00  0.00     0.195 C 
BRANCH  11  12
HETATM   12  C8  UNL     1      14.205  22.349  58.936  1.00  0.00    -0.001 C 
BRANCH  12  13
HETATM   13  C9  UNL     1      14.201  22.104  57.509  1.00  0.00    -0.006 C 
BRANCH  13  14
HETATM   14  C10 UNL     1      15.289  22.377  56.596  1.00  0.00    -0.022 C 
BRANCH  14  15
HETATM   15  C11 UNL     1      16.099  21.301  55.984  1.00  0.00     0.008 C 
HETATM   16  C12 UNL     1      15.260  20.606  54.926  1.00  0.00     0.008 C 
HETATM   17  C13 UNL     1      15.277  21.209  53.592  1.00  0.00     0.001 C 
HETATM   18  C14 UNL     1      16.486  21.988  53.193  1.00  0.00     0.000 C 
HETATM   19  C15 UNL     1      17.157  22.713  54.326  1.00  0.00     0.001 C 
HETATM   20  C16 UNL     1      17.408  21.696  55.396  1.00  0.00     0.008 C 
ENDBRANCH  14  15
ENDBRANCH  13  14
ENDBRANCH  12  13
ENDBRANCH  11  12
ENDBRANCH  10  11
ENDBRANCH   9  10
ENDBRANCH   4   9
BRANCH   1  21
HETATM   21  N1  UNL     1       9.559  17.752  60.415  1.00  0.00    -0.224 N 
ATOM     22  H1  UNL     1       8.621  17.894  60.041  1.00  0.00     0.177 HD
BRANCH  21  23
HETATM   23  C3  UNL     1       9.749  17.383  61.811  1.00  0.00     0.164 C 
BRANCH  23  24
HETATM   24  C2  UNL     1       9.672  18.570  62.705  1.00  0.00     0.187 C 
BRANCH  24  25
HETATM   25  O1  UNL     1      10.908  19.001  63.090  1.00  0.00    -0.394 OA
HETATM   26  C1  UNL     1      11.017  20.376  63.126  1.00  0.00     0.201 C 
ENDBRANCH  24  25
ENDBRANCH  23  24
ENDBRANCH  21  23
ENDBRANCH   1  21
BRANCH   6  27
HETATM   27  N3  UNL     1      11.757  16.788  56.520  1.00  0.00    -0.385 N 
ATOM     28  H32 UNL     1      12.350  17.130  55.764  1.00  0.00     0.157 HD
ATOM     29  H31 UNL     1      11.207  15.948  56.340  1.00  0.00     0.157 HD
ENDBRANCH   6  27
TORSDOF 12
ENDMDL
MODEL 3
REMARK VINA RESULT: -6.784764868      2.885      8.054
REMARK  12 active torsions:
REMARK  status: ('A' for Active; 'I' for Inactive)
REMARK    1  A    between atoms: O1_2  and  C2_3 
REMARK    2  A    between atoms: C2_3  and  C3_4 
REMARK    3  A    between atoms: C3_4  and  N1_5 
REMARK    4  A    between atoms: N1_5  and  C4_7 
REMARK    5  A    between atoms: C5_10  and  C6_11 
REMARK    6  A    between atoms: C6_11  and  O2_12 
REMARK    7  A    between atoms: O2_12  and  C7_13 
REMARK    8  A    between atoms: C7_13  and  C8_14 
REMARK    9  A    between atoms: C8_14  and  C9_15 
REMARK   10  A    between atoms: C9_15  and  C10_16 
REMARK   11  A    between atoms: C10_16  and  C11_17 
REMARK   12  A    between atoms: C18_24  and  N3_25 
ROOT
HETATM    1  C4  UNL     1      12.301  19.921  57.898  1.00  0.00     0.680 A 
HETATM    2  N2  UNL     1      11.659  19.738  59.069  1.00  0.00    -0.193 N 
ATOM      3  H2  UNL     1      11.555  20.522  59.713  1.00  0.00     0.184 HD
HETATM    4  C5  UNL     1      11.156  18.540  59.397  1.00  0.00     0.053 A 
HETATM    5  C17 UNL     1      11.313  17.500  58.506  1.00  0.00     0.076 A 
HETATM    6  C18 UNL     1      11.974  17.679  57.293  1.00  0.00     0.116 A 
HETATM    7  N4  UNL     1      12.451  18.899  57.030  1.00  0.00    -0.177 N 
ATOM      8  H4  UNL     1      12.941  19.061  56.149  1.00  0.00     0.185 HD
ENDROOT
BRANCH   4   9
HETATM    9  C6  UNL     1      10.430  18.282  60.693  1.00  0.00     0.225 C 
BRANCH   9  10
HETATM   10  O2  UNL     1       9.223  17.773  60.363  1.00  0.00    -0.382 OA
BRANCH  10  11
HETATM   11  C7  UNL     1       8.141  18.657  60.367  1.00  0.00     0.195 C 
BRANCH  11  12
HETATM   12  C8  UNL     1       7.322  18.577  59.160  1.00  0.00    -0.001 C 
BRANCH  12  13
HETATM   13  C9  UNL     1       5.943  19.012  59.088  1.00  0.00    -0.006 C 
BRANCH  13  14
HETATM   14  C10 UNL     1       5.460  20.203  58.426  1.00  0.00    -0.022 C 
BRANCH  14  15
HETATM   15  C11 UNL     1       6.347  21.338  58.089  1.00  0.00     0.008 C 
HETATM   16  C12 UNL     1       6.528  21.379  56.581  1.00  0.00     0.008 C 
HETATM   17  C13 UNL     1       5.507  22.113  55.830  1.00  0.00     0.001 C 
HETATM   18  C14 UNL     1       4.790  23.221  56.527  1.00  0.00     0.000 C 
HETATM   19  C15 UNL     1       4.587  22.998  58.000  1.00  0.00     0.001 C 
HETATM   20  C16 UNL     1       5.934  22.683  58.574  1.00  0.00     0.008 C 
ENDBRANCH  14  15
ENDBRANCH  13  14
ENDBRANCH  12  13
ENDBRANCH  11  12
ENDBRANCH  10  11
ENDBRANCH   9  10
ENDBRANCH   4   9
BRANCH   1  21
HETATM   21  N1  UNL     1      12.776  21.094  57.613  1.00  0.00    -0.224 N 
ATOM     22  H1  UNL     1      12.207  21.770  57.104  1.00  0.00     0.177 HD
BRANCH  21  23
HETATM   23  C3  UNL     1      14.131  21.434  58.028  1.00  0.00     0.164 C 
BRANCH  23  24
HETATM   24  C2  UNL     1      14.816  22.278  57.012  1.00  0.00     0.187 C 
BRANCH  24  25
HETATM   25  O1  UNL     1      16.147  21.991  56.923  1.00  0.00    -0.394 OA
HETATM   26  C1  UNL     1      16.628  22.043  55.630  1.00  0.00     0.201 C 
ENDBRANCH  24  25
ENDBRANCH  23  24
ENDBRANCH  21  23
ENDBRANCH   1  21
BRANCH   6  27
HETATM   27  N3  UNL     1      12.126  16.716  56.452  1.00  0.00    -0.385 N 
ATOM     28  H32 UNL     1      11.426  16.535  55.734  1.00  0.00     0.157 HD
ATOM     29  H31 UNL     1      12.944  16.107  56.473  1.00  0.00     0.157 HD
ENDBRANCH   6  27
TORSDOF 12
ENDMDL
MODEL 4
REMARK VINA RESULT: -6.707079974      2.201      3.746
REMARK  12 active torsions:
REMARK  status: ('A' for Active; 'I' for Inactive)
REMARK    1  A    between atoms: O1_2  and  C2_3 
REMARK    2  A    between atoms: C2_3  and  C3_4 
REMARK    3  A    between atoms: C3_4  and  N1_5 
REMARK    4  A    between atoms: N1_5  and  C4_7 
REMARK    5  A    between atoms: C5_10  and  C6_11 
REMARK    6  A    between atoms: C6_11  and  O2_12 
REMARK    7  A    between atoms: O2_12  and  C7_13 
REMARK    8  A    between atoms: C7_13  and  C8_14 
REMARK    9  A    between atoms: C8_14  and  C9_15 
REMARK   10  A    between atoms: C9_15  and  C10_16 
REMARK   11  A    between atoms: C10_16  and  C11_17 
REMARK   12  A    between atoms: C18_24  and  N3_25 
ROOT
HETATM    1  C4  UNL     1      10.602  19.046  61.440  1.00  0.00     0.680 A 
HETATM    2  N2  UNL     1      11.601  18.857  60.557  1.00  0.00    -0.193 N 
ATOM      3  H2  UNL     1      12.567  18.998  60.852  1.00  0.00     0.184 HD
HETATM    4  C5  UNL     1      11.342  18.485  59.295  1.00  0.00     0.053 A 
HETATM    5  C17 UNL     1      10.026  18.301  58.926  1.00  0.00     0.076 A 
HETATM    6  C18 UNL     1       8.987  18.493  59.833  1.00  0.00     0.116 A 
HETATM    7  N4  UNL     1       9.316  18.863  61.073  1.00  0.00    -0.177 N 
ATOM      8  H4  UNL     1       8.576  19.012  61.760  1.00  0.00     0.185 HD
ENDROOT
BRANCH   4   9
HETATM    9  C6  UNL     1      12.422  18.261  58.268  1.00  0.00     0.225 C 
BRANCH   9  10
HETATM   10  O2  UNL     1      12.171  19.116  57.252  1.00  0.00    -0.382 OA
BRANCH  10  11
HETATM   11  C7  UNL     1      12.426  20.469  57.485  1.00  0.00     0.195 C 
BRANCH  11  12
HETATM   12  C8  UNL     1      13.795  20.734  57.919  1.00  0.00    -0.001 C 
BRANCH  12  13
HETATM   13  C9  UNL     1      14.487  21.987  57.696  1.00  0.00    -0.006 C 
BRANCH  13  14
HETATM   14  C10 UNL     1      15.378  22.283  56.595  1.00  0.00    -0.022 C 
BRANCH  14  15
HETATM   15  C11 UNL     1      16.158  21.234  55.903  1.00  0.00     0.008 C 
HETATM   16  C12 UNL     1      15.289  20.622  54.818  1.00  0.00     0.008 C 
HETATM   17  C13 UNL     1      15.296  21.308  53.525  1.00  0.00     0.001 C 
HETATM   18  C14 UNL     1      16.513  22.090  53.155  1.00  0.00     0.000 C 
HETATM   19  C15 UNL     1      17.215  22.730  54.320  1.00  0.00     0.001 C 
HETATM   20  C16 UNL     1      17.465  21.643  55.319  1.00  0.00     0.008 C 
ENDBRANCH  14  15
ENDBRANCH  13  14
ENDBRANCH  12  13
ENDBRANCH  11  12
ENDBRANCH  10  11
ENDBRANCH   9  10
ENDBRANCH   4   9
BRANCH   1  21
HETATM   21  N1  UNL     1      10.889  19.405  62.653  1.00  0.00    -0.224 N 
ATOM     22  H1  UNL     1      10.144  19.623  63.316  1.00  0.00     0.177 HD
BRANCH  21  23
HETATM   23  C3  UNL     1      12.285  19.495  63.058  1.00  0.00     0.164 C 
BRANCH  23  24
HETATM   24  C2  UNL     1      12.792  20.891  62.965  1.00  0.00     0.187 C 
BRANCH  24  25
HETATM   25  O1  UNL     1      13.272  21.179  61.721  1.00  0.00    -0.394 OA
HETATM   26  C1  UNL     1      12.903  22.431  61.272  1.00  0.00     0.201 C 
ENDBRANCH  24  25
ENDBRANCH  23  24
ENDBRANCH  21  23
ENDBRANCH   1  21
BRANCH   6  27
HETATM   27  N3  UNL     1       7.754  18.324  59.500  1.00  0.00    -0.385 N 
ATOM     28  H32 UNL     1       7.094  17.894  60.147  1.00  0.00     0.157 HD
ATOM     29  H31 UNL     1       7.398  18.612  58.589  1.00  0.00     0.157 HD
ENDBRANCH   6  27
TORSDOF 12
ENDMDL
MODEL 5
REMARK VINA RESULT: -6.571639208      1.816      2.504
REMARK  12 active torsions:
REMARK  status: ('A' for Active; 'I' for Inactive)
REMARK    1  A    between atoms: O1_2  and  C2_3 
REMARK    2  A    between atoms: C2_3  and  C3_4 
REMARK    3  A    between atoms: C3_4  and  N1_5 
REMARK    4  A    between atoms: N1_5  and  C4_7 
REMARK    5  A    between atoms: C5_10  and  C6_11 
REMARK    6  A    between atoms: C6_11  and  O2_12 
REMARK    7  A    between atoms: O2_12  and  C7_13 
REMARK    8  A    between atoms: C7_13  and  C8_14 
REMARK    9  A    between atoms: C8_14  and  C9_15 
REMARK   10  A    between atoms: C9_15  and  C10_16 
REMARK   11  A    between atoms: C10_16  and  C11_17 
REMARK   12  A    between atoms: C18_24  and  N3_25 
ROOT
HETATM    1  C4  UNL     1       8.847  18.577  59.651  1.00  0.00     0.680 A 
HETATM    2  N2  UNL     1       9.836  18.470  58.743  1.00  0.00    -0.193 N 
ATOM      3  H2  UNL     1       9.604  18.383  57.754  1.00  0.00     0.184 HD
HETATM    4  C5  UNL     1      11.122  18.478  59.123  1.00  0.00     0.053 A 
HETATM    5  C17 UNL     1      11.405  18.598  60.467  1.00  0.00     0.076 A 
HETATM    6  C18 UNL     1      10.389  18.709  61.412  1.00  0.00     0.116 A 
HETATM    7  N4  UNL     1       9.130  18.695  60.966  1.00  0.00    -0.177 N 
ATOM      8  H4  UNL     1       8.364  18.774  61.635  1.00  0.00     0.185 HD
ENDROOT
BRANCH   4   9
HETATM    9  C6  UNL     1      12.265  18.362  58.148  1.00  0.00     0.225 C 
BRANCH   9  10
HETATM   10  O2  UNL     1      12.080  19.325  57.219  1.00  0.00    -0.382 OA
BRANCH  10  11
HETATM   11  C7  UNL     1      12.338  20.641  57.611  1.00  0.00     0.195 C 
BRANCH  11  12
HETATM   12  C8  UNL     1      13.730  20.871  57.988  1.00  0.00    -0.001 C 
BRANCH  12  13
HETATM   13  C9  UNL     1      14.452  22.094  57.708  1.00  0.00    -0.006 C 
BRANCH  13  14
HETATM   14  C10 UNL     1      15.291  22.342  56.556  1.00  0.00    -0.022 C 
BRANCH  14  15
HETATM   15  C11 UNL     1      16.120  21.286  55.937  1.00  0.00     0.008 C 
HETATM   16  C12 UNL     1      15.306  20.610  54.846  1.00  0.00     0.008 C 
HETATM   17  C13 UNL     1      15.345  21.244  53.527  1.00  0.00     0.001 C 
HETATM   18  C14 UNL     1      16.557  22.040  53.170  1.00  0.00     0.000 C 
HETATM   19  C15 UNL     1      17.200  22.742  54.332  1.00  0.00     0.001 C 
HETATM   20  C16 UNL     1      17.438  21.702  55.384  1.00  0.00     0.008 C 
ENDBRANCH  14  15
ENDBRANCH  13  14
ENDBRANCH  12  13
ENDBRANCH  11  12
ENDBRANCH  10  11
ENDBRANCH   9  10
ENDBRANCH   4   9
BRANCH   1  21
HETATM   21  N1  UNL     1       7.614  18.566  59.249  1.00  0.00    -0.224 N 
ATOM     22  H1  UNL     1       7.264  17.796  58.679  1.00  0.00     0.177 HD
BRANCH  21  23
HETATM   23  C3  UNL     1       6.734  19.667  59.620  1.00  0.00     0.164 C 
BRANCH  23  24
HETATM   24  C2  UNL     1       5.999  20.199  58.440  1.00  0.00     0.187 C 
BRANCH  24  25
HETATM   25  O1  UNL     1       6.555  21.351  57.969  1.00  0.00    -0.394 OA
HETATM   26  C1  UNL     1       6.328  21.553  56.622  1.00  0.00     0.201 C 
ENDBRANCH  24  25
ENDBRANCH  23  24
ENDBRANCH  21  23
ENDBRANCH   1  21
BRANCH   6  27
HETATM   27  N3  UNL     1      10.640  18.822  62.670  1.00  0.00    -0.385 N 
ATOM     28  H32 UNL     1      11.217  19.586  63.021  1.00  0.00     0.157 HD
ATOM     29  H31 UNL     1      10.275  18.158  63.354  1.00  0.00     0.157 HD
ENDBRANCH   6  27
TORSDOF 12
ENDMDL
