MODEL 1
REMARK VINA RESULT: -3.791800565      0.000      0.000
REMARK  3 active torsions:
REMARK  status: ('A' for Active; 'I' for Inactive)
REMARK    1  A    between atoms: C5_5  and  N1_6 
REMARK    2  A    between atoms: C10_13  and  C11_14 
REMARK    3  A    between atoms: C12_15  and  C13_16 
ROOT
HETATM    1  N1  UNL     1      24.211  11.106  56.338  1.00  0.00    -0.306 N 
HETATM    2  C6  UNL     1      25.275  11.131  55.518  1.00  0.00     0.189 A 
HETATM    3  N2  UNL     1      26.250  10.442  56.128  1.00  0.00    -0.350 N 
ATOM      4  H2  UNL     1      27.182  10.288  55.746  1.00  0.00     0.166 HD
HETATM    5  C7  UNL     1      25.819   9.984  57.320  1.00  0.00     0.060 A 
HETATM    6  C8  UNL     1      26.370   9.242  58.340  1.00  0.00     0.033 A 
HETATM    7  C9  UNL     1      25.610   8.950  59.451  1.00  0.00     0.023 A 
HETATM    8  C10 UNL     1      24.295   9.377  59.589  1.00  0.00     0.020 A 
HETATM    9  C19 UNL     1      23.760  10.118  58.558  1.00  0.00     0.053 A 
HETATM   10  C20 UNL     1      24.513  10.411  57.448  1.00  0.00     0.068 A 
ENDROOT
BRANCH   8  11
HETATM   11  C11 UNL     1      23.503   9.072  60.749  1.00  0.00    -0.061 C 
HETATM   12  C12 UNL     1      22.842   8.798  61.737  1.00  0.00    -0.061 C 
BRANCH  12  13
HETATM   13  C13 UNL     1      22.079   8.459  62.909  1.00  0.00     0.018 A 
HETATM   14  C14 UNL     1      20.812   9.004  63.119  1.00  0.00     0.020 A 
HETATM   15  C15 UNL     1      20.088   8.674  64.242  1.00  0.00     0.001 A 
HETATM   16  C16 UNL     1      20.598   7.802  65.180  1.00  0.00     0.000 A 
HETATM   17  C17 UNL     1      21.846   7.248  65.001  1.00  0.00     0.001 A 
HETATM   18  C18 UNL     1      22.556   7.589  63.871  1.00  0.00     0.020 A 
ENDBRANCH  12  13
ENDBRANCH   8  11
BRANCH   1  19
HETATM   19  C5  UNL     1      22.937  11.708  56.109  1.00  0.00     0.040 A 
HETATM   20  C4  UNL     1      21.780  11.213  56.683  1.00  0.00     0.030 A 
HETATM   21  C3  UNL     1      20.549  11.801  56.457  1.00  0.00     0.009 A 
HETATM   22  C2  UNL     1      20.435  12.910  55.644  1.00  0.00    -0.062 A 
HETATM   23  C1  UNL     1      19.140  13.585  55.365  1.00  0.00     0.048 C 
HETATM   24  C22 UNL     1      21.578  13.425  55.058  1.00  0.00     0.009 A 
HETATM   25  C21 UNL     1      22.813  12.818  55.298  1.00  0.00     0.030 A 
ENDBRANCH   1  19
TORSDOF 3
ENDMDL
MODEL 2
REMARK VINA RESULT: -3.132585090      0.166      1.367
REMARK  3 active torsions:
REMARK  status: ('A' for Active; 'I' for Inactive)
REMARK    1  A    between atoms: C5_5  and  N1_6 
REMARK    2  A    between atoms: C10_13  and  C11_14 
REMARK    3  A    between atoms: C12_15  and  C13_16 
ROOT
HETATM    1  N1  UNL     1      24.224  11.098  56.246  1.00  0.00    -0.306 N 
HETATM    2  C6  UNL     1      25.284  11.127  55.422  1.00  0.00     0.189 A 
HETATM    3  N2  UNL     1      26.263  10.438  56.025  1.00  0.00    -0.350 N 
ATOM      4  H2  UNL     1      27.194  10.286  55.638  1.00  0.00     0.166 HD
HETATM    5  C7  UNL     1      25.838   9.974  57.217  1.00  0.00     0.060 A 
HETATM    6  C8  UNL     1      26.395   9.230  58.232  1.00  0.00     0.033 A 
HETATM    7  C9  UNL     1      25.640   8.932  59.345  1.00  0.00     0.023 A 
HETATM    8  C10 UNL     1      24.326   9.356  59.491  1.00  0.00     0.020 A 
HETATM    9  C19 UNL     1      23.785  10.100  58.465  1.00  0.00     0.053 A 
HETATM   10  C20 UNL     1      24.532  10.399  57.353  1.00  0.00     0.068 A 
ENDROOT
BRANCH   8  11
HETATM   11  C11 UNL     1      23.539   9.046  60.653  1.00  0.00    -0.061 C 
HETATM   12  C12 UNL     1      22.887   8.785  61.651  1.00  0.00    -0.061 C 
BRANCH  12  13
HETATM   13  C13 UNL     1      22.139   8.480  62.841  1.00  0.00     0.018 A 
HETATM   14  C14 UNL     1      22.633   7.578  63.784  1.00  0.00     0.020 A 
HETATM   15  C15 UNL     1      21.911   7.292  64.920  1.00  0.00     0.001 A 
HETATM   16  C16 UNL     1      20.689   7.889  65.150  1.00  0.00     0.000 A 
HETATM   17  C17 UNL     1      20.176   8.783  64.238  1.00  0.00     0.001 A 
HETATM   18  C18 UNL     1      20.912   9.058  63.107  1.00  0.00     0.020 A 
ENDBRANCH  12  13
ENDBRANCH   8  11
BRANCH   1  19
HETATM   19  C5  UNL     1      22.948  11.698  56.025  1.00  0.00     0.040 A 
HETATM   20  C4  UNL     1      22.730  12.597  54.997  1.00  0.00     0.030 A 
HETATM   21  C3  UNL     1      21.491  13.174  54.789  1.00  0.00     0.009 A 
HETATM   22  C2  UNL     1      20.424  12.869  55.608  1.00  0.00    -0.062 A 
HETATM   23  C1  UNL     1      19.069  13.458  55.433  1.00  0.00     0.048 C 
HETATM   24  C22 UNL     1      20.615  11.972  56.645  1.00  0.00     0.009 A 
HETATM   25  C21 UNL     1      21.874  11.399  56.839  1.00  0.00     0.030 A 
ENDBRANCH   1  19
TORSDOF 3
ENDMDL
MODEL 3
REMARK VINA RESULT: -1.590548424      2.200      7.608
REMARK  3 active torsions:
REMARK  status: ('A' for Active; 'I' for Inactive)
REMARK    1  A    between atoms: C5_5  and  N1_6 
REMARK    2  A    between atoms: C10_13  and  C11_14 
REMARK    3  A    between atoms: C12_15  and  C13_16 
ROOT
HETATM    1  N1  UNL     1      24.314   8.499  62.084  1.00  0.00    -0.306 N 
HETATM    2  C6  UNL     1      25.343   7.742  62.499  1.00  0.00     0.189 A 
HETATM    3  N2  UNL     1      26.146   7.567  61.440  1.00  0.00    -0.350 N 
ATOM      4  H2  UNL     1      27.014   7.032  61.448  1.00  0.00     0.166 HD
HETATM    5  C7  UNL     1      25.640   8.200  60.364  1.00  0.00     0.060 A 
HETATM    6  C8  UNL     1      26.024   8.357  59.051  1.00  0.00     0.033 A 
HETATM    7  C9  UNL     1      25.234   9.097  58.199  1.00  0.00     0.023 A 
HETATM    8  C10 UNL     1      24.053   9.699  58.611  1.00  0.00     0.020 A 
HETATM    9  C19 UNL     1      23.684   9.531  59.929  1.00  0.00     0.053 A 
HETATM   10  C20 UNL     1      24.468   8.795  60.782  1.00  0.00     0.068 A 
ENDROOT
BRANCH   8  11
HETATM   11  C11 UNL     1      23.229  10.471  57.722  1.00  0.00    -0.061 C 
HETATM   12  C12 UNL     1      22.539  11.119  56.952  1.00  0.00    -0.061 C 
BRANCH  12  13
HETATM   13  C13 UNL     1      21.736  11.871  56.024  1.00  0.00     0.018 A 
HETATM   14  C14 UNL     1      22.128  12.012  54.692  1.00  0.00     0.020 A 
HETATM   15  C15 UNL     1      21.354  12.733  53.811  1.00  0.00     0.001 A 
HETATM   16  C16 UNL     1      20.181  13.328  54.224  1.00  0.00     0.000 A 
HETATM   17  C17 UNL     1      19.768  13.206  55.532  1.00  0.00     0.001 A 
HETATM   18  C18 UNL     1      20.555  12.481  56.400  1.00  0.00     0.020 A 
ENDBRANCH  12  13
ENDBRANCH   8  11
BRANCH   1  19
HETATM   19  C5  UNL     1      23.207   8.945  62.867  1.00  0.00     0.040 A 
HETATM   20  C4  UNL     1      22.924  10.289  63.035  1.00  0.00     0.030 A 
HETATM   21  C3  UNL     1      21.849  10.714  63.794  1.00  0.00     0.009 A 
HETATM   22  C2  UNL     1      21.018   9.804  64.413  1.00  0.00    -0.062 A 
HETATM   23  C1  UNL     1      19.848  10.202  65.241  1.00  0.00     0.048 C 
HETATM   24  C22 UNL     1      21.279   8.453  64.261  1.00  0.00     0.009 A 
HETATM   25  C21 UNL     1      22.370   8.043  63.490  1.00  0.00     0.030 A 
ENDBRANCH   1  19
TORSDOF 3
ENDMDL
MODEL 4
REMARK VINA RESULT: -1.375359578      2.191      7.544
REMARK  3 active torsions:
REMARK  status: ('A' for Active; 'I' for Inactive)
REMARK    1  A    between atoms: C5_5  and  N1_6 
REMARK    2  A    between atoms: C10_13  and  C11_14 
REMARK    3  A    between atoms: C12_15  and  C13_16 
ROOT
HETATM    1  N1  UNL     1      24.232   8.226  62.093  1.00  0.00    -0.306 N 
HETATM    2  C6  UNL     1      25.190   7.367  62.478  1.00  0.00     0.189 A 
HETATM    3  N2  UNL     1      25.997   7.189  61.423  1.00  0.00    -0.350 N 
ATOM      4  H2  UNL     1      26.820   6.587  61.414  1.00  0.00     0.166 HD
HETATM    5  C7  UNL     1      25.564   7.920  60.378  1.00  0.00     0.060 A 
HETATM    6  C8  UNL     1      25.986   8.121  59.083  1.00  0.00     0.033 A 
HETATM    7  C9  UNL     1      25.274   8.969  58.264  1.00  0.00     0.023 A 
HETATM    8  C10 UNL     1      24.135   9.639  58.692  1.00  0.00     0.020 A 
HETATM    9  C19 UNL     1      23.729   9.426  59.991  1.00  0.00     0.053 A 
HETATM   10  C20 UNL     1      24.434   8.582  60.812  1.00  0.00     0.068 A 
ENDROOT
BRANCH   8  11
HETATM   11  C11 UNL     1      23.392  10.523  57.836  1.00  0.00    -0.061 C 
HETATM   12  C12 UNL     1      22.745  11.268  57.119  1.00  0.00    -0.061 C 
BRANCH  12  13
HETATM   13  C13 UNL     1      21.962  12.141  56.286  1.00  0.00     0.018 A 
HETATM   14  C14 UNL     1      22.579  13.056  55.431  1.00  0.00     0.020 A 
HETATM   15  C15 UNL     1      21.823  13.888  54.637  1.00  0.00     0.001 A 
HETATM   16  C16 UNL     1      20.445  13.835  54.670  1.00  0.00     0.000 A 
HETATM   17  C17 UNL     1      19.807  12.944  55.503  1.00  0.00     0.001 A 
HETATM   18  C18 UNL     1      20.580  12.119  56.290  1.00  0.00     0.020 A 
ENDBRANCH  12  13
ENDBRANCH   8  11
BRANCH   1  19
HETATM   19  C5  UNL     1      23.148   8.714  62.882  1.00  0.00     0.040 A 
HETATM   20  C4  UNL     1      22.338   7.867  63.617  1.00  0.00     0.030 A 
HETATM   21  C3  UNL     1      21.289   8.347  64.380  1.00  0.00     0.009 A 
HETATM   22  C2  UNL     1      21.016   9.698  64.433  1.00  0.00    -0.062 A 
HETATM   23  C1  UNL     1      19.903  10.272  65.236  1.00  0.00     0.048 C 
HETATM   24  C22 UNL     1      21.811  10.567  63.707  1.00  0.00     0.009 A 
HETATM   25  C21 UNL     1      22.866  10.064  62.942  1.00  0.00     0.030 A 
ENDBRANCH   1  19
TORSDOF 3
ENDMDL
