MODEL 1
REMARK VINA RESULT: 3.483764223      0.000      0.000
REMARK  5 active torsions:
REMARK  status: ('A' for Active; 'I' for Inactive)
REMARK    1  A    between atoms: C6_6  and  C7_7 
REMARK    2  A    between atoms: C8_8  and  C9_9 
REMARK    3  A    between atoms: C10_10  and  C11_11 
REMARK    4  A    between atoms: C12_12  and  C13_13 
REMARK    5  A    between atoms: C15_17  and  C16_18 
ROOT
HETATM    1  C11 UNL     1      23.071   8.863  62.420  1.00  0.00    -0.070 C 
HETATM    2  C12 UNL     1      22.754   8.981  61.243  1.00  0.00    -0.035 C 
ENDROOT
BRANCH   2   3
HETATM    3  C13 UNL     1      22.404   9.134  59.862  1.00  0.00     0.146 A 
HETATM    4  C14 UNL     1      22.180   8.098  58.983  1.00  0.00     0.137 A 
HETATM    5  N1  UNL     1      21.874   8.657  57.775  1.00  0.00    -0.343 N 
HETATM    6  C15 UNL     1      21.918   9.986  57.945  1.00  0.00     0.159 A 
ATOM      7  H1  UNL     1      21.654   8.161  56.912  1.00  0.00     0.167 HD
HETATM    8  O1  UNL     1      22.231  10.237  59.178  1.00  0.00    -0.283 OA
BRANCH   6   9
HETATM    9  C16 UNL     1      21.647  10.960  56.874  1.00  0.00     0.015 A 
HETATM   10  C17 UNL     1      20.501  11.725  56.875  1.00  0.00     0.016 A 
HETATM   11  C18 UNL     1      20.231  12.645  55.877  1.00  0.00     0.001 A 
HETATM   12  C19 UNL     1      21.118  12.825  54.836  1.00  0.00     0.000 A 
HETATM   13  C20 UNL     1      22.270  12.066  54.820  1.00  0.00     0.001 A 
HETATM   14  C21 UNL     1      22.530  11.143  55.832  1.00  0.00     0.016 A 
ENDBRANCH   6   9
ENDBRANCH   2   3
BRANCH   1  15
HETATM   15  C10 UNL     1      23.443   8.750  63.800  1.00  0.00     0.073 C 
HETATM   16  C9  UNL     1      22.598   8.315  64.717  1.00  0.00     0.073 C 
BRANCH  16  17
HETATM   17  C8  UNL     1      22.948   8.194  66.100  1.00  0.00    -0.072 C 
HETATM   18  C7  UNL     1      23.258   8.105  67.263  1.00  0.00    -0.062 C 
BRANCH  18  19
HETATM   19  C6  UNL     1      23.649   8.017  68.660  1.00  0.00     0.018 A 
HETATM   20  C5  UNL     1      23.215   6.949  69.419  1.00  0.00     0.020 A 
HETATM   21  C4  UNL     1      23.576   6.859  70.727  1.00  0.00     0.002 A 
HETATM   22  C3  UNL     1      24.376   7.818  71.328  1.00  0.00     0.007 A 
HETATM   23  C2  UNL     1      24.812   8.887  70.575  1.00  0.00    -0.061 A 
HETATM   24  C1  UNL     1      25.664   9.915  71.205  1.00  0.00     0.048 C 
HETATM   25  C22 UNL     1      24.444   8.980  69.243  1.00  0.00     0.027 A 
ENDBRANCH  18  19
ENDBRANCH  16  17
ENDBRANCH   1  15
TORSDOF 5
ENDMDL
MODEL 2
REMARK VINA RESULT: 5.410732513      2.705     12.067
REMARK  5 active torsions:
REMARK  status: ('A' for Active; 'I' for Inactive)
REMARK    1  A    between atoms: C6_6  and  C7_7 
REMARK    2  A    between atoms: C8_8  and  C9_9 
REMARK    3  A    between atoms: C10_10  and  C11_11 
REMARK    4  A    between atoms: C12_12  and  C13_13 
REMARK    5  A    between atoms: C15_17  and  C16_18 
ROOT
HETATM    1  C11 UNL     1      22.305   8.930  62.861  1.00  0.00    -0.070 C 
HETATM    2  C12 UNL     1      22.467   8.501  63.998  1.00  0.00    -0.035 C 
ENDROOT
BRANCH   2   3
HETATM    3  C13 UNL     1      22.659   8.022  65.334  1.00  0.00     0.146 A 
HETATM    4  C14 UNL     1      22.328   6.760  65.778  1.00  0.00     0.137 A 
HETATM    5  N1  UNL     1      22.667   6.701  67.100  1.00  0.00    -0.343 N 
HETATM    6  C15 UNL     1      23.182   7.896  67.419  1.00  0.00     0.159 A 
ATOM      7  H1  UNL     1      22.551   5.901  67.723  1.00  0.00     0.167 HD
HETATM    8  O1  UNL     1      23.165   8.651  66.364  1.00  0.00    -0.283 OA
BRANCH   6   9
HETATM    9  C16 UNL     1      23.673   8.246  68.763  1.00  0.00     0.015 A 
HETATM   10  C17 UNL     1      23.882   9.558  69.130  1.00  0.00     0.016 A 
HETATM   11  C18 UNL     1      24.342   9.904  70.388  1.00  0.00     0.001 A 
HETATM   12  C19 UNL     1      24.609   8.928  71.326  1.00  0.00     0.000 A 
HETATM   13  C20 UNL     1      24.405   7.610  70.974  1.00  0.00     0.001 A 
HETATM   14  C21 UNL     1      23.940   7.275  69.703  1.00  0.00     0.016 A 
ENDBRANCH   6   9
ENDBRANCH   2   3
BRANCH   1  15
HETATM   15  C10 UNL     1      22.138   9.446  61.535  1.00  0.00     0.073 C 
HETATM   16  C9  UNL     1      23.071  10.173  60.946  1.00  0.00     0.073 C 
BRANCH  16  17
HETATM   17  C8  UNL     1      22.925  10.699  59.622  1.00  0.00    -0.072 C 
HETATM   18  C7  UNL     1      22.789  11.157  58.514  1.00  0.00    -0.062 C 
BRANCH  18  19
HETATM   19  C6  UNL     1      22.613  11.728  57.189  1.00  0.00     0.018 A 
HETATM   20  C5  UNL     1      23.680  11.755  56.316  1.00  0.00     0.020 A 
HETATM   21  C4  UNL     1      23.525  12.287  55.074  1.00  0.00     0.002 A 
HETATM   22  C3  UNL     1      22.312  12.810  54.655  1.00  0.00     0.007 A 
HETATM   23  C2  UNL     1      21.242  12.787  55.523  1.00  0.00    -0.061 A 
HETATM   24  C1  UNL     1      19.945  13.342  55.087  1.00  0.00     0.048 C 
HETATM   25  C22 UNL     1      21.400  12.245  56.788  1.00  0.00     0.027 A 
ENDBRANCH  18  19
ENDBRANCH  16  17
ENDBRANCH   1  15
TORSDOF 5
ENDMDL
MODEL 3
REMARK VINA RESULT: 5.669513438      0.534      1.311
REMARK  5 active torsions:
REMARK  status: ('A' for Active; 'I' for Inactive)
REMARK    1  A    between atoms: C6_6  and  C7_7 
REMARK    2  A    between atoms: C8_8  and  C9_9 
REMARK    3  A    between atoms: C10_10  and  C11_11 
REMARK    4  A    between atoms: C12_12  and  C13_13 
REMARK    5  A    between atoms: C15_17  and  C16_18 
ROOT
HETATM    1  C11 UNL     1      23.159   8.837  62.328  1.00  0.00    -0.070 C 
HETATM    2  C12 UNL     1      22.849   8.949  61.148  1.00  0.00    -0.035 C 
ENDROOT
BRANCH   2   3
HETATM    3  C13 UNL     1      22.495   9.102  59.768  1.00  0.00     0.146 A 
HETATM    4  C14 UNL     1      22.338   8.068  58.872  1.00  0.00     0.137 A 
HETATM    5  N1  UNL     1      22.002   8.627  57.672  1.00  0.00    -0.343 N 
HETATM    6  C15 UNL     1      21.964   9.953  57.863  1.00  0.00     0.159 A 
ATOM      7  H1  UNL     1      21.816   8.132  56.800  1.00  0.00     0.167 HD
HETATM    8  O1  UNL     1      22.257  10.203  59.102  1.00  0.00    -0.283 OA
BRANCH   6   9
HETATM    9  C16 UNL     1      21.638  10.926  56.806  1.00  0.00     0.015 A 
HETATM   10  C17 UNL     1      20.457  11.636  56.827  1.00  0.00     0.016 A 
HETATM   11  C18 UNL     1      20.135  12.554  55.842  1.00  0.00     0.001 A 
HETATM   12  C19 UNL     1      21.003  12.788  54.796  1.00  0.00     0.000 A 
HETATM   13  C20 UNL     1      22.189  12.085  54.761  1.00  0.00     0.001 A 
HETATM   14  C21 UNL     1      22.502  11.163  55.760  1.00  0.00     0.016 A 
ENDBRANCH   6   9
ENDBRANCH   2   3
BRANCH   1  15
HETATM   15  C10 UNL     1      23.509   8.729  63.714  1.00  0.00     0.073 C 
HETATM   16  C9  UNL     1      22.591   8.682  64.663  1.00  0.00     0.073 C 
BRANCH  16  17
HETATM   17  C8  UNL     1      22.917   8.574  66.054  1.00  0.00    -0.072 C 
HETATM   18  C7  UNL     1      23.203   8.500  67.224  1.00  0.00    -0.062 C 
BRANCH  18  19
HETATM   19  C6  UNL     1      23.558   8.434  68.631  1.00  0.00     0.018 A 
HETATM   20  C5  UNL     1      23.719   9.604  69.345  1.00  0.00     0.020 A 
HETATM   21  C4  UNL     1      24.051   9.552  70.663  1.00  0.00     0.002 A 
HETATM   22  C3  UNL     1      24.234   8.344  71.318  1.00  0.00     0.007 A 
HETATM   23  C2  UNL     1      24.074   7.172  70.611  1.00  0.00    -0.061 A 
HETATM   24  C1  UNL     1      24.266   5.880  71.300  1.00  0.00     0.048 C 
HETATM   25  C22 UNL     1      23.736   7.225  69.269  1.00  0.00     0.027 A 
ENDBRANCH  18  19
ENDBRANCH  16  17
ENDBRANCH   1  15
TORSDOF 5
ENDMDL
MODEL 4
REMARK VINA RESULT: 6.092845718      1.007      1.798
REMARK  5 active torsions:
REMARK  status: ('A' for Active; 'I' for Inactive)
REMARK    1  A    between atoms: C6_6  and  C7_7 
REMARK    2  A    between atoms: C8_8  and  C9_9 
REMARK    3  A    between atoms: C10_10  and  C11_11 
REMARK    4  A    between atoms: C12_12  and  C13_13 
REMARK    5  A    between atoms: C15_17  and  C16_18 
ROOT
HETATM    1  C11 UNL     1      22.171   9.205  62.324  1.00  0.00    -0.070 C 
HETATM    2  C12 UNL     1      22.133   9.316  61.104  1.00  0.00    -0.035 C 
ENDROOT
BRANCH   2   3
HETATM    3  C13 UNL     1      22.099   9.469  59.681  1.00  0.00     0.146 A 
HETATM    4  C14 UNL     1      22.444   8.494  58.771  1.00  0.00     0.137 A 
HETATM    5  N1  UNL     1      22.276   9.032  57.526  1.00  0.00    -0.343 N 
HETATM    6  C15 UNL     1      21.845  10.287  57.705  1.00  0.00     0.159 A 
ATOM      7  H1  UNL     1      22.446   8.567  56.635  1.00  0.00     0.167 HD
HETATM    8  O1  UNL     1      21.749  10.518  58.978  1.00  0.00    -0.283 OA
BRANCH   6   9
HETATM    9  C16 UNL     1      21.541  11.216  56.603  1.00  0.00     0.015 A 
HETATM   10  C17 UNL     1      22.350  11.295  55.490  1.00  0.00     0.016 A 
HETATM   11  C18 UNL     1      22.079  12.162  54.445  1.00  0.00     0.001 A 
HETATM   12  C19 UNL     1      20.973  12.985  54.491  1.00  0.00     0.000 A 
HETATM   13  C20 UNL     1      20.153  12.918  55.598  1.00  0.00     0.001 A 
HETATM   14  C21 UNL     1      20.437  12.039  56.643  1.00  0.00     0.016 A 
ENDBRANCH   6   9
ENDBRANCH   2   3
BRANCH   1  15
HETATM   15  C10 UNL     1      22.204   9.096  63.753  1.00  0.00     0.073 C 
HETATM   16  C9  UNL     1      23.121   8.379  64.377  1.00  0.00     0.073 C 
BRANCH  16  17
HETATM   17  C8  UNL     1      23.174   8.256  65.803  1.00  0.00    -0.072 C 
HETATM   18  C7  UNL     1      23.197   8.155  67.005  1.00  0.00    -0.062 C 
BRANCH  18  19
HETATM   19  C6  UNL     1      23.200   8.031  68.453  1.00  0.00     0.018 A 
HETATM   20  C5  UNL     1      24.402   7.934  69.123  1.00  0.00     0.020 A 
HETATM   21  C4  UNL     1      24.414   7.817  70.477  1.00  0.00     0.002 A 
HETATM   22  C3  UNL     1      23.241   7.793  71.215  1.00  0.00     0.007 A 
HETATM   23  C2  UNL     1      22.036   7.890  70.552  1.00  0.00    -0.061 A 
HETATM   24  C1  UNL     1      20.780   7.865  71.327  1.00  0.00     0.048 C 
HETATM   25  C22 UNL     1      22.024   8.008  69.171  1.00  0.00     0.027 A 
ENDBRANCH  18  19
ENDBRANCH  16  17
ENDBRANCH   1  15
TORSDOF 5
ENDMDL
MODEL 5
REMARK VINA RESULT: 6.365587071      2.711     12.037
REMARK  5 active torsions:
REMARK  status: ('A' for Active; 'I' for Inactive)
REMARK    1  A    between atoms: C6_6  and  C7_7 
REMARK    2  A    between atoms: C8_8  and  C9_9 
REMARK    3  A    between atoms: C10_10  and  C11_11 
REMARK    4  A    between atoms: C12_12  and  C13_13 
REMARK    5  A    between atoms: C15_17  and  C16_18 
ROOT
HETATM    1  C11 UNL     1      22.404   8.789  62.843  1.00  0.00    -0.070 C 
HETATM    2  C12 UNL     1      22.559   8.399  63.994  1.00  0.00    -0.035 C 
ENDROOT
BRANCH   2   3
HETATM    3  C13 UNL     1      22.745   7.966  65.347  1.00  0.00     0.146 A 
HETATM    4  C14 UNL     1      22.426   6.716  65.829  1.00  0.00     0.137 A 
HETATM    5  N1  UNL     1      22.753   6.704  67.155  1.00  0.00    -0.343 N 
HETATM    6  C15 UNL     1      23.250   7.915  67.439  1.00  0.00     0.159 A 
ATOM      7  H1  UNL     1      22.642   5.924  67.802  1.00  0.00     0.167 HD
HETATM    8  O1  UNL     1      23.234   8.635  66.360  1.00  0.00    -0.283 OA
BRANCH   6   9
HETATM    9  C16 UNL     1      23.725   8.315  68.775  1.00  0.00     0.015 A 
HETATM   10  C17 UNL     1      24.273   7.398  69.645  1.00  0.00     0.016 A 
HETATM   11  C18 UNL     1      24.724   7.757  70.903  1.00  0.00     0.001 A 
HETATM   12  C19 UNL     1      24.635   9.067  71.328  1.00  0.00     0.000 A 
HETATM   13  C20 UNL     1      24.088   9.997  70.469  1.00  0.00     0.001 A 
HETATM   14  C21 UNL     1      23.638   9.622  69.204  1.00  0.00     0.016 A 
ENDBRANCH   6   9
ENDBRANCH   2   3
BRANCH   1  15
HETATM   15  C10 UNL     1      22.245   9.257  61.497  1.00  0.00     0.073 C 
HETATM   16  C9  UNL     1      21.889  10.500  61.229  1.00  0.00     0.073 C 
BRANCH  16  17
HETATM   17  C8  UNL     1      21.724  10.990  59.893  1.00  0.00    -0.072 C 
HETATM   18  C7  UNL     1      21.595  11.420  58.773  1.00  0.00    -0.062 C 
BRANCH  18  19
HETATM   19  C6  UNL     1      21.454  11.957  57.430  1.00  0.00     0.018 A 
HETATM   20  C5  UNL     1      20.198  12.053  56.867  1.00  0.00     0.020 A 
HETATM   21  C4  UNL     1      20.057  12.554  55.611  1.00  0.00     0.002 A 
HETATM   22  C3  UNL     1      21.150  12.978  54.871  1.00  0.00     0.007 A 
HETATM   23  C2  UNL     1      22.407  12.885  55.428  1.00  0.00    -0.061 A 
HETATM   24  C1  UNL     1      23.578  13.333  54.649  1.00  0.00     0.048 C 
HETATM   25  C22 UNL     1      22.551  12.374  56.708  1.00  0.00     0.027 A 
ENDBRANCH  18  19
ENDBRANCH  16  17
ENDBRANCH   1  15
TORSDOF 5
ENDMDL
