MODEL 1
REMARK VINA RESULT: -9.906036982      0.000      0.000
REMARK  5 active torsions:
REMARK  status: ('A' for Active; 'I' for Inactive)
REMARK       I    between atoms: C3_3  and  N1_5 
REMARK    1  A    between atoms: N1_5  and  S1_7 
REMARK    2  A    between atoms: S1_7  and  C4_10 
REMARK    3  A    between atoms: C7_15  and  C8_16 
REMARK    4  A    between atoms: C13_25  and  N5_26 
REMARK    5  A    between atoms: N5_26  and  C14_28 
ROOT
HETATM    1  C1  UNL     1      24.141  12.931   1.342  1.00  0.00     0.022 C 
HETATM    2  C2  UNL     1      24.173  11.908   0.702  1.00  0.00    -0.016 C 
HETATM    3  C3  UNL     1      24.213  10.711  -0.077  1.00  0.00     0.309 C 
HETATM    4  O1  UNL     1      24.377  10.729  -1.320  1.00  0.00    -0.257 OA
HETATM    5  N1  UNL     1      24.066   9.455   0.561  1.00  0.00    -0.239 N 
ATOM      6  H1  UNL     1      23.933   9.439   1.572  1.00  0.00     0.182 HD
ENDROOT
BRANCH   5   7
HETATM    7  S1  UNL     1      24.099   7.959  -0.280  1.00  0.00     0.268 S 
HETATM    8  O2  UNL     1      24.095   8.117  -1.761  1.00  0.00    -0.200 OA
HETATM    9  O3  UNL     1      25.323   7.201   0.190  1.00  0.00    -0.200 OA
BRANCH   7  10
HETATM   10  C4  UNL     1      22.700   7.002   0.233  1.00  0.00     0.107 A 
HETATM   11  C5  UNL     1      22.576   5.633   0.221  1.00  0.00     0.114 A 
HETATM   12  N2  UNL     1      21.382   5.304   0.681  1.00  0.00    -0.363 N 
HETATM   13  C6  UNL     1      20.713   6.423   0.999  1.00  0.00     0.055 A 
ATOM     14  H2  UNL     1      21.027   4.354   0.780  1.00  0.00     0.165 HD
HETATM   15  C7  UNL     1      19.439   6.602   1.518  1.00  0.00     0.007 A 
HETATM   16  C20 UNL     1      21.526   7.508   0.724  1.00  0.00     0.018 A 
HETATM   17  C12 UNL     1      19.020   7.893   1.750  1.00  0.00     0.044 A 
HETATM   18  C13 UNL     1      19.804   8.986   1.488  1.00  0.00     0.035 A 
HETATM   19  C19 UNL     1      21.060   8.782   0.973  1.00  0.00     0.044 A 
BRANCH  15  20
HETATM   20  C8  UNL     1      18.584   5.454   1.792  1.00  0.00     0.007 A 
HETATM   21  C9  UNL     1      17.513   5.122   1.003  1.00  0.00     0.102 A 
HETATM   22  N3  UNL     1      16.773   4.049   1.315  1.00  0.00    -0.361 N 
HETATM   23  C10 UNL     1      17.031   3.261   2.391  1.00  0.00     0.180 A 
ATOM     24  H3  UNL     1      15.979   3.814   0.718  1.00  0.00     0.166 HD
HETATM   25  N4  UNL     1      18.084   3.592   3.163  1.00  0.00    -0.361 N 
HETATM   26  C11 UNL     1      18.861   4.650   2.904  1.00  0.00     0.102 A 
ATOM     27  H4  UNL     1      18.298   3.014   3.975  1.00  0.00     0.166 HD
ENDBRANCH  15  20
BRANCH  18  28
HETATM   28  N5  UNL     1      19.348  10.276   1.739  1.00  0.00    -0.342 N 
ATOM     29  H5  UNL     1      18.383  10.449   1.455  1.00  0.00     0.167 HD
BRANCH  28  30
HETATM   30  C14 UNL     1      19.932  11.267   2.260  1.00  0.00     0.105 A 
HETATM   31  C15 UNL     1      19.963  12.548   1.760  1.00  0.00     0.048 A 
HETATM   32  C16 UNL     1      20.633  13.589   2.405  1.00  0.00     0.005 A 
HETATM   33  C17 UNL     1      21.291  13.339   3.585  1.00  0.00     0.017 A 
HETATM   34  C18 UNL     1      21.252  12.051   4.073  1.00  0.00     0.089 A 
HETATM   35  N6  UNL     1      20.604  11.079   3.434  1.00  0.00    -0.352 N 
ATOM     36  H6  UNL     1      20.610  10.144   3.844  1.00  0.00     0.166 HD
ENDBRANCH  28  30
ENDBRANCH  18  28
ENDBRANCH   7  10
ENDBRANCH   5   7
TORSDOF 5
ENDMDL
MODEL 2
REMARK VINA RESULT: -9.707332030      1.076      1.306
REMARK  5 active torsions:
REMARK  status: ('A' for Active; 'I' for Inactive)
REMARK       I    between atoms: C3_3  and  N1_5 
REMARK    1  A    between atoms: N1_5  and  S1_7 
REMARK    2  A    between atoms: S1_7  and  C4_10 
REMARK    3  A    between atoms: C7_15  and  C8_16 
REMARK    4  A    between atoms: C13_25  and  N5_26 
REMARK    5  A    between atoms: N5_26  and  C14_28 
ROOT
HETATM    1  C1  UNL     1      24.965  11.195   3.627  1.00  0.00     0.022 C 
HETATM    2  C2  UNL     1      24.620  10.583   2.645  1.00  0.00    -0.016 C 
HETATM    3  C3  UNL     1      24.200   9.879   1.475  1.00  0.00     0.309 C 
HETATM    4  O1  UNL     1      23.512  10.424   0.579  1.00  0.00    -0.257 OA
HETATM    5  N1  UNL     1      24.563   8.520   1.306  1.00  0.00    -0.239 N 
ATOM      6  H1  UNL     1      25.122   8.076   2.034  1.00  0.00     0.182 HD
ENDROOT
BRANCH   5   7
HETATM    7  S1  UNL     1      24.111   7.584  -0.060  1.00  0.00     0.268 S 
HETATM    8  O2  UNL     1      23.815   8.408  -1.265  1.00  0.00    -0.200 OA
HETATM    9  O3  UNL     1      25.231   6.600  -0.326  1.00  0.00    -0.200 OA
BRANCH   7  10
HETATM   10  C4  UNL     1      22.695   6.614   0.376  1.00  0.00     0.107 A 
HETATM   11  C5  UNL     1      22.579   5.244   0.337  1.00  0.00     0.114 A 
HETATM   12  N2  UNL     1      21.368   4.903   0.739  1.00  0.00    -0.363 N 
HETATM   13  C6  UNL     1      20.680   6.013   1.044  1.00  0.00     0.055 A 
ATOM     14  H2  UNL     1      21.013   3.950   0.807  1.00  0.00     0.165 HD
HETATM   15  C7  UNL     1      19.383   6.179   1.509  1.00  0.00     0.007 A 
HETATM   16  C20 UNL     1      21.499   7.107   0.822  1.00  0.00     0.018 A 
HETATM   17  C12 UNL     1      18.947   7.465   1.741  1.00  0.00     0.044 A 
HETATM   18  C13 UNL     1      19.737   8.565   1.531  1.00  0.00     0.035 A 
HETATM   19  C19 UNL     1      21.015   8.375   1.069  1.00  0.00     0.044 A 
BRANCH  15  20
HETATM   20  C8  UNL     1      18.522   5.023   1.726  1.00  0.00     0.007 A 
HETATM   21  C9  UNL     1      17.699   4.518   0.753  1.00  0.00     0.102 A 
HETATM   22  N3  UNL     1      16.937   3.449   1.026  1.00  0.00    -0.361 N 
HETATM   23  C10 UNL     1      16.937   2.830   2.235  1.00  0.00     0.180 A 
ATOM     24  H3  UNL     1      16.330   3.083   0.292  1.00  0.00     0.166 HD
HETATM   25  N4  UNL     1      17.748   3.332   3.187  1.00  0.00    -0.361 N 
HETATM   26  C11 UNL     1      18.532   4.396   2.977  1.00  0.00     0.102 A 
ATOM     27  H4  UNL     1      17.765   2.883   4.103  1.00  0.00     0.166 HD
ENDBRANCH  15  20
BRANCH  18  28
HETATM   28  N5  UNL     1      19.263   9.848   1.781  1.00  0.00    -0.342 N 
ATOM     29  H5  UNL     1      18.282   9.995   1.544  1.00  0.00     0.167 HD
BRANCH  28  30
HETATM   30  C14 UNL     1      19.849  10.862   2.254  1.00  0.00     0.105 A 
HETATM   31  C15 UNL     1      20.570  10.914   3.424  1.00  0.00     0.048 A 
HETATM   32  C16 UNL     1      21.190  12.080   3.873  1.00  0.00     0.005 A 
HETATM   33  C17 UNL     1      21.087  13.230   3.127  1.00  0.00     0.017 A 
HETATM   34  C18 UNL     1      20.361  13.163   1.957  1.00  0.00     0.089 A 
HETATM   35  N6  UNL     1      19.780  12.035   1.556  1.00  0.00    -0.352 N 
ATOM     36  H6  UNL     1      19.256  12.046   0.681  1.00  0.00     0.166 HD
ENDBRANCH  28  30
ENDBRANCH  18  28
ENDBRANCH   7  10
ENDBRANCH   5   7
TORSDOF 5
ENDMDL
MODEL 3
REMARK VINA RESULT: -9.520417639      1.363      1.850
REMARK  5 active torsions:
REMARK  status: ('A' for Active; 'I' for Inactive)
REMARK       I    between atoms: C3_3  and  N1_5 
REMARK    1  A    between atoms: N1_5  and  S1_7 
REMARK    2  A    between atoms: S1_7  and  C4_10 
REMARK    3  A    between atoms: C7_15  and  C8_16 
REMARK    4  A    between atoms: C13_25  and  N5_26 
REMARK    5  A    between atoms: N5_26  and  C14_28 
ROOT
HETATM    1  C1  UNL     1      23.685  10.873  -4.270  1.00  0.00     0.022 C 
HETATM    2  C2  UNL     1      24.043  10.263  -3.291  1.00  0.00    -0.016 C 
HETATM    3  C3  UNL     1      24.488   9.554  -2.133  1.00  0.00     0.309 C 
HETATM    4  O1  UNL     1      25.577   9.816  -1.568  1.00  0.00    -0.257 OA
HETATM    5  N1  UNL     1      23.686   8.520  -1.593  1.00  0.00    -0.239 N 
ATOM      6  H1  UNL     1      22.800   8.306  -2.051  1.00  0.00     0.182 HD
ENDROOT
BRANCH   5   7
HETATM    7  S1  UNL     1      24.127   7.608  -0.207  1.00  0.00     0.268 S 
HETATM    8  O2  UNL     1      25.309   6.732  -0.432  1.00  0.00    -0.200 OA
HETATM    9  O3  UNL     1      24.374   8.589   0.922  1.00  0.00    -0.200 OA
BRANCH   7  10
HETATM   10  C4  UNL     1      22.732   6.634   0.284  1.00  0.00     0.107 A 
HETATM   11  C5  UNL     1      22.625   5.263   0.268  1.00  0.00     0.114 A 
HETATM   12  N2  UNL     1      21.429   4.919   0.709  1.00  0.00    -0.363 N 
HETATM   13  C6  UNL     1      20.740   6.028   1.016  1.00  0.00     0.055 A 
ATOM     14  H2  UNL     1      21.084   3.964   0.802  1.00  0.00     0.165 HD
HETATM   15  C7  UNL     1      19.456   6.191   1.514  1.00  0.00     0.007 A 
HETATM   16  C20 UNL     1      21.544   7.124   0.755  1.00  0.00     0.018 A 
HETATM   17  C12 UNL     1      19.016   7.477   1.739  1.00  0.00     0.044 A 
HETATM   18  C13 UNL     1      19.791   8.580   1.490  1.00  0.00     0.035 A 
HETATM   19  C19 UNL     1      21.057   8.392   0.996  1.00  0.00     0.044 A 
BRANCH  15  20
HETATM   20  C8  UNL     1      18.610   5.033   1.774  1.00  0.00     0.007 A 
HETATM   21  C9  UNL     1      17.814   4.465   0.813  1.00  0.00     0.102 A 
HETATM   22  N3  UNL     1      17.065   3.398   1.125  1.00  0.00    -0.361 N 
HETATM   23  C10 UNL     1      17.054   2.839   2.363  1.00  0.00     0.180 A 
ATOM     24  H3  UNL     1      16.478   2.986   0.399  1.00  0.00     0.166 HD
HETATM   25  N4  UNL     1      17.838   3.401   3.302  1.00  0.00    -0.361 N 
HETATM   26  C11 UNL     1      18.608   4.467   3.054  1.00  0.00     0.102 A 
ATOM     27  H4  UNL     1      17.846   2.998   4.240  1.00  0.00     0.166 HD
ENDBRANCH  15  20
BRANCH  18  28
HETATM   28  N5  UNL     1      19.314   9.863   1.734  1.00  0.00    -0.342 N 
ATOM     29  H5  UNL     1      18.345  10.018   1.455  1.00  0.00     0.167 HD
BRANCH  28  30
HETATM   30  C14 UNL     1      19.884  10.868   2.243  1.00  0.00     0.105 A 
HETATM   31  C15 UNL     1      20.551  10.902   3.446  1.00  0.00     0.048 A 
HETATM   32  C16 UNL     1      21.158  12.060   3.935  1.00  0.00     0.005 A 
HETATM   33  C17 UNL     1      21.096  13.218   3.197  1.00  0.00     0.017 A 
HETATM   34  C18 UNL     1      20.424  13.169   1.995  1.00  0.00     0.089 A 
HETATM   35  N6  UNL     1      19.854  12.049   1.556  1.00  0.00    -0.352 N 
ATOM     36  H6  UNL     1      19.370  12.073   0.658  1.00  0.00     0.166 HD
ENDBRANCH  28  30
ENDBRANCH  18  28
ENDBRANCH   7  10
ENDBRANCH   5   7
TORSDOF 5
ENDMDL
MODEL 4
REMARK VINA RESULT: -9.323022289      1.485      1.927
REMARK  5 active torsions:
REMARK  status: ('A' for Active; 'I' for Inactive)
REMARK       I    between atoms: C3_3  and  N1_5 
REMARK    1  A    between atoms: N1_5  and  S1_7 
REMARK    2  A    between atoms: S1_7  and  C4_10 
REMARK    3  A    between atoms: C7_15  and  C8_16 
REMARK    4  A    between atoms: C13_25  and  N5_26 
REMARK    5  A    between atoms: N5_26  and  C14_28 
ROOT
HETATM    1  C1  UNL     1      25.777  11.312   4.407  1.00  0.00     0.022 C 
HETATM    2  C2  UNL     1      25.440  10.881   3.331  1.00  0.00    -0.016 C 
HETATM    3  C3  UNL     1      25.034  10.394   2.050  1.00  0.00     0.309 C 
HETATM    4  O1  UNL     1      24.604  11.157   1.152  1.00  0.00    -0.257 OA
HETATM    5  N1  UNL     1      25.113   9.009   1.770  1.00  0.00    -0.239 N 
ATOM      6  H1  UNL     1      25.463   8.387   2.499  1.00  0.00     0.182 HD
ENDROOT
BRANCH   5   7
HETATM    7  S1  UNL     1      24.652   8.321   0.266  1.00  0.00     0.268 S 
HETATM    8  O2  UNL     1      24.546   9.324  -0.830  1.00  0.00    -0.200 OA
HETATM    9  O3  UNL     1      25.662   7.243  -0.069  1.00  0.00    -0.200 OA
BRANCH   7  10
HETATM   10  C4  UNL     1      23.102   7.494   0.486  1.00  0.00     0.107 A 
HETATM   11  C5  UNL     1      22.805   6.185   0.183  1.00  0.00     0.114 A 
HETATM   12  N2  UNL     1      21.544   5.948   0.494  1.00  0.00    -0.363 N 
HETATM   13  C6  UNL     1      20.999   7.066   0.995  1.00  0.00     0.055 A 
ATOM     14  H2  UNL     1      21.062   5.057   0.372  1.00  0.00     0.165 HD
HETATM   15  C7  UNL     1      19.718   7.320   1.463  1.00  0.00     0.007 A 
HETATM   16  C20 UNL     1      21.965   8.056   0.999  1.00  0.00     0.018 A 
HETATM   17  C12 UNL     1      19.449   8.587   1.931  1.00  0.00     0.044 A 
HETATM   18  C13 UNL     1      20.386   9.586   1.948  1.00  0.00     0.035 A 
HETATM   19  C19 UNL     1      21.646   9.310   1.478  1.00  0.00     0.044 A 
BRANCH  15  20
HETATM   20  C8  UNL     1      18.701   6.276   1.442  1.00  0.00     0.007 A 
HETATM   21  C9  UNL     1      18.697   5.227   2.324  1.00  0.00     0.102 A 
HETATM   22  N3  UNL     1      17.726   4.305   2.246  1.00  0.00    -0.361 N 
HETATM   23  C10 UNL     1      16.730   4.357   1.324  1.00  0.00     0.180 A 
ATOM     24  H3  UNL     1      17.735   3.530   2.910  1.00  0.00     0.166 HD
HETATM   25  N4  UNL     1      16.739   5.390   0.460  1.00  0.00    -0.361 N 
HETATM   26  C11 UNL     1      17.680   6.342   0.486  1.00  0.00     0.102 A 
ATOM     27  H4  UNL     1      16.001   5.450  -0.241  1.00  0.00     0.166 HD
ENDBRANCH  15  20
BRANCH  18  28
HETATM   28  N5  UNL     1      20.079  10.854   2.432  1.00  0.00    -0.342 N 
ATOM     29  H5  UNL     1      19.163  11.206   2.152  1.00  0.00     0.167 HD
BRANCH  28  30
HETATM   30  C14 UNL     1      20.748  11.639   3.160  1.00  0.00     0.105 A 
HETATM   31  C15 UNL     1      21.718  11.280   4.067  1.00  0.00     0.048 A 
HETATM   32  C16 UNL     1      22.414  12.217   4.832  1.00  0.00     0.005 A 
HETATM   33  C17 UNL     1      22.129  13.553   4.686  1.00  0.00     0.017 A 
HETATM   34  C18 UNL     1      21.155  13.898   3.774  1.00  0.00     0.089 A 
HETATM   35  N6  UNL     1      20.508  12.980   3.059  1.00  0.00    -0.352 N 
ATOM     36  H6  UNL     1      19.796  13.295   2.399  1.00  0.00     0.166 HD
ENDBRANCH  28  30
ENDBRANCH  18  28
ENDBRANCH   7  10
ENDBRANCH   5   7
TORSDOF 5
ENDMDL
MODEL 5
REMARK VINA RESULT: -9.273883681      2.440      5.639
REMARK  5 active torsions:
REMARK  status: ('A' for Active; 'I' for Inactive)
REMARK       I    between atoms: C3_3  and  N1_5 
REMARK    1  A    between atoms: N1_5  and  S1_7 
REMARK    2  A    between atoms: S1_7  and  C4_10 
REMARK    3  A    between atoms: C7_15  and  C8_16 
REMARK    4  A    between atoms: C13_25  and  N5_26 
REMARK    5  A    between atoms: N5_26  and  C14_28 
ROOT
HETATM    1  C1  UNL     1      19.586  14.848   3.166  1.00  0.00     0.022 C 
HETATM    2  C2  UNL     1      20.248  13.980   2.649  1.00  0.00    -0.016 C 
HETATM    3  C3  UNL     1      21.049  12.969   2.033  1.00  0.00     0.309 C 
HETATM    4  O1  UNL     1      22.224  13.189   1.654  1.00  0.00    -0.257 OA
HETATM    5  N1  UNL     1      20.514  11.673   1.839  1.00  0.00    -0.239 N 
ATOM      6  H1  UNL     1      19.559  11.493   2.148  1.00  0.00     0.182 HD
ENDROOT
BRANCH   5   7
HETATM    7  S1  UNL     1      21.390  10.389   1.112  1.00  0.00     0.268 S 
HETATM    8  O2  UNL     1      21.679  10.618  -0.331  1.00  0.00    -0.200 OA
HETATM    9  O3  UNL     1      22.667  10.202   1.907  1.00  0.00    -0.200 OA
BRANCH   7  10
HETATM   10  C4  UNL     1      20.460   8.896   1.317  1.00  0.00     0.107 A 
HETATM   11  C5  UNL     1      19.158   8.776   1.743  1.00  0.00     0.114 A 
HETATM   12  N2  UNL     1      18.827   7.498   1.762  1.00  0.00    -0.363 N 
HETATM   13  C6  UNL     1      19.877   6.768   1.360  1.00  0.00     0.055 A 
ATOM     14  H2  UNL     1      17.919   7.126   2.039  1.00  0.00     0.165 HD
HETATM   15  C7  UNL     1      20.026   5.397   1.210  1.00  0.00     0.007 A 
HETATM   16  C20 UNL     1      20.921   7.630   1.073  1.00  0.00     0.018 A 
HETATM   17  C12 UNL     1      21.244   4.932   0.764  1.00  0.00     0.044 A 
HETATM   18  C13 UNL     1      22.293   5.762   0.473  1.00  0.00     0.035 A 
HETATM   19  C19 UNL     1      22.122   7.115   0.631  1.00  0.00     0.044 A 
BRANCH  15  20
HETATM   20  C8  UNL     1      18.927   4.494   1.527  1.00  0.00     0.007 A 
HETATM   21  C9  UNL     1      18.155   3.897   0.564  1.00  0.00     0.102 A 
HETATM   22  N3  UNL     1      17.162   3.074   0.933  1.00  0.00    -0.361 N 
HETATM   23  C10 UNL     1      16.876   2.797   2.231  1.00  0.00     0.180 A 
ATOM     24  H3  UNL     1      16.597   2.637   0.205  1.00  0.00     0.166 HD
HETATM   25  N4  UNL     1      17.638   3.386   3.173  1.00  0.00    -0.361 N 
HETATM   26  C11 UNL     1      18.642   4.217   2.869  1.00  0.00     0.102 A 
ATOM     27  H4  UNL     1      17.442   3.192   4.154  1.00  0.00     0.166 HD
ENDBRANCH  15  20
BRANCH  18  28
HETATM   28  N5  UNL     1      23.508   5.256   0.021  1.00  0.00    -0.342 N 
ATOM     29  H5  UNL     1      23.858   5.688  -0.835  1.00  0.00     0.167 HD
BRANCH  28  30
HETATM   30  C14 UNL     1      24.248   4.350   0.497  1.00  0.00     0.105 A 
HETATM   31  C15 UNL     1      24.735   4.290   1.782  1.00  0.00     0.048 A 
HETATM   32  C16 UNL     1      25.548   3.246   2.227  1.00  0.00     0.005 A 
HETATM   33  C17 UNL     1      25.882   2.233   1.361  1.00  0.00     0.017 A 
HETATM   34  C18 UNL     1      25.387   2.308   0.077  1.00  0.00     0.089 A 
HETATM   35  N6  UNL     1      24.614   3.317  -0.319  1.00  0.00    -0.352 N 
ATOM     36  H6  UNL     1      24.277   3.319  -1.281  1.00  0.00     0.166 HD
ENDBRANCH  28  30
ENDBRANCH  18  28
ENDBRANCH   7  10
ENDBRANCH   5   7
TORSDOF 5
ENDMDL
