MODEL 1
REMARK VINA RESULT: -8.971380164      0.000      0.000
REMARK  9 active torsions:
REMARK  status: ('A' for Active; 'I' for Inactive)
REMARK    1  A    between atoms: C2_5  and  C3_6 
REMARK    2  A    between atoms: C3_6  and  C4_7 
REMARK    3  A    between atoms: C11_17  and  C12_18 
REMARK    4  A    between atoms: C12_18  and  C13_19 
REMARK    5  A    between atoms: N3_21  and  C15_22 
REMARK    6  A    between atoms: C15_22  and  C16_23 
REMARK    7  A    between atoms: C16_23  and  O2_24 
REMARK    8  A    between atoms: C17_26  and  C18_27 
REMARK    9  A    between atoms: C19_28  and  C20_29 
ROOT
HETATM    1  C13 UNL     1      22.895  11.828   4.005  1.00  0.00     0.051 A 
HETATM    2  C14 UNL     1      23.158  12.959   3.288  1.00  0.00     0.122 A 
HETATM    3  N3  UNL     1      24.487  13.250   3.495  1.00  0.00    -0.339 N 
HETATM    4  C17 UNL     1      25.036  12.353   4.300  1.00  0.00     0.107 A 
HETATM    5  N5  UNL     1      24.016  11.470   4.608  1.00  0.00    -0.341 N 
ATOM      6  H5  UNL     1      24.115  10.656   5.215  1.00  0.00     0.167 HD
ENDROOT
BRANCH   1   7
HETATM    7  C12 UNL     1      21.574  11.154   4.072  1.00  0.00     0.066 C 
BRANCH   7   8
HETATM    8  C11 UNL     1      21.303  10.141   3.258  1.00  0.00     0.104 A 
HETATM    9  C1  UNL     1      20.102   9.472   3.333  1.00  0.00     0.272 A 
HETATM   10  O1  UNL     1      19.248   9.827   4.186  1.00  0.00    -0.266 OA
HETATM   11  N1  UNL     1      19.769   8.441   2.537  1.00  0.00    -0.319 N 
HETATM   12  C2  UNL     1      20.673   8.036   1.604  1.00  0.00     0.074 A 
ATOM     13  H1  UNL     1      18.865   7.976   2.630  1.00  0.00     0.169 HD
HETATM   14  C10 UNL     1      21.874   8.704   1.529  1.00  0.00     0.128 A 
HETATM   15  S1  UNL     1      22.967   8.213   0.400  1.00  0.00    -0.058 SA
HETATM   16  N2  UNL     1      22.189   9.734   2.334  1.00  0.00    -0.341 N 
ATOM     17  H2  UNL     1      23.091  10.201   2.245  1.00  0.00     0.167 HD
BRANCH  12  18
HETATM   18  C3  UNL     1      20.424   7.033   0.786  1.00  0.00     0.044 C 
BRANCH  18  19
HETATM   19  C4  UNL     1      19.401   6.023   1.089  1.00  0.00    -0.034 A 
HETATM   20  C5  UNL     1      18.079   6.176   0.733  1.00  0.00     0.011 A 
HETATM   21  C6  UNL     1      17.140   5.197   1.036  1.00  0.00     0.001 A 
HETATM   22  C7  UNL     1      17.570   4.071   1.706  1.00  0.00     0.000 A 
HETATM   23  C8  UNL     1      18.899   3.905   2.070  1.00  0.00     0.001 A 
HETATM   24  C9  UNL     1      19.811   4.889   1.757  1.00  0.00     0.011 A 
ENDBRANCH  18  19
ENDBRANCH  12  18
ENDBRANCH   7   8
ENDBRANCH   1   7
BRANCH   3  25
HETATM   25  C15 UNL     1      25.099  14.382   2.851  1.00  0.00     0.156 C 
BRANCH  25  26
HETATM   26  C16 UNL     1      25.995  13.981   1.702  1.00  0.00     0.184 C 
BRANCH  26  27
HETATM   27  O2  UNL     1      26.634  15.033   1.091  1.00  0.00    -0.399 OA
ATOM     28  H2  UNL     1      26.091  15.803   0.971  1.00  0.00     0.209 HD
ENDBRANCH  26  27
ENDBRANCH  25  26
ENDBRANCH   3  25
BRANCH   4  29
HETATM   29  C18 UNL     1      26.345  12.141   4.874  1.00  0.00     0.051 C 
HETATM   30  C19 UNL     1      26.993  11.049   5.140  1.00  0.00     0.043 C 
BRANCH  30  31
HETATM   31  C20 UNL     1      28.327  11.089   5.728  1.00  0.00     0.100 A 
HETATM   32  C21 UNL     1      28.866  12.028   6.592  1.00  0.00     0.058 A 
HETATM   33  C22 UNL     1      30.165  11.650   6.881  1.00  0.00     0.117 A 
HETATM   34  N4  UNL     1      30.341  10.516   6.183  1.00  0.00    -0.272 N 
HETATM   35  O3  UNL     1      29.265  10.211   5.524  1.00  0.00    -0.238 OA
ATOM     36  H4  UNL     1      31.203   9.969   6.172  1.00  0.00     0.194 HD
ENDBRANCH  30  31
ENDBRANCH   4  29
TORSDOF 9
ENDMDL
MODEL 2
REMARK VINA RESULT: -8.911909138      4.642     11.055
REMARK  9 active torsions:
REMARK  status: ('A' for Active; 'I' for Inactive)
REMARK    1  A    between atoms: C2_5  and  C3_6 
REMARK    2  A    between atoms: C3_6  and  C4_7 
REMARK    3  A    between atoms: C11_17  and  C12_18 
REMARK    4  A    between atoms: C12_18  and  C13_19 
REMARK    5  A    between atoms: N3_21  and  C15_22 
REMARK    6  A    between atoms: C15_22  and  C16_23 
REMARK    7  A    between atoms: C16_23  and  O2_24 
REMARK    8  A    between atoms: C17_26  and  C18_27 
REMARK    9  A    between atoms: C19_28  and  C20_29 
ROOT
HETATM    1  C13 UNL     1      20.047   5.661   0.738  1.00  0.00     0.051 A 
HETATM    2  C14 UNL     1      19.802   4.418   1.244  1.00  0.00     0.122 A 
HETATM    3  N3  UNL     1      18.532   4.077   0.841  1.00  0.00    -0.339 N 
HETATM    4  C17 UNL     1      17.999   5.052   0.119  1.00  0.00     0.107 A 
HETATM    5  N5  UNL     1      18.970   6.037   0.069  1.00  0.00    -0.341 N 
ATOM      6  H5  UNL     1      18.869   6.928  -0.417  1.00  0.00     0.167 HD
ENDROOT
BRANCH   1   7
HETATM    7  C12 UNL     1      21.307   6.422   0.929  1.00  0.00     0.066 C 
BRANCH   7   8
HETATM    8  C11 UNL     1      21.295   7.749   0.886  1.00  0.00     0.104 A 
HETATM    9  C1  UNL     1      20.350   8.473   1.580  1.00  0.00     0.272 A 
HETATM   10  O1  UNL     1      19.485   7.866   2.264  1.00  0.00    -0.266 OA
HETATM   11  N1  UNL     1      20.285   9.816   1.577  1.00  0.00    -0.319 N 
HETATM   12  C2  UNL     1      21.208  10.498   0.846  1.00  0.00     0.074 A 
ATOM     13  H1  UNL     1      19.566  10.308   2.107  1.00  0.00     0.169 HD
HETATM   14  C10 UNL     1      22.153   9.776   0.153  1.00  0.00     0.128 A 
HETATM   15  S1  UNL     1      23.269  10.602  -0.731  1.00  0.00    -0.058 SA
HETATM   16  N2  UNL     1      22.201   8.432   0.168  1.00  0.00    -0.341 N 
ATOM     17  H2  UNL     1      22.918   7.935  -0.361  1.00  0.00     0.167 HD
BRANCH  12  18
HETATM   18  C3  UNL     1      21.214  11.815   0.791  1.00  0.00     0.044 C 
BRANCH  18  19
HETATM   19  C4  UNL     1      21.275  12.640   2.005  1.00  0.00    -0.034 A 
HETATM   20  C5  UNL     1      20.261  13.498   2.371  1.00  0.00     0.011 A 
HETATM   21  C6  UNL     1      20.355  14.263   3.527  1.00  0.00     0.001 A 
HETATM   22  C7  UNL     1      21.494  14.139   4.296  1.00  0.00     0.000 A 
HETATM   23  C8  UNL     1      22.522  13.278   3.939  1.00  0.00     0.001 A 
HETATM   24  C9  UNL     1      22.404  12.529   2.787  1.00  0.00     0.011 A 
ENDBRANCH  18  19
ENDBRANCH  12  18
ENDBRANCH   7   8
ENDBRANCH   1   7
BRANCH   3  25
HETATM   25  C15 UNL     1      17.969   2.799   1.188  1.00  0.00     0.156 C 
BRANCH  25  26
HETATM   26  C16 UNL     1      17.162   2.848   2.465  1.00  0.00     0.184 C 
BRANCH  26  27
HETATM   27  O2  UNL     1      17.917   2.802   3.613  1.00  0.00    -0.399 OA
ATOM     28  H2  UNL     1      17.587   2.204   4.273  1.00  0.00     0.209 HD
ENDBRANCH  26  27
ENDBRANCH  25  26
ENDBRANCH   3  25
BRANCH   4  29
HETATM   29  C18 UNL     1      16.735   5.277  -0.544  1.00  0.00     0.051 C 
HETATM   30  C19 UNL     1      16.452   5.465  -1.796  1.00  0.00     0.043 C 
BRANCH  30  31
HETATM   31  C20 UNL     1      15.075   5.673  -2.233  1.00  0.00     0.100 A 
HETATM   32  C21 UNL     1      14.090   4.730  -2.473  1.00  0.00     0.058 A 
HETATM   33  C22 UNL     1      12.944   5.397  -2.871  1.00  0.00     0.117 A 
HETATM   34  N4  UNL     1      13.294   6.693  -2.850  1.00  0.00    -0.272 N 
HETATM   35  O3  UNL     1      14.531   6.829  -2.478  1.00  0.00    -0.238 OA
ATOM     36  H4  UNL     1      12.674   7.465  -3.094  1.00  0.00     0.194 HD
ENDBRANCH  30  31
ENDBRANCH   4  29
TORSDOF 9
ENDMDL
MODEL 3
REMARK VINA RESULT: -8.875584166      3.674     11.297
REMARK  9 active torsions:
REMARK  status: ('A' for Active; 'I' for Inactive)
REMARK    1  A    between atoms: C2_5  and  C3_6 
REMARK    2  A    between atoms: C3_6  and  C4_7 
REMARK    3  A    between atoms: C11_17  and  C12_18 
REMARK    4  A    between atoms: C12_18  and  C13_19 
REMARK    5  A    between atoms: N3_21  and  C15_22 
REMARK    6  A    between atoms: C15_22  and  C16_23 
REMARK    7  A    between atoms: C16_23  and  O2_24 
REMARK    8  A    between atoms: C17_26  and  C18_27 
REMARK    9  A    between atoms: C19_28  and  C20_29 
ROOT
HETATM    1  C13 UNL     1      18.275   7.283   1.375  1.00  0.00     0.051 A 
HETATM    2  C14 UNL     1      18.833   6.139   1.869  1.00  0.00     0.122 A 
HETATM    3  N3  UNL     1      18.194   5.093   1.244  1.00  0.00    -0.339 N 
HETATM    4  C17 UNL     1      17.280   5.549   0.400  1.00  0.00     0.107 A 
HETATM    5  N5  UNL     1      17.349   6.928   0.500  1.00  0.00    -0.341 N 
ATOM      6  H5  UNL     1      16.768   7.579  -0.027  1.00  0.00     0.167 HD
ENDROOT
BRANCH   1   7
HETATM    7  C12 UNL     1      18.665   8.658   1.775  1.00  0.00     0.066 C 
BRANCH   7   8
HETATM    8  C11 UNL     1      19.947   8.966   1.931  1.00  0.00     0.104 A 
HETATM    9  C1  UNL     1      20.400   9.553   3.092  1.00  0.00     0.272 A 
HETATM   10  O1  UNL     1      19.585   9.800   4.019  1.00  0.00    -0.266 OA
HETATM   11  N1  UNL     1      21.684   9.888   3.310  1.00  0.00    -0.319 N 
HETATM   12  C2  UNL     1      22.586   9.632   2.324  1.00  0.00     0.074 A 
ATOM     13  H1  UNL     1      21.972  10.320   4.187  1.00  0.00     0.169 HD
HETATM   14  C10 UNL     1      22.134   9.046   1.163  1.00  0.00     0.128 A 
HETATM   15  S1  UNL     1      23.228   8.737  -0.028  1.00  0.00    -0.058 SA
HETATM   16  N2  UNL     1      20.846   8.718   0.964  1.00  0.00    -0.341 N 
ATOM     17  H2  UNL     1      20.553   8.286   0.088  1.00  0.00     0.167 HD
BRANCH  12  18
HETATM   18  C3  UNL     1      23.863   9.930   2.459  1.00  0.00     0.044 C 
BRANCH  18  19
HETATM   19  C4  UNL     1      24.320  11.313   2.647  1.00  0.00    -0.034 A 
HETATM   20  C5  UNL     1      24.652  11.824   3.882  1.00  0.00     0.011 A 
HETATM   21  C6  UNL     1      25.081  13.139   4.020  1.00  0.00     0.001 A 
HETATM   22  C7  UNL     1      25.163  13.916   2.884  1.00  0.00     0.000 A 
HETATM   23  C8  UNL     1      24.832  13.413   1.633  1.00  0.00     0.001 A 
HETATM   24  C9  UNL     1      24.409  12.106   1.523  1.00  0.00     0.011 A 
ENDBRANCH  18  19
ENDBRANCH  12  18
ENDBRANCH   7   8
ENDBRANCH   1   7
BRANCH   3  25
HETATM   25  C15 UNL     1      18.567   3.733   1.523  1.00  0.00     0.156 C 
BRANCH  25  26
HETATM   26  C16 UNL     1      17.532   3.005   2.350  1.00  0.00     0.184 C 
BRANCH  26  27
HETATM   27  O2  UNL     1      17.897   2.802   3.659  1.00  0.00    -0.399 OA
ATOM     28  H2  UNL     1      18.417   2.019   3.803  1.00  0.00     0.209 HD
ENDBRANCH  26  27
ENDBRANCH  25  26
ENDBRANCH   3  25
BRANCH   4  29
HETATM   29  C18 UNL     1      16.315   4.959  -0.499  1.00  0.00     0.051 C 
HETATM   30  C19 UNL     1      15.731   5.435  -1.555  1.00  0.00     0.043 C 
BRANCH  30  31
HETATM   31  C20 UNL     1      14.777   4.634  -2.314  1.00  0.00     0.100 A 
HETATM   32  C21 UNL     1      13.744   5.060  -3.132  1.00  0.00     0.058 A 
HETATM   33  C22 UNL     1      13.107   3.941  -3.639  1.00  0.00     0.117 A 
HETATM   34  N4  UNL     1      13.781   2.909  -3.106  1.00  0.00    -0.272 N 
HETATM   35  O3  UNL     1      14.743   3.334  -2.343  1.00  0.00    -0.238 OA
ATOM     36  H4  UNL     1      13.568   1.926  -3.276  1.00  0.00     0.194 HD
ENDBRANCH  30  31
ENDBRANCH   4  29
TORSDOF 9
ENDMDL
MODEL 4
REMARK VINA RESULT: -8.671086574      4.879     11.602
REMARK  9 active torsions:
REMARK  status: ('A' for Active; 'I' for Inactive)
REMARK    1  A    between atoms: C2_5  and  C3_6 
REMARK    2  A    between atoms: C3_6  and  C4_7 
REMARK    3  A    between atoms: C11_17  and  C12_18 
REMARK    4  A    between atoms: C12_18  and  C13_19 
REMARK    5  A    between atoms: N3_21  and  C15_22 
REMARK    6  A    between atoms: C15_22  and  C16_23 
REMARK    7  A    between atoms: C16_23  and  O2_24 
REMARK    8  A    between atoms: C17_26  and  C18_27 
REMARK    9  A    between atoms: C19_28  and  C20_29 
ROOT
HETATM    1  C13 UNL     1      19.178   5.558   0.327  1.00  0.00     0.051 A 
HETATM    2  C14 UNL     1      19.380   4.326  -0.223  1.00  0.00     0.122 A 
HETATM    3  N3  UNL     1      18.324   4.103  -1.077  1.00  0.00    -0.339 N 
HETATM    4  C17 UNL     1      17.497   5.139  -1.067  1.00  0.00     0.107 A 
HETATM    5  N5  UNL     1      18.055   6.040  -0.177  1.00  0.00    -0.341 N 
ATOM      6  H5  UNL     1      17.655   6.949   0.057  1.00  0.00     0.167 HD
ENDROOT
BRANCH   1   7
HETATM    7  C12 UNL     1      20.080   6.205   1.313  1.00  0.00     0.066 C 
BRANCH   7   8
HETATM    8  C11 UNL     1      20.367   7.497   1.203  1.00  0.00     0.104 A 
HETATM    9  C1  UNL     1      19.460   8.460   1.586  1.00  0.00     0.272 A 
HETATM   10  O1  UNL     1      18.342   8.110   2.047  1.00  0.00    -0.266 OA
HETATM   11  N1  UNL     1      19.691   9.782   1.500  1.00  0.00    -0.319 N 
HETATM   12  C2  UNL     1      20.891  10.190   1.005  1.00  0.00     0.074 A 
ATOM     13  H1  UNL     1      18.988  10.459   1.796  1.00  0.00     0.169 HD
HETATM   14  C10 UNL     1      21.798   9.228   0.622  1.00  0.00     0.128 A 
HETATM   15  S1  UNL     1      23.250   9.722   0.023  1.00  0.00    -0.058 SA
HETATM   16  N2  UNL     1      21.548   7.910   0.716  1.00  0.00    -0.341 N 
ATOM     17  H2  UNL     1      22.249   7.230   0.420  1.00  0.00     0.167 HD
BRANCH  12  18
HETATM   18  C3  UNL     1      21.196  11.467   0.888  1.00  0.00     0.044 C 
BRANCH  18  19
HETATM   19  C4  UNL     1      21.297  12.349   2.058  1.00  0.00    -0.034 A 
HETATM   20  C5  UNL     1      22.347  12.285   2.947  1.00  0.00     0.011 A 
HETATM   21  C6  UNL     1      22.408  13.137   4.043  1.00  0.00     0.001 A 
HETATM   22  C7  UNL     1      21.385  14.047   4.215  1.00  0.00     0.000 A 
HETATM   23  C8  UNL     1      20.322  14.122   3.326  1.00  0.00     0.001 A 
HETATM   24  C9  UNL     1      20.285  13.266   2.247  1.00  0.00     0.011 A 
ENDBRANCH  18  19
ENDBRANCH  12  18
ENDBRANCH   7   8
ENDBRANCH   1   7
BRANCH   3  25
HETATM   25  C15 UNL     1      18.245   2.891  -1.846  1.00  0.00     0.156 C 
BRANCH  25  26
HETATM   26  C16 UNL     1      17.913   1.685  -0.997  1.00  0.00     0.184 C 
BRANCH  26  27
HETATM   27  O2  UNL     1      16.768   1.820  -0.249  1.00  0.00    -0.399 OA
ATOM     28  H2  UNL     1      16.920   1.912   0.684  1.00  0.00     0.209 HD
ENDBRANCH  26  27
ENDBRANCH  25  26
ENDBRANCH   3  25
BRANCH   4  29
HETATM   29  C18 UNL     1      16.252   5.475  -1.719  1.00  0.00     0.051 C 
HETATM   30  C19 UNL     1      15.143   4.811  -1.831  1.00  0.00     0.043 C 
BRANCH  30  31
HETATM   31  C20 UNL     1      14.001   5.369  -2.548  1.00  0.00     0.100 A 
HETATM   32  C21 UNL     1      13.892   6.593  -3.186  1.00  0.00     0.058 A 
HETATM   33  C22 UNL     1      12.621   6.684  -3.726  1.00  0.00     0.117 A 
HETATM   34  N4  UNL     1      12.036   5.523  -3.390  1.00  0.00    -0.272 N 
HETATM   35  O3  UNL     1      12.854   4.778  -2.709  1.00  0.00    -0.238 OA
ATOM     36  H4  UNL     1      11.081   5.262  -3.636  1.00  0.00     0.194 HD
ENDBRANCH  30  31
ENDBRANCH   4  29
TORSDOF 9
ENDMDL
MODEL 5
REMARK VINA RESULT: -8.613339635      4.886     11.493
REMARK  9 active torsions:
REMARK  status: ('A' for Active; 'I' for Inactive)
REMARK    1  A    between atoms: C2_5  and  C3_6 
REMARK    2  A    between atoms: C3_6  and  C4_7 
REMARK    3  A    between atoms: C11_17  and  C12_18 
REMARK    4  A    between atoms: C12_18  and  C13_19 
REMARK    5  A    between atoms: N3_21  and  C15_22 
REMARK    6  A    between atoms: C15_22  and  C16_23 
REMARK    7  A    between atoms: C16_23  and  O2_24 
REMARK    8  A    between atoms: C17_26  and  C18_27 
REMARK    9  A    between atoms: C19_28  and  C20_29 
ROOT
HETATM    1  C13 UNL     1      19.021   5.562   0.328  1.00  0.00     0.051 A 
HETATM    2  C14 UNL     1      19.239   4.364  -0.288  1.00  0.00     0.122 A 
HETATM    3  N3  UNL     1      18.184   4.173  -1.150  1.00  0.00    -0.339 N 
HETATM    4  C17 UNL     1      17.343   5.195  -1.083  1.00  0.00     0.107 A 
HETATM    5  N5  UNL     1      17.890   6.055  -0.147  1.00  0.00    -0.341 N 
ATOM      6  H5  UNL     1      17.479   6.944   0.136  1.00  0.00     0.167 HD
ENDROOT
BRANCH   1   7
HETATM    7  C12 UNL     1      19.917   6.168   1.346  1.00  0.00     0.066 C 
BRANCH   7   8
HETATM    8  C11 UNL     1      20.290   7.437   1.231  1.00  0.00     0.104 A 
HETATM    9  C1  UNL     1      19.444   8.461   1.596  1.00  0.00     0.272 A 
HETATM   10  O1  UNL     1      18.300   8.189   2.044  1.00  0.00    -0.266 OA
HETATM   11  N1  UNL     1      19.763   9.764   1.504  1.00  0.00    -0.319 N 
HETATM   12  C2  UNL     1      20.994  10.088   1.023  1.00  0.00     0.074 A 
ATOM     13  H1  UNL     1      19.102  10.487   1.787  1.00  0.00     0.169 HD
HETATM   14  C10 UNL     1      21.840   9.065   0.658  1.00  0.00     0.128 A 
HETATM   15  S1  UNL     1      23.329   9.459   0.076  1.00  0.00    -0.058 SA
HETATM   16  N2  UNL     1      21.502   7.767   0.757  1.00  0.00    -0.341 N 
ATOM     17  H2  UNL     1      22.160   7.040   0.475  1.00  0.00     0.167 HD
BRANCH  12  18
HETATM   18  C3  UNL     1      21.383  11.341   0.902  1.00  0.00     0.044 C 
BRANCH  18  19
HETATM   19  C4  UNL     1      21.323  12.283   2.027  1.00  0.00    -0.034 A 
HETATM   20  C5  UNL     1      20.310  13.207   2.168  1.00  0.00     0.011 A 
HETATM   21  C6  UNL     1      20.287  14.082   3.248  1.00  0.00     0.001 A 
HETATM   22  C7  UNL     1      21.308  13.998   4.173  1.00  0.00     0.000 A 
HETATM   23  C8  UNL     1      22.333  13.071   4.042  1.00  0.00     0.001 A 
HETATM   24  C9  UNL     1      22.333  12.214   2.963  1.00  0.00     0.011 A 
ENDBRANCH  18  19
ENDBRANCH  12  18
ENDBRANCH   7   8
ENDBRANCH   1   7
BRANCH   3  25
HETATM   25  C15 UNL     1      18.119   3.003  -1.983  1.00  0.00     0.156 C 
BRANCH  25  26
HETATM   26  C16 UNL     1      18.851   3.182  -3.293  1.00  0.00     0.184 C 
BRANCH  26  27
HETATM   27  O2  UNL     1      18.160   3.911  -4.231  1.00  0.00    -0.399 OA
ATOM     28  H2  UNL     1      18.217   4.852  -4.113  1.00  0.00     0.209 HD
ENDBRANCH  26  27
ENDBRANCH  25  26
ENDBRANCH   3  25
BRANCH   4  29
HETATM   29  C18 UNL     1      16.092   5.548  -1.714  1.00  0.00     0.051 C 
HETATM   30  C19 UNL     1      15.019   4.851  -1.929  1.00  0.00     0.043 C 
BRANCH  30  31
HETATM   31  C20 UNL     1      13.861   5.437  -2.596  1.00  0.00     0.100 A 
HETATM   32  C21 UNL     1      13.746   6.676  -3.204  1.00  0.00     0.058 A 
HETATM   33  C22 UNL     1      12.459   6.793  -3.699  1.00  0.00     0.117 A 
HETATM   34  N4  UNL     1      11.871   5.632  -3.367  1.00  0.00    -0.272 N 
HETATM   35  O3  UNL     1      12.701   4.864  -2.729  1.00  0.00    -0.238 OA
ATOM     36  H4  UNL     1      10.905   5.388  -3.585  1.00  0.00     0.194 HD
ENDBRANCH  30  31
ENDBRANCH   4  29
TORSDOF 9
ENDMDL
