MODEL 1
REMARK VINA RESULT: -7.904288917      0.000      0.000
REMARK  11 active torsions:
REMARK  status: ('A' for Active; 'I' for Inactive)
REMARK    1  A    between atoms: N1_1  and  C1_4 
REMARK    2  A    between atoms: C2_7  and  C3_8 
REMARK       I    between atoms: C3_8  and  N3_10 
REMARK    3  A    between atoms: N3_10  and  C4_12 
REMARK    4  A    between atoms: C5_15  and  N5_16 
REMARK    5  A    between atoms: C6_21  and  N7_22 
REMARK    6  A    between atoms: C7_25  and  N8_26 
REMARK    7  A    between atoms: C8_30  and  C9_31 
REMARK    8  A    between atoms: C11_35  and  C12_36 
REMARK    9  A    between atoms: C12_36  and  O2_37 
REMARK   10  A    between atoms: C13_44  and  N14_45 
REMARK   11  A    between atoms: N14_45  and  O4_47 
ROOT
HETATM    1  C4  UNL     1     106.561  28.765  -0.223  1.00  0.00     0.158 A 
HETATM    2  N4  UNL     1     106.856  27.777   0.661  1.00  0.00    -0.174 N 
ATOM      3  H4  UNL     1     106.464  26.849   0.507  1.00  0.00     0.186 HD
HETATM    4  C5  UNL     1     107.641  27.974   1.725  1.00  0.00     0.679 A 
HETATM    5  N6  UNL     1     108.179  29.187   1.962  1.00  0.00    -0.175 N 
ATOM      6  H6  UNL     1     108.779  29.349   2.771  1.00  0.00     0.186 HD
HETATM    7  C6  UNL     1     107.897  30.174   1.100  1.00  0.00     0.148 A 
HETATM    8  C7  UNL     1     107.095  30.011  -0.004  1.00  0.00     0.161 A 
ENDROOT
BRANCH   1   9
HETATM    9  N3  UNL     1     105.714  28.500  -1.344  1.00  0.00    -0.304 N 
HETATM   10  C3  UNL     1     104.321  28.675  -1.146  1.00  0.00     0.292 C 
HETATM   11  O1  UNL     1     103.867  29.826  -1.054  1.00  0.00    -0.264 OA
ATOM     12  H3  UNL     1     106.094  28.200  -2.242  1.00  0.00     0.171 HD
BRANCH  10  13
HETATM   13  C2  UNL     1     103.416  27.539  -1.047  1.00  0.00     0.204 A 
HETATM   14  N2  UNL     1     103.466  26.751   0.042  1.00  0.00    -0.170 N 
HETATM   15  C1  UNL     1     102.658  25.697   0.180  1.00  0.00     0.692 A 
ATOM     16  H2  UNL     1     104.136  26.964   0.780  1.00  0.00     0.186 HD
HETATM   17  N15 UNL     1     101.773  25.398  -0.775  1.00  0.00    -0.021 N 
HETATM   18  C13 UNL     1     101.721  26.184  -1.867  1.00  0.00     0.718 A 
ATOM     19  H15 UNL     1     101.152  24.595  -0.679  1.00  0.00     0.203 HD
HETATM   20  N13 UNL     1     102.547  27.259  -2.003  1.00  0.00    -0.168 N 
ATOM     21  H13 UNL     1     102.495  27.844  -2.837  1.00  0.00     0.186 HD
BRANCH  15  22
HETATM   22  N1  UNL     1     102.730  24.964   1.235  1.00  0.00    -0.234 N 
ATOM     23  H12 UNL     1     102.273  25.268   2.094  1.00  0.00     0.174 HD
ATOM     24  H11 UNL     1     103.242  24.082   1.211  1.00  0.00     0.174 HD
ENDBRANCH  15  22
BRANCH  18  25
HETATM   25  N14 UNL     1     100.863  25.883  -2.776  1.00  0.00    -0.098 N 
ATOM     26  H14 UNL     1     100.309  25.033  -2.669  1.00  0.00     0.213 HD
BRANCH  25  27
HETATM   27  O4  UNL     1     100.668  26.667  -3.882  1.00  0.00    -0.276 OA
ATOM     28  H4  UNL     1      99.877  26.616  -4.405  1.00  0.00     0.245 HD
ENDBRANCH  25  27
ENDBRANCH  18  25
ENDBRANCH  10  13
ENDBRANCH   1   9
BRANCH   8  29
HETATM   29  N8  UNL     1     106.816  31.093  -0.907  1.00  0.00    -0.171 N 
HETATM   30  N9  UNL     1     107.471  31.388  -2.017  1.00  0.00     0.003 NA
HETATM   31  N10 UNL     1     106.930  32.464  -2.604  1.00  0.00    -0.263 N 
HETATM   32  C8  UNL     1     105.902  32.863  -1.841  1.00  0.00     0.187 A 
ATOM     33  H10 UNL     1     107.243  32.899  -3.471  1.00  0.00     0.186 HD
HETATM   34  N12 UNL     1     105.859  32.002  -0.810  1.00  0.00    -0.261 N 
ATOM     35  H12 UNL     1     105.178  32.043  -0.052  1.00  0.00     0.190 HD
BRANCH  32  36
HETATM   36  C9  UNL     1     105.028  34.005  -2.110  1.00  0.00     0.195 A 
HETATM   37  N11 UNL     1     105.348  35.161  -2.717  1.00  0.00    -0.341 N 
HETATM   38  C10 UNL     1     104.270  35.960  -2.775  1.00  0.00     0.125 A 
ATOM     39  H11 UNL     1     106.271  35.396  -3.081  1.00  0.00     0.167 HD
HETATM   40  C11 UNL     1     103.249  35.256  -2.175  1.00  0.00     0.094 A 
HETATM   41  O3  UNL     1     103.760  34.111  -1.804  1.00  0.00    -0.291 OA
BRANCH  40  42
HETATM   42  C12 UNL     1     101.829  35.726  -1.991  1.00  0.00     0.230 C 
BRANCH  42  43
HETATM   43  O2  UNL     1     101.799  37.132  -2.038  1.00  0.00    -0.394 OA
ATOM     44  H2  UNL     1     101.173  37.407  -2.697  1.00  0.00     0.209 HD
ENDBRANCH  42  43
ENDBRANCH  40  42
ENDBRANCH  32  36
ENDBRANCH   8  29
BRANCH   4  45
HETATM   45  N5  UNL     1     107.915  27.020   2.560  1.00  0.00    -0.234 N 
ATOM     46  H52 UNL     1     108.503  26.256   2.229  1.00  0.00     0.174 HD
ATOM     47  H51 UNL     1     107.559  27.022   3.517  1.00  0.00     0.174 HD
ENDBRANCH   4  45
BRANCH   7  48
HETATM   48  N7  UNL     1     108.407  31.333   1.322  1.00  0.00    -0.383 N 
ATOM     49  H72 UNL     1     109.359  31.514   1.008  1.00  0.00     0.157 HD
ATOM     50  H71 UNL     1     107.832  32.023   1.806  1.00  0.00     0.157 HD
ENDBRANCH   7  48
TORSDOF 11
ENDMDL
MODEL 2
REMARK VINA RESULT: -7.894735990      3.162      7.997
REMARK  11 active torsions:
REMARK  status: ('A' for Active; 'I' for Inactive)
REMARK    1  A    between atoms: N1_1  and  C1_4 
REMARK    2  A    between atoms: C2_7  and  C3_8 
REMARK       I    between atoms: C3_8  and  N3_10 
REMARK    3  A    between atoms: N3_10  and  C4_12 
REMARK    4  A    between atoms: C5_15  and  N5_16 
REMARK    5  A    between atoms: C6_21  and  N7_22 
REMARK    6  A    between atoms: C7_25  and  N8_26 
REMARK    7  A    between atoms: C8_30  and  C9_31 
REMARK    8  A    between atoms: C11_35  and  C12_36 
REMARK    9  A    between atoms: C12_36  and  O2_37 
REMARK   10  A    between atoms: C13_44  and  N14_45 
REMARK   11  A    between atoms: N14_45  and  O4_47 
ROOT
HETATM    1  C4  UNL     1     105.790  33.750  -2.552  1.00  0.00     0.158 A 
HETATM    2  N4  UNL     1     105.666  35.060  -2.890  1.00  0.00    -0.174 N 
ATOM      3  H4  UNL     1     106.445  35.521  -3.360  1.00  0.00     0.186 HD
HETATM    4  C5  UNL     1     104.564  35.769  -2.630  1.00  0.00     0.679 A 
HETATM    5  N6  UNL     1     103.512  35.196  -2.010  1.00  0.00    -0.175 N 
ATOM      6  H6  UNL     1     102.666  35.727  -1.807  1.00  0.00     0.186 HD
HETATM    7  C6  UNL     1     103.619  33.904  -1.670  1.00  0.00     0.148 A 
HETATM    8  C7  UNL     1     104.735  33.142  -1.920  1.00  0.00     0.161 A 
ENDROOT
BRANCH   1   9
HETATM    9  N3  UNL     1     106.993  33.039  -2.853  1.00  0.00    -0.304 N 
HETATM   10  C3  UNL     1     107.743  33.498  -3.966  1.00  0.00     0.292 C 
HETATM   11  O1  UNL     1     108.376  34.560  -3.867  1.00  0.00    -0.264 OA
ATOM     12  H3  UNL     1     107.297  32.241  -2.295  1.00  0.00     0.171 HD
BRANCH  10  13
HETATM   13  C2  UNL     1     107.785  32.753  -5.216  1.00  0.00     0.204 A 
HETATM   14  N2  UNL     1     108.936  32.694  -5.909  1.00  0.00    -0.170 N 
HETATM   15  C1  UNL     1     109.026  32.025  -7.061  1.00  0.00     0.692 A 
ATOM     16  H2  UNL     1     109.760  33.172  -5.546  1.00  0.00     0.186 HD
HETATM   17  N15 UNL     1     107.959  31.392  -7.556  1.00  0.00    -0.021 N 
HETATM   18  C13 UNL     1     106.805  31.449  -6.866  1.00  0.00     0.718 A 
ATOM     19  H15 UNL     1     108.018  30.878  -8.435  1.00  0.00     0.203 HD
HETATM   20  N13 UNL     1     106.718  32.133  -5.691  1.00  0.00    -0.168 N 
ATOM     21  H13 UNL     1     105.835  32.166  -5.180  1.00  0.00     0.186 HD
BRANCH  15  22
HETATM   22  N1  UNL     1     110.143  31.987  -7.699  1.00  0.00    -0.234 N 
ATOM     23  H12 UNL     1     110.852  31.302  -7.438  1.00  0.00     0.174 HD
ATOM     24  H11 UNL     1     110.318  32.640  -8.462  1.00  0.00     0.174 HD
ENDBRANCH  15  22
BRANCH  18  25
HETATM   25  N14 UNL     1     105.788  30.833  -7.356  1.00  0.00    -0.098 N 
ATOM     26  H14 UNL     1     105.897  29.866  -7.661  1.00  0.00     0.213 HD
BRANCH  25  27
HETATM   27  O4  UNL     1     104.563  31.435  -7.481  1.00  0.00    -0.276 OA
ATOM     28  H4  UNL     1     103.912  31.131  -8.102  1.00  0.00     0.245 HD
ENDBRANCH  25  27
ENDBRANCH  18  25
ENDBRANCH  10  13
ENDBRANCH   1   9
BRANCH   8  29
HETATM   29  N8  UNL     1     104.811  31.758  -1.539  1.00  0.00    -0.171 N 
HETATM   30  N9  UNL     1     105.663  31.218  -0.685  1.00  0.00     0.003 NA
HETATM   31  N10 UNL     1     105.439  29.902  -0.576  1.00  0.00    -0.263 N 
HETATM   32  C8  UNL     1     104.414  29.600  -1.387  1.00  0.00     0.187 A 
ATOM     33  H10 UNL     1     105.953  29.249   0.014  1.00  0.00     0.186 HD
HETATM   34  N12 UNL     1     104.053  30.760  -1.962  1.00  0.00    -0.261 N 
ATOM     35  H12 UNL     1     103.293  30.858  -2.635  1.00  0.00     0.190 HD
BRANCH  32  36
HETATM   36  C9  UNL     1     103.835  28.270  -1.580  1.00  0.00     0.195 A 
HETATM   37  N11 UNL     1     104.417  27.079  -1.353  1.00  0.00    -0.341 N 
HETATM   38  C10 UNL     1     103.560  26.089  -1.651  1.00  0.00     0.125 A 
ATOM     39  H11 UNL     1     105.367  26.947  -1.007  1.00  0.00     0.167 HD
HETATM   40  C11 UNL     1     102.405  26.708  -2.077  1.00  0.00     0.094 A 
HETATM   41  O3  UNL     1     102.632  27.994  -2.012  1.00  0.00    -0.291 OA
BRANCH  40  42
HETATM   42  C12 UNL     1     101.140  26.024  -2.526  1.00  0.00     0.230 C 
BRANCH  42  43
HETATM   43  O2  UNL     1     100.751  26.549  -3.773  1.00  0.00    -0.394 OA
ATOM     44  H2  UNL     1     100.630  27.487  -3.691  1.00  0.00     0.209 HD
ENDBRANCH  42  43
ENDBRANCH  40  42
ENDBRANCH  32  36
ENDBRANCH   8  29
BRANCH   4  45
HETATM   45  N5  UNL     1     104.460  37.020  -2.959  1.00  0.00    -0.234 N 
ATOM     46  H52 UNL     1     105.086  37.372  -3.682  1.00  0.00     0.174 HD
ATOM     47  H51 UNL     1     103.781  37.640  -2.517  1.00  0.00     0.174 HD
ENDBRANCH   4  45
BRANCH   7  48
HETATM   48  N7  UNL     1     102.619  33.353  -1.078  1.00  0.00    -0.383 N 
ATOM     49  H72 UNL     1     101.905  33.954  -0.668  1.00  0.00     0.157 HD
ATOM     50  H71 UNL     1     102.585  32.334  -1.046  1.00  0.00     0.157 HD
ENDBRANCH   7  48
TORSDOF 11
ENDMDL
MODEL 3
REMARK VINA RESULT: -7.858039289      2.422      8.108
REMARK  11 active torsions:
REMARK  status: ('A' for Active; 'I' for Inactive)
REMARK    1  A    between atoms: N1_1  and  C1_4 
REMARK    2  A    between atoms: C2_7  and  C3_8 
REMARK       I    between atoms: C3_8  and  N3_10 
REMARK    3  A    between atoms: N3_10  and  C4_12 
REMARK    4  A    between atoms: C5_15  and  N5_16 
REMARK    5  A    between atoms: C6_21  and  N7_22 
REMARK    6  A    between atoms: C7_25  and  N8_26 
REMARK    7  A    between atoms: C8_30  and  C9_31 
REMARK    8  A    between atoms: C11_35  and  C12_36 
REMARK    9  A    between atoms: C12_36  and  O2_37 
REMARK   10  A    between atoms: C13_44  and  N14_45 
REMARK   11  A    between atoms: N14_45  and  O4_47 
ROOT
HETATM    1  C4  UNL     1     106.982  32.373  -3.732  1.00  0.00     0.158 A 
HETATM    2  N4  UNL     1     107.458  33.229  -4.673  1.00  0.00    -0.174 N 
ATOM      3  H4  UNL     1     107.520  34.221  -4.447  1.00  0.00     0.186 HD
HETATM    4  C5  UNL     1     107.847  32.822  -5.885  1.00  0.00     0.679 A 
HETATM    5  N6  UNL     1     107.780  31.518  -6.223  1.00  0.00    -0.175 N 
ATOM      6  H6  UNL     1     108.075  31.196  -7.144  1.00  0.00     0.186 HD
HETATM    7  C6  UNL     1     107.313  30.660  -5.305  1.00  0.00     0.148 A 
HETATM    8  C7  UNL     1     106.903  31.040  -4.049  1.00  0.00     0.161 A 
ENDROOT
BRANCH   1   9
HETATM    9  N3  UNL     1     106.578  32.863  -2.451  1.00  0.00    -0.304 N 
HETATM   10  C3  UNL     1     105.217  33.235  -2.311  1.00  0.00     0.292 C 
HETATM   11  O1  UNL     1     104.353  32.346  -2.263  1.00  0.00    -0.264 OA
ATOM     12  H3  UNL     1     107.237  32.940  -1.676  1.00  0.00     0.171 HD
BRANCH  10  13
HETATM   13  C2  UNL     1     104.813  34.631  -2.226  1.00  0.00     0.204 A 
HETATM   14  N2  UNL     1     105.758  35.586  -2.158  1.00  0.00    -0.170 N 
HETATM   15  C1  UNL     1     105.440  36.880  -2.078  1.00  0.00     0.692 A 
ATOM     16  H2  UNL     1     106.741  35.315  -2.168  1.00  0.00     0.186 HD
HETATM   17  N15 UNL     1     104.159  37.258  -2.062  1.00  0.00    -0.021 N 
HETATM   18  C13 UNL     1     103.210  36.305  -2.129  1.00  0.00     0.718 A 
ATOM     19  H15 UNL     1     103.905  38.244  -2.000  1.00  0.00     0.203 HD
HETATM   20  N13 UNL     1     103.539  34.986  -2.211  1.00  0.00    -0.168 N 
ATOM     21  H13 UNL     1     102.808  34.276  -2.261  1.00  0.00     0.186 HD
BRANCH  15  22
HETATM   22  N1  UNL     1     106.368  37.770  -2.015  1.00  0.00    -0.234 N 
ATOM     23  H12 UNL     1     107.303  37.550  -2.357  1.00  0.00     0.174 HD
ATOM     24  H11 UNL     1     106.168  38.690  -1.626  1.00  0.00     0.174 HD
ENDBRANCH  15  22
BRANCH  18  25
HETATM   25  N14 UNL     1     101.982  36.686  -2.113  1.00  0.00    -0.098 N 
ATOM     26  H14 UNL     1     101.767  37.647  -1.847  1.00  0.00     0.213 HD
BRANCH  25  27
HETATM   27  O4  UNL     1     100.954  35.843  -2.443  1.00  0.00    -0.276 OA
ATOM     28  H4  UNL     1     100.121  35.858  -1.986  1.00  0.00     0.245 HD
ENDBRANCH  25  27
ENDBRANCH  18  25
ENDBRANCH  10  13
ENDBRANCH   1   9
BRANCH   8  29
HETATM   29  N8  UNL     1     106.407  30.090  -3.092  1.00  0.00    -0.171 N 
HETATM   30  N9  UNL     1     107.067  29.585  -2.063  1.00  0.00     0.003 NA
HETATM   31  N10 UNL     1     106.289  28.729  -1.388  1.00  0.00    -0.263 N 
HETATM   32  C8  UNL     1     105.101  28.691  -2.009  1.00  0.00     0.187 A 
ATOM     33  H10 UNL     1     106.551  28.204  -0.554  1.00  0.00     0.186 HD
HETATM   34  N12 UNL     1     105.207  29.535  -3.048  1.00  0.00    -0.261 N 
ATOM     35  H12 UNL     1     104.460  29.725  -3.716  1.00  0.00     0.190 HD
BRANCH  32  36
HETATM   36  C9  UNL     1     103.949  27.883  -1.607  1.00  0.00     0.195 A 
HETATM   37  N11 UNL     1     103.661  27.415  -0.380  1.00  0.00    -0.341 N 
HETATM   38  C10 UNL     1     102.516  26.714  -0.416  1.00  0.00     0.125 A 
ATOM     39  H11 UNL     1     104.228  27.567   0.454  1.00  0.00     0.167 HD
HETATM   40  C11 UNL     1     102.089  26.762  -1.725  1.00  0.00     0.094 A 
HETATM   41  O3  UNL     1     102.978  27.466  -2.377  1.00  0.00    -0.291 OA
BRANCH  40  42
HETATM   42  C12 UNL     1     100.842  26.123  -2.281  1.00  0.00     0.230 C 
BRANCH  42  43
HETATM   43  O2  UNL     1     100.671  26.533  -3.616  1.00  0.00    -0.394 OA
ATOM     44  H2  UNL     1     100.986  27.425  -3.710  1.00  0.00     0.209 HD
ENDBRANCH  42  43
ENDBRANCH  40  42
ENDBRANCH  32  36
ENDBRANCH   8  29
BRANCH   4  45
HETATM   45  N5  UNL     1     108.300  33.652  -6.774  1.00  0.00    -0.234 N 
ATOM     46  H52 UNL     1     109.110  34.217  -6.524  1.00  0.00     0.174 HD
ATOM     47  H51 UNL     1     107.868  33.745  -7.694  1.00  0.00     0.174 HD
ENDBRANCH   4  45
BRANCH   7  48
HETATM   48  N7  UNL     1     107.246  29.416  -5.622  1.00  0.00    -0.383 N 
ATOM     49  H72 UNL     1     108.083  28.842  -5.518  1.00  0.00     0.157 HD
ATOM     50  H71 UNL     1     106.355  29.057  -5.965  1.00  0.00     0.157 HD
ENDBRANCH   7  48
TORSDOF 11
ENDMDL
MODEL 4
REMARK VINA RESULT: -7.771871077      1.794      2.352
REMARK  11 active torsions:
REMARK  status: ('A' for Active; 'I' for Inactive)
REMARK    1  A    between atoms: N1_1  and  C1_4 
REMARK    2  A    between atoms: C2_7  and  C3_8 
REMARK       I    between atoms: C3_8  and  N3_10 
REMARK    3  A    between atoms: N3_10  and  C4_12 
REMARK    4  A    between atoms: C5_15  and  N5_16 
REMARK    5  A    between atoms: C6_21  and  N7_22 
REMARK    6  A    between atoms: C7_25  and  N8_26 
REMARK    7  A    between atoms: C8_30  and  C9_31 
REMARK    8  A    between atoms: C11_35  and  C12_36 
REMARK    9  A    between atoms: C12_36  and  O2_37 
REMARK   10  A    between atoms: C13_44  and  N14_45 
REMARK   11  A    between atoms: N14_45  and  O4_47 
ROOT
HETATM    1  C4  UNL     1     106.117  27.949   0.068  1.00  0.00     0.158 A 
HETATM    2  N4  UNL     1     106.600  27.007   0.918  1.00  0.00    -0.174 N 
ATOM      3  H4  UNL     1     106.282  26.044   0.814  1.00  0.00     0.186 HD
HETATM    4  C5  UNL     1     107.475  27.292   1.886  1.00  0.00     0.679 A 
HETATM    5  N6  UNL     1     107.920  28.554   2.056  1.00  0.00    -0.175 N 
ATOM      6  H6  UNL     1     108.589  28.783   2.791  1.00  0.00     0.186 HD
HETATM    7  C6  UNL     1     107.453  29.496   1.225  1.00  0.00     0.148 A 
HETATM    8  C7  UNL     1     106.552  29.242   0.218  1.00  0.00     0.161 A 
ENDROOT
BRANCH   1   9
HETATM    9  N3  UNL     1     105.180  27.589  -0.950  1.00  0.00    -0.304 N 
HETATM   10  C3  UNL     1     103.816  27.528  -0.568  1.00  0.00     0.292 C 
HETATM   11  O1  UNL     1     103.203  28.585  -0.354  1.00  0.00    -0.264 OA
ATOM     12  H3  UNL     1     105.478  27.387  -1.904  1.00  0.00     0.171 HD
BRANCH  10  13
HETATM   13  C2  UNL     1     103.123  26.256  -0.420  1.00  0.00     0.204 A 
HETATM   14  N2  UNL     1     102.585  25.669  -1.504  1.00  0.00    -0.170 N 
HETATM   15  C1  UNL     1     101.939  24.503  -1.421  1.00  0.00     0.692 A 
ATOM     16  H2  UNL     1     102.673  26.125  -2.411  1.00  0.00     0.186 HD
HETATM   17  N15 UNL     1     101.812  23.888  -0.242  1.00  0.00    -0.021 N 
HETATM   18  C13 UNL     1     102.348  24.472   0.845  1.00  0.00     0.718 A 
ATOM     19  H15 UNL     1     101.320  22.997  -0.168  1.00  0.00     0.203 HD
HETATM   20  N13 UNL     1     103.006  25.662   0.756  1.00  0.00    -0.168 N 
ATOM     21  H13 UNL     1     103.406  26.091   1.590  1.00  0.00     0.186 HD
BRANCH  15  22
HETATM   22  N1  UNL     1     101.437  23.968  -2.478  1.00  0.00    -0.234 N 
ATOM     23  H12 UNL     1     101.443  22.954  -2.582  1.00  0.00     0.174 HD
ATOM     24  H11 UNL     1     101.034  24.556  -3.207  1.00  0.00     0.174 HD
ENDBRANCH  15  22
BRANCH  18  25
HETATM   25  N14 UNL     1     102.217  23.866   1.972  1.00  0.00    -0.098 N 
ATOM     26  H14 UNL     1     102.985  23.901   2.643  1.00  0.00     0.213 HD
BRANCH  25  27
HETATM   27  O4  UNL     1     101.080  23.176   2.301  1.00  0.00    -0.276 OA
ATOM     28  H4  UNL     1     100.391  23.559   2.832  1.00  0.00     0.245 HD
ENDBRANCH  25  27
ENDBRANCH  18  25
ENDBRANCH  10  13
ENDBRANCH   1   9
BRANCH   8  29
HETATM   29  N8  UNL     1     106.075  30.280  -0.653  1.00  0.00    -0.171 N 
HETATM   30  N9  UNL     1     106.539  30.582  -1.854  1.00  0.00     0.003 NA
HETATM   31  N10 UNL     1     105.850  31.606  -2.374  1.00  0.00    -0.263 N 
HETATM   32  C8  UNL     1     104.922  31.964  -1.474  1.00  0.00     0.187 A 
ATOM     33  H10 UNL     1     106.003  32.035  -3.286  1.00  0.00     0.186 HD
HETATM   34  N12 UNL     1     105.087  31.132  -0.432  1.00  0.00    -0.261 N 
ATOM     35  H12 UNL     1     104.524  31.154   0.418  1.00  0.00     0.190 HD
BRANCH  32  36
HETATM   36  C9  UNL     1     103.947  33.043  -1.631  1.00  0.00     0.195 A 
HETATM   37  N11 UNL     1     102.609  32.967  -1.517  1.00  0.00    -0.341 N 
HETATM   38  C10 UNL     1     102.064  34.175  -1.733  1.00  0.00     0.125 A 
ATOM     39  H11 UNL     1     102.087  32.119  -1.298  1.00  0.00     0.167 HD
HETATM   40  C11 UNL     1     103.119  35.023  -1.989  1.00  0.00     0.094 A 
HETATM   41  O3  UNL     1     104.202  34.295  -1.915  1.00  0.00    -0.291 OA
BRANCH  40  42
HETATM   42  C12 UNL     1     103.026  36.496  -2.295  1.00  0.00     0.230 C 
BRANCH  42  43
HETATM   43  O2  UNL     1     101.747  36.961  -1.937  1.00  0.00    -0.394 OA
ATOM     44  H2  UNL     1     101.807  37.877  -1.692  1.00  0.00     0.209 HD
ENDBRANCH  42  43
ENDBRANCH  40  42
ENDBRANCH  32  36
ENDBRANCH   8  29
BRANCH   4  45
HETATM   45  N5  UNL     1     107.929  26.381   2.691  1.00  0.00    -0.234 N 
ATOM     46  H52 UNL     1     108.717  25.818   2.373  1.00  0.00     0.174 HD
ATOM     47  H51 UNL     1     107.519  26.223   3.612  1.00  0.00     0.174 HD
ENDBRANCH   4  45
BRANCH   7  48
HETATM   48  N7  UNL     1     107.874  30.701   1.383  1.00  0.00    -0.383 N 
ATOM     49  H72 UNL     1     108.636  30.868   2.039  1.00  0.00     0.157 HD
ATOM     50  H71 UNL     1     107.423  31.439   0.842  1.00  0.00     0.157 HD
ENDBRANCH   7  48
TORSDOF 11
ENDMDL
MODEL 5
REMARK VINA RESULT: -7.771007675      4.195      8.783
REMARK  11 active torsions:
REMARK  status: ('A' for Active; 'I' for Inactive)
REMARK    1  A    between atoms: N1_1  and  C1_4 
REMARK    2  A    between atoms: C2_7  and  C3_8 
REMARK       I    between atoms: C3_8  and  N3_10 
REMARK    3  A    between atoms: N3_10  and  C4_12 
REMARK    4  A    between atoms: C5_15  and  N5_16 
REMARK    5  A    between atoms: C6_21  and  N7_22 
REMARK    6  A    between atoms: C7_25  and  N8_26 
REMARK    7  A    between atoms: C8_30  and  C9_31 
REMARK    8  A    between atoms: C11_35  and  C12_36 
REMARK    9  A    between atoms: C12_36  and  O2_37 
REMARK   10  A    between atoms: C13_44  and  N14_45 
REMARK   11  A    between atoms: N14_45  and  O4_47 
ROOT
HETATM    1  C4  UNL     1     104.398  26.804  -1.393  1.00  0.00     0.158 A 
HETATM    2  N4  UNL     1     104.498  28.115  -1.053  1.00  0.00    -0.174 N 
ATOM      3  H4  UNL     1     103.799  28.767  -1.407  1.00  0.00     0.186 HD
HETATM    4  C5  UNL     1     105.476  28.584  -0.273  1.00  0.00     0.679 A 
HETATM    5  N6  UNL     1     106.420  27.753   0.215  1.00  0.00    -0.175 N 
ATOM      6  H6  UNL     1     107.171  28.099   0.812  1.00  0.00     0.186 HD
HETATM    7  C6  UNL     1     106.336  26.455  -0.111  1.00  0.00     0.148 A 
HETATM    8  C7  UNL     1     105.346  25.936  -0.910  1.00  0.00     0.161 A 
ENDROOT
BRANCH   1   9
HETATM    9  N3  UNL     1     103.331  26.356  -2.232  1.00  0.00    -0.304 N 
HETATM   10  C3  UNL     1     102.085  26.110  -1.601  1.00  0.00     0.292 C 
HETATM   11  O1  UNL     1     101.403  27.073  -1.220  1.00  0.00    -0.264 OA
ATOM     12  H3  UNL     1     103.460  26.221  -3.235  1.00  0.00     0.171 HD
BRANCH  10  13
HETATM   13  C2  UNL     1     101.592  24.756  -1.391  1.00  0.00     0.204 A 
HETATM   14  N2  UNL     1     101.353  23.970  -2.456  1.00  0.00    -0.170 N 
HETATM   15  C1  UNL     1     100.900  22.722  -2.317  1.00  0.00     0.692 A 
ATOM     16  H2  UNL     1     101.522  24.336  -3.393  1.00  0.00     0.186 HD
HETATM   17  N15 UNL     1     100.671  22.222  -1.100  1.00  0.00    -0.021 N 
HETATM   18  C13 UNL     1     100.908  23.005  -0.032  1.00  0.00     0.718 A 
ATOM     19  H15 UNL     1     100.324  21.269  -0.983  1.00  0.00     0.203 HD
HETATM   20  N13 UNL     1     101.371  24.278  -0.178  1.00  0.00    -0.168 N 
ATOM     21  H13 UNL     1     101.545  24.859   0.642  1.00  0.00     0.186 HD
BRANCH  15  22
HETATM   22  N1  UNL     1     100.683  21.995  -3.357  1.00  0.00    -0.234 N 
ATOM     23  H12 UNL     1     100.666  22.426  -4.281  1.00  0.00     0.174 HD
ATOM     24  H11 UNL     1     100.528  20.992  -3.256  1.00  0.00     0.174 HD
ENDBRANCH  15  22
BRANCH  18  25
HETATM   25  N14 UNL     1     100.683  22.508   1.133  1.00  0.00    -0.098 N 
ATOM     26  H14 UNL     1     100.210  21.606   1.201  1.00  0.00     0.213 HD
BRANCH  25  27
HETATM   27  O4  UNL     1     101.058  23.149   2.284  1.00  0.00    -0.276 OA
ATOM     28  H4  UNL     1     101.554  22.713   2.967  1.00  0.00     0.245 HD
ENDBRANCH  25  27
ENDBRANCH  18  25
ENDBRANCH  10  13
ENDBRANCH   1   9
BRANCH   8  29
HETATM   29  N8  UNL     1     105.290  24.538  -1.238  1.00  0.00    -0.171 N 
HETATM   30  N9  UNL     1     106.036  23.902  -2.125  1.00  0.00     0.003 NA
HETATM   31  N10 UNL     1     105.707  22.604  -2.164  1.00  0.00    -0.263 N 
HETATM   32  C8  UNL     1     104.722  22.413  -1.274  1.00  0.00     0.187 A 
ATOM     33  H10 UNL     1     106.129  21.892  -2.760  1.00  0.00     0.186 HD
HETATM   34  N12 UNL     1     104.491  23.617  -0.725  1.00  0.00    -0.261 N 
ATOM     35  H12 UNL     1     103.790  23.798  -0.006  1.00  0.00     0.190 HD
BRANCH  32  36
HETATM   36  C9  UNL     1     104.060  21.140  -0.988  1.00  0.00     0.195 A 
HETATM   37  N11 UNL     1     104.136  19.997  -1.692  1.00  0.00    -0.341 N 
HETATM   38  C10 UNL     1     103.384  19.050  -1.107  1.00  0.00     0.125 A 
ATOM     39  H11 UNL     1     104.682  19.868  -2.544  1.00  0.00     0.167 HD
HETATM   40  C11 UNL     1     102.829  19.646   0.004  1.00  0.00     0.094 A 
HETATM   41  O3  UNL     1     103.266  20.878   0.018  1.00  0.00    -0.291 OA
BRANCH  40  42
HETATM   42  C12 UNL     1     101.901  18.994   0.997  1.00  0.00     0.230 C 
BRANCH  42  43
HETATM   43  O2  UNL     1     100.690  19.709   1.034  1.00  0.00    -0.394 OA
ATOM     44  H2  UNL     1     100.403  19.881   0.145  1.00  0.00     0.209 HD
ENDBRANCH  42  43
ENDBRANCH  40  42
ENDBRANCH  32  36
ENDBRANCH   8  29
BRANCH   4  45
HETATM   45  N5  UNL     1     105.558  29.839   0.044  1.00  0.00    -0.234 N 
ATOM     46  H52 UNL     1     105.777  30.502  -0.699  1.00  0.00     0.174 HD
ATOM     47  H51 UNL     1     105.413  30.165   1.000  1.00  0.00     0.174 HD
ENDBRANCH   4  45
BRANCH   7  48
HETATM   48  N7  UNL     1     107.233  25.659   0.351  1.00  0.00    -0.383 N 
ATOM     49  H72 UNL     1     107.176  25.377   1.329  1.00  0.00     0.157 HD
ATOM     50  H71 UNL     1     107.965  25.343  -0.285  1.00  0.00     0.157 HD
ENDBRANCH   7  48
TORSDOF 11
ENDMDL
