MODEL 1
REMARK VINA RESULT: -7.583081511      0.000      0.000
REMARK  14 active torsions:
REMARK  status: ('A' for Active; 'I' for Inactive)
REMARK    1  A    between atoms: C2_5  and  C3_6 
REMARK    2  A    between atoms: C3_6  and  C4_7 
REMARK    3  A    between atoms: C4_7  and  O1_8 
REMARK    4  A    between atoms: C4_7  and  N3_10 
REMARK    5  A    between atoms: N3_10  and  C5_12 
REMARK    6  A    between atoms: C7_19  and  C8_20 
REMARK    7  A    between atoms: N7_23  and  C9_24 
REMARK    8  A    between atoms: C9_24  and  O2_25 
REMARK    9  A    between atoms: C9_24  and  C10_27 
REMARK   10  A    between atoms: C10_27  and  O3_28 
REMARK   11  A    between atoms: C12_33  and  O5_34 
REMARK   12  A    between atoms: C13_36  and  O6_37 
REMARK   13  A    between atoms: C14_39  and  N8_40 
REMARK   14  A    between atoms: N8_40  and  N9_42 
ROOT
HETATM    1  C5  UNL     1     101.933  24.481  -2.284  1.00  0.00     0.145 A 
HETATM    2  N4  UNL     1     103.267  24.417  -2.194  1.00  0.00    -0.326 N 
ATOM      3  H4  UNL     1     103.735  23.598  -2.582  1.00  0.00     0.169 HD
HETATM    4  C6  UNL     1     104.023  25.364  -1.625  1.00  0.00     0.116 A 
HETATM    5  N5  UNL     1     105.318  25.231  -1.576  1.00  0.00    -0.385 N 
ATOM      6  H51 UNL     1     105.894  25.953  -1.142  1.00  0.00     0.157 HD
ATOM      7  H52 UNL     1     105.730  24.390  -1.979  1.00  0.00     0.157 HD
HETATM    8  C7  UNL     1     103.469  26.495  -1.081  1.00  0.00     0.076 A 
HETATM    9  C12 UNL     1     102.127  26.604  -1.151  1.00  0.00     0.119 A 
HETATM   10  C13 UNL     1     101.332  25.633  -1.736  1.00  0.00     0.144 A 
ENDROOT
BRANCH   1  11
HETATM   11  N3  UNL     1     101.115  23.505  -2.928  1.00  0.00    -0.324 N 
ATOM     12  H3  UNL     1     100.999  23.664  -3.929  1.00  0.00     0.169 HD
BRANCH  11  13
HETATM   13  C4  UNL     1     100.450  22.387  -2.465  1.00  0.00     0.122 C 
BRANCH  13  14
HETATM   14  C3  UNL     1     100.507  21.669  -1.211  1.00  0.00     0.146 C 
BRANCH  14  15
HETATM   15  C2  UNL     1     101.842  21.542  -0.590  1.00  0.00     0.081 A 
HETATM   16  N2  UNL     1     102.850  20.722  -1.005  1.00  0.00    -0.284 N 
HETATM   17  N1  UNL     1     103.891  20.831  -0.229  1.00  0.00    -0.237 N 
ATOM     18  H2  UNL     1     102.795  20.104  -1.814  1.00  0.00     0.188 HD
HETATM   19  C1  UNL     1     105.152  20.101  -0.379  1.00  0.00     0.200 C 
HETATM   20  N10 UNL     1     103.595  21.710   0.693  1.00  0.00    -0.266 N 
HETATM   21  C14 UNL     1     102.324  22.192   0.521  1.00  0.00     0.160 A 
ATOM     22  H10 UNL     1     104.226  21.997   1.440  1.00  0.00     0.190 HD
BRANCH  21  23
HETATM   23  N8  UNL     1     101.706  23.174   1.332  1.00  0.00    -0.289 N 
ATOM     24  H8  UNL     1     100.757  23.038   1.677  1.00  0.00     0.188 HD
BRANCH  23  25
HETATM   25  N9  UNL     1     102.418  24.331   1.652  1.00  0.00    -0.344 N 
ATOM     26  H92 UNL     1     102.928  24.827   0.920  1.00  0.00     0.176 HD
ATOM     27  H91 UNL     1     102.414  24.662   2.617  1.00  0.00     0.176 HD
ENDBRANCH  23  25
ENDBRANCH  21  23
ENDBRANCH  14  15
ENDBRANCH  13  14
BRANCH  13  28
HETATM   28  O1  UNL     1      99.601  21.881  -3.328  1.00  0.00    -0.349 OA
ATOM     29  H1  UNL     1      99.656  22.269  -4.193  1.00  0.00     0.219 HD
ENDBRANCH  13  28
ENDBRANCH  11  13
ENDBRANCH   1  11
BRANCH  10  30
HETATM   30  O6  UNL     1      99.973  25.789  -1.778  1.00  0.00    -0.355 OA
ATOM     31  H6  UNL     1      99.584  26.449  -2.339  1.00  0.00     0.218 HD
ENDBRANCH  10  30
BRANCH   9  32
HETATM   32  O5  UNL     1     101.491  27.727  -0.621  1.00  0.00    -0.357 OA
ATOM     33  H5  UNL     1     100.854  28.201  -1.143  1.00  0.00     0.218 HD
ENDBRANCH   9  32
BRANCH   8  34
HETATM   34  C8  UNL     1     104.344  27.523  -0.452  1.00  0.00     0.124 A 
HETATM   35  N6  UNL     1     104.551  28.676  -1.011  1.00  0.00    -0.284 N 
HETATM   36  N7  UNL     1     105.320  29.553  -0.436  1.00  0.00    -0.225 N 
ATOM     37  H6  UNL     1     104.110  28.894  -1.904  1.00  0.00     0.188 HD
HETATM   38  S1  UNL     1     105.801  28.758   0.971  1.00  0.00     0.052 SA
HETATM   39  C11 UNL     1     104.961  27.280   0.745  1.00  0.00     0.259 A 
HETATM   40  O4  UNL     1     104.921  26.237   1.488  1.00  0.00    -0.276 OA
BRANCH  36  41
HETATM   41  C9  UNL     1     105.662  30.909  -0.921  1.00  0.00     0.272 C 
BRANCH  41  42
HETATM   42  O2  UNL     1     106.773  30.744  -1.744  1.00  0.00    -0.372 OA
ATOM     43  H2  UNL     1     107.215  31.585  -1.751  1.00  0.00     0.212 HD
ENDBRANCH  41  42
BRANCH  41  44
HETATM   44  C10 UNL     1     104.510  31.342  -1.799  1.00  0.00     0.219 C 
BRANCH  44  45
HETATM   45  O3  UNL     1     104.477  30.685  -3.019  1.00  0.00    -0.396 OA
ATOM     46  H3  UNL     1     103.689  30.865  -3.519  1.00  0.00     0.209 HD
ENDBRANCH  44  45
ENDBRANCH  41  44
ENDBRANCH  36  41
ENDBRANCH   8  34
TORSDOF 14
ENDMDL
MODEL 2
REMARK VINA RESULT: -7.498978232      1.255      1.397
REMARK  14 active torsions:
REMARK  status: ('A' for Active; 'I' for Inactive)
REMARK    1  A    between atoms: C2_5  and  C3_6 
REMARK    2  A    between atoms: C3_6  and  C4_7 
REMARK    3  A    between atoms: C4_7  and  O1_8 
REMARK    4  A    between atoms: C4_7  and  N3_10 
REMARK    5  A    between atoms: N3_10  and  C5_12 
REMARK    6  A    between atoms: C7_19  and  C8_20 
REMARK    7  A    between atoms: N7_23  and  C9_24 
REMARK    8  A    between atoms: C9_24  and  O2_25 
REMARK    9  A    between atoms: C9_24  and  C10_27 
REMARK   10  A    between atoms: C10_27  and  O3_28 
REMARK   11  A    between atoms: C12_33  and  O5_34 
REMARK   12  A    between atoms: C13_36  and  O6_37 
REMARK   13  A    between atoms: C14_39  and  N8_40 
REMARK   14  A    between atoms: N8_40  and  N9_42 
ROOT
HETATM    1  C5  UNL     1     102.038  24.680  -2.113  1.00  0.00     0.145 A 
HETATM    2  N4  UNL     1     103.376  24.655  -2.077  1.00  0.00    -0.326 N 
ATOM      3  H4  UNL     1     103.850  23.839  -2.464  1.00  0.00     0.169 HD
HETATM    4  C6  UNL     1     104.128  25.636  -1.563  1.00  0.00     0.116 A 
HETATM    5  N5  UNL     1     105.427  25.540  -1.565  1.00  0.00    -0.385 N 
ATOM      6  H51 UNL     1     106.000  26.287  -1.174  1.00  0.00     0.157 HD
ATOM      7  H52 UNL     1     105.845  24.700  -1.965  1.00  0.00     0.157 HD
HETATM    8  C7  UNL     1     103.565  26.765  -1.025  1.00  0.00     0.076 A 
HETATM    9  C12 UNL     1     102.218  26.836  -1.041  1.00  0.00     0.119 A 
HETATM   10  C13 UNL     1     101.428  25.829  -1.569  1.00  0.00     0.144 A 
ENDROOT
BRANCH   1  11
HETATM   11  N3  UNL     1     101.222  23.666  -2.699  1.00  0.00    -0.324 N 
ATOM     12  H3  UNL     1     101.351  23.567  -3.705  1.00  0.00     0.169 HD
BRANCH  11  13
HETATM   13  C4  UNL     1     100.293  22.791  -2.172  1.00  0.00     0.122 C 
BRANCH  13  14
HETATM   14  C3  UNL     1      99.849  22.539  -0.819  1.00  0.00     0.146 C 
BRANCH  14  15
HETATM   15  C2  UNL     1     100.575  21.487  -0.077  1.00  0.00     0.081 A 
HETATM   16  N2  UNL     1     100.216  20.174   0.018  1.00  0.00    -0.284 N 
HETATM   17  N1  UNL     1     101.056  19.513   0.763  1.00  0.00    -0.237 N 
ATOM     18  H2  UNL     1      99.399  19.765  -0.434  1.00  0.00     0.188 HD
HETATM   19  C1  UNL     1     100.981  18.085   1.079  1.00  0.00     0.200 C 
HETATM   20  N10 UNL     1     101.967  20.361   1.163  1.00  0.00    -0.266 N 
HETATM   21  C14 UNL     1     101.721  21.615   0.670  1.00  0.00     0.160 A 
ATOM     22  H10 UNL     1     102.756  20.121   1.763  1.00  0.00     0.190 HD
BRANCH  21  23
HETATM   23  N8  UNL     1     102.530  22.755   0.894  1.00  0.00    -0.289 N 
ATOM     24  H8  UNL     1     103.455  22.826   0.471  1.00  0.00     0.188 HD
BRANCH  23  25
HETATM   25  N9  UNL     1     102.041  23.781   1.705  1.00  0.00    -0.344 N 
ATOM     26  H92 UNL     1     102.092  24.747   1.380  1.00  0.00     0.176 HD
ATOM     27  H91 UNL     1     101.639  23.544   2.612  1.00  0.00     0.176 HD
ENDBRANCH  23  25
ENDBRANCH  21  23
ENDBRANCH  14  15
ENDBRANCH  13  14
BRANCH  13  28
HETATM   28  O1  UNL     1      99.697  22.046  -3.074  1.00  0.00    -0.349 OA
ATOM     29  H1  UNL     1      99.116  22.530  -3.648  1.00  0.00     0.219 HD
ENDBRANCH  13  28
ENDBRANCH  11  13
ENDBRANCH   1  11
BRANCH  10  30
HETATM   30  O6  UNL     1     100.065  25.947  -1.558  1.00  0.00    -0.355 OA
ATOM     31  H6  UNL     1      99.550  25.631  -2.291  1.00  0.00     0.218 HD
ENDBRANCH  10  30
BRANCH   9  32
HETATM   32  O5  UNL     1     101.573  27.954  -0.513  1.00  0.00    -0.357 OA
ATOM     33  H5  UNL     1     101.616  28.786  -0.969  1.00  0.00     0.218 HD
ENDBRANCH   9  32
BRANCH   8  34
HETATM   34  C8  UNL     1     104.436  27.832  -0.458  1.00  0.00     0.124 A 
HETATM   35  N6  UNL     1     104.554  28.990  -1.031  1.00  0.00    -0.284 N 
HETATM   36  N7  UNL     1     105.322  29.902  -0.510  1.00  0.00    -0.225 N 
ATOM     37  H6  UNL     1     104.043  29.186  -1.891  1.00  0.00     0.188 HD
HETATM   38  S1  UNL     1     105.932  29.134   0.861  1.00  0.00     0.052 SA
HETATM   39  C11 UNL     1     105.143  27.620   0.695  1.00  0.00     0.259 A 
HETATM   40  O4  UNL     1     105.199  26.579   1.440  1.00  0.00    -0.276 OA
BRANCH  36  41
HETATM   41  C9  UNL     1     105.571  31.269  -1.018  1.00  0.00     0.272 C 
BRANCH  41  42
HETATM   42  O2  UNL     1     106.720  31.710  -0.366  1.00  0.00    -0.372 OA
ATOM     43  H2  UNL     1     106.763  31.211   0.442  1.00  0.00     0.212 HD
ENDBRANCH  41  42
BRANCH  41  44
HETATM   44  C10 UNL     1     105.916  31.115  -2.483  1.00  0.00     0.219 C 
BRANCH  44  45
HETATM   45  O3  UNL     1     104.833  30.741  -3.262  1.00  0.00    -0.396 OA
ATOM     46  H3  UNL     1     104.115  30.378  -2.755  1.00  0.00     0.209 HD
ENDBRANCH  44  45
ENDBRANCH  41  44
ENDBRANCH  36  41
ENDBRANCH   8  34
TORSDOF 14
ENDMDL
MODEL 3
REMARK VINA RESULT: -7.372636092      2.370      3.311
REMARK  14 active torsions:
REMARK  status: ('A' for Active; 'I' for Inactive)
REMARK    1  A    between atoms: C2_5  and  C3_6 
REMARK    2  A    between atoms: C3_6  and  C4_7 
REMARK    3  A    between atoms: C4_7  and  O1_8 
REMARK    4  A    between atoms: C4_7  and  N3_10 
REMARK    5  A    between atoms: N3_10  and  C5_12 
REMARK    6  A    between atoms: C7_19  and  C8_20 
REMARK    7  A    between atoms: N7_23  and  C9_24 
REMARK    8  A    between atoms: C9_24  and  O2_25 
REMARK    9  A    between atoms: C9_24  and  C10_27 
REMARK   10  A    between atoms: C10_27  and  O3_28 
REMARK   11  A    between atoms: C12_33  and  O5_34 
REMARK   12  A    between atoms: C13_36  and  O6_37 
REMARK   13  A    between atoms: C14_39  and  N8_40 
REMARK   14  A    between atoms: N8_40  and  N9_42 
ROOT
HETATM    1  C5  UNL     1     103.158  25.837   0.981  1.00  0.00     0.145 A 
HETATM    2  N4  UNL     1     104.326  26.396   1.320  1.00  0.00    -0.326 N 
ATOM      3  H4  UNL     1     104.749  26.123   2.208  1.00  0.00     0.169 HD
HETATM    4  C6  UNL     1     104.972  27.293   0.565  1.00  0.00     0.116 A 
HETATM    5  N5  UNL     1     106.108  27.793   0.962  1.00  0.00    -0.385 N 
ATOM      6  H51 UNL     1     106.600  28.476   0.386  1.00  0.00     0.157 HD
ATOM      7  H52 UNL     1     106.481  27.483   1.859  1.00  0.00     0.157 HD
HETATM    8  C7  UNL     1     104.470  27.710  -0.642  1.00  0.00     0.076 A 
HETATM    9  C12 UNL     1     103.295  27.171  -1.026  1.00  0.00     0.119 A 
HETATM   10  C13 UNL     1     102.616  26.244  -0.255  1.00  0.00     0.144 A 
ENDROOT
BRANCH   1  11
HETATM   11  N3  UNL     1     102.479  24.846   1.751  1.00  0.00    -0.324 N 
ATOM     12  H3  UNL     1     102.223  25.159   2.687  1.00  0.00     0.169 HD
BRANCH  11  13
HETATM   13  C4  UNL     1     102.101  23.546   1.481  1.00  0.00     0.122 C 
BRANCH  13  14
HETATM   14  C3  UNL     1     102.483  22.615   0.442  1.00  0.00     0.146 C 
BRANCH  14  15
HETATM   15  C2  UNL     1     101.480  21.592   0.079  1.00  0.00     0.081 A 
HETATM   16  N2  UNL     1     101.448  20.302   0.522  1.00  0.00    -0.284 N 
HETATM   17  N1  UNL     1     100.448  19.653  -0.003  1.00  0.00    -0.237 N 
ATOM     18  H2  UNL     1     102.117  19.900   1.177  1.00  0.00     0.188 HD
HETATM   19  C1  UNL     1     100.108  18.251   0.251  1.00  0.00     0.200 C 
HETATM   20  N10 UNL     1      99.814  20.487  -0.786  1.00  0.00    -0.266 N 
HETATM   21  C14 UNL     1     100.413  21.719  -0.778  1.00  0.00     0.160 A 
ATOM     22  H10 UNL     1      98.985  20.250  -1.330  1.00  0.00     0.190 HD
BRANCH  21  23
HETATM   23  N8  UNL     1      99.962  22.851  -1.497  1.00  0.00    -0.289 N 
ATOM     24  H8  UNL     1     100.392  23.106  -2.386  1.00  0.00     0.188 HD
BRANCH  23  25
HETATM   25  N9  UNL     1      98.919  23.614  -0.971  1.00  0.00    -0.344 N 
ATOM     26  H92 UNL     1      98.872  24.613  -1.175  1.00  0.00     0.176 HD
ATOM     27  H91 UNL     1      98.218  23.156  -0.388  1.00  0.00     0.176 HD
ENDBRANCH  23  25
ENDBRANCH  21  23
ENDBRANCH  14  15
ENDBRANCH  13  14
BRANCH  13  28
HETATM   28  O1  UNL     1     101.227  23.061   2.331  1.00  0.00    -0.349 OA
ATOM     29  H1  UNL     1     100.331  23.321   2.151  1.00  0.00     0.219 HD
ENDBRANCH  13  28
ENDBRANCH  11  13
ENDBRANCH   1  11
BRANCH  10  30
HETATM   30  O6  UNL     1     101.424  25.729  -0.688  1.00  0.00    -0.355 OA
ATOM     31  H6  UNL     1     101.224  24.810  -0.560  1.00  0.00     0.218 HD
ENDBRANCH  10  30
BRANCH   9  32
HETATM   32  O5  UNL     1     102.721  27.545  -2.241  1.00  0.00    -0.357 OA
ATOM     33  H5  UNL     1     103.142  27.303  -3.058  1.00  0.00     0.218 HD
ENDBRANCH   9  32
BRANCH   8  34
HETATM   34  C8  UNL     1     105.216  28.713  -1.451  1.00  0.00     0.124 A 
HETATM   35  N6  UNL     1     105.079  29.988  -1.250  1.00  0.00    -0.284 N 
HETATM   36  N7  UNL     1     105.747  30.840  -1.972  1.00  0.00    -0.225 N 
ATOM     37  H6  UNL     1     104.446  30.323  -0.524  1.00  0.00     0.188 HD
HETATM   38  S1  UNL     1     106.630  29.839  -3.002  1.00  0.00     0.052 SA
HETATM   39  C11 UNL     1     106.079  28.317  -2.437  1.00  0.00     0.259 A 
HETATM   40  O4  UNL     1     106.386  27.136  -2.828  1.00  0.00    -0.276 OA
BRANCH  36  41
HETATM   41  C9  UNL     1     105.720  32.316  -1.880  1.00  0.00     0.272 C 
BRANCH  41  42
HETATM   42  O2  UNL     1     105.658  32.773  -3.195  1.00  0.00    -0.372 OA
ATOM     43  H2  UNL     1     104.965  33.422  -3.208  1.00  0.00     0.212 HD
ENDBRANCH  41  42
BRANCH  41  44
HETATM   44  C10 UNL     1     104.407  32.671  -1.218  1.00  0.00     0.219 C 
BRANCH  44  45
HETATM   45  O3  UNL     1     103.301  32.264  -1.947  1.00  0.00    -0.396 OA
ATOM     46  H3  UNL     1     102.605  31.910  -1.405  1.00  0.00     0.209 HD
ENDBRANCH  44  45
ENDBRANCH  41  44
ENDBRANCH  36  41
ENDBRANCH   8  34
TORSDOF 14
ENDMDL
MODEL 4
REMARK VINA RESULT: -7.306161892      3.643      9.195
REMARK  14 active torsions:
REMARK  status: ('A' for Active; 'I' for Inactive)
REMARK    1  A    between atoms: C2_5  and  C3_6 
REMARK    2  A    between atoms: C3_6  and  C4_7 
REMARK    3  A    between atoms: C4_7  and  O1_8 
REMARK    4  A    between atoms: C4_7  and  N3_10 
REMARK    5  A    between atoms: N3_10  and  C5_12 
REMARK    6  A    between atoms: C7_19  and  C8_20 
REMARK    7  A    between atoms: N7_23  and  C9_24 
REMARK    8  A    between atoms: C9_24  and  O2_25 
REMARK    9  A    between atoms: C9_24  and  C10_27 
REMARK   10  A    between atoms: C10_27  and  O3_28 
REMARK   11  A    between atoms: C12_33  and  O5_34 
REMARK   12  A    between atoms: C13_36  and  O6_37 
REMARK   13  A    between atoms: C14_39  and  N8_40 
REMARK   14  A    between atoms: N8_40  and  N9_42 
ROOT
HETATM    1  C5  UNL     1     104.380  29.063  -0.553  1.00  0.00     0.145 A 
HETATM    2  N4  UNL     1     103.447  28.564  -1.374  1.00  0.00    -0.326 N 
ATOM      3  H4  UNL     1     102.974  29.207  -2.010  1.00  0.00     0.169 HD
HETATM    4  C6  UNL     1     103.099  27.272  -1.412  1.00  0.00     0.116 A 
HETATM    5  N5  UNL     1     102.182  26.861  -2.241  1.00  0.00    -0.385 N 
ATOM      6  H51 UNL     1     101.916  25.877  -2.270  1.00  0.00     0.157 HD
ATOM      7  H52 UNL     1     101.743  27.551  -2.852  1.00  0.00     0.157 HD
HETATM    8  C7  UNL     1     103.689  26.345  -0.590  1.00  0.00     0.076 A 
HETATM    9  C12 UNL     1     104.636  26.802   0.254  1.00  0.00     0.119 A 
HETATM   10  C13 UNL     1     105.006  28.135   0.304  1.00  0.00     0.144 A 
ENDROOT
BRANCH   1  11
HETATM   11  N3  UNL     1     104.797  30.427  -0.532  1.00  0.00    -0.324 N 
ATOM     12  H3  UNL     1     105.418  30.654   0.244  1.00  0.00     0.169 HD
BRANCH  11  13
HETATM   13  C4  UNL     1     104.525  31.502  -1.355  1.00  0.00     0.122 C 
BRANCH  13  14
HETATM   14  C3  UNL     1     104.605  32.932  -1.150  1.00  0.00     0.146 C 
BRANCH  14  15
HETATM   15  C2  UNL     1     103.425  33.719  -1.567  1.00  0.00     0.081 A 
HETATM   16  N2  UNL     1     102.181  33.227  -1.832  1.00  0.00    -0.284 N 
HETATM   17  N1  UNL     1     101.370  34.178  -2.197  1.00  0.00    -0.237 N 
ATOM     18  H2  UNL     1     101.920  32.244  -1.755  1.00  0.00     0.188 HD
HETATM   19  C1  UNL     1      99.959  34.013  -2.553  1.00  0.00     0.200 C 
HETATM   20  N10 UNL     1     102.051  35.294  -2.178  1.00  0.00    -0.266 N 
HETATM   21  C14 UNL     1     103.346  35.072  -1.792  1.00  0.00     0.160 A 
ATOM     22  H10 UNL     1     101.669  36.208  -2.420  1.00  0.00     0.190 HD
BRANCH  21  23
HETATM   23  N8  UNL     1     104.339  36.071  -1.645  1.00  0.00    -0.289 N 
ATOM     24  H8  UNL     1     104.924  36.102  -0.811  1.00  0.00     0.188 HD
BRANCH  23  25
HETATM   25  N9  UNL     1     104.503  37.014  -2.661  1.00  0.00    -0.344 N 
ATOM     26  H92 UNL     1     104.568  36.704  -3.631  1.00  0.00     0.176 HD
ATOM     27  H91 UNL     1     104.555  38.002  -2.413  1.00  0.00     0.176 HD
ENDBRANCH  23  25
ENDBRANCH  21  23
ENDBRANCH  14  15
ENDBRANCH  13  14
BRANCH  13  28
HETATM   28  O1  UNL     1     104.119  31.161  -2.555  1.00  0.00    -0.349 OA
ATOM     29  H1  UNL     1     104.186  30.230  -2.733  1.00  0.00     0.219 HD
ENDBRANCH  13  28
ENDBRANCH  11  13
ENDBRANCH   1  11
BRANCH  10  30
HETATM   30  O6  UNL     1     105.971  28.548   1.182  1.00  0.00    -0.355 OA
ATOM     31  H6  UNL     1     106.436  27.915   1.715  1.00  0.00     0.218 HD
ENDBRANCH  10  30
BRANCH   9  32
HETATM   32  O5  UNL     1     105.282  25.919   1.119  1.00  0.00    -0.357 OA
ATOM     33  H5  UNL     1     106.176  26.090   1.389  1.00  0.00     0.218 HD
ENDBRANCH   9  32
BRANCH   8  34
HETATM   34  C8  UNL     1     103.269  24.918  -0.659  1.00  0.00     0.124 A 
HETATM   35  N6  UNL     1     102.556  24.373   0.278  1.00  0.00    -0.284 N 
HETATM   36  N7  UNL     1     102.203  23.123   0.188  1.00  0.00    -0.225 N 
ATOM     37  H6  UNL     1     102.272  24.924   1.087  1.00  0.00     0.188 HD
HETATM   38  S1  UNL     1     102.888  22.650  -1.277  1.00  0.00     0.052 SA
HETATM   39  C11 UNL     1     103.624  24.133  -1.723  1.00  0.00     0.259 A 
HETATM   40  O4  UNL     1     104.314  24.428  -2.761  1.00  0.00    -0.276 OA
BRANCH  36  41
HETATM   41  C9  UNL     1     101.394  22.343   1.151  1.00  0.00     0.272 C 
BRANCH  41  42
HETATM   42  O2  UNL     1     101.111  23.217   2.198  1.00  0.00    -0.372 OA
ATOM     43  H2  UNL     1     101.451  22.798   2.980  1.00  0.00     0.212 HD
ENDBRANCH  41  42
BRANCH  41  44
HETATM   44  C10 UNL     1     100.088  22.039   0.452  1.00  0.00     0.219 C 
BRANCH  44  45
HETATM   45  O3  UNL     1      99.500  23.158  -0.115  1.00  0.00    -0.396 OA
ATOM     46  H3  UNL     1      98.734  22.953  -0.640  1.00  0.00     0.209 HD
ENDBRANCH  44  45
ENDBRANCH  41  44
ENDBRANCH  36  41
ENDBRANCH   8  34
TORSDOF 14
ENDMDL
MODEL 5
REMARK VINA RESULT: -7.225988935      2.040      2.316
REMARK  14 active torsions:
REMARK  status: ('A' for Active; 'I' for Inactive)
REMARK    1  A    between atoms: C2_5  and  C3_6 
REMARK    2  A    between atoms: C3_6  and  C4_7 
REMARK    3  A    between atoms: C4_7  and  O1_8 
REMARK    4  A    between atoms: C4_7  and  N3_10 
REMARK    5  A    between atoms: N3_10  and  C5_12 
REMARK    6  A    between atoms: C7_19  and  C8_20 
REMARK    7  A    between atoms: N7_23  and  C9_24 
REMARK    8  A    between atoms: C9_24  and  O2_25 
REMARK    9  A    between atoms: C9_24  and  C10_27 
REMARK   10  A    between atoms: C10_27  and  O3_28 
REMARK   11  A    between atoms: C12_33  and  O5_34 
REMARK   12  A    between atoms: C13_36  and  O6_37 
REMARK   13  A    between atoms: C14_39  and  N8_40 
REMARK   14  A    between atoms: N8_40  and  N9_42 
ROOT
HETATM    1  C5  UNL     1     103.133  25.084  -1.409  1.00  0.00     0.145 A 
HETATM    2  N4  UNL     1     104.450  25.299  -1.521  1.00  0.00    -0.326 N 
ATOM      3  H4  UNL     1     105.037  24.526  -1.835  1.00  0.00     0.169 HD
HETATM    4  C6  UNL     1     105.042  26.467  -1.244  1.00  0.00     0.116 A 
HETATM    5  N5  UNL     1     106.331  26.600  -1.379  1.00  0.00    -0.385 N 
ATOM      6  H51 UNL     1     106.782  27.490  -1.169  1.00  0.00     0.157 HD
ATOM      7  H52 UNL     1     106.867  25.792  -1.696  1.00  0.00     0.157 HD
HETATM    8  C7  UNL     1     104.322  27.554  -0.818  1.00  0.00     0.076 A 
HETATM    9  C12 UNL     1     102.990  27.385  -0.693  1.00  0.00     0.119 A 
HETATM   10  C13 UNL     1     102.364  26.182  -0.974  1.00  0.00     0.144 A 
ENDROOT
BRANCH   1  11
HETATM   11  N3  UNL     1     102.479  23.860  -1.743  1.00  0.00    -0.324 N 
ATOM     12  H3  UNL     1     102.792  23.064  -1.188  1.00  0.00     0.169 HD
BRANCH  11  13
HETATM   13  C4  UNL     1     101.508  23.541  -2.670  1.00  0.00     0.122 C 
BRANCH  13  14
HETATM   14  C3  UNL     1     100.783  22.319  -2.942  1.00  0.00     0.146 C 
BRANCH  14  15
HETATM   15  C2  UNL     1     100.582  21.409  -1.794  1.00  0.00     0.081 A 
HETATM   16  N2  UNL     1     101.031  20.124  -1.696  1.00  0.00    -0.284 N 
HETATM   17  N1  UNL     1     100.668  19.587  -0.566  1.00  0.00    -0.237 N 
ATOM     18  H2  UNL     1     101.578  19.647  -2.413  1.00  0.00     0.188 HD
HETATM   19  C1  UNL     1     100.977  18.225  -0.126  1.00  0.00     0.200 C 
HETATM   20  N10 UNL     1      99.988  20.491   0.089  1.00  0.00    -0.266 N 
HETATM   21  C14 UNL     1      99.899  21.654  -0.628  1.00  0.00     0.160 A 
ATOM     22  H10 UNL     1      99.578  20.348   1.012  1.00  0.00     0.190 HD
BRANCH  21  23
HETATM   23  N8  UNL     1      99.251  22.836  -0.192  1.00  0.00    -0.289 N 
ATOM     24  H8  UNL     1      99.148  23.033   0.802  1.00  0.00     0.188 HD
BRANCH  23  25
HETATM   25  N9  UNL     1      98.757  23.726  -1.147  1.00  0.00    -0.344 N 
ATOM     26  H92 UNL     1      99.053  24.702  -1.127  1.00  0.00     0.176 HD
ATOM     27  H91 UNL     1      98.105  23.381  -1.852  1.00  0.00     0.176 HD
ENDBRANCH  23  25
ENDBRANCH  21  23
ENDBRANCH  14  15
ENDBRANCH  13  14
BRANCH  13  28
HETATM   28  O1  UNL     1     101.176  24.539  -3.456  1.00  0.00    -0.349 OA
ATOM     29  H1  UNL     1     101.617  25.354  -3.247  1.00  0.00     0.219 HD
ENDBRANCH  13  28
ENDBRANCH  11  13
ENDBRANCH   1  11
BRANCH  10  30
HETATM   30  O6  UNL     1     101.009  26.061  -0.827  1.00  0.00    -0.355 OA
ATOM     31  H6  UNL     1     100.443  26.056  -1.589  1.00  0.00     0.218 HD
ENDBRANCH  10  30
BRANCH   9  32
HETATM   32  O5  UNL     1     102.190  28.445  -0.265  1.00  0.00    -0.357 OA
ATOM     33  H5  UNL     1     101.471  28.284   0.334  1.00  0.00     0.218 HD
ENDBRANCH   9  32
BRANCH   8  34
HETATM   34  C8  UNL     1     105.019  28.835  -0.516  1.00  0.00     0.124 A 
HETATM   35  N6  UNL     1     104.892  29.876  -1.281  1.00  0.00    -0.284 N 
HETATM   36  N7  UNL     1     105.513  30.982  -0.989  1.00  0.00    -0.225 N 
ATOM     37  H6  UNL     1     104.305  29.826  -2.114  1.00  0.00     0.188 HD
HETATM   38  S1  UNL     1     106.331  30.583   0.430  1.00  0.00     0.052 SA
HETATM   39  C11 UNL     1     105.819  28.954   0.588  1.00  0.00     0.259 A 
HETATM   40  O4  UNL     1     106.105  28.088   1.487  1.00  0.00    -0.276 OA
BRANCH  36  41
HETATM   41  C9  UNL     1     105.482  32.257  -1.738  1.00  0.00     0.272 C 
BRANCH  41  42
HETATM   42  O2  UNL     1     105.323  31.904  -3.076  1.00  0.00    -0.372 OA
ATOM     43  H2  UNL     1     105.557  30.985  -3.128  1.00  0.00     0.212 HD
ENDBRANCH  41  42
BRANCH  41  44
HETATM   44  C10 UNL     1     104.218  32.967  -1.305  1.00  0.00     0.219 C 
BRANCH  44  45
HETATM   45  O3  UNL     1     103.069  32.411  -1.844  1.00  0.00    -0.396 OA
ATOM     46  H3  UNL     1     102.331  32.423  -1.245  1.00  0.00     0.209 HD
ENDBRANCH  44  45
ENDBRANCH  41  44
ENDBRANCH  36  41
ENDBRANCH   8  34
TORSDOF 14
ENDMDL
