MODEL 1
REMARK VINA RESULT: -8.980882967      0.000      0.000
REMARK  15 active torsions:
REMARK  status: ('A' for Active; 'I' for Inactive)
REMARK    1  A    between atoms: C2_2  and  C3_3 
REMARK    2  A    between atoms: C3_3  and  C5_5 
REMARK    3  A    between atoms: C5_5  and  N1_6 
REMARK    4  A    between atoms: C5_5  and  C21_28 
REMARK       I    between atoms: N1_6  and  C6_8 
REMARK    5  A    between atoms: C6_8  and  C7_10 
REMARK    6  A    between atoms: C7_10  and  N2_11 
REMARK    7  A    between atoms: C7_10  and  C16_22 
REMARK       I    between atoms: N2_11  and  C8_13 
REMARK    8  A    between atoms: C8_13  and  C9_15 
REMARK    9  A    between atoms: C16_22  and  O3_23 
REMARK   10  A    between atoms: C16_22  and  C18_25 
REMARK   11  A    between atoms: C21_28  and  O4_29 
REMARK   12  A    between atoms: C21_28  and  N3_31 
REMARK   13  A    between atoms: C22_32  and  C23_33 
REMARK       I    between atoms: C23_33  and  N4_35 
REMARK   14  A    between atoms: N4_35  and  C24_37 
REMARK   15  A    between atoms: C24_37  and  C25_38 
ROOT
HETATM    1  C5  UNL     1      18.615 -15.812  24.215  1.00  0.00     0.163 C 
ENDROOT
BRANCH   1   2
HETATM    2  C3  UNL     1      18.512 -15.306  25.688  1.00  0.00     0.012 C 
HETATM    3  C4  UNL     1      17.370 -16.069  26.325  1.00  0.00     0.012 C 
BRANCH   2   4
HETATM    4  C2  UNL     1      19.746 -15.560  26.488  1.00  0.00     0.002 C 
HETATM    5  C1  UNL     1      20.492 -14.276  26.810  1.00  0.00     0.005 C 
ENDBRANCH   2   4
ENDBRANCH   1   2
BRANCH   1   6
HETATM    6  N1  UNL     1      17.671 -16.983  24.216  1.00  0.00    -0.347 N 
HETATM    7  C6  UNL     1      18.201 -18.319  24.158  1.00  0.00     0.243 C 
HETATM    8  O1  UNL     1      19.486 -18.365  24.097  1.00  0.00    -0.271 OA
ATOM      9  H1  UNL     1      16.664 -16.832  24.259  1.00  0.00     0.163 HD
BRANCH   7  10
HETATM   10  C7  UNL     1      17.392 -19.509  24.183  1.00  0.00     0.205 C 
BRANCH  10  11
HETATM   11  N2  UNL     1      16.398 -19.349  23.142  1.00  0.00    -0.345 N 
HETATM   12  C8  UNL     1      16.452 -19.708  21.803  1.00  0.00     0.223 C 
HETATM   13  O2  UNL     1      17.423 -20.264  21.260  1.00  0.00    -0.273 OA
ATOM     14  H2  UNL     1      15.528 -18.906  23.438  1.00  0.00     0.163 HD
BRANCH  12  15
HETATM   15  C9  UNL     1      15.263 -19.413  20.924  1.00  0.00     0.082 C 
HETATM   16  C10 UNL     1      14.736 -18.007  21.015  1.00  0.00     0.019 C 
HETATM   17  C11 UNL     1      15.561 -17.671  19.761  1.00  0.00    -0.009 C 
HETATM   18  C12 UNL     1      14.691 -17.086  18.667  1.00  0.00     0.005 C 
HETATM   19  C15 UNL     1      15.677 -19.139  19.506  1.00  0.00     0.003 C 
HETATM   20  C13 UNL     1      14.486 -18.201  17.669  1.00  0.00     0.001 C 
HETATM   21  C14 UNL     1      14.562 -19.436  18.532  1.00  0.00     0.006 C 
ENDBRANCH  12  15
ENDBRANCH  10  11
BRANCH  10  22
HETATM   22  C16 UNL     1      16.353 -19.290  25.567  1.00  0.00     0.156 C 
BRANCH  22  23
HETATM   23  O3  UNL     1      15.629 -20.261  25.254  1.00  0.00    -0.388 OA
HETATM   24  C17 UNL     1      14.293 -20.387  25.139  1.00  0.00     0.202 C 
ENDBRANCH  22  23
BRANCH  22  25
HETATM   25  C18 UNL     1      17.296 -20.234  26.646  1.00  0.00     0.009 C 
HETATM   26  C19 UNL     1      18.318 -19.404  27.256  1.00  0.00     0.012 C 
HETATM   27  C20 UNL     1      16.251 -20.590  27.650  1.00  0.00     0.012 C 
ENDBRANCH  22  25
ENDBRANCH  10  22
ENDBRANCH   7  10
ENDBRANCH   1   6
BRANCH   1  28
HETATM   28  C21 UNL     1      18.046 -14.834  23.310  1.00  0.00     0.142 C 
BRANCH  28  29
HETATM   29  O4  UNL     1      16.764 -14.647  23.546  1.00  0.00    -0.348 OA
ATOM     30  H4  UNL     1      16.518 -13.737  23.428  1.00  0.00     0.219 HD
ENDBRANCH  28  29
BRANCH  28  31
HETATM   31  N3  UNL     1      18.574 -14.069  22.264  1.00  0.00    -0.318 N 
HETATM   32  C22 UNL     1      18.242 -12.864  21.566  1.00  0.00     0.087 C 
HETATM   33  C28 UNL     1      19.446 -12.585  20.742  1.00  0.00     0.048 A 
HETATM   34  C29 UNL     1      19.911 -12.951  19.469  1.00  0.00     0.019 A 
HETATM   35  C30 UNL     1      19.518 -14.063  20.232  1.00  0.00     0.024 A 
HETATM   36  C31 UNL     1      19.831 -14.565  21.587  1.00  0.00     0.036 C 
HETATM   37  C32 UNL     1      21.037 -14.055  22.264  1.00  0.00     0.039 C 
HETATM   38  C33 UNL     1      19.901 -16.055  21.533  1.00  0.00     0.039 C 
BRANCH  32  39
HETATM   39  C23 UNL     1      16.976 -12.596  20.966  1.00  0.00     0.265 C 
HETATM   40  O5  UNL     1      16.783 -11.812  20.027  1.00  0.00    -0.266 OA
HETATM   41  N4  UNL     1      15.760 -13.230  21.407  1.00  0.00    -0.338 N 
ATOM     42  H4  UNL     1      15.831 -13.878  22.192  1.00  0.00     0.164 HD
BRANCH  41  43
HETATM   43  C24 UNL     1      14.471 -13.033  20.844  1.00  0.00     0.112 A 
HETATM   44  C26 UNL     1      14.000 -13.471  19.534  1.00  0.00     0.043 A 
HETATM   45  C27 UNL     1      13.581 -14.247  20.773  1.00  0.00     0.043 A 
BRANCH  43  46
HETATM   46  C25 UNL     1      13.748 -11.833  21.428  1.00  0.00     0.259 C 
HETATM   47  N5  UNL     1      13.472 -10.738  20.600  1.00  0.00    -0.060 NA
HETATM   48  O6  UNL     1      13.397 -11.801  22.618  1.00  0.00    -0.274 OA
ENDBRANCH  43  46
ENDBRANCH  41  43
ENDBRANCH  32  39
ENDBRANCH  28  31
ENDBRANCH   1  28
TORSDOF 15
ENDMDL
MODEL 2
REMARK VINA RESULT: -8.840770788      1.981      7.189
REMARK  15 active torsions:
REMARK  status: ('A' for Active; 'I' for Inactive)
REMARK    1  A    between atoms: C2_2  and  C3_3 
REMARK    2  A    between atoms: C3_3  and  C5_5 
REMARK    3  A    between atoms: C5_5  and  N1_6 
REMARK    4  A    between atoms: C5_5  and  C21_28 
REMARK       I    between atoms: N1_6  and  C6_8 
REMARK    5  A    between atoms: C6_8  and  C7_10 
REMARK    6  A    between atoms: C7_10  and  N2_11 
REMARK    7  A    between atoms: C7_10  and  C16_22 
REMARK       I    between atoms: N2_11  and  C8_13 
REMARK    8  A    between atoms: C8_13  and  C9_15 
REMARK    9  A    between atoms: C16_22  and  O3_23 
REMARK   10  A    between atoms: C16_22  and  C18_25 
REMARK   11  A    between atoms: C21_28  and  O4_29 
REMARK   12  A    between atoms: C21_28  and  N3_31 
REMARK   13  A    between atoms: C22_32  and  C23_33 
REMARK       I    between atoms: C23_33  and  N4_35 
REMARK   14  A    between atoms: N4_35  and  C24_37 
REMARK   15  A    between atoms: C24_37  and  C25_38 
ROOT
HETATM    1  C5  UNL     1      18.920 -13.903  22.179  1.00  0.00     0.163 C 
ENDROOT
BRANCH   1   2
HETATM    2  C3  UNL     1      20.065 -14.170  21.153  1.00  0.00     0.012 C 
HETATM    3  C4  UNL     1      19.581 -15.280  20.246  1.00  0.00     0.012 C 
BRANCH   2   4
HETATM    4  C2  UNL     1      20.390 -12.984  20.306  1.00  0.00     0.002 C 
HETATM    5  C1  UNL     1      20.027 -13.207  18.848  1.00  0.00     0.005 C 
ENDBRANCH   2   4
ENDBRANCH   1   2
BRANCH   1   6
HETATM    6  N1  UNL     1      17.703 -14.357  21.418  1.00  0.00    -0.347 N 
HETATM    7  C6  UNL     1      16.637 -13.426  21.169  1.00  0.00     0.243 C 
HETATM    8  O1  UNL     1      16.847 -12.254  21.656  1.00  0.00    -0.271 OA
ATOM      9  H1  UNL     1      17.636 -15.318  21.082  1.00  0.00     0.163 HD
BRANCH   7  10
HETATM   10  C7  UNL     1      15.444 -13.745  20.429  1.00  0.00     0.205 C 
BRANCH  10  11
HETATM   11  N2  UNL     1      14.386 -12.931  20.988  1.00  0.00    -0.345 N 
HETATM   12  C8  UNL     1      13.615 -11.945  20.389  1.00  0.00     0.223 C 
HETATM   13  O2  UNL     1      13.719 -11.594  19.200  1.00  0.00    -0.273 OA
ATOM     14  H2  UNL     1      14.176 -13.108  21.971  1.00  0.00     0.163 HD
BRANCH  12  15
HETATM   15  C9  UNL     1      12.573 -11.236  21.216  1.00  0.00     0.082 C 
HETATM   16  C10 UNL     1      11.434 -12.099  21.683  1.00  0.00     0.019 C 
HETATM   17  C11 UNL     1      12.173 -12.263  23.023  1.00  0.00    -0.009 C 
HETATM   18  C12 UNL     1      11.301 -11.848  24.190  1.00  0.00     0.005 C 
HETATM   19  C15 UNL     1      13.010 -11.083  22.645  1.00  0.00     0.003 C 
HETATM   20  C13 UNL     1      11.801 -10.486  24.609  1.00  0.00     0.001 C 
HETATM   21  C14 UNL     1      12.328  -9.915  23.317  1.00  0.00     0.006 C 
ENDBRANCH  12  15
ENDBRANCH  10  11
BRANCH  10  22
HETATM   22  C16 UNL     1      14.946 -15.290  21.067  1.00  0.00     0.156 C 
BRANCH  22  23
HETATM   23  O3  UNL     1      13.734 -15.054  20.860  1.00  0.00    -0.388 OA
HETATM   24  C17 UNL     1      12.612 -15.637  21.322  1.00  0.00     0.202 C 
ENDBRANCH  22  23
BRANCH  22  25
HETATM   25  C18 UNL     1      15.115 -16.153  19.594  1.00  0.00     0.009 C 
HETATM   26  C19 UNL     1      15.845 -15.343  18.635  1.00  0.00     0.012 C 
HETATM   27  C20 UNL     1      15.962 -17.289  20.063  1.00  0.00     0.012 C 
ENDBRANCH  22  25
ENDBRANCH  10  22
ENDBRANCH   7  10
ENDBRANCH   1   6
BRANCH   1  28
HETATM   28  C21 UNL     1      19.047 -14.797  23.312  1.00  0.00     0.142 C 
BRANCH  28  29
HETATM   29  O4  UNL     1      17.957 -14.795  24.052  1.00  0.00    -0.348 OA
ATOM     30  H4  UNL     1      17.174 -14.851  23.517  1.00  0.00     0.219 HD
ENDBRANCH  28  29
BRANCH  28  31
HETATM   31  N3  UNL     1      20.069 -15.638  23.764  1.00  0.00    -0.318 N 
HETATM   32  C22 UNL     1      20.464 -17.003  23.595  1.00  0.00     0.087 C 
HETATM   33  C28 UNL     1      21.812 -17.065  24.218  1.00  0.00     0.048 A 
HETATM   34  C29 UNL     1      22.325 -17.291  25.504  1.00  0.00     0.019 A 
HETATM   35  C30 UNL     1      21.327 -16.303  25.495  1.00  0.00     0.024 A 
HETATM   36  C31 UNL     1      21.087 -15.065  24.724  1.00  0.00     0.036 C 
HETATM   37  C32 UNL     1      22.218 -14.458  23.999  1.00  0.00     0.039 C 
HETATM   38  C33 UNL     1      20.497 -14.045  25.641  1.00  0.00     0.039 C 
BRANCH  32  39
HETATM   39  C23 UNL     1      19.609 -18.127  23.799  1.00  0.00     0.265 C 
HETATM   40  O5  UNL     1      19.873 -19.292  23.473  1.00  0.00    -0.266 OA
HETATM   41  N4  UNL     1      18.317 -18.014  24.423  1.00  0.00    -0.338 N 
ATOM     42  H4  UNL     1      18.016 -17.081  24.705  1.00  0.00     0.164 HD
BRANCH  41  43
HETATM   43  C24 UNL     1      17.424 -19.088  24.682  1.00  0.00     0.112 A 
HETATM   44  C26 UNL     1      17.693 -20.298  25.451  1.00  0.00     0.043 A 
HETATM   45  C27 UNL     1      16.878 -19.180  26.083  1.00  0.00     0.043 A 
BRANCH  43  46
HETATM   46  C25 UNL     1      16.329 -19.211  23.638  1.00  0.00     0.259 C 
HETATM   47  N5  UNL     1      15.114 -18.545  23.845  1.00  0.00    -0.060 NA
HETATM   48  O6  UNL     1      16.485 -19.889  22.609  1.00  0.00    -0.274 OA
ENDBRANCH  43  46
ENDBRANCH  41  43
ENDBRANCH  32  39
ENDBRANCH  28  31
ENDBRANCH   1  28
TORSDOF 15
ENDMDL
MODEL 3
REMARK VINA RESULT: -8.802109919      2.380      6.026
REMARK  15 active torsions:
REMARK  status: ('A' for Active; 'I' for Inactive)
REMARK    1  A    between atoms: C2_2  and  C3_3 
REMARK    2  A    between atoms: C3_3  and  C5_5 
REMARK    3  A    between atoms: C5_5  and  N1_6 
REMARK    4  A    between atoms: C5_5  and  C21_28 
REMARK       I    between atoms: N1_6  and  C6_8 
REMARK    5  A    between atoms: C6_8  and  C7_10 
REMARK    6  A    between atoms: C7_10  and  N2_11 
REMARK    7  A    between atoms: C7_10  and  C16_22 
REMARK       I    between atoms: N2_11  and  C8_13 
REMARK    8  A    between atoms: C8_13  and  C9_15 
REMARK    9  A    between atoms: C16_22  and  O3_23 
REMARK   10  A    between atoms: C16_22  and  C18_25 
REMARK   11  A    between atoms: C21_28  and  O4_29 
REMARK   12  A    between atoms: C21_28  and  N3_31 
REMARK   13  A    between atoms: C22_32  and  C23_33 
REMARK       I    between atoms: C23_33  and  N4_35 
REMARK   14  A    between atoms: N4_35  and  C24_37 
REMARK   15  A    between atoms: C24_37  and  C25_38 
ROOT
HETATM    1  C5  UNL     1      17.004 -16.801  22.872  1.00  0.00     0.163 C 
ENDROOT
BRANCH   1   2
HETATM    2  C3  UNL     1      16.629 -17.110  24.355  1.00  0.00     0.012 C 
HETATM    3  C4  UNL     1      15.817 -18.388  24.336  1.00  0.00     0.012 C 
BRANCH   2   4
HETATM    4  C2  UNL     1      17.816 -17.324  25.234  1.00  0.00     0.002 C 
HETATM    5  C1  UNL     1      17.747 -16.489  26.501  1.00  0.00     0.005 C 
ENDBRANCH   2   4
ENDBRANCH   1   2
BRANCH   1   6
HETATM    6  N1  UNL     1      15.664 -16.859  22.189  1.00  0.00    -0.347 N 
HETATM    7  C6  UNL     1      15.581 -17.330  20.834  1.00  0.00     0.243 C 
HETATM    8  O1  UNL     1      16.718 -17.656  20.327  1.00  0.00    -0.271 OA
ATOM      9  H1  UNL     1      14.822 -16.567  22.684  1.00  0.00     0.163 HD
BRANCH   7  10
HETATM   10  C7  UNL     1      14.350 -17.453  20.097  1.00  0.00     0.205 C 
BRANCH  10  11
HETATM   11  N2  UNL     1      13.639 -16.206  20.279  1.00  0.00    -0.345 N 
HETATM   12  C8  UNL     1      13.822 -14.981  19.655  1.00  0.00     0.223 C 
HETATM   13  O2  UNL     1      14.679 -14.757  18.781  1.00  0.00    -0.273 OA
ATOM     14  H2  UNL     1      12.889 -16.232  20.972  1.00  0.00     0.163 HD
BRANCH  12  15
HETATM   15  C9  UNL     1      12.935 -13.826  20.046  1.00  0.00     0.082 C 
HETATM   16  C10 UNL     1      12.091 -14.057  21.269  1.00  0.00     0.019 C 
HETATM   17  C11 UNL     1      13.165 -13.318  22.088  1.00  0.00    -0.009 C 
HETATM   18  C12 UNL     1      12.570 -12.159  22.861  1.00  0.00     0.005 C 
HETATM   19  C15 UNL     1      13.697 -12.774  20.801  1.00  0.00     0.003 C 
HETATM   20  C13 UNL     1      12.959 -10.916  22.096  1.00  0.00     0.001 C 
HETATM   21  C14 UNL     1      13.048 -11.416  20.676  1.00  0.00     0.006 C 
ENDBRANCH  12  15
ENDBRANCH  10  11
BRANCH  10  22
HETATM   22  C16 UNL     1      13.351 -18.470  21.102  1.00  0.00     0.156 C 
BRANCH  22  23
HETATM   23  O3  UNL     1      12.396 -18.434  20.294  1.00  0.00    -0.388 OA
HETATM   24  C17 UNL     1      11.105 -18.081  20.443  1.00  0.00     0.202 C 
ENDBRANCH  22  23
BRANCH  22  25
HETATM   25  C18 UNL     1      13.931 -19.959  20.478  1.00  0.00     0.009 C 
HETATM   26  C19 UNL     1      15.020 -20.445  21.306  1.00  0.00     0.012 C 
HETATM   27  C20 UNL     1      12.717 -20.804  20.671  1.00  0.00     0.012 C 
ENDBRANCH  22  25
ENDBRANCH  10  22
ENDBRANCH   7  10
ENDBRANCH   1   6
BRANCH   1  28
HETATM   28  C21 UNL     1      17.464 -15.433  22.748  1.00  0.00     0.142 C 
BRANCH  28  29
HETATM   29  O4  UNL     1      16.766 -14.618  23.511  1.00  0.00    -0.348 OA
ATOM     30  H4  UNL     1      15.832 -14.743  23.390  1.00  0.00     0.219 HD
ENDBRANCH  28  29
BRANCH  28  31
HETATM   31  N3  UNL     1      18.475 -14.822  21.998  1.00  0.00    -0.318 N 
HETATM   32  C22 UNL     1      19.904 -14.844  21.940  1.00  0.00     0.087 C 
HETATM   33  C28 UNL     1      20.223 -14.097  20.695  1.00  0.00     0.048 A 
HETATM   34  C29 UNL     1      20.434 -12.755  20.343  1.00  0.00     0.019 A 
HETATM   35  C30 UNL     1      19.243 -12.935  21.065  1.00  0.00     0.024 A 
HETATM   36  C31 UNL     1      18.067 -13.822  20.940  1.00  0.00     0.036 C 
HETATM   37  C32 UNL     1      17.823 -14.486  19.646  1.00  0.00     0.039 C 
HETATM   38  C33 UNL     1      16.849 -13.049  21.323  1.00  0.00     0.039 C 
BRANCH  32  39
HETATM   39  C23 UNL     1      20.766 -14.630  23.056  1.00  0.00     0.265 C 
HETATM   40  O5  UNL     1      21.911 -14.161  22.995  1.00  0.00    -0.266 OA
HETATM   41  N4  UNL     1      20.378 -14.947  24.406  1.00  0.00    -0.338 N 
ATOM     42  H4  UNL     1      19.453 -15.357  24.540  1.00  0.00     0.164 HD
BRANCH  41  43
HETATM   43  C24 UNL     1      21.169 -14.739  25.567  1.00  0.00     0.112 A 
HETATM   44  C26 UNL     1      21.573 -13.463  26.147  1.00  0.00     0.043 A 
HETATM   45  C27 UNL     1      20.441 -14.249  26.791  1.00  0.00     0.043 A 
BRANCH  43  46
HETATM   46  C25 UNL     1      22.080 -15.913  25.880  1.00  0.00     0.259 C 
HETATM   47  N5  UNL     1      21.647 -16.883  26.793  1.00  0.00    -0.060 NA
HETATM   48  O6  UNL     1      23.195 -16.029  25.348  1.00  0.00    -0.274 OA
ENDBRANCH  43  46
ENDBRANCH  41  43
ENDBRANCH  32  39
ENDBRANCH  28  31
ENDBRANCH   1  28
TORSDOF 15
ENDMDL
MODEL 4
REMARK VINA RESULT: -8.664885501      2.106      2.979
REMARK  15 active torsions:
REMARK  status: ('A' for Active; 'I' for Inactive)
REMARK    1  A    between atoms: C2_2  and  C3_3 
REMARK    2  A    between atoms: C3_3  and  C5_5 
REMARK    3  A    between atoms: C5_5  and  N1_6 
REMARK    4  A    between atoms: C5_5  and  C21_28 
REMARK       I    between atoms: N1_6  and  C6_8 
REMARK    5  A    between atoms: C6_8  and  C7_10 
REMARK    6  A    between atoms: C7_10  and  N2_11 
REMARK    7  A    between atoms: C7_10  and  C16_22 
REMARK       I    between atoms: N2_11  and  C8_13 
REMARK    8  A    between atoms: C8_13  and  C9_15 
REMARK    9  A    between atoms: C16_22  and  O3_23 
REMARK   10  A    between atoms: C16_22  and  C18_25 
REMARK   11  A    between atoms: C21_28  and  O4_29 
REMARK   12  A    between atoms: C21_28  and  N3_31 
REMARK   13  A    between atoms: C22_32  and  C23_33 
REMARK       I    between atoms: C23_33  and  N4_35 
REMARK   14  A    between atoms: N4_35  and  C24_37 
REMARK   15  A    between atoms: C24_37  and  C25_38 
ROOT
HETATM    1  C5  UNL     1      19.708 -14.972  23.857  1.00  0.00     0.163 C 
ENDROOT
BRANCH   1   2
HETATM    2  C3  UNL     1      19.603 -14.325  25.273  1.00  0.00     0.012 C 
HETATM    3  C4  UNL     1      19.257 -15.444  26.233  1.00  0.00     0.012 C 
BRANCH   2   4
HETATM    4  C2  UNL     1      20.876 -13.695  25.732  1.00  0.00     0.002 C 
HETATM    5  C1  UNL     1      21.053 -13.795  27.238  1.00  0.00     0.005 C 
ENDBRANCH   2   4
ENDBRANCH   1   2
BRANCH   1   6
HETATM    6  N1  UNL     1      19.705 -16.442  24.180  1.00  0.00    -0.347 N 
HETATM    7  C6  UNL     1      20.896 -17.217  23.959  1.00  0.00     0.243 C 
HETATM    8  O1  UNL     1      21.876 -16.537  23.477  1.00  0.00    -0.271 OA
ATOM      9  H1  UNL     1      18.865 -16.884  24.554  1.00  0.00     0.163 HD
BRANCH   7  10
HETATM   10  C7  UNL     1      21.011 -18.620  24.260  1.00  0.00     0.205 C 
BRANCH  10  11
HETATM   11  N2  UNL     1      19.888 -19.269  23.618  1.00  0.00    -0.345 N 
HETATM   12  C8  UNL     1      19.704 -19.612  22.287  1.00  0.00     0.223 C 
HETATM   13  O2  UNL     1      20.536 -19.405  21.385  1.00  0.00    -0.273 OA
ATOM     14  H2  UNL     1      19.115 -19.511  24.239  1.00  0.00     0.163 HD
BRANCH  12  15
HETATM   15  C9  UNL     1      18.416 -20.281  21.880  1.00  0.00     0.082 C 
HETATM   16  C10 UNL     1      17.221 -19.929  22.723  1.00  0.00     0.019 C 
HETATM   17  C11 UNL     1      16.842 -18.884  21.660  1.00  0.00    -0.009 C 
HETATM   18  C12 UNL     1      15.431 -19.098  21.151  1.00  0.00     0.005 C 
HETATM   19  C15 UNL     1      17.771 -19.580  20.718  1.00  0.00     0.003 C 
HETATM   20  C13 UNL     1      15.582 -19.746  19.794  1.00  0.00     0.001 C 
HETATM   21  C14 UNL     1      16.876 -20.508  19.933  1.00  0.00     0.006 C 
ENDBRANCH  12  15
ENDBRANCH  10  11
BRANCH  10  22
HETATM   22  C16 UNL     1      20.473 -18.748  25.914  1.00  0.00     0.156 C 
BRANCH  22  23
HETATM   23  O3  UNL     1      20.484 -19.999  25.886  1.00  0.00    -0.388 OA
HETATM   24  C17 UNL     1      19.554 -20.915  26.215  1.00  0.00     0.202 C 
ENDBRANCH  22  23
BRANCH  22  25
HETATM   25  C18 UNL     1      22.036 -18.667  26.616  1.00  0.00     0.009 C 
HETATM   26  C19 UNL     1      22.430 -17.278  26.774  1.00  0.00     0.012 C 
HETATM   27  C20 UNL     1      21.749 -19.278  27.946  1.00  0.00     0.012 C 
ENDBRANCH  22  25
ENDBRANCH  10  22
ENDBRANCH   7  10
ENDBRANCH   1   6
BRANCH   1  28
HETATM   28  C21 UNL     1      18.498 -14.720  23.102  1.00  0.00     0.142 C 
BRANCH  28  29
HETATM   29  O4  UNL     1      17.449 -15.273  23.675  1.00  0.00    -0.348 OA
ATOM     30  H4  UNL     1      16.897 -14.622  24.092  1.00  0.00     0.219 HD
ENDBRANCH  28  29
BRANCH  28  31
HETATM   31  N3  UNL     1      18.229 -14.025  21.918  1.00  0.00    -0.318 N 
HETATM   32  C22 UNL     1      17.366 -12.968  21.488  1.00  0.00     0.087 C 
HETATM   33  C28 UNL     1      17.859 -12.636  20.126  1.00  0.00     0.048 A 
HETATM   34  C29 UNL     1      17.615 -13.089  18.820  1.00  0.00     0.019 A 
HETATM   35  C30 UNL     1      17.903 -14.142  19.704  1.00  0.00     0.024 A 
HETATM   36  C31 UNL     1      18.982 -14.431  20.671  1.00  0.00     0.036 C 
HETATM   37  C32 UNL     1      20.251 -13.688  20.551  1.00  0.00     0.039 C 
HETATM   38  C33 UNL     1      19.273 -15.894  20.630  1.00  0.00     0.039 C 
BRANCH  32  39
HETATM   39  C23 UNL     1      15.953 -12.943  21.683  1.00  0.00     0.265 C 
HETATM   40  O5  UNL     1      15.308 -13.775  22.336  1.00  0.00    -0.266 OA
HETATM   41  N4  UNL     1      15.112 -11.916  21.125  1.00  0.00    -0.338 N 
ATOM     42  H4  UNL     1      15.566 -11.201  20.556  1.00  0.00     0.164 HD
BRANCH  41  43
HETATM   43  C24 UNL     1      13.706 -11.811  21.297  1.00  0.00     0.112 A 
HETATM   44  C26 UNL     1      12.993 -11.231  22.430  1.00  0.00     0.043 A 
HETATM   45  C27 UNL     1      13.116 -10.434  21.140  1.00  0.00     0.043 A 
BRANCH  43  46
HETATM   46  C25 UNL     1      12.934 -12.852  20.507  1.00  0.00     0.259 C 
HETATM   47  N5  UNL     1      11.840 -13.487  21.109  1.00  0.00    -0.060 NA
HETATM   48  O6  UNL     1      13.250 -13.153  19.345  1.00  0.00    -0.274 OA
ENDBRANCH  43  46
ENDBRANCH  41  43
ENDBRANCH  32  39
ENDBRANCH  28  31
ENDBRANCH   1  28
TORSDOF 15
ENDMDL
MODEL 5
REMARK VINA RESULT: -8.562422993      2.688      7.594
REMARK  15 active torsions:
REMARK  status: ('A' for Active; 'I' for Inactive)
REMARK    1  A    between atoms: C2_2  and  C3_3 
REMARK    2  A    between atoms: C3_3  and  C5_5 
REMARK    3  A    between atoms: C5_5  and  N1_6 
REMARK    4  A    between atoms: C5_5  and  C21_28 
REMARK       I    between atoms: N1_6  and  C6_8 
REMARK    5  A    between atoms: C6_8  and  C7_10 
REMARK    6  A    between atoms: C7_10  and  N2_11 
REMARK    7  A    between atoms: C7_10  and  C16_22 
REMARK       I    between atoms: N2_11  and  C8_13 
REMARK    8  A    between atoms: C8_13  and  C9_15 
REMARK    9  A    between atoms: C16_22  and  O3_23 
REMARK   10  A    between atoms: C16_22  and  C18_25 
REMARK   11  A    between atoms: C21_28  and  O4_29 
REMARK   12  A    between atoms: C21_28  and  N3_31 
REMARK   13  A    between atoms: C22_32  and  C23_33 
REMARK       I    between atoms: C23_33  and  N4_35 
REMARK   14  A    between atoms: N4_35  and  C24_37 
REMARK   15  A    between atoms: C24_37  and  C25_38 
ROOT
HETATM    1  C5  UNL     1      18.966 -14.272  22.287  1.00  0.00     0.163 C 
ENDROOT
BRANCH   1   2
HETATM    2  C3  UNL     1      20.091 -14.244  21.206  1.00  0.00     0.012 C 
HETATM    3  C4  UNL     1      19.756 -15.331  20.208  1.00  0.00     0.012 C 
BRANCH   2   4
HETATM    4  C2  UNL     1      20.175 -12.947  20.472  1.00  0.00     0.002 C 
HETATM    5  C1  UNL     1      20.078 -13.134  18.968  1.00  0.00     0.005 C 
ENDBRANCH   2   4
ENDBRANCH   1   2
BRANCH   1   6
HETATM    6  N1  UNL     1      17.766 -14.693  21.482  1.00  0.00    -0.347 N 
HETATM    7  C6  UNL     1      16.696 -13.757  21.266  1.00  0.00     0.243 C 
HETATM    8  O1  UNL     1      16.888 -12.612  21.820  1.00  0.00    -0.271 OA
ATOM      9  H1  UNL     1      17.712 -15.634  21.093  1.00  0.00     0.163 HD
BRANCH   7  10
HETATM   10  C7  UNL     1      15.518 -14.045  20.489  1.00  0.00     0.205 C 
BRANCH  10  11
HETATM   11  N2  UNL     1      14.475 -13.176  20.993  1.00  0.00    -0.345 N 
HETATM   12  C8  UNL     1      13.788 -12.153  20.355  1.00  0.00     0.223 C 
HETATM   13  O2  UNL     1      13.972 -11.811  19.173  1.00  0.00    -0.273 OA
ATOM     14  H2  UNL     1      14.205 -13.340  21.963  1.00  0.00     0.163 HD
BRANCH  12  15
HETATM   15  C9  UNL     1      12.742 -11.390  21.126  1.00  0.00     0.082 C 
HETATM   16  C10 UNL     1      11.554 -12.201  21.564  1.00  0.00     0.019 C 
HETATM   17  C11 UNL     1      12.234 -12.363  22.935  1.00  0.00    -0.009 C 
HETATM   18  C12 UNL     1      11.334 -11.893  24.059  1.00  0.00     0.005 C 
HETATM   19  C15 UNL     1      13.129 -11.223  22.568  1.00  0.00     0.003 C 
HETATM   20  C13 UNL     1      11.868 -10.541  24.471  1.00  0.00     0.001 C 
HETATM   21  C14 UNL     1      12.465 -10.017  23.189  1.00  0.00     0.006 C 
ENDBRANCH  12  15
ENDBRANCH  10  11
BRANCH  10  22
HETATM   22  C16 UNL     1      14.934 -15.553  21.141  1.00  0.00     0.156 C 
BRANCH  22  23
HETATM   23  O3  UNL     1      13.741 -15.269  20.894  1.00  0.00    -0.388 OA
HETATM   24  C17 UNL     1      12.581 -15.783  21.345  1.00  0.00     0.202 C 
ENDBRANCH  22  23
BRANCH  22  25
HETATM   25  C18 UNL     1      15.108 -16.451  19.690  1.00  0.00     0.009 C 
HETATM   26  C19 UNL     1      15.799 -15.648  18.698  1.00  0.00     0.012 C 
HETATM   27  C20 UNL     1      15.995 -17.549  20.177  1.00  0.00     0.012 C 
ENDBRANCH  22  25
ENDBRANCH  10  22
ENDBRANCH   7  10
ENDBRANCH   1   6
BRANCH   1  28
HETATM   28  C21 UNL     1      19.212 -15.338  23.236  1.00  0.00     0.142 C 
BRANCH  28  29
HETATM   29  O4  UNL     1      18.244 -16.231  23.220  1.00  0.00    -0.348 OA
ATOM     30  H4  UNL     1      18.449 -16.976  23.773  1.00  0.00     0.219 HD
ENDBRANCH  28  29
BRANCH  28  31
HETATM   31  N3  UNL     1      20.245 -15.601  24.142  1.00  0.00    -0.318 N 
HETATM   32  C22 UNL     1      21.534 -16.223  24.121  1.00  0.00     0.087 C 
HETATM   33  C28 UNL     1      22.119 -15.877  25.443  1.00  0.00     0.048 A 
HETATM   34  C29 UNL     1      22.103 -16.428  26.733  1.00  0.00     0.019 A 
HETATM   35  C30 UNL     1      20.812 -16.285  26.199  1.00  0.00     0.024 A 
HETATM   36  C31 UNL     1      20.052 -15.178  25.581  1.00  0.00     0.036 C 
HETATM   37  C32 UNL     1      20.521 -13.796  25.797  1.00  0.00     0.039 C 
HETATM   38  C33 UNL     1      18.629 -15.279  26.020  1.00  0.00     0.039 C 
BRANCH  32  39
HETATM   39  C23 UNL     1      21.795 -17.535  23.625  1.00  0.00     0.265 C 
HETATM   40  O5  UNL     1      22.897 -18.098  23.642  1.00  0.00    -0.266 OA
HETATM   41  N4  UNL     1      20.770 -18.358  23.038  1.00  0.00    -0.338 N 
ATOM     42  H4  UNL     1      19.834 -17.958  22.969  1.00  0.00     0.164 HD
BRANCH  41  43
HETATM   43  C24 UNL     1      20.947 -19.679  22.547  1.00  0.00     0.112 A 
HETATM   44  C26 UNL     1      21.406 -20.847  23.292  1.00  0.00     0.043 A 
HETATM   45  C27 UNL     1      19.925 -20.696  22.983  1.00  0.00     0.043 A 
BRANCH  43  46
HETATM   46  C25 UNL     1      21.191 -19.726  21.050  1.00  0.00     0.259 C 
HETATM   47  N5  UNL     1      22.148 -18.870  20.491  1.00  0.00    -0.060 NA
HETATM   48  O6  UNL     1      20.563 -20.503  20.313  1.00  0.00    -0.274 OA
ENDBRANCH  43  46
ENDBRANCH  41  43
ENDBRANCH  32  39
ENDBRANCH  28  31
ENDBRANCH   1  28
TORSDOF 15
ENDMDL
