MODEL 1
REMARK VINA RESULT: -6.051398915      0.000      0.000
REMARK  15 active torsions:
REMARK  status: ('A' for Active; 'I' for Inactive)
REMARK    1  A    between atoms: C2_2  and  C3_3 
REMARK    2  A    between atoms: C3_3  and  C4_4 
REMARK    3  A    between atoms: C4_4  and  N1_5 
REMARK       I    between atoms: N1_5  and  C6_7 
REMARK    4  A    between atoms: C6_7  and  C7_9 
REMARK    5  A    between atoms: C8_12  and  O2_13 
REMARK    6  A    between atoms: C9_15  and  C10_16 
REMARK    7  A    between atoms: C10_16  and  C11_17 
REMARK    8  A    between atoms: C11_17  and  S1_18 
REMARK    9  A    between atoms: C13_22  and  O3_23 
REMARK   10  A    between atoms: C14_25  and  C15_26 
REMARK   11  A    between atoms: C15_26  and  C16_27 
REMARK   12  A    between atoms: C18_31  and  O4_32 
REMARK   13  A    between atoms: C19_34  and  C20_35 
REMARK   14  A    between atoms: C24_41  and  C25_42 
REMARK   15  A    between atoms: C25_42  and  C27_44 
ROOT
HETATM    1  C7  UNL     1      19.876 -18.939  23.418  1.00  0.00     0.208 C 
HETATM    2  N2  UNL     1      20.452 -17.977  24.352  1.00  0.00    -0.354 N 
ATOM      3  H2  UNL     1      21.045 -17.269  23.917  1.00  0.00     0.162 HD
HETATM    4  C8  UNL     1      20.330 -17.857  25.741  1.00  0.00     0.160 C 
HETATM    5  C9  UNL     1      19.298 -17.383  26.649  1.00  0.00     0.062 C 
HETATM    6  N3  UNL     1      18.227 -18.250  27.027  1.00  0.00    -0.339 N 
ATOM      7  H3  UNL     1      17.868 -18.019  27.953  1.00  0.00     0.167 HD
HETATM    8  C13 UNL     1      17.553 -19.312  26.473  1.00  0.00     0.139 C 
HETATM    9  C14 UNL     1      16.535 -19.434  25.397  1.00  0.00     0.158 C 
HETATM   10  N4  UNL     1      16.259 -18.224  24.680  1.00  0.00    -0.357 N 
ATOM     11  H4  UNL     1      16.287 -17.390  25.266  1.00  0.00     0.162 HD
HETATM   12  C18 UNL     1      15.965 -17.960  23.370  1.00  0.00     0.160 C 
HETATM   13  C19 UNL     1      16.744 -18.201  22.102  1.00  0.00     0.069 C 
HETATM   14  N5  UNL     1      18.078 -17.703  22.192  1.00  0.00    -0.299 N 
HETATM   15  C23 UNL     1      18.120 -16.250  22.371  1.00  0.00     0.248 C 
HETATM   16  O5  UNL     1      17.066 -15.684  22.737  1.00  0.00    -0.271 OA
HETATM   17  C24 UNL     1      19.292 -15.404  22.157  1.00  0.00     0.181 C 
HETATM   18  N6  UNL     1      20.461 -16.121  21.764  1.00  0.00    -0.346 N 
ATOM     19  H6  UNL     1      21.362 -15.647  21.726  1.00  0.00     0.163 HD
HETATM   20  C29 UNL     1      20.368 -17.475  21.431  1.00  0.00     0.244 C 
HETATM   21  O6  UNL     1      21.151 -17.943  20.532  1.00  0.00    -0.271 OA
HETATM   22  C30 UNL     1      19.353 -18.333  22.136  1.00  0.00     0.216 C 
ENDROOT
BRANCH   1  23
HETATM   23  C6  UNL     1      20.956 -19.904  23.009  1.00  0.00     0.244 C 
HETATM   24  N1  UNL     1      20.638 -21.150  22.465  1.00  0.00    -0.355 N 
HETATM   25  C5  UNL     1      19.237 -21.535  22.312  1.00  0.00     0.152 C 
HETATM   26  O1  UNL     1      22.141 -19.567  23.177  1.00  0.00    -0.271 OA
BRANCH  24  27
HETATM   27  C4  UNL     1      21.610 -22.133  22.038  1.00  0.00     0.125 C 
BRANCH  27  28
HETATM   28  C3  UNL     1      22.122 -21.945  20.651  1.00  0.00     0.019 C 
BRANCH  28  29
HETATM   29  C2  UNL     1      23.589 -21.659  20.585  1.00  0.00    -0.003 C 
HETATM   30  C1  UNL     1      23.835 -20.217  20.157  1.00  0.00     0.005 C 
ENDBRANCH  28  29
ENDBRANCH  27  28
ENDBRANCH  24  27
ENDBRANCH   1  23
BRANCH   4  31
HETATM   31  O2  UNL     1      21.411 -18.269  26.383  1.00  0.00    -0.345 OA
ATOM     32  H2  UNL     1      21.366 -19.187  26.621  1.00  0.00     0.219 HD
ENDBRANCH   4  31
BRANCH   5  33
HETATM   33  C10 UNL     1      18.833 -15.940  26.390  1.00  0.00     0.072 C 
BRANCH  33  34
HETATM   34  C11 UNL     1      19.969 -15.025  26.793  1.00  0.00     0.079 C 
BRANCH  34  35
HETATM   35  S1  UNL     1      20.552 -14.069  25.342  1.00  0.00    -0.173 SA
HETATM   36  C12 UNL     1      22.330 -13.818  25.407  1.00  0.00     0.089 C 
ENDBRANCH  34  35
ENDBRANCH  33  34
ENDBRANCH   5  33
BRANCH  13  37
HETATM   37  C20 UNL     1      16.460 -19.542  21.535  1.00  0.00     0.032 C 
HETATM   38  C21 UNL     1      16.748 -19.728  20.072  1.00  0.00     0.016 C 
HETATM   39  C22 UNL     1      14.925 -19.734  21.651  1.00  0.00     0.016 C 
ENDBRANCH  13  37
BRANCH  12  40
HETATM   40  O4  UNL     1      14.812 -17.398  23.158  1.00  0.00    -0.345 OA
ATOM     41  H4  UNL     1      14.804 -16.717  22.495  1.00  0.00     0.219 HD
ENDBRANCH  12  40
BRANCH  17  42
HETATM   42  C25 UNL     1      18.920 -14.425  21.036  1.00  0.00     0.013 C 
HETATM   43  C26 UNL     1      18.511 -15.158  19.799  1.00  0.00     0.012 C 
BRANCH  42  44
HETATM   44  C27 UNL     1      20.042 -13.443  20.789  1.00  0.00     0.002 C 
HETATM   45  C28 UNL     1      20.086 -13.068  19.337  1.00  0.00     0.005 C 
ENDBRANCH  42  44
ENDBRANCH  17  42
BRANCH   8  46
HETATM   46  O3  UNL     1      17.836 -20.484  26.965  1.00  0.00    -0.348 OA
ATOM     47  H3  UNL     1      17.095 -21.000  27.260  1.00  0.00     0.219 HD
ENDBRANCH   8  46
BRANCH   9  48
HETATM   48  C15 UNL     1      15.336 -20.095  26.022  1.00  0.00     0.033 C 
BRANCH  48  49
HETATM   49  C16 UNL     1      14.530 -20.988  25.176  1.00  0.00    -0.002 C 
HETATM   50  C17 UNL     1      15.516 -21.978  24.528  1.00  0.00     0.005 C 
ENDBRANCH  48  49
ENDBRANCH   9  48
TORSDOF 15
ENDMDL
MODEL 2
REMARK VINA RESULT: -5.890931378      4.933      8.847
REMARK  15 active torsions:
REMARK  status: ('A' for Active; 'I' for Inactive)
REMARK    1  A    between atoms: C2_2  and  C3_3 
REMARK    2  A    between atoms: C3_3  and  C4_4 
REMARK    3  A    between atoms: C4_4  and  N1_5 
REMARK       I    between atoms: N1_5  and  C6_7 
REMARK    4  A    between atoms: C6_7  and  C7_9 
REMARK    5  A    between atoms: C8_12  and  O2_13 
REMARK    6  A    between atoms: C9_15  and  C10_16 
REMARK    7  A    between atoms: C10_16  and  C11_17 
REMARK    8  A    between atoms: C11_17  and  S1_18 
REMARK    9  A    between atoms: C13_22  and  O3_23 
REMARK   10  A    between atoms: C14_25  and  C15_26 
REMARK   11  A    between atoms: C15_26  and  C16_27 
REMARK   12  A    between atoms: C18_31  and  O4_32 
REMARK   13  A    between atoms: C19_34  and  C20_35 
REMARK   14  A    between atoms: C24_41  and  C25_42 
REMARK   15  A    between atoms: C25_42  and  C27_44 
ROOT
HETATM    1  C7  UNL     1      14.096 -14.551  20.684  1.00  0.00     0.208 C 
HETATM    2  N2  UNL     1      13.602 -15.640  19.847  1.00  0.00    -0.354 N 
ATOM      3  H2  UNL     1      13.308 -15.354  18.912  1.00  0.00     0.162 HD
HETATM    4  C8  UNL     1      13.462 -17.008  20.105  1.00  0.00     0.160 C 
HETATM    5  C9  UNL     1      14.372 -18.139  20.193  1.00  0.00     0.062 C 
HETATM    6  N3  UNL     1      15.089 -18.387  21.403  1.00  0.00    -0.339 N 
ATOM      7  H3  UNL     1      15.297 -19.379  21.519  1.00  0.00     0.167 HD
HETATM    8  C13 UNL     1      15.572 -17.643  22.453  1.00  0.00     0.139 C 
HETATM    9  C14 UNL     1      16.726 -16.718  22.611  1.00  0.00     0.158 C 
HETATM   10  N4  UNL     1      17.438 -16.422  21.404  1.00  0.00    -0.357 N 
ATOM     11  H4  UNL     1      17.501 -17.215  20.765  1.00  0.00     0.162 HD
HETATM   12  C18 UNL     1      18.051 -15.292  20.932  1.00  0.00     0.160 C 
HETATM   13  C19 UNL     1      17.514 -13.919  20.620  1.00  0.00     0.069 C 
HETATM   14  N5  UNL     1      16.359 -13.976  19.783  1.00  0.00    -0.299 N 
HETATM   15  C23 UNL     1      16.648 -14.558  18.471  1.00  0.00     0.248 C 
HETATM   16  O5  UNL     1      17.713 -15.204  18.350  1.00  0.00    -0.271 OA
HETATM   17  C24 UNL     1      15.796 -14.447  17.289  1.00  0.00     0.181 C 
HETATM   18  N6  UNL     1      14.591 -13.717  17.510  1.00  0.00    -0.346 N 
ATOM     19  H6  UNL     1      13.866 -13.701  16.794  1.00  0.00     0.163 HD
HETATM   20  C29 UNL     1      14.407 -13.023  18.709  1.00  0.00     0.244 C 
HETATM   21  O6  UNL     1      13.732 -11.935  18.692  1.00  0.00    -0.271 OA
HETATM   22  C30 UNL     1      15.006 -13.577  19.973  1.00  0.00     0.216 C 
ENDROOT
BRANCH   1  23
HETATM   23  C6  UNL     1      12.915 -13.746  21.156  1.00  0.00     0.244 C 
HETATM   24  N1  UNL     1      13.091 -12.609  21.948  1.00  0.00    -0.355 N 
HETATM   25  C5  UNL     1      14.438 -12.208  22.346  1.00  0.00     0.152 C 
HETATM   26  O1  UNL     1      11.776 -14.124  20.830  1.00  0.00    -0.271 OA
BRANCH  24  27
HETATM   27  C4  UNL     1      12.016 -11.774  22.438  1.00  0.00     0.125 C 
BRANCH  27  28
HETATM   28  C3  UNL     1      12.457 -10.534  23.138  1.00  0.00     0.019 C 
BRANCH  28  29
HETATM   29  C2  UNL     1      11.672 -10.232  24.376  1.00  0.00    -0.003 C 
HETATM   30  C1  UNL     1      11.938  -8.806  24.845  1.00  0.00     0.005 C 
ENDBRANCH  28  29
ENDBRANCH  27  28
ENDBRANCH  24  27
ENDBRANCH   1  23
BRANCH   4  31
HETATM   31  O2  UNL     1      12.204 -17.360  20.318  1.00  0.00    -0.345 OA
ATOM     32  H2  UNL     1      11.918 -17.172  21.204  1.00  0.00     0.219 HD
ENDBRANCH   4  31
BRANCH   5  33
HETATM   33  C10 UNL     1      15.228 -18.369  18.935  1.00  0.00     0.072 C 
BRANCH  33  34
HETATM   34  C11 UNL     1      14.649 -19.567  18.213  1.00  0.00     0.079 C 
BRANCH  34  35
HETATM   35  S1  UNL     1      13.497 -19.013  16.899  1.00  0.00    -0.173 SA
HETATM   36  C12 UNL     1      14.041 -17.460  16.178  1.00  0.00     0.089 C 
ENDBRANCH  34  35
ENDBRANCH  33  34
ENDBRANCH   5  33
BRANCH  13  37
HETATM   37  C20 UNL     1      17.561 -13.031  21.808  1.00  0.00     0.032 C 
HETATM   38  C21 UNL     1      17.946 -11.600  21.563  1.00  0.00     0.016 C 
HETATM   39  C22 UNL     1      18.698 -13.587  22.705  1.00  0.00     0.016 C 
ENDBRANCH  13  37
BRANCH  12  40
HETATM   40  O4  UNL     1      19.327 -15.401  20.707  1.00  0.00    -0.345 OA
ATOM     41  H4  UNL     1      19.690 -14.767  20.099  1.00  0.00     0.219 HD
ENDBRANCH  12  40
BRANCH  17  42
HETATM   42  C25 UNL     1      16.625 -13.713  16.227  1.00  0.00     0.013 C 
HETATM   43  C26 UNL     1      16.837 -12.283  16.607  1.00  0.00     0.012 C 
BRANCH  42  44
HETATM   44  C27 UNL     1      15.999 -13.867  14.859  1.00  0.00     0.002 C 
HETATM   45  C28 UNL     1      17.069 -13.966  13.813  1.00  0.00     0.005 C 
ENDBRANCH  42  44
ENDBRANCH  17  42
BRANCH   8  46
HETATM   46  O3  UNL     1      14.909 -17.737  23.569  1.00  0.00    -0.348 OA
ATOM     47  H3  UNL     1      15.153 -18.457  24.138  1.00  0.00     0.219 HD
ENDBRANCH   8  46
BRANCH   9  48
HETATM   48  C15 UNL     1      17.565 -17.276  23.728  1.00  0.00     0.033 C 
BRANCH  48  49
HETATM   49  C16 UNL     1      18.317 -16.324  24.559  1.00  0.00    -0.002 C 
HETATM   50  C17 UNL     1      17.520 -16.167  25.868  1.00  0.00     0.005 C 
ENDBRANCH  48  49
ENDBRANCH   9  48
TORSDOF 15
ENDMDL
MODEL 3
REMARK VINA RESULT: -5.810291932      2.799      6.827
REMARK  15 active torsions:
REMARK  status: ('A' for Active; 'I' for Inactive)
REMARK    1  A    between atoms: C2_2  and  C3_3 
REMARK    2  A    between atoms: C3_3  and  C4_4 
REMARK    3  A    between atoms: C4_4  and  N1_5 
REMARK       I    between atoms: N1_5  and  C6_7 
REMARK    4  A    between atoms: C6_7  and  C7_9 
REMARK    5  A    between atoms: C8_12  and  O2_13 
REMARK    6  A    between atoms: C9_15  and  C10_16 
REMARK    7  A    between atoms: C10_16  and  C11_17 
REMARK    8  A    between atoms: C11_17  and  S1_18 
REMARK    9  A    between atoms: C13_22  and  O3_23 
REMARK   10  A    between atoms: C14_25  and  C15_26 
REMARK   11  A    between atoms: C15_26  and  C16_27 
REMARK   12  A    between atoms: C18_31  and  O4_32 
REMARK   13  A    between atoms: C19_34  and  C20_35 
REMARK   14  A    between atoms: C24_41  and  C25_42 
REMARK   15  A    between atoms: C25_42  and  C27_44 
ROOT
HETATM    1  C7  UNL     1      16.209 -17.784  22.383  1.00  0.00     0.208 C 
HETATM    2  N2  UNL     1      16.043 -18.984  23.197  1.00  0.00    -0.354 N 
ATOM      3  H2  UNL     1      15.920 -19.844  22.661  1.00  0.00     0.162 HD
HETATM    4  C8  UNL     1      16.022 -19.158  24.585  1.00  0.00     0.160 C 
HETATM    5  C9  UNL     1      17.025 -19.174  25.638  1.00  0.00     0.062 C 
HETATM    6  N3  UNL     1      17.494 -17.946  26.196  1.00  0.00    -0.339 N 
ATOM      7  H3  UNL     1      17.794 -18.064  27.164  1.00  0.00     0.167 HD
HETATM    8  C13 UNL     1      17.648 -16.646  25.774  1.00  0.00     0.139 C 
HETATM    9  C14 UNL     1      18.618 -15.966  24.876  1.00  0.00     0.158 C 
HETATM   10  N4  UNL     1      19.528 -16.837  24.192  1.00  0.00    -0.357 N 
ATOM     11  H4  UNL     1      19.823 -17.636  24.752  1.00  0.00     0.162 HD
HETATM   12  C18 UNL     1      20.082 -16.814  22.941  1.00  0.00     0.160 C 
HETATM   13  C19 UNL     1      19.458 -16.851  21.570  1.00  0.00     0.069 C 
HETATM   14  N5  UNL     1      18.523 -17.921  21.438  1.00  0.00    -0.299 N 
HETATM   15  C23 UNL     1      19.153 -19.234  21.583  1.00  0.00     0.248 C 
HETATM   16  O5  UNL     1      20.291 -19.272  22.102  1.00  0.00    -0.271 OA
HETATM   17  C24 UNL     1      18.564 -20.507  21.171  1.00  0.00     0.181 C 
HETATM   18  N6  UNL     1      17.259 -20.386  20.610  1.00  0.00    -0.346 N 
ATOM     19  H6  UNL     1      16.705 -21.221  20.421  1.00  0.00     0.163 HD
HETATM   20  C29 UNL     1      16.740 -19.122  20.319  1.00  0.00     0.244 C 
HETATM   21  O6  UNL     1      15.955 -18.995  19.315  1.00  0.00    -0.271 OA
HETATM   22  C30 UNL     1      17.121 -17.957  21.191  1.00  0.00     0.216 C 
ENDROOT
BRANCH   1  23
HETATM   23  C6  UNL     1      14.864 -17.403  21.823  1.00  0.00     0.244 C 
HETATM   24  N1  UNL     1      14.604 -16.095  21.409  1.00  0.00    -0.355 N 
HETATM   25  C5  UNL     1      15.640 -15.075  21.542  1.00  0.00     0.152 C 
HETATM   26  O1  UNL     1      13.987 -18.281  21.749  1.00  0.00    -0.271 OA
BRANCH  24  27
HETATM   27  C4  UNL     1      13.346 -15.645  20.853  1.00  0.00     0.125 C 
BRANCH  27  28
HETATM   28  C3  UNL     1      13.288 -14.189  20.536  1.00  0.00     0.019 C 
BRANCH  28  29
HETATM   29  C2  UNL     1      12.133 -13.481  21.170  1.00  0.00    -0.003 C 
HETATM   30  C1  UNL     1      12.567 -12.793  22.459  1.00  0.00     0.005 C 
ENDBRANCH  28  29
ENDBRANCH  27  28
ENDBRANCH  24  27
ENDBRANCH   1  23
BRANCH   4  31
HETATM   31  O2  UNL     1      14.801 -19.358  25.055  1.00  0.00    -0.345 OA
ATOM     32  H2  UNL     1      14.316 -20.000  24.550  1.00  0.00     0.219 HD
ENDBRANCH   4  31
BRANCH   5  33
HETATM   33  C10 UNL     1      18.150 -20.203  25.432  1.00  0.00     0.072 C 
BRANCH  33  34
HETATM   34  C11 UNL     1      19.198 -19.937  26.492  1.00  0.00     0.079 C 
BRANCH  34  35
HETATM   35  S1  UNL     1      18.934 -21.043  27.930  1.00  0.00    -0.173 SA
HETATM   36  C12 UNL     1      17.870 -20.268  29.152  1.00  0.00     0.089 C 
ENDBRANCH  34  35
ENDBRANCH  33  34
ENDBRANCH   5  33
BRANCH  13  37
HETATM   37  C20 UNL     1      19.142 -15.488  21.077  1.00  0.00     0.032 C 
HETATM   38  C21 UNL     1      19.364 -15.232  19.614  1.00  0.00     0.016 C 
HETATM   39  C22 UNL     1      20.142 -14.539  21.789  1.00  0.00     0.016 C 
ENDBRANCH  13  37
BRANCH  12  40
HETATM   40  O4  UNL     1      21.381 -16.749  22.905  1.00  0.00    -0.345 OA
ATOM     41  H4  UNL     1      21.828 -17.580  22.789  1.00  0.00     0.219 HD
ENDBRANCH  12  40
BRANCH  17  42
HETATM   42  C25 UNL     1      19.502 -21.093  20.108  1.00  0.00     0.013 C 
HETATM   43  C26 UNL     1      18.725 -21.646  18.955  1.00  0.00     0.012 C 
BRANCH  42  44
HETATM   44  C27 UNL     1      20.439 -22.108  20.721  1.00  0.00     0.002 C 
HETATM   45  C28 UNL     1      21.827 -21.912  20.188  1.00  0.00     0.005 C 
ENDBRANCH  42  44
ENDBRANCH  17  42
BRANCH   8  46
HETATM   46  O3  UNL     1      16.780 -15.792  26.235  1.00  0.00    -0.348 OA
ATOM     47  H3  UNL     1      17.140 -15.034  26.680  1.00  0.00     0.219 HD
ENDBRANCH   8  46
BRANCH   9  48
HETATM   48  C15 UNL     1      19.264 -14.881  25.695  1.00  0.00     0.033 C 
BRANCH  48  49
HETATM   49  C16 UNL     1      20.347 -15.270  26.612  1.00  0.00    -0.002 C 
HETATM   50  C17 UNL     1      20.923 -13.960  27.183  1.00  0.00     0.005 C 
ENDBRANCH  48  49
ENDBRANCH   9  48
TORSDOF 15
ENDMDL
MODEL 4
REMARK VINA RESULT: -5.799186533     10.166     14.365
REMARK  15 active torsions:
REMARK  status: ('A' for Active; 'I' for Inactive)
REMARK    1  A    between atoms: C2_2  and  C3_3 
REMARK    2  A    between atoms: C3_3  and  C4_4 
REMARK    3  A    between atoms: C4_4  and  N1_5 
REMARK       I    between atoms: N1_5  and  C6_7 
REMARK    4  A    between atoms: C6_7  and  C7_9 
REMARK    5  A    between atoms: C8_12  and  O2_13 
REMARK    6  A    between atoms: C9_15  and  C10_16 
REMARK    7  A    between atoms: C10_16  and  C11_17 
REMARK    8  A    between atoms: C11_17  and  S1_18 
REMARK    9  A    between atoms: C13_22  and  O3_23 
REMARK   10  A    between atoms: C14_25  and  C15_26 
REMARK   11  A    between atoms: C15_26  and  C16_27 
REMARK   12  A    between atoms: C18_31  and  O4_32 
REMARK   13  A    between atoms: C19_34  and  C20_35 
REMARK   14  A    between atoms: C24_41  and  C25_42 
REMARK   15  A    between atoms: C25_42  and  C27_44 
ROOT
HETATM    1  C7  UNL     1      13.405 -13.619  12.046  1.00  0.00     0.208 C 
HETATM    2  N2  UNL     1      13.728 -13.376  13.448  1.00  0.00    -0.354 N 
ATOM      3  H2  UNL     1      13.178 -13.925  14.109  1.00  0.00     0.162 HD
HETATM    4  C8  UNL     1      14.662 -12.520  14.042  1.00  0.00     0.160 C 
HETATM    5  C9  UNL     1      16.106 -12.530  14.218  1.00  0.00     0.062 C 
HETATM    6  N3  UNL     1      16.957 -12.082  13.162  1.00  0.00    -0.339 N 
ATOM      7  H3  UNL     1      17.831 -11.700  13.522  1.00  0.00     0.167 HD
HETATM    8  C13 UNL     1      16.909 -12.030  11.789  1.00  0.00     0.139 C 
HETATM    9  C14 UNL     1      17.044 -13.050  10.717  1.00  0.00     0.158 C 
HETATM   10  N4  UNL     1      17.121 -14.406  11.173  1.00  0.00    -0.357 N 
ATOM     11  H4  UNL     1      17.637 -14.511  12.047  1.00  0.00     0.162 HD
HETATM   12  C18 UNL     1      16.645 -15.589  10.676  1.00  0.00     0.160 C 
HETATM   13  C19 UNL     1      15.243 -16.062  10.390  1.00  0.00     0.069 C 
HETATM   14  N5  UNL     1      14.375 -15.862  11.505  1.00  0.00    -0.299 N 
HETATM   15  C23 UNL     1      14.785 -16.637  12.678  1.00  0.00     0.248 C 
HETATM   16  O5  UNL     1      15.951 -17.092  12.688  1.00  0.00    -0.271 OA
HETATM   17  C24 UNL     1      13.946 -16.923  13.840  1.00  0.00     0.181 C 
HETATM   18  N6  UNL     1      12.642 -16.352  13.767  1.00  0.00    -0.346 N 
ATOM     19  H6  UNL     1      12.029 -16.372  14.582  1.00  0.00     0.163 HD
HETATM   20  C29 UNL     1      12.204 -15.764  12.577  1.00  0.00     0.244 C 
HETATM   21  O6  UNL     1      10.961 -15.835  12.278  1.00  0.00    -0.271 OA
HETATM   22  C30 UNL     1      13.204 -15.074  11.692  1.00  0.00     0.216 C 
ENDROOT
BRANCH   1  23
HETATM   23  C6  UNL     1      12.102 -12.933  11.736  1.00  0.00     0.244 C 
HETATM   24  N1  UNL     1      11.750 -12.621  10.421  1.00  0.00    -0.355 N 
HETATM   25  C5  UNL     1      12.669 -12.940   9.332  1.00  0.00     0.152 C 
HETATM   26  O1  UNL     1      11.350 -12.643  12.682  1.00  0.00    -0.271 OA
BRANCH  24  27
HETATM   27  C4  UNL     1      10.516 -11.971  10.033  1.00  0.00     0.125 C 
BRANCH  27  28
HETATM   28  C3  UNL     1      10.453 -11.554   8.603  1.00  0.00     0.019 C 
BRANCH  28  29
HETATM   29  C2  UNL     1       9.080 -11.166   8.150  1.00  0.00    -0.003 C 
HETATM   30  C1  UNL     1       8.152 -10.985   9.346  1.00  0.00     0.005 C 
ENDBRANCH  28  29
ENDBRANCH  27  28
ENDBRANCH  24  27
ENDBRANCH   1  23
BRANCH   4  31
HETATM   31  O2  UNL     1      14.102 -11.445  14.574  1.00  0.00    -0.345 OA
ATOM     32  H2  UNL     1      14.724 -10.903  15.043  1.00  0.00     0.219 HD
ENDBRANCH   4  31
BRANCH   5  33
HETATM   33  C10 UNL     1      16.653 -13.777  14.935  1.00  0.00     0.072 C 
BRANCH  33  34
HETATM   34  C11 UNL     1      15.973 -13.849  16.286  1.00  0.00     0.079 C 
BRANCH  34  35
HETATM   35  S1  UNL     1      16.876 -12.815  17.501  1.00  0.00    -0.173 SA
HETATM   36  C12 UNL     1      18.638 -13.165  17.461  1.00  0.00     0.089 C 
ENDBRANCH  34  35
ENDBRANCH  33  34
ENDBRANCH   5  33
BRANCH  13  37
HETATM   37  C20 UNL     1      14.819 -15.712   9.013  1.00  0.00     0.032 C 
HETATM   38  C21 UNL     1      13.893 -16.676   8.328  1.00  0.00     0.016 C 
HETATM   39  C22 UNL     1      16.110 -15.744   8.153  1.00  0.00     0.016 C 
ENDBRANCH  13  37
BRANCH  12  40
HETATM   40  O4  UNL     1      17.549 -16.481  10.393  1.00  0.00    -0.345 OA
ATOM     41  H4  UNL     1      18.365 -16.139  10.046  1.00  0.00     0.219 HD
ENDBRANCH  12  40
BRANCH  17  42
HETATM   42  C25 UNL     1      13.809 -18.449  13.909  1.00  0.00     0.013 C 
HETATM   43  C26 UNL     1      12.371 -18.858  13.890  1.00  0.00     0.012 C 
BRANCH  42  44
HETATM   44  C27 UNL     1      14.557 -19.001  15.101  1.00  0.00     0.002 C 
HETATM   45  C28 UNL     1      14.555 -18.000  16.217  1.00  0.00     0.005 C 
ENDBRANCH  42  44
ENDBRANCH  17  42
BRANCH   8  46
HETATM   46  O3  UNL     1      16.704 -10.852  11.272  1.00  0.00    -0.348 OA
ATOM     47  H3  UNL     1      17.230 -10.636  10.510  1.00  0.00     0.219 HD
ENDBRANCH   8  46
BRANCH   9  48
HETATM   48  C15 UNL     1      18.187 -12.602   9.847  1.00  0.00     0.033 C 
BRANCH  48  49
HETATM   49  C16 UNL     1      19.549 -12.735  10.386  1.00  0.00    -0.002 C 
HETATM   50  C17 UNL     1      20.270 -13.761   9.492  1.00  0.00     0.005 C 
ENDBRANCH  48  49
ENDBRANCH   9  48
TORSDOF 15
ENDMDL
MODEL 5
REMARK VINA RESULT: -5.744414392      9.651     13.543
REMARK  15 active torsions:
REMARK  status: ('A' for Active; 'I' for Inactive)
REMARK    1  A    between atoms: C2_2  and  C3_3 
REMARK    2  A    between atoms: C3_3  and  C4_4 
REMARK    3  A    between atoms: C4_4  and  N1_5 
REMARK       I    between atoms: N1_5  and  C6_7 
REMARK    4  A    between atoms: C6_7  and  C7_9 
REMARK    5  A    between atoms: C8_12  and  O2_13 
REMARK    6  A    between atoms: C9_15  and  C10_16 
REMARK    7  A    between atoms: C10_16  and  C11_17 
REMARK    8  A    between atoms: C11_17  and  S1_18 
REMARK    9  A    between atoms: C13_22  and  O3_23 
REMARK   10  A    between atoms: C14_25  and  C15_26 
REMARK   11  A    between atoms: C15_26  and  C16_27 
REMARK   12  A    between atoms: C18_31  and  O4_32 
REMARK   13  A    between atoms: C19_34  and  C20_35 
REMARK   14  A    between atoms: C24_41  and  C25_42 
REMARK   15  A    between atoms: C25_42  and  C27_44 
ROOT
HETATM    1  C7  UNL     1      15.626 -14.650  13.541  1.00  0.00     0.208 C 
HETATM    2  N2  UNL     1      14.631 -15.712  13.423  1.00  0.00    -0.354 N 
ATOM      3  H2  UNL     1      13.666 -15.401  13.542  1.00  0.00     0.162 HD
HETATM    4  C8  UNL     1      14.772 -17.082  13.176  1.00  0.00     0.160 C 
HETATM    5  C9  UNL     1      15.064 -17.894  12.006  1.00  0.00     0.062 C 
HETATM    6  N3  UNL     1      16.416 -18.081  11.585  1.00  0.00    -0.339 N 
ATOM      7  H3  UNL     1      16.539 -18.973  11.106  1.00  0.00     0.167 HD
HETATM    8  C13 UNL     1      17.595 -17.377  11.656  1.00  0.00     0.139 C 
HETATM    9  C14 UNL     1      18.122 -16.184  10.944  1.00  0.00     0.158 C 
HETATM   10  N4  UNL     1      17.187 -15.528  10.079  1.00  0.00    -0.357 N 
ATOM     11  H4  UNL     1      16.556 -16.172   9.601  1.00  0.00     0.162 HD
HETATM   12  C18 UNL     1      16.967 -14.215   9.763  1.00  0.00     0.160 C 
HETATM   13  C19 UNL     1      16.579 -13.033  10.614  1.00  0.00     0.069 C 
HETATM   14  N5  UNL     1      15.444 -13.314  11.432  1.00  0.00    -0.299 N 
HETATM   15  C23 UNL     1      14.244 -13.600  10.643  1.00  0.00     0.248 C 
HETATM   16  O5  UNL     1      14.404 -13.879   9.433  1.00  0.00    -0.271 OA
HETATM   17  C24 UNL     1      12.873 -13.586  11.149  1.00  0.00     0.181 C 
HETATM   18  N6  UNL     1      12.772 -13.282  12.539  1.00  0.00    -0.346 N 
ATOM     19  H6  UNL     1      11.880 -13.384  13.020  1.00  0.00     0.163 HD
HETATM   20  C29 UNL     1      13.899 -12.845  13.240  1.00  0.00     0.244 C 
HETATM   21  O6  UNL     1      13.741 -12.013  14.200  1.00  0.00    -0.271 OA
HETATM   22  C30 UNL     1      15.254 -13.363  12.842  1.00  0.00     0.216 C 
ENDROOT
BRANCH   1  23
HETATM   23  C6  UNL     1      15.776 -14.302  14.997  1.00  0.00     0.244 C 
HETATM   24  N1  UNL     1      16.949 -13.716  15.479  1.00  0.00    -0.355 N 
HETATM   25  C5  UNL     1      18.056 -13.459  14.562  1.00  0.00     0.152 C 
HETATM   26  O1  UNL     1      14.832 -14.560  15.764  1.00  0.00    -0.271 OA
BRANCH  24  27
HETATM   27  C4  UNL     1      17.174 -13.343  16.858  1.00  0.00     0.125 C 
BRANCH  27  28
HETATM   28  C3  UNL     1      18.598 -13.077  17.209  1.00  0.00     0.019 C 
BRANCH  28  29
HETATM   29  C2  UNL     1      19.092 -13.882  18.369  1.00  0.00    -0.003 C 
HETATM   30  C1  UNL     1      20.128 -13.097  19.164  1.00  0.00     0.005 C 
ENDBRANCH  28  29
ENDBRANCH  27  28
ENDBRANCH  24  27
ENDBRANCH   1  23
BRANCH   4  31
HETATM   31  O2  UNL     1      14.597 -17.815  14.264  1.00  0.00    -0.345 OA
ATOM     32  H2  UNL     1      14.451 -18.733  14.066  1.00  0.00     0.219 HD
ENDBRANCH   4  31
BRANCH   5  33
HETATM   33  C10 UNL     1      14.097 -17.687  10.827  1.00  0.00     0.072 C 
BRANCH  33  34
HETATM   34  C11 UNL     1      12.793 -18.361  11.196  1.00  0.00     0.079 C 
BRANCH  34  35
HETATM   35  S1  UNL     1      11.426 -17.138  11.182  1.00  0.00    -0.173 SA
HETATM   36  C12 UNL     1      11.027 -16.599  12.848  1.00  0.00     0.089 C 
ENDBRANCH  34  35
ENDBRANCH  33  34
ENDBRANCH   5  33
BRANCH  13  37
HETATM   37  C20 UNL     1      17.771 -12.341  11.164  1.00  0.00     0.032 C 
HETATM   38  C21 UNL     1      17.613 -10.883  11.487  1.00  0.00     0.016 C 
HETATM   39  C22 UNL     1      18.834 -12.371  10.035  1.00  0.00     0.016 C 
ENDBRANCH  13  37
BRANCH  12  40
HETATM   40  O4  UNL     1      17.113 -13.909   8.507  1.00  0.00    -0.345 OA
ATOM     41  H4  UNL     1      16.306 -13.765   8.026  1.00  0.00     0.219 HD
ENDBRANCH  12  40
BRANCH  17  42
HETATM   42  C25 UNL     1      12.131 -12.502  10.357  1.00  0.00     0.013 C 
HETATM   43  C26 UNL     1      11.345 -11.615  11.269  1.00  0.00     0.012 C 
BRANCH  42  44
HETATM   44  C27 UNL     1      11.281 -13.120   9.270  1.00  0.00     0.002 C 
HETATM   45  C28 UNL     1      11.122 -12.157   8.132  1.00  0.00     0.005 C 
ENDBRANCH  42  44
ENDBRANCH  17  42
BRANCH   8  46
HETATM   46  O3  UNL     1      18.468 -17.815  12.518  1.00  0.00    -0.348 OA
ATOM     47  H3  UNL     1      18.826 -17.165  13.112  1.00  0.00     0.219 HD
ENDBRANCH   8  46
BRANCH   9  48
HETATM   48  C15 UNL     1      19.406 -16.615  10.288  1.00  0.00     0.033 C 
BRANCH  48  49
HETATM   49  C16 UNL     1      20.544 -15.685  10.337  1.00  0.00    -0.002 C 
HETATM   50  C17 UNL     1      20.622 -15.170  11.787  1.00  0.00     0.005 C 
ENDBRANCH  48  49
ENDBRANCH   9  48
TORSDOF 15
ENDMDL
