MODEL 1
REMARK VINA RESULT: -6.816192388      0.000      0.000
REMARK  7 active torsions:
REMARK  status: ('A' for Active; 'I' for Inactive)
REMARK    1  A    between atoms: N1_2  and  C2_4 
REMARK    2  A    between atoms: C3_7  and  N3_8 
REMARK    3  A    between atoms: N3_8  and  N4_10 
REMARK    4  A    between atoms: C7_19  and  N7_20 
REMARK    5  A    between atoms: N8_23  and  C8_24 
REMARK    6  A    between atoms: C8_24  and  C9_25 
REMARK    7  A    between atoms: C9_25  and  O1_27 
ROOT
HETATM    1  C2  UNL     1     -19.760  74.430  63.307  1.00  0.00     0.148 A 
HETATM    2  N2  UNL     1     -19.158  73.370  63.873  1.00  0.00    -0.173 N 
ATOM      3  H2  UNL     1     -18.141  73.355  63.940  1.00  0.00     0.186 HD
HETATM    4  C3  UNL     1     -19.863  72.323  64.356  1.00  0.00     0.699 A 
HETATM    5  N5  UNL     1     -21.215  72.316  64.280  1.00  0.00    -0.172 N 
ATOM      6  H5  UNL     1     -21.731  71.517  64.650  1.00  0.00     0.186 HD
HETATM    7  C4  UNL     1     -21.895  73.338  63.728  1.00  0.00     0.170 A 
HETATM    8  C5  UNL     1     -21.139  74.394  63.244  1.00  0.00     0.140 A 
HETATM    9  N6  UNL     1     -22.005  75.284  62.744  1.00  0.00    -0.180 N 
HETATM   10  C6  UNL     1     -21.625  76.558  62.126  1.00  0.00     0.176 C 
HETATM   11  C7  UNL     1     -23.228  74.801  62.913  1.00  0.00     0.682 A 
HETATM   12  N8  UNL     1     -23.194  73.598  63.519  1.00  0.00    -0.163 N 
ENDROOT
BRANCH   4  13
HETATM   13  N3  UNL     1     -19.298  71.299  64.901  1.00  0.00    -0.138 N 
ATOM     14  H3  UNL     1     -18.286  71.176  64.865  1.00  0.00     0.205 HD
BRANCH  13  15
HETATM   15  N4  UNL     1     -20.113  70.362  65.543  1.00  0.00    -0.331 N 
ATOM     16  H42 UNL     1     -20.810  70.671  66.220  1.00  0.00     0.177 HD
ATOM     17  H41 UNL     1     -19.984  69.377  65.312  1.00  0.00     0.177 HD
ENDBRANCH  13  15
ENDBRANCH   4  13
BRANCH   1  18
HETATM   18  N1  UNL     1     -19.100  75.417  62.851  1.00  0.00    -0.378 N 
HETATM   19  C1  UNL     1     -17.738  75.701  63.246  1.00  0.00     0.147 C 
ATOM     20  H1  UNL     1     -19.551  76.036  62.178  1.00  0.00     0.160 HD
ENDBRANCH   1  18
BRANCH  12  21
HETATM   21  C8  UNL     1     -24.321  72.785  63.870  1.00  0.00     0.180 C 
BRANCH  21  22
HETATM   22  C9  UNL     1     -24.992  73.124  65.151  1.00  0.00     0.133 C 
HETATM   23  C10 UNL     1     -25.242  71.955  66.071  1.00  0.00     0.041 C 
BRANCH  22  24
HETATM   24  O1  UNL     1     -26.277  73.617  64.809  1.00  0.00    -0.394 OA
ATOM     25  H1  UNL     1     -26.676  73.906  65.621  1.00  0.00     0.210 HD
ENDBRANCH  22  24
ENDBRANCH  21  22
ENDBRANCH  12  21
BRANCH  11  26
HETATM   26  N7  UNL     1     -24.323  75.370  62.560  1.00  0.00    -0.234 N 
ATOM     27  H72 UNL     1     -24.544  76.337  62.800  1.00  0.00     0.174 HD
ATOM     28  H71 UNL     1     -25.075  74.945  62.019  1.00  0.00     0.174 HD
ENDBRANCH  11  26
TORSDOF 7
ENDMDL
MODEL 2
REMARK VINA RESULT: -6.349842895      2.286      4.575
REMARK  7 active torsions:
REMARK  status: ('A' for Active; 'I' for Inactive)
REMARK    1  A    between atoms: N1_2  and  C2_4 
REMARK    2  A    between atoms: C3_7  and  N3_8 
REMARK    3  A    between atoms: N3_8  and  N4_10 
REMARK    4  A    between atoms: C7_19  and  N7_20 
REMARK    5  A    between atoms: N8_23  and  C8_24 
REMARK    6  A    between atoms: C8_24  and  C9_25 
REMARK    7  A    between atoms: C9_25  and  O1_27 
ROOT
HETATM    1  C2  UNL     1     -21.067  74.790  63.137  1.00  0.00     0.148 A 
HETATM    2  N2  UNL     1     -22.320  74.401  62.847  1.00  0.00    -0.173 N 
ATOM      3  H2  UNL     1     -22.932  75.040  62.339  1.00  0.00     0.186 HD
HETATM    4  C3  UNL     1     -22.792  73.188  63.209  1.00  0.00     0.699 A 
HETATM    5  N5  UNL     1     -22.002  72.320  63.884  1.00  0.00    -0.172 N 
ATOM      6  H5  UNL     1     -22.375  71.408  64.148  1.00  0.00     0.186 HD
HETATM    7  C4  UNL     1     -20.734  72.632  64.214  1.00  0.00     0.170 A 
HETATM    8  C5  UNL     1     -20.285  73.884  63.825  1.00  0.00     0.140 A 
HETATM    9  N6  UNL     1     -19.019  73.983  64.251  1.00  0.00    -0.180 N 
HETATM   10  C6  UNL     1     -18.162  75.156  64.051  1.00  0.00     0.176 C 
HETATM   11  C7  UNL     1     -18.708  72.851  64.868  1.00  0.00     0.682 A 
HETATM   12  N8  UNL     1     -19.748  71.994  64.861  1.00  0.00    -0.163 N 
ENDROOT
BRANCH   4  13
HETATM   13  N3  UNL     1     -23.994  72.802  62.937  1.00  0.00    -0.138 N 
ATOM     14  H3  UNL     1     -24.782  73.094  63.515  1.00  0.00     0.205 HD
BRANCH  13  15
HETATM   15  N4  UNL     1     -24.183  71.974  61.828  1.00  0.00    -0.331 N 
ATOM     16  H42 UNL     1     -23.642  72.130  60.977  1.00  0.00     0.177 HD
ATOM     17  H41 UNL     1     -24.870  71.224  61.901  1.00  0.00     0.177 HD
ENDBRANCH  13  15
ENDBRANCH   4  13
BRANCH   1  18
HETATM   18  N1  UNL     1     -20.618  75.931  62.798  1.00  0.00    -0.378 N 
HETATM   19  C1  UNL     1     -21.383  76.873  62.009  1.00  0.00     0.147 C 
ATOM     20  H1  UNL     1     -19.679  76.194  63.094  1.00  0.00     0.160 HD
ENDBRANCH   1  18
BRANCH  12  21
HETATM   21  C8  UNL     1     -19.774  70.676  65.423  1.00  0.00     0.180 C 
BRANCH  21  22
HETATM   22  C9  UNL     1     -19.922  70.603  66.898  1.00  0.00     0.133 C 
HETATM   23  C10 UNL     1     -18.990  69.638  67.588  1.00  0.00     0.041 C 
BRANCH  22  24
HETATM   24  O1  UNL     1     -21.228  70.107  67.144  1.00  0.00    -0.394 OA
ATOM     25  H1  UNL     1     -21.589  70.639  67.844  1.00  0.00     0.210 HD
ENDBRANCH  22  24
ENDBRANCH  21  22
ENDBRANCH  12  21
BRANCH  11  26
HETATM   26  N7  UNL     1     -17.580  72.570  65.411  1.00  0.00    -0.234 N 
ATOM     27  H72 UNL     1     -17.444  72.550  66.423  1.00  0.00     0.174 HD
ATOM     28  H71 UNL     1     -16.715  72.341  64.921  1.00  0.00     0.174 HD
ENDBRANCH  11  26
TORSDOF 7
ENDMDL
MODEL 3
REMARK VINA RESULT: -6.309925694      1.371      1.556
REMARK  7 active torsions:
REMARK  status: ('A' for Active; 'I' for Inactive)
REMARK    1  A    between atoms: N1_2  and  C2_4 
REMARK    2  A    between atoms: C3_7  and  N3_8 
REMARK    3  A    between atoms: N3_8  and  N4_10 
REMARK    4  A    between atoms: C7_19  and  N7_20 
REMARK    5  A    between atoms: N8_23  and  C8_24 
REMARK    6  A    between atoms: C8_24  and  C9_25 
REMARK    7  A    between atoms: C9_25  and  O1_27 
ROOT
HETATM    1  C2  UNL     1     -19.541  74.559  63.388  1.00  0.00     0.148 A 
HETATM    2  N2  UNL     1     -19.019  73.468  63.974  1.00  0.00    -0.173 N 
ATOM      3  H2  UNL     1     -18.015  73.431  64.147  1.00  0.00     0.186 HD
HETATM    4  C3  UNL     1     -19.788  72.419  64.342  1.00  0.00     0.699 A 
HETATM    5  N5  UNL     1     -21.124  72.441  64.124  1.00  0.00    -0.172 N 
ATOM      6  H5  UNL     1     -21.689  71.641  64.409  1.00  0.00     0.186 HD
HETATM    7  C4  UNL     1     -21.726  73.496  63.542  1.00  0.00     0.170 A 
HETATM    8  C5  UNL     1     -20.906  74.553  63.179  1.00  0.00     0.140 A 
HETATM    9  N6  UNL     1     -21.699  75.477  62.625  1.00  0.00    -0.180 N 
HETATM   10  C6  UNL     1     -21.236  76.765  62.098  1.00  0.00     0.176 C 
HETATM   11  C7  UNL     1     -22.941  75.013  62.646  1.00  0.00     0.682 A 
HETATM   12  N8  UNL     1     -22.991  73.789  63.208  1.00  0.00    -0.163 N 
ENDROOT
BRANCH   4  13
HETATM   13  N3  UNL     1     -19.300  71.365  64.905  1.00  0.00    -0.138 N 
ATOM     14  H3  UNL     1     -18.293  71.205  64.936  1.00  0.00     0.205 HD
BRANCH  13  15
HETATM   15  N4  UNL     1     -20.191  70.451  65.473  1.00  0.00    -0.331 N 
ATOM     16  H42 UNL     1     -19.898  69.875  66.261  1.00  0.00     0.177 HD
ATOM     17  H41 UNL     1     -21.127  70.383  65.074  1.00  0.00     0.177 HD
ENDBRANCH  13  15
ENDBRANCH   4  13
BRANCH   1  18
HETATM   18  N1  UNL     1     -18.821  75.548  63.041  1.00  0.00    -0.378 N 
HETATM   19  C1  UNL     1     -17.478  75.756  63.539  1.00  0.00     0.147 C 
ATOM     20  H1  UNL     1     -19.206  76.225  62.382  1.00  0.00     0.160 HD
ENDBRANCH   1  18
BRANCH  12  21
HETATM   21  C8  UNL     1     -24.161  72.987  63.409  1.00  0.00     0.180 C 
BRANCH  21  22
HETATM   22  C9  UNL     1     -24.770  72.409  62.185  1.00  0.00     0.133 C 
HETATM   23  C10 UNL     1     -25.957  71.509  62.423  1.00  0.00     0.041 C 
BRANCH  22  24
HETATM   24  O1  UNL     1     -23.779  71.579  61.600  1.00  0.00    -0.394 OA
ATOM     25  H1  UNL     1     -23.783  71.773  60.670  1.00  0.00     0.210 HD
ENDBRANCH  22  24
ENDBRANCH  21  22
ENDBRANCH  12  21
BRANCH  11  26
HETATM   26  N7  UNL     1     -23.983  75.616  62.202  1.00  0.00    -0.234 N 
ATOM     27  H72 UNL     1     -24.029  76.024  61.267  1.00  0.00     0.174 HD
ATOM     28  H71 UNL     1     -24.858  75.757  62.707  1.00  0.00     0.174 HD
ENDBRANCH  11  26
TORSDOF 7
ENDMDL
MODEL 4
REMARK VINA RESULT: -6.073332563      2.574      6.276
REMARK  7 active torsions:
REMARK  status: ('A' for Active; 'I' for Inactive)
REMARK    1  A    between atoms: N1_2  and  C2_4 
REMARK    2  A    between atoms: C3_7  and  N3_8 
REMARK    3  A    between atoms: N3_8  and  N4_10 
REMARK    4  A    between atoms: C7_19  and  N7_20 
REMARK    5  A    between atoms: N8_23  and  C8_24 
REMARK    6  A    between atoms: C8_24  and  C9_25 
REMARK    7  A    between atoms: C9_25  and  O1_27 
ROOT
HETATM    1  C2  UNL     1     -21.940  73.655  63.412  1.00  0.00     0.148 A 
HETATM    2  N2  UNL     1     -22.405  74.714  62.727  1.00  0.00    -0.173 N 
ATOM      3  H2  UNL     1     -23.374  74.711  62.410  1.00  0.00     0.186 HD
HETATM    4  C3  UNL     1     -21.625  75.781  62.446  1.00  0.00     0.699 A 
HETATM    5  N5  UNL     1     -20.335  75.811  62.855  1.00  0.00    -0.172 N 
ATOM      6  H5  UNL     1     -19.761  76.626  62.635  1.00  0.00     0.186 HD
HETATM    7  C4  UNL     1     -19.790  74.792  63.547  1.00  0.00     0.170 A 
HETATM    8  C5  UNL     1     -20.621  73.715  63.816  1.00  0.00     0.140 A 
HETATM    9  N6  UNL     1     -19.885  72.830  64.500  1.00  0.00    -0.180 N 
HETATM   10  C6  UNL     1     -20.377  71.537  64.986  1.00  0.00     0.176 C 
HETATM   11  C7  UNL     1     -18.668  73.336  64.643  1.00  0.00     0.682 A 
HETATM   12  N8  UNL     1     -18.578  74.550  64.065  1.00  0.00    -0.163 N 
ENDROOT
BRANCH   4  13
HETATM   13  N3  UNL     1     -22.059  76.804  61.789  1.00  0.00    -0.138 N 
ATOM     14  H3  UNL     1     -22.763  76.698  61.058  1.00  0.00     0.205 HD
BRANCH  13  15
HETATM   15  N4  UNL     1     -21.537  78.060  62.108  1.00  0.00    -0.331 N 
ATOM     16  H42 UNL     1     -21.068  78.206  63.001  1.00  0.00     0.177 HD
ATOM     17  H41 UNL     1     -21.642  78.810  61.425  1.00  0.00     0.177 HD
ENDBRANCH  13  15
ENDBRANCH   4  13
BRANCH   1  18
HETATM   18  N1  UNL     1     -22.670  72.649  63.678  1.00  0.00    -0.378 N 
HETATM   19  C1  UNL     1     -23.978  72.766  64.287  1.00  0.00     0.147 C 
ATOM     20  H1  UNL     1     -22.319  71.718  63.453  1.00  0.00     0.160 HD
ENDBRANCH   1  18
BRANCH  12  21
HETATM   21  C8  UNL     1     -17.422  75.397  64.030  1.00  0.00     0.180 C 
BRANCH  21  22
HETATM   22  C9  UNL     1     -17.232  76.184  62.786  1.00  0.00     0.133 C 
HETATM   23  C10 UNL     1     -15.795  76.439  62.402  1.00  0.00     0.041 C 
BRANCH  22  24
HETATM   24  O1  UNL     1     -17.789  77.464  63.035  1.00  0.00    -0.394 OA
ATOM     25  H1  UNL     1     -17.844  77.900  62.192  1.00  0.00     0.210 HD
ENDBRANCH  22  24
ENDBRANCH  21  22
ENDBRANCH  12  21
BRANCH  11  26
HETATM   26  N7  UNL     1     -17.681  72.778  65.245  1.00  0.00    -0.234 N 
ATOM     27  H72 UNL     1     -17.798  71.992  65.884  1.00  0.00     0.174 HD
ATOM     28  H71 UNL     1     -16.699  73.041  65.162  1.00  0.00     0.174 HD
ENDBRANCH  11  26
TORSDOF 7
ENDMDL
MODEL 5
REMARK VINA RESULT: -6.073182483      1.486      2.305
REMARK  7 active torsions:
REMARK  status: ('A' for Active; 'I' for Inactive)
REMARK    1  A    between atoms: N1_2  and  C2_4 
REMARK    2  A    between atoms: C3_7  and  N3_8 
REMARK    3  A    between atoms: N3_8  and  N4_10 
REMARK    4  A    between atoms: C7_19  and  N7_20 
REMARK    5  A    between atoms: N8_23  and  C8_24 
REMARK    6  A    between atoms: C8_24  and  C9_25 
REMARK    7  A    between atoms: C9_25  and  O1_27 
ROOT
HETATM    1  C2  UNL     1     -18.500  72.738  64.824  1.00  0.00     0.148 A 
HETATM    2  N2  UNL     1     -18.741  71.572  65.447  1.00  0.00    -0.173 N 
ATOM      3  H2  UNL     1     -17.982  71.112  65.949  1.00  0.00     0.186 HD
HETATM    4  C3  UNL     1     -19.961  70.991  65.427  1.00  0.00     0.699 A 
HETATM    5  N5  UNL     1     -20.988  71.579  64.768  1.00  0.00    -0.172 N 
ATOM      6  H5  UNL     1     -21.902  71.126  64.764  1.00  0.00     0.186 HD
HETATM    7  C4  UNL     1     -20.831  72.748  64.118  1.00  0.00     0.170 A 
HETATM    8  C5  UNL     1     -19.566  73.314  64.161  1.00  0.00     0.140 A 
HETATM    9  N6  UNL     1     -19.635  74.452  63.459  1.00  0.00    -0.180 N 
HETATM   10  C6  UNL     1     -18.511  75.369  63.247  1.00  0.00     0.176 C 
HETATM   11  C7  UNL     1     -20.875  74.578  63.009  1.00  0.00     0.682 A 
HETATM   12  N8  UNL     1     -21.640  73.540  63.401  1.00  0.00    -0.163 N 
ENDROOT
BRANCH   4  13
HETATM   13  N3  UNL     1     -20.206  69.871  66.020  1.00  0.00    -0.138 N 
ATOM     14  H3  UNL     1     -20.075  68.982  65.538  1.00  0.00     0.205 HD
BRANCH  13  15
HETATM   15  N4  UNL     1     -20.654  69.913  67.343  1.00  0.00    -0.331 N 
ATOM     16  H42 UNL     1     -21.653  69.954  67.542  1.00  0.00     0.177 HD
ATOM     17  H41 UNL     1     -19.956  69.902  68.086  1.00  0.00     0.177 HD
ENDBRANCH  13  15
ENDBRANCH   4  13
BRANCH   1  18
HETATM   18  N1  UNL     1     -17.354  73.288  64.840  1.00  0.00    -0.378 N 
HETATM   19  C1  UNL     1     -16.814  73.944  66.012  1.00  0.00     0.147 C 
ATOM     20  H1  UNL     1     -16.790  73.266  63.991  1.00  0.00     0.160 HD
ENDBRANCH   1  18
BRANCH  12  21
HETATM   21  C8  UNL     1     -23.030  73.344  63.111  1.00  0.00     0.180 C 
BRANCH  21  22
HETATM   22  C9  UNL     1     -23.972  73.633  64.222  1.00  0.00     0.133 C 
HETATM   23  C10 UNL     1     -24.811  72.463  64.671  1.00  0.00     0.041 C 
BRANCH  22  24
HETATM   24  O1  UNL     1     -24.893  74.589  63.725  1.00  0.00    -0.394 OA
ATOM     25  H1  UNL     1     -25.432  74.850  64.463  1.00  0.00     0.210 HD
ENDBRANCH  22  24
ENDBRANCH  21  22
ENDBRANCH  12  21
BRANCH  11  26
HETATM   26  N7  UNL     1     -21.328  75.543  62.294  1.00  0.00    -0.234 N 
ATOM     27  H72 UNL     1     -21.518  76.470  62.676  1.00  0.00     0.174 HD
ATOM     28  H71 UNL     1     -21.545  75.504  61.298  1.00  0.00     0.174 HD
ENDBRANCH  11  26
TORSDOF 7
ENDMDL
