MODEL 1
REMARK VINA RESULT: -7.446650488      0.000      0.000
REMARK  7 active torsions:
REMARK  status: ('A' for Active; 'I' for Inactive)
REMARK    1  A    between atoms: C3_3  and  O1_5 
REMARK    2  A    between atoms: C3_3  and  C5_7 
REMARK    3  A    between atoms: C5_7  and  N1_8 
REMARK    4  A    between atoms: N1_8  and  N2_10 
REMARK    5  A    between atoms: C7_16  and  N4_17 
REMARK    6  A    between atoms: N4_17  and  N5_19 
REMARK    7  A    between atoms: N5_19  and  O2_20 
ROOT
HETATM    1  C1  UNL     1     -16.677  67.756  71.142  1.00  0.00     0.015 C 
HETATM    2  C2  UNL     1     -17.064  68.899  71.204  1.00  0.00    -0.075 C 
HETATM    3  C3  UNL     1     -17.512  70.290  71.269  1.00  0.00     0.163 C 
HETATM    4  C4  UNL     1     -16.362  71.256  71.332  1.00  0.00     0.065 C 
ENDROOT
BRANCH   3   5
HETATM    5  O1  UNL     1     -18.318  70.416  72.401  1.00  0.00    -0.373 OA
ATOM      6  H1  UNL     1     -18.887  71.164  72.262  1.00  0.00     0.212 HD
ENDBRANCH   3   5
BRANCH   3   7
HETATM    7  C5  UNL     1     -18.342  70.643  70.023  1.00  0.00     0.178 C 
HETATM    8  C6  UNL     1     -17.466  71.482  69.167  1.00  0.00     0.181 C 
HETATM    9  N3  UNL     1     -17.777  71.517  67.775  1.00  0.00    -0.366 N 
HETATM   10  C7  UNL     1     -18.463  70.632  67.153  1.00  0.00     0.187 C 
ATOM     11  H3  UNL     1     -17.426  72.307  67.234  1.00  0.00     0.161 HD
HETATM   12  C10 UNL     1     -18.968  69.510  67.920  1.00  0.00     0.288 C 
HETATM   13  O3  UNL     1     -19.650  68.599  67.386  1.00  0.00    -0.264 OA
HETATM   14  N6  UNL     1     -18.691  69.417  69.340  1.00  0.00    -0.322 N 
ATOM     15  H6  UNL     1     -18.741  68.526  69.835  1.00  0.00     0.165 HD
BRANCH   7  16
HETATM   16  N1  UNL     1     -19.553  71.277  70.464  1.00  0.00    -0.309 N 
ATOM     17  H1  UNL     1     -19.583  72.266  70.713  1.00  0.00     0.182 HD
BRANCH  16  18
HETATM   18  N2  UNL     1     -20.664  70.482  70.532  1.00  0.00    -0.347 N 
ATOM     19  H22 UNL     1     -20.831  69.883  71.341  1.00  0.00     0.176 HD
ATOM     20  H21 UNL     1     -21.302  70.528  69.738  1.00  0.00     0.176 HD
ENDBRANCH  16  18
ENDBRANCH   7  16
BRANCH  10  21
HETATM   21  N4  UNL     1     -18.710  70.765  65.778  1.00  0.00    -0.255 N 
ATOM     22  H4  UNL     1     -17.991  70.453  65.125  1.00  0.00     0.191 HD
BRANCH  21  23
HETATM   23  N5  UNL     1     -19.888  71.302  65.257  1.00  0.00    -0.178 N 
HETATM   24  C8  UNL     1     -19.914  72.211  64.349  1.00  0.00     0.112 C 
HETATM   25  C9  UNL     1     -18.669  72.780  63.762  1.00  0.00     0.059 C 
BRANCH  23  26
HETATM   26  O2  UNL     1     -21.080  70.835  65.740  1.00  0.00    -0.268 OA
ATOM     27  H2  UNL     1     -21.861  71.354  65.586  1.00  0.00     0.247 HD
ENDBRANCH  23  26
ENDBRANCH  21  23
ENDBRANCH  10  21
ENDBRANCH   3   7
TORSDOF 7
ENDMDL
MODEL 2
REMARK VINA RESULT: -7.434148615      1.175      1.684
REMARK  7 active torsions:
REMARK  status: ('A' for Active; 'I' for Inactive)
REMARK    1  A    between atoms: C3_3  and  O1_5 
REMARK    2  A    between atoms: C3_3  and  C5_7 
REMARK    3  A    between atoms: C5_7  and  N1_8 
REMARK    4  A    between atoms: N1_8  and  N2_10 
REMARK    5  A    between atoms: C7_16  and  N4_17 
REMARK    6  A    between atoms: N4_17  and  N5_19 
REMARK    7  A    between atoms: N5_19  and  O2_20 
ROOT
HETATM    1  C1  UNL     1     -16.060  71.899  71.804  1.00  0.00     0.015 C 
HETATM    2  C2  UNL     1     -16.464  70.990  71.118  1.00  0.00    -0.075 C 
HETATM    3  C3  UNL     1     -16.970  69.885  70.304  1.00  0.00     0.163 C 
HETATM    4  C4  UNL     1     -17.672  68.845  71.129  1.00  0.00     0.065 C 
ENDROOT
BRANCH   3   5
HETATM    5  O1  UNL     1     -15.880  69.326  69.636  1.00  0.00    -0.373 OA
ATOM      6  H1  UNL     1     -15.756  68.449  69.980  1.00  0.00     0.212 HD
ENDBRANCH   3   5
BRANCH   3   7
HETATM    7  C5  UNL     1     -17.977  70.406  69.264  1.00  0.00     0.178 C 
HETATM    8  C6  UNL     1     -17.193  71.218  68.300  1.00  0.00     0.181 C 
HETATM    9  N3  UNL     1     -17.755  71.384  66.998  1.00  0.00    -0.366 N 
HETATM   10  C7  UNL     1     -18.638  70.617  66.477  1.00  0.00     0.187 C 
ATOM     11  H3  UNL     1     -17.430  72.174  66.442  1.00  0.00     0.161 HD
HETATM   12  C10 UNL     1     -19.107  69.495  67.266  1.00  0.00     0.288 C 
HETATM   13  O3  UNL     1     -19.972  68.695  66.827  1.00  0.00    -0.264 OA
HETATM   14  N6  UNL     1     -18.579  69.272  68.598  1.00  0.00    -0.322 N 
ATOM     15  H6  UNL     1     -18.631  68.357  69.044  1.00  0.00     0.165 HD
BRANCH   7  16
HETATM   16  N1  UNL     1     -19.008  71.119  69.966  1.00  0.00    -0.309 N 
ATOM     17  H1  UNL     1     -18.811  71.972  70.490  1.00  0.00     0.182 HD
BRANCH  16  18
HETATM   18  N2  UNL     1     -20.267  70.592  69.894  1.00  0.00    -0.347 N 
ATOM     19  H22 UNL     1     -20.410  69.595  69.734  1.00  0.00     0.176 HD
ATOM     20  H21 UNL     1     -21.040  71.249  70.008  1.00  0.00     0.176 HD
ENDBRANCH  16  18
ENDBRANCH   7  16
BRANCH  10  21
HETATM   21  N4  UNL     1     -19.124  70.873  65.184  1.00  0.00    -0.255 N 
ATOM     22  H4  UNL     1     -18.634  70.457  64.392  1.00  0.00     0.191 HD
BRANCH  21  23
HETATM   23  N5  UNL     1     -20.243  71.666  64.928  1.00  0.00    -0.178 N 
HETATM   24  C8  UNL     1     -20.203  72.750  64.239  1.00  0.00     0.112 C 
HETATM   25  C9  UNL     1     -18.938  73.264  63.644  1.00  0.00     0.059 C 
BRANCH  23  26
HETATM   26  O2  UNL     1     -21.449  71.267  65.437  1.00  0.00    -0.268 OA
ATOM     27  H2  UNL     1     -22.055  71.936  65.733  1.00  0.00     0.247 HD
ENDBRANCH  23  26
ENDBRANCH  21  23
ENDBRANCH  10  21
ENDBRANCH   3   7
TORSDOF 7
ENDMDL
MODEL 3
REMARK VINA RESULT: -7.311595970      1.591      2.140
REMARK  7 active torsions:
REMARK  status: ('A' for Active; 'I' for Inactive)
REMARK    1  A    between atoms: C3_3  and  O1_5 
REMARK    2  A    between atoms: C3_3  and  C5_7 
REMARK    3  A    between atoms: C5_7  and  N1_8 
REMARK    4  A    between atoms: N1_8  and  N2_10 
REMARK    5  A    between atoms: C7_16  and  N4_17 
REMARK    6  A    between atoms: N4_17  and  N5_19 
REMARK    7  A    between atoms: N5_19  and  O2_20 
ROOT
HETATM    1  C1  UNL     1     -16.235  71.938  71.775  1.00  0.00     0.015 C 
HETATM    2  C2  UNL     1     -16.508  71.128  70.920  1.00  0.00    -0.075 C 
HETATM    3  C3  UNL     1     -16.852  70.135  69.903  1.00  0.00     0.163 C 
HETATM    4  C4  UNL     1     -17.240  68.814  70.505  1.00  0.00     0.065 C 
ENDROOT
BRANCH   3   5
HETATM    5  O1  UNL     1     -15.741  69.987  69.072  1.00  0.00    -0.373 OA
ATOM      6  H1  UNL     1     -15.363  69.134  69.254  1.00  0.00     0.212 HD
ENDBRANCH   3   5
BRANCH   3   7
HETATM    7  C5  UNL     1     -18.043  70.624  69.061  1.00  0.00     0.178 C 
HETATM    8  C6  UNL     1     -17.461  71.243  67.844  1.00  0.00     0.181 C 
HETATM    9  N3  UNL     1     -18.305  71.311  66.694  1.00  0.00    -0.366 N 
HETATM   10  C7  UNL     1     -19.333  70.574  66.495  1.00  0.00     0.187 C 
ATOM     11  H3  UNL     1     -18.071  71.998  65.978  1.00  0.00     0.161 HD
HETATM   12  C10 UNL     1     -19.671  69.599  67.513  1.00  0.00     0.288 C 
HETATM   13  O3  UNL     1     -20.665  68.838  67.394  1.00  0.00    -0.264 OA
HETATM   14  N6  UNL     1     -18.857  69.482  68.706  1.00  0.00    -0.322 N 
ATOM     15  H6  UNL     1     -18.859  68.633  69.271  1.00  0.00     0.165 HD
BRANCH   7  16
HETATM   16  N1  UNL     1     -18.829  71.505  69.877  1.00  0.00    -0.309 N 
ATOM     17  H1  UNL     1     -18.558  72.476  70.037  1.00  0.00     0.182 HD
BRANCH  16  18
HETATM   18  N2  UNL     1     -19.961  70.973  70.430  1.00  0.00    -0.347 N 
ATOM     19  H22 UNL     1     -19.976  70.669  71.403  1.00  0.00     0.176 HD
ATOM     20  H21 UNL     1     -20.773  70.902  69.817  1.00  0.00     0.176 HD
ENDBRANCH  16  18
ENDBRANCH   7  16
BRANCH  10  21
HETATM   21  N4  UNL     1     -20.095  70.724  65.325  1.00  0.00    -0.255 N 
ATOM     22  H4  UNL     1     -20.906  70.119  65.195  1.00  0.00     0.191 HD
BRANCH  21  23
HETATM   23  N5  UNL     1     -19.801  71.658  64.331  1.00  0.00    -0.178 N 
HETATM   24  C8  UNL     1     -20.640  72.537  63.911  1.00  0.00     0.112 C 
HETATM   25  C9  UNL     1     -22.022  72.638  64.458  1.00  0.00     0.059 C 
BRANCH  23  26
HETATM   26  O2  UNL     1     -18.552  71.636  63.772  1.00  0.00    -0.268 OA
ATOM     27  H2  UNL     1     -18.331  72.312  63.142  1.00  0.00     0.247 HD
ENDBRANCH  23  26
ENDBRANCH  21  23
ENDBRANCH  10  21
ENDBRANCH   3   7
TORSDOF 7
ENDMDL
MODEL 4
REMARK VINA RESULT: -7.159143884      1.885      2.613
REMARK  7 active torsions:
REMARK  status: ('A' for Active; 'I' for Inactive)
REMARK    1  A    between atoms: C3_3  and  O1_5 
REMARK    2  A    between atoms: C3_3  and  C5_7 
REMARK    3  A    between atoms: C5_7  and  N1_8 
REMARK    4  A    between atoms: N1_8  and  N2_10 
REMARK    5  A    between atoms: C7_16  and  N4_17 
REMARK    6  A    between atoms: N4_17  and  N5_19 
REMARK    7  A    between atoms: N5_19  and  O2_20 
ROOT
HETATM    1  C1  UNL     1     -16.574  71.786  71.755  1.00  0.00     0.015 C 
HETATM    2  C2  UNL     1     -17.452  71.125  71.251  1.00  0.00    -0.075 C 
HETATM    3  C3  UNL     1     -18.527  70.345  70.639  1.00  0.00     0.163 C 
HETATM    4  C4  UNL     1     -19.869  71.003  70.797  1.00  0.00     0.065 C 
ENDROOT
BRANCH   3   5
HETATM    5  O1  UNL     1     -18.525  69.087  71.242  1.00  0.00    -0.373 OA
ATOM      6  H1  UNL     1     -19.397  68.723  71.141  1.00  0.00     0.212 HD
ENDBRANCH   3   5
BRANCH   3   7
HETATM    7  C5  UNL     1     -18.272  70.176  69.131  1.00  0.00     0.178 C 
HETATM    8  C6  UNL     1     -19.601  69.948  68.511  1.00  0.00     0.181 C 
HETATM    9  N3  UNL     1     -19.722  70.266  67.124  1.00  0.00    -0.366 N 
HETATM   10  C7  UNL     1     -18.948  71.057  66.482  1.00  0.00     0.187 C 
ATOM     11  H3  UNL     1     -20.483  69.828  66.606  1.00  0.00     0.161 HD
HETATM   12  C10 UNL     1     -17.862  71.679  67.214  1.00  0.00     0.288 C 
HETATM   13  O3  UNL     1     -17.057  72.468  66.658  1.00  0.00    -0.264 OA
HETATM   14  N6  UNL     1     -17.681  71.395  68.624  1.00  0.00    -0.322 N 
ATOM     15  H6  UNL     1     -17.159  72.028  69.232  1.00  0.00     0.165 HD
BRANCH   7  16
HETATM   16  N1  UNL     1     -17.327  69.109  68.960  1.00  0.00    -0.309 N 
ATOM     17  H1  UNL     1     -17.612  68.186  68.630  1.00  0.00     0.182 HD
BRANCH  16  18
HETATM   18  N2  UNL     1     -16.025  69.396  69.262  1.00  0.00    -0.347 N 
ATOM     19  H22 UNL     1     -15.368  69.678  68.534  1.00  0.00     0.176 HD
ATOM     20  H21 UNL     1     -15.759  69.313  70.243  1.00  0.00     0.176 HD
ENDBRANCH  16  18
ENDBRANCH   7  16
BRANCH  10  21
HETATM   21  N4  UNL     1     -19.159  71.300  65.115  1.00  0.00    -0.255 N 
ATOM     22  H4  UNL     1     -18.505  70.894  64.446  1.00  0.00     0.191 HD
BRANCH  21  23
HETATM   23  N5  UNL     1     -20.215  72.069  64.625  1.00  0.00    -0.178 N 
HETATM   24  C8  UNL     1     -20.054  73.131  63.920  1.00  0.00     0.112 C 
HETATM   25  C9  UNL     1     -18.704  73.643  63.557  1.00  0.00     0.059 C 
BRANCH  23  26
HETATM   26  O2  UNL     1     -21.492  71.669  64.912  1.00  0.00    -0.268 OA
ATOM     27  H2  UNL     1     -22.161  71.791  64.247  1.00  0.00     0.247 HD
ENDBRANCH  23  26
ENDBRANCH  21  23
ENDBRANCH  10  21
ENDBRANCH   3   7
TORSDOF 7
ENDMDL
MODEL 5
REMARK VINA RESULT: -6.844187644      5.640      8.057
REMARK  7 active torsions:
REMARK  status: ('A' for Active; 'I' for Inactive)
REMARK    1  A    between atoms: C3_3  and  O1_5 
REMARK    2  A    between atoms: C3_3  and  C5_7 
REMARK    3  A    between atoms: C5_7  and  N1_8 
REMARK    4  A    between atoms: N1_8  and  N2_10 
REMARK    5  A    between atoms: C7_16  and  N4_17 
REMARK    6  A    between atoms: N4_17  and  N5_19 
REMARK    7  A    between atoms: N5_19  and  O2_20 
ROOT
HETATM    1  C1  UNL     1     -24.988  72.141  65.883  1.00  0.00     0.015 C 
HETATM    2  C2  UNL     1     -24.801  73.003  65.057  1.00  0.00    -0.075 C 
HETATM    3  C3  UNL     1     -24.564  74.061  64.075  1.00  0.00     0.163 C 
HETATM    4  C4  UNL     1     -24.512  75.423  64.707  1.00  0.00     0.065 C 
ENDROOT
BRANCH   3   5
HETATM    5  O1  UNL     1     -25.595  73.996  63.136  1.00  0.00    -0.373 OA
ATOM      6  H1  UNL     1     -25.263  73.523  62.383  1.00  0.00     0.212 HD
ENDBRANCH   3   5
BRANCH   3   7
HETATM    7  C5  UNL     1     -23.222  73.834  63.359  1.00  0.00     0.178 C 
HETATM    8  C6  UNL     1     -22.500  75.130  63.414  1.00  0.00     0.181 C 
HETATM    9  N3  UNL     1     -21.079  75.076  63.295  1.00  0.00    -0.366 N 
HETATM   10  C7  UNL     1     -20.362  74.040  63.526  1.00  0.00     0.187 C 
ATOM     11  H3  UNL     1     -20.598  75.926  63.004  1.00  0.00     0.161 HD
HETATM   12  C10 UNL     1     -21.042  72.827  63.936  1.00  0.00     0.288 C 
HETATM   13  O3  UNL     1     -20.412  71.767  64.181  1.00  0.00    -0.264 OA
HETATM   14  N6  UNL     1     -22.485  72.814  64.072  1.00  0.00    -0.322 N 
ATOM     15  H6  UNL     1     -22.959  72.117  64.646  1.00  0.00     0.165 HD
BRANCH   7  16
HETATM   16  N1  UNL     1     -23.503  73.349  62.037  1.00  0.00    -0.309 N 
ATOM     17  H1  UNL     1     -23.410  73.945  61.213  1.00  0.00     0.182 HD
BRANCH  16  18
HETATM   18  N2  UNL     1     -23.901  72.044  61.941  1.00  0.00    -0.347 N 
ATOM     19  H22 UNL     1     -23.371  71.300  62.394  1.00  0.00     0.176 HD
ATOM     20  H21 UNL     1     -24.747  71.868  61.399  1.00  0.00     0.176 HD
ENDBRANCH  16  18
ENDBRANCH   7  16
BRANCH  10  21
HETATM   21  N4  UNL     1     -18.967  74.097  63.377  1.00  0.00    -0.255 N 
ATOM     22  H4  UNL     1     -18.501  73.335  62.884  1.00  0.00     0.191 HD
BRANCH  21  23
HETATM   23  N5  UNL     1     -18.183  75.142  63.870  1.00  0.00    -0.178 N 
HETATM   24  C8  UNL     1     -17.438  75.041  64.912  1.00  0.00     0.112 C 
HETATM   25  C9  UNL     1     -17.343  73.780  65.699  1.00  0.00     0.059 C 
BRANCH  23  26
HETATM   26  O2  UNL     1     -18.211  76.338  63.207  1.00  0.00    -0.268 OA
ATOM     27  H2  UNL     1     -18.218  77.137  63.722  1.00  0.00     0.247 HD
ENDBRANCH  23  26
ENDBRANCH  21  23
ENDBRANCH  10  21
ENDBRANCH   3   7
TORSDOF 7
ENDMDL
