MODEL 1
REMARK VINA RESULT: -4.999176967      0.000      0.000
REMARK  4 active torsions:
REMARK  status: ('A' for Active; 'I' for Inactive)
REMARK    1  A    between atoms: N1_2  and  N2_4 
REMARK    2  A    between atoms: C2_6  and  C3_7 
REMARK    3  A    between atoms: C3_7  and  N3_8 
REMARK    4  A    between atoms: N3_8  and  N4_10 
ROOT
HETATM    1  N2  UNL     1     182.998   7.531  63.588  1.00  0.00    -0.315 N 
ATOM      2  H2  UNL     1     182.242   7.871  64.182  1.00  0.00     0.185 HD
HETATM    3  C2  UNL     1     182.932   7.728  62.315  1.00  0.00     0.125 C 
ENDROOT
BRANCH   3   4
HETATM    4  C3  UNL     1     184.006   7.252  61.422  1.00  0.00     0.125 C 
BRANCH   4   5
HETATM    5  N3  UNL     1     183.737   6.657  60.342  1.00  0.00    -0.317 N 
ATOM      6  H3  UNL     1     184.643   6.315  60.023  1.00  0.00     0.185 HD
BRANCH   5   7
HETATM    7  N4  UNL     1     182.947   6.265  59.456  1.00  0.00    -0.345 N 
ATOM      8  H42 UNL     1     182.117   6.818  59.670  1.00  0.00     0.176 HD
ATOM      9  H41 UNL     1     182.702   5.692  58.648  1.00  0.00     0.176 HD
ENDBRANCH   5   7
ENDBRANCH   4   5
ENDBRANCH   3   4
BRANCH   1  10
HETATM   10  N1  UNL     1     184.068   6.870  64.173  1.00  0.00    -0.341 N 
HETATM   11  C1  UNL     1     185.171   7.598  64.742  1.00  0.00     0.167 C 
ATOM     12  H1  UNL     1     184.074   5.850  64.200  1.00  0.00     0.179 HD
ENDBRANCH   1  10
TORSDOF 4
ENDMDL
MODEL 2
REMARK VINA RESULT: -4.908109030      1.627      1.709
REMARK  4 active torsions:
REMARK  status: ('A' for Active; 'I' for Inactive)
REMARK    1  A    between atoms: N1_2  and  N2_4 
REMARK    2  A    between atoms: C2_6  and  C3_7 
REMARK    3  A    between atoms: C3_7  and  N3_8 
REMARK    4  A    between atoms: N3_8  and  N4_10 
ROOT
HETATM    1  N2  UNL     1     184.277   8.275  64.714  1.00  0.00    -0.315 N 
ATOM      2  H2  UNL     1     184.026   8.827  65.535  1.00  0.00     0.185 HD
HETATM    3  C2  UNL     1     183.507   8.305  63.679  1.00  0.00     0.125 C 
ENDROOT
BRANCH   3   4
HETATM    4  C3  UNL     1     183.836   7.523  62.472  1.00  0.00     0.125 C 
BRANCH   4   5
HETATM    5  N3  UNL     1     182.946   7.229  61.626  1.00  0.00    -0.317 N 
ATOM      6  H3  UNL     1     183.467   6.766  60.881  1.00  0.00     0.185 HD
BRANCH   5   7
HETATM    7  N4  UNL     1     181.765   7.206  61.218  1.00  0.00    -0.345 N 
ATOM      8  H42 UNL     1     181.860   7.660  60.310  1.00  0.00     0.176 HD
ATOM      9  H41 UNL     1     180.776   6.976  61.316  1.00  0.00     0.176 HD
ENDBRANCH   5   7
ENDBRANCH   4   5
ENDBRANCH   3   4
BRANCH   1  10
HETATM   10  N1  UNL     1     185.436   7.515  64.743  1.00  0.00    -0.341 N 
HETATM   11  C1  UNL     1     186.425   7.705  65.771  1.00  0.00     0.167 C 
ATOM     12  H1  UNL     1     185.591   6.808  64.024  1.00  0.00     0.179 HD
ENDBRANCH   1  10
TORSDOF 4
ENDMDL
MODEL 3
REMARK VINA RESULT: -4.730457093      2.170      4.076
REMARK  4 active torsions:
REMARK  status: ('A' for Active; 'I' for Inactive)
REMARK    1  A    between atoms: N1_2  and  N2_4 
REMARK    2  A    between atoms: C2_6  and  C3_7 
REMARK    3  A    between atoms: C3_7  and  N3_8 
REMARK    4  A    between atoms: N3_8  and  N4_10 
ROOT
HETATM    1  N2  UNL     1     185.119   7.106  59.351  1.00  0.00    -0.315 N 
ATOM      2  H2  UNL     1     185.707   7.550  58.646  1.00  0.00     0.185 HD
HETATM    3  C2  UNL     1     184.855   7.745  60.441  1.00  0.00     0.125 C 
ENDROOT
BRANCH   3   4
HETATM    4  C3  UNL     1     184.009   7.137  61.485  1.00  0.00     0.125 C 
BRANCH   4   5
HETATM    5  N3  UNL     1     182.798   7.469  61.614  1.00  0.00    -0.317 N 
ATOM      6  H3  UNL     1     182.844   8.460  61.854  1.00  0.00     0.185 HD
BRANCH   5   7
HETATM    7  N4  UNL     1     181.572   7.227  61.603  1.00  0.00    -0.345 N 
ATOM      8  H42 UNL     1     181.559   6.284  61.215  1.00  0.00     0.176 HD
ATOM      9  H41 UNL     1     180.597   7.474  61.774  1.00  0.00     0.176 HD
ENDBRANCH   5   7
ENDBRANCH   4   5
ENDBRANCH   3   4
BRANCH   1  10
HETATM   10  N1  UNL     1     184.626   5.832  59.111  1.00  0.00    -0.341 N 
HETATM   11  C1  UNL     1     183.494   5.623  58.250  1.00  0.00     0.167 C 
ATOM     12  H1  UNL     1     185.075   5.029  59.553  1.00  0.00     0.179 HD
ENDBRANCH   1  10
TORSDOF 4
ENDMDL
MODEL 4
REMARK VINA RESULT: -4.659385764      1.841      4.294
REMARK  4 active torsions:
REMARK  status: ('A' for Active; 'I' for Inactive)
REMARK    1  A    between atoms: N1_2  and  N2_4 
REMARK    2  A    between atoms: C2_6  and  C3_7 
REMARK    3  A    between atoms: C3_7  and  N3_8 
REMARK    4  A    between atoms: N3_8  and  N4_10 
ROOT
HETATM    1  N2  UNL     1     183.044   7.552  63.305  1.00  0.00    -0.315 N 
ATOM      2  H2  UNL     1     182.082   7.876  63.211  1.00  0.00     0.185 HD
HETATM    3  C2  UNL     1     183.755   7.976  64.295  1.00  0.00     0.125 C 
ENDROOT
BRANCH   3   4
HETATM    4  C3  UNL     1     185.151   7.529  64.466  1.00  0.00     0.125 C 
BRANCH   4   5
HETATM    5  N3  UNL     1     185.832   7.897  65.463  1.00  0.00    -0.317 N 
ATOM      6  H3  UNL     1     185.274   8.646  65.873  1.00  0.00     0.185 HD
BRANCH   5   7
HETATM    7  N4  UNL     1     186.829   7.829  66.214  1.00  0.00    -0.345 N 
ATOM      8  H42 UNL     1     186.531   8.414  66.994  1.00  0.00     0.176 HD
ATOM      9  H41 UNL     1     187.766   7.502  66.450  1.00  0.00     0.176 HD
ENDBRANCH   5   7
ENDBRANCH   4   5
ENDBRANCH   3   4
BRANCH   1  10
HETATM   10  N1  UNL     1     183.551   6.667  62.365  1.00  0.00    -0.341 N 
HETATM   11  C1  UNL     1     184.048   7.132  61.098  1.00  0.00     0.167 C 
ATOM     12  H1  UNL     1     183.571   5.669  62.575  1.00  0.00     0.179 HD
ENDBRANCH   1  10
TORSDOF 4
ENDMDL
MODEL 5
REMARK VINA RESULT: -4.605673809      1.500      3.922
REMARK  4 active torsions:
REMARK  status: ('A' for Active; 'I' for Inactive)
REMARK    1  A    between atoms: N1_2  and  N2_4 
REMARK    2  A    between atoms: C2_6  and  C3_7 
REMARK    3  A    between atoms: C3_7  and  N3_8 
REMARK    4  A    between atoms: N3_8  and  N4_10 
ROOT
HETATM    1  N2  UNL     1     182.882   7.624  61.637  1.00  0.00    -0.315 N 
ATOM      2  H2  UNL     1     182.114   8.076  61.140  1.00  0.00     0.185 HD
HETATM    3  C2  UNL     1     183.037   7.857  62.896  1.00  0.00     0.125 C 
ENDROOT
BRANCH   3   4
HETATM    4  C3  UNL     1     184.134   7.222  63.651  1.00  0.00     0.125 C 
BRANCH   4   5
HETATM    5  N3  UNL     1     184.705   7.827  64.600  1.00  0.00    -0.317 N 
ATOM      6  H3  UNL     1     183.992   8.475  64.935  1.00  0.00     0.185 HD
BRANCH   5   7
HETATM    7  N4  UNL     1     185.681   8.053  65.347  1.00  0.00    -0.345 N 
ATOM      8  H42 UNL     1     186.438   7.614  64.823  1.00  0.00     0.176 HD
ATOM      9  H41 UNL     1     186.108   8.438  66.190  1.00  0.00     0.176 HD
ENDBRANCH   5   7
ENDBRANCH   4   5
ENDBRANCH   3   4
BRANCH   1  10
HETATM   10  N1  UNL     1     183.729   6.777  60.939  1.00  0.00    -0.341 N 
HETATM   11  C1  UNL     1     184.750   7.296  60.069  1.00  0.00     0.167 C 
ATOM     12  H1  UNL     1     183.627   5.767  61.043  1.00  0.00     0.179 HD
ENDBRANCH   1  10
TORSDOF 4
ENDMDL
