MODEL 1
REMARK VINA RESULT: -8.138964073      0.000      0.000
REMARK  20 active torsions:
REMARK  status: ('A' for Active; 'I' for Inactive)
REMARK    1  A    between atoms: S1_2  and  N1_3 
REMARK    2  A    between atoms: S1_2  and  C2_6 
REMARK    3  A    between atoms: C2_6  and  C3_7 
REMARK    4  A    between atoms: C3_7  and  C4_8 
REMARK    5  A    between atoms: C4_8  and  C5_9 
REMARK       I    between atoms: C5_9  and  N2_11 
REMARK    6  A    between atoms: N2_11  and  C6_13 
REMARK    7  A    between atoms: C6_13  and  C7_14 
REMARK    8  A    between atoms: C7_14  and  C8_15 
REMARK       I    between atoms: C8_15  and  N3_17 
REMARK    9  A    between atoms: N3_17  and  C9_19 
REMARK   10  A    between atoms: N4_21  and  C11_22 
REMARK   11  A    between atoms: C11_22  and  C12_23 
REMARK   12  A    between atoms: C12_23  and  C13_24 
REMARK   13  A    between atoms: C13_24  and  N5_25 
REMARK   14  A    between atoms: N5_25  and  C14_28 
REMARK   15  A    between atoms: C14_28  and  C15_29 
REMARK   16  A    between atoms: C15_29  and  C16_30 
REMARK   17  A    between atoms: C16_30  and  N6_31 
REMARK       I    between atoms: N6_31  and  C17_33 
REMARK   18  A    between atoms: C19_40  and  N9_41 
REMARK       I    between atoms: N9_41  and  C20_43 
REMARK   19  A    between atoms: C20_43  and  C21_45 
REMARK   20  A    between atoms: C21_45  and  C22_46 
ROOT
HETATM    1  C9  UNL     1      41.378  20.306  65.824  1.00  0.00     0.134 C 
HETATM    2  C10 UNL     1      42.171  21.586  66.226  1.00  0.00     0.153 C 
HETATM    3  N4  UNL     1      43.521  21.049  66.373  1.00  0.00    -0.348 N 
HETATM    4  C18 UNL     1      43.641  19.818  65.674  1.00  0.00     0.244 C 
HETATM    5  O3  UNL     1      44.607  19.014  65.706  1.00  0.00    -0.271 OA
HETATM    6  C19 UNL     1      42.348  19.695  64.887  1.00  0.00     0.201 C 
ENDROOT
BRANCH   1   7
HETATM    7  N3  UNL     1      41.164  19.503  67.013  1.00  0.00    -0.352 N 
HETATM    8  C8  UNL     1      39.879  19.221  67.511  1.00  0.00     0.219 C 
HETATM    9  O2  UNL     1      38.866  19.673  66.925  1.00  0.00    -0.274 OA
ATOM     10  H3  UNL     1      41.976  19.130  67.507  1.00  0.00     0.163 HD
BRANCH   8  11
HETATM   11  C7  UNL     1      39.719  18.399  68.722  1.00  0.00     0.122 C 
BRANCH  11  12
HETATM   12  C6  UNL     1      38.806  17.231  68.584  1.00  0.00     0.132 C 
BRANCH  12  13
HETATM   13  N2  UNL     1      38.574  16.715  67.288  1.00  0.00    -0.361 N 
HETATM   14  C5  UNL     1      37.618  15.778  66.876  1.00  0.00     0.217 C 
HETATM   15  O1  UNL     1      36.828  15.275  67.703  1.00  0.00    -0.274 OA
ATOM     16  H2  UNL     1      39.185  17.073  66.554  1.00  0.00     0.162 HD
BRANCH  14  17
HETATM   17  C4  UNL     1      37.502  15.348  65.441  1.00  0.00     0.103 C 
BRANCH  17  18
HETATM   18  C3  UNL     1      36.309  15.936  64.785  1.00  0.00     0.020 C 
BRANCH  18  19
HETATM   19  C2  UNL     1      35.070  15.119  64.749  1.00  0.00     0.084 C 
BRANCH  19  20
HETATM   20  S1  UNL     1      34.684  14.471  63.158  1.00  0.00    -0.139 SA
HETATM   21  C1  UNL     1      32.996  14.961  62.704  1.00  0.00     0.101 C 
BRANCH  20  22
HETATM   22  N1  UNL     1      34.685  12.723  63.194  1.00  0.00    -0.383 NA
ATOM     23  H12 UNL     1      34.744  12.348  62.247  1.00  0.00     0.163 HD
ATOM     24  H11 UNL     1      35.519  12.454  63.716  1.00  0.00     0.163 HD
ENDBRANCH  20  22
ENDBRANCH  19  20
ENDBRANCH  18  19
ENDBRANCH  17  18
ENDBRANCH  14  17
ENDBRANCH  12  13
ENDBRANCH  11  12
ENDBRANCH   8  11
ENDBRANCH   1   7
BRANCH   6  25
HETATM   25  N9  UNL     1      42.120  18.341  64.505  1.00  0.00    -0.345 N 
HETATM   26  C20 UNL     1      42.424  17.927  63.182  1.00  0.00     0.222 C 
HETATM   27  O4  UNL     1      42.886  18.738  62.340  1.00  0.00    -0.273 OA
ATOM     28  H9  UNL     1      41.742  17.675  65.178  1.00  0.00     0.163 HD
BRANCH  26  29
HETATM   29  C21 UNL     1      42.219  16.526  62.722  1.00  0.00     0.141 C 
BRANCH  29  30
HETATM   30  C22 UNL     1      40.818  16.251  62.348  1.00  0.00    -0.050 A 
HETATM   31  C23 UNL     1      39.802  17.179  62.354  1.00  0.00     0.007 A 
HETATM   32  C24 UNL     1      38.506  16.861  61.986  1.00  0.00     0.001 A 
HETATM   33  C25 UNL     1      38.203  15.585  61.599  1.00  0.00     0.000 A 
HETATM   34  C26 UNL     1      39.206  14.617  61.580  1.00  0.00     0.001 A 
HETATM   35  C27 UNL     1      40.479  14.968  61.951  1.00  0.00     0.007 A 
ENDBRANCH  29  30
ENDBRANCH  26  29
ENDBRANCH   6  25
BRANCH   3  36
HETATM   36  C11 UNL     1      44.587  21.683  67.130  1.00  0.00     0.127 C 
BRANCH  36  37
HETATM   37  C12 UNL     1      44.685  23.139  66.759  1.00  0.00     0.047 C 
BRANCH  37  38
HETATM   38  C13 UNL     1      46.105  23.655  66.868  1.00  0.00     0.234 C 
BRANCH  38  39
HETATM   39  N5  UNL     1      46.665  23.997  65.599  1.00  0.00    -0.075 N 
ATOM     40  H52 UNL     1      45.966  24.000  64.856  1.00  0.00     0.277 HD
ATOM     41  H51 UNL     1      46.935  24.979  65.548  1.00  0.00     0.277 HD
BRANCH  39  42
HETATM   42  C14 UNL     1      47.770  23.109  65.310  1.00  0.00     0.234 C 
BRANCH  42  43
HETATM   43  C15 UNL     1      47.799  22.692  63.872  1.00  0.00     0.047 C 
BRANCH  43  44
HETATM   44  C16 UNL     1      46.378  22.277  63.469  1.00  0.00     0.124 C 
BRANCH  44  45
HETATM   45  N6  UNL     1      46.222  20.894  63.815  1.00  0.00    -0.365 N 
HETATM   46  C17 UNL     1      46.078  19.933  62.777  1.00  0.00     0.181 C 
HETATM   47  N7  UNL     1      46.167  18.674  63.028  1.00  0.00    -0.374 N 
HETATM   48  N8  UNL     1      45.834  20.279  61.416  1.00  0.00    -0.064 NA
ATOM     49  H72 UNL     1      46.342  18.427  64.002  1.00  0.00     0.158 HD
ATOM     50  H71 UNL     1      46.063  17.985  62.284  1.00  0.00     0.158 HD
ATOM     51  H6  UNL     1      46.215  20.604  64.793  1.00  0.00     0.162 HD
ENDBRANCH  44  45
ENDBRANCH  43  44
ENDBRANCH  42  43
ENDBRANCH  39  42
ENDBRANCH  38  39
ENDBRANCH  37  38
ENDBRANCH  36  37
ENDBRANCH   3  36
TORSDOF 20
ENDMDL
MODEL 2
REMARK VINA RESULT: -8.091579300      1.265      1.727
REMARK  20 active torsions:
REMARK  status: ('A' for Active; 'I' for Inactive)
REMARK    1  A    between atoms: S1_2  and  N1_3 
REMARK    2  A    between atoms: S1_2  and  C2_6 
REMARK    3  A    between atoms: C2_6  and  C3_7 
REMARK    4  A    between atoms: C3_7  and  C4_8 
REMARK    5  A    between atoms: C4_8  and  C5_9 
REMARK       I    between atoms: C5_9  and  N2_11 
REMARK    6  A    between atoms: N2_11  and  C6_13 
REMARK    7  A    between atoms: C6_13  and  C7_14 
REMARK    8  A    between atoms: C7_14  and  C8_15 
REMARK       I    between atoms: C8_15  and  N3_17 
REMARK    9  A    between atoms: N3_17  and  C9_19 
REMARK   10  A    between atoms: N4_21  and  C11_22 
REMARK   11  A    between atoms: C11_22  and  C12_23 
REMARK   12  A    between atoms: C12_23  and  C13_24 
REMARK   13  A    between atoms: C13_24  and  N5_25 
REMARK   14  A    between atoms: N5_25  and  C14_28 
REMARK   15  A    between atoms: C14_28  and  C15_29 
REMARK   16  A    between atoms: C15_29  and  C16_30 
REMARK   17  A    between atoms: C16_30  and  N6_31 
REMARK       I    between atoms: N6_31  and  C17_33 
REMARK   18  A    between atoms: C19_40  and  N9_41 
REMARK       I    between atoms: N9_41  and  C20_43 
REMARK   19  A    between atoms: C20_43  and  C21_45 
REMARK   20  A    between atoms: C21_45  and  C22_46 
ROOT
HETATM    1  C9  UNL     1      41.212  20.229  65.812  1.00  0.00     0.134 C 
HETATM    2  C10 UNL     1      42.003  21.511  66.212  1.00  0.00     0.153 C 
HETATM    3  N4  UNL     1      43.359  20.983  66.327  1.00  0.00    -0.348 N 
HETATM    4  C18 UNL     1      43.476  19.761  65.612  1.00  0.00     0.244 C 
HETATM    5  O3  UNL     1      44.448  18.965  65.617  1.00  0.00    -0.271 OA
HETATM    6  C19 UNL     1      42.168  19.636  64.849  1.00  0.00     0.201 C 
ENDROOT
BRANCH   1   7
HETATM    7  N3  UNL     1      41.029  19.412  66.997  1.00  0.00    -0.352 N 
HETATM    8  C8  UNL     1      39.755  19.112  67.515  1.00  0.00     0.219 C 
HETATM    9  O2  UNL     1      38.728  19.559  66.952  1.00  0.00    -0.274 OA
ATOM     10  H3  UNL     1      41.852  19.042  67.471  1.00  0.00     0.163 HD
BRANCH   8  11
HETATM   11  C7  UNL     1      39.626  18.276  68.720  1.00  0.00     0.122 C 
BRANCH  11  12
HETATM   12  C6  UNL     1      38.758  17.075  68.573  1.00  0.00     0.132 C 
BRANCH  12  13
HETATM   13  N2  UNL     1      38.490  16.602  67.269  1.00  0.00    -0.361 N 
HETATM   14  C5  UNL     1      37.466  15.748  66.840  1.00  0.00     0.217 C 
HETATM   15  O1  UNL     1      36.637  15.292  67.658  1.00  0.00    -0.274 OA
ATOM     16  H2  UNL     1      39.128  16.925  66.542  1.00  0.00     0.162 HD
BRANCH  14  17
HETATM   17  C4  UNL     1      37.320  15.354  65.397  1.00  0.00     0.103 C 
BRANCH  17  18
HETATM   18  C3  UNL     1      36.126  15.974  64.775  1.00  0.00     0.020 C 
BRANCH  18  19
HETATM   19  C2  UNL     1      34.883  15.163  64.709  1.00  0.00     0.084 C 
BRANCH  19  20
HETATM   20  S1  UNL     1      34.566  14.466  63.124  1.00  0.00    -0.139 SA
HETATM   21  C1  UNL     1      32.850  14.816  62.647  1.00  0.00     0.101 C 
BRANCH  20  22
HETATM   22  N1  UNL     1      34.703  12.725  63.185  1.00  0.00    -0.383 NA
ATOM     23  H12 UNL     1      34.021  12.336  63.836  1.00  0.00     0.163 HD
ATOM     24  H11 UNL     1      34.495  12.394  62.243  1.00  0.00     0.163 HD
ENDBRANCH  20  22
ENDBRANCH  19  20
ENDBRANCH  18  19
ENDBRANCH  17  18
ENDBRANCH  14  17
ENDBRANCH  12  13
ENDBRANCH  11  12
ENDBRANCH   8  11
ENDBRANCH   1   7
BRANCH   6  25
HETATM   25  N9  UNL     1      41.944  18.284  64.458  1.00  0.00    -0.345 N 
HETATM   26  C20 UNL     1      42.286  17.870  63.144  1.00  0.00     0.222 C 
HETATM   27  O4  UNL     1      42.779  18.680  62.318  1.00  0.00    -0.273 OA
ATOM     28  H9  UNL     1      41.541  17.618  65.117  1.00  0.00     0.163 HD
BRANCH  26  29
HETATM   29  C21 UNL     1      42.086  16.472  62.675  1.00  0.00     0.141 C 
BRANCH  29  30
HETATM   30  C22 UNL     1      40.680  16.184  62.331  1.00  0.00    -0.050 A 
HETATM   31  C23 UNL     1      39.666  17.113  62.312  1.00  0.00     0.007 A 
HETATM   32  C24 UNL     1      38.364  16.782  61.975  1.00  0.00     0.001 A 
HETATM   33  C25 UNL     1      38.054  15.492  61.645  1.00  0.00     0.000 A 
HETATM   34  C26 UNL     1      39.056  14.522  61.652  1.00  0.00     0.001 A 
HETATM   35  C27 UNL     1      40.334  14.886  61.992  1.00  0.00     0.007 A 
ENDBRANCH  29  30
ENDBRANCH  26  29
ENDBRANCH   6  25
BRANCH   3  36
HETATM   36  C11 UNL     1      44.435  21.619  67.069  1.00  0.00     0.127 C 
BRANCH  36  37
HETATM   37  C12 UNL     1      44.877  22.872  66.362  1.00  0.00     0.047 C 
BRANCH  37  38
HETATM   38  C13 UNL     1      45.291  22.597  64.931  1.00  0.00     0.234 C 
BRANCH  38  39
HETATM   39  N5  UNL     1      46.355  21.649  64.839  1.00  0.00    -0.075 N 
ATOM     40  H52 UNL     1      47.270  22.081  64.966  1.00  0.00     0.277 HD
ATOM     41  H51 UNL     1      46.381  21.017  65.640  1.00  0.00     0.277 HD
BRANCH  39  42
HETATM   42  C14 UNL     1      46.254  20.937  63.583  1.00  0.00     0.234 C 
BRANCH  42  43
HETATM   43  C15 UNL     1      45.204  21.517  62.687  1.00  0.00     0.047 C 
BRANCH  43  44
HETATM   44  C16 UNL     1      45.865  21.874  61.350  1.00  0.00     0.124 C 
BRANCH  44  45
HETATM   45  N6  UNL     1      46.313  23.233  61.444  1.00  0.00    -0.365 N 
HETATM   46  C17 UNL     1      47.709  23.504  61.423  1.00  0.00     0.181 C 
HETATM   47  N7  UNL     1      48.143  24.706  61.273  1.00  0.00    -0.374 N 
HETATM   48  N8  UNL     1      48.707  22.495  61.559  1.00  0.00    -0.064 NA
ATOM     49  H72 UNL     1      47.430  25.428  61.175  1.00  0.00     0.158 HD
ATOM     50  H71 UNL     1      49.145  24.901  61.259  1.00  0.00     0.158 HD
ATOM     51  H6  UNL     1      45.640  23.994  61.525  1.00  0.00     0.162 HD
ENDBRANCH  44  45
ENDBRANCH  43  44
ENDBRANCH  42  43
ENDBRANCH  39  42
ENDBRANCH  38  39
ENDBRANCH  37  38
ENDBRANCH  36  37
ENDBRANCH   3  36
TORSDOF 20
ENDMDL
MODEL 3
REMARK VINA RESULT: -8.057222589      1.724      2.976
REMARK  20 active torsions:
REMARK  status: ('A' for Active; 'I' for Inactive)
REMARK    1  A    between atoms: S1_2  and  N1_3 
REMARK    2  A    between atoms: S1_2  and  C2_6 
REMARK    3  A    between atoms: C2_6  and  C3_7 
REMARK    4  A    between atoms: C3_7  and  C4_8 
REMARK    5  A    between atoms: C4_8  and  C5_9 
REMARK       I    between atoms: C5_9  and  N2_11 
REMARK    6  A    between atoms: N2_11  and  C6_13 
REMARK    7  A    between atoms: C6_13  and  C7_14 
REMARK    8  A    between atoms: C7_14  and  C8_15 
REMARK       I    between atoms: C8_15  and  N3_17 
REMARK    9  A    between atoms: N3_17  and  C9_19 
REMARK   10  A    between atoms: N4_21  and  C11_22 
REMARK   11  A    between atoms: C11_22  and  C12_23 
REMARK   12  A    between atoms: C12_23  and  C13_24 
REMARK   13  A    between atoms: C13_24  and  N5_25 
REMARK   14  A    between atoms: N5_25  and  C14_28 
REMARK   15  A    between atoms: C14_28  and  C15_29 
REMARK   16  A    between atoms: C15_29  and  C16_30 
REMARK   17  A    between atoms: C16_30  and  N6_31 
REMARK       I    between atoms: N6_31  and  C17_33 
REMARK   18  A    between atoms: C19_40  and  N9_41 
REMARK       I    between atoms: N9_41  and  C20_43 
REMARK   19  A    between atoms: C20_43  and  C21_45 
REMARK   20  A    between atoms: C21_45  and  C22_46 
ROOT
HETATM    1  C9  UNL     1      41.304  20.256  65.832  1.00  0.00     0.134 C 
HETATM    2  C10 UNL     1      42.085  21.539  66.249  1.00  0.00     0.153 C 
HETATM    3  N4  UNL     1      43.442  21.016  66.378  1.00  0.00    -0.348 N 
HETATM    4  C18 UNL     1      43.572  19.798  65.658  1.00  0.00     0.244 C 
HETATM    5  O3  UNL     1      44.548  19.006  65.670  1.00  0.00    -0.271 OA
HETATM    6  C19 UNL     1      42.275  19.672  64.878  1.00  0.00     0.201 C 
ENDROOT
BRANCH   1   7
HETATM    7  N3  UNL     1      41.109  19.432  67.010  1.00  0.00    -0.352 N 
HETATM    8  C8  UNL     1      39.840  19.218  67.578  1.00  0.00     0.219 C 
HETATM    9  O2  UNL     1      38.827  19.753  67.068  1.00  0.00    -0.274 OA
ATOM     10  H3  UNL     1      41.922  18.992  67.442  1.00  0.00     0.163 HD
BRANCH   8  11
HETATM   11  C7  UNL     1      39.698  18.372  68.774  1.00  0.00     0.122 C 
BRANCH  11  12
HETATM   12  C6  UNL     1      38.845  17.163  68.601  1.00  0.00     0.132 C 
BRANCH  12  13
HETATM   13  N2  UNL     1      38.628  16.681  67.290  1.00  0.00    -0.361 N 
HETATM   14  C5  UNL     1      37.668  15.766  66.841  1.00  0.00     0.217 C 
HETATM   15  O1  UNL     1      36.859  15.252  67.643  1.00  0.00    -0.274 OA
ATOM     16  H2  UNL     1      39.254  17.050  66.574  1.00  0.00     0.162 HD
BRANCH  14  17
HETATM   17  C4  UNL     1      37.569  15.373  65.394  1.00  0.00     0.103 C 
BRANCH  17  18
HETATM   18  C3  UNL     1      36.278  15.790  64.797  1.00  0.00     0.020 C 
BRANCH  18  19
HETATM   19  C2  UNL     1      35.522  14.779  64.014  1.00  0.00     0.084 C 
BRANCH  19  20
HETATM   20  S1  UNL     1      33.780  15.033  64.009  1.00  0.00    -0.139 SA
HETATM   21  C1  UNL     1      32.948  13.480  63.571  1.00  0.00     0.101 C 
BRANCH  20  22
HETATM   22  N1  UNL     1      33.335  16.183  62.770  1.00  0.00    -0.383 NA
ATOM     23  H12 UNL     1      33.948  16.997  62.803  1.00  0.00     0.163 HD
ATOM     24  H11 UNL     1      33.462  15.700  61.881  1.00  0.00     0.163 HD
ENDBRANCH  20  22
ENDBRANCH  19  20
ENDBRANCH  18  19
ENDBRANCH  17  18
ENDBRANCH  14  17
ENDBRANCH  12  13
ENDBRANCH  11  12
ENDBRANCH   8  11
ENDBRANCH   1   7
BRANCH   6  25
HETATM   25  N9  UNL     1      42.061  18.322  64.476  1.00  0.00    -0.345 N 
HETATM   26  C20 UNL     1      42.374  17.928  63.149  1.00  0.00     0.222 C 
HETATM   27  O4  UNL     1      42.833  18.755  62.321  1.00  0.00    -0.273 OA
ATOM     28  H9  UNL     1      41.684  17.643  65.138  1.00  0.00     0.163 HD
BRANCH  26  29
HETATM   29  C21 UNL     1      42.183  16.533  62.669  1.00  0.00     0.141 C 
BRANCH  29  30
HETATM   30  C22 UNL     1      40.783  16.247  62.298  1.00  0.00    -0.050 A 
HETATM   31  C23 UNL     1      39.762  17.168  62.299  1.00  0.00     0.007 A 
HETATM   32  C24 UNL     1      38.468  16.840  61.934  1.00  0.00     0.001 A 
HETATM   33  C25 UNL     1      38.172  15.560  61.555  1.00  0.00     0.000 A 
HETATM   34  C26 UNL     1      39.181  14.598  61.540  1.00  0.00     0.001 A 
HETATM   35  C27 UNL     1      40.452  14.960  61.909  1.00  0.00     0.007 A 
ENDBRANCH  29  30
ENDBRANCH  26  29
ENDBRANCH   6  25
BRANCH   3  36
HETATM   36  C11 UNL     1      44.506  21.652  67.137  1.00  0.00     0.127 C 
BRANCH  36  37
HETATM   37  C12 UNL     1      45.445  22.369  66.204  1.00  0.00     0.047 C 
BRANCH  37  38
HETATM   38  C13 UNL     1      45.068  23.826  66.034  1.00  0.00     0.234 C 
BRANCH  38  39
HETATM   39  N5  UNL     1      46.196  24.699  66.120  1.00  0.00    -0.075 N 
ATOM     40  H52 UNL     1      46.515  25.010  65.203  1.00  0.00     0.277 HD
ATOM     41  H51 UNL     1      45.950  25.611  66.505  1.00  0.00     0.277 HD
BRANCH  39  42
HETATM   42  C14 UNL     1      47.246  24.050  66.875  1.00  0.00     0.234 C 
BRANCH  42  43
HETATM   43  C15 UNL     1      47.554  24.771  68.151  1.00  0.00     0.047 C 
BRANCH  43  44
HETATM   44  C16 UNL     1      47.860  26.234  67.808  1.00  0.00     0.124 C 
BRANCH  44  45
HETATM   45  N6  UNL     1      49.173  26.273  67.233  1.00  0.00    -0.365 N 
HETATM   46  C17 UNL     1      49.338  26.782  65.916  1.00  0.00     0.181 C 
HETATM   47  N7  UNL     1      50.509  27.048  65.455  1.00  0.00    -0.374 N 
HETATM   48  N8  UNL     1      48.250  27.034  65.030  1.00  0.00    -0.064 NA
ATOM     49  H72 UNL     1      51.288  26.868  66.089  1.00  0.00     0.158 HD
ATOM     50  H71 UNL     1      50.628  27.413  64.510  1.00  0.00     0.158 HD
ATOM     51  H6  UNL     1      49.979  25.940  67.763  1.00  0.00     0.162 HD
ENDBRANCH  44  45
ENDBRANCH  43  44
ENDBRANCH  42  43
ENDBRANCH  39  42
ENDBRANCH  38  39
ENDBRANCH  37  38
ENDBRANCH  36  37
ENDBRANCH   3  36
TORSDOF 20
ENDMDL
MODEL 4
REMARK VINA RESULT: -8.053120160      2.177      6.344
REMARK  20 active torsions:
REMARK  status: ('A' for Active; 'I' for Inactive)
REMARK    1  A    between atoms: S1_2  and  N1_3 
REMARK    2  A    between atoms: S1_2  and  C2_6 
REMARK    3  A    between atoms: C2_6  and  C3_7 
REMARK    4  A    between atoms: C3_7  and  C4_8 
REMARK    5  A    between atoms: C4_8  and  C5_9 
REMARK       I    between atoms: C5_9  and  N2_11 
REMARK    6  A    between atoms: N2_11  and  C6_13 
REMARK    7  A    between atoms: C6_13  and  C7_14 
REMARK    8  A    between atoms: C7_14  and  C8_15 
REMARK       I    between atoms: C8_15  and  N3_17 
REMARK    9  A    between atoms: N3_17  and  C9_19 
REMARK   10  A    between atoms: N4_21  and  C11_22 
REMARK   11  A    between atoms: C11_22  and  C12_23 
REMARK   12  A    between atoms: C12_23  and  C13_24 
REMARK   13  A    between atoms: C13_24  and  N5_25 
REMARK   14  A    between atoms: N5_25  and  C14_28 
REMARK   15  A    between atoms: C14_28  and  C15_29 
REMARK   16  A    between atoms: C15_29  and  C16_30 
REMARK   17  A    between atoms: C16_30  and  N6_31 
REMARK       I    between atoms: N6_31  and  C17_33 
REMARK   18  A    between atoms: C19_40  and  N9_41 
REMARK       I    between atoms: N9_41  and  C20_43 
REMARK   19  A    between atoms: C20_43  and  C21_45 
REMARK   20  A    between atoms: C21_45  and  C22_46 
ROOT
HETATM    1  C9  UNL     1      42.125  20.104  66.803  1.00  0.00     0.134 C 
HETATM    2  C10 UNL     1      42.092  18.779  65.982  1.00  0.00     0.153 C 
HETATM    3  N4  UNL     1      41.963  19.292  64.621  1.00  0.00    -0.348 N 
HETATM    4  C18 UNL     1      42.385  20.647  64.562  1.00  0.00     0.244 C 
HETATM    5  O3  UNL     1      42.272  21.440  63.593  1.00  0.00    -0.271 OA
HETATM    6  C19 UNL     1      42.997  20.919  65.926  1.00  0.00     0.201 C 
ENDROOT
BRANCH   1   7
HETATM    7  N3  UNL     1      40.774  20.624  66.893  1.00  0.00    -0.352 N 
HETATM    8  C8  UNL     1      39.792  20.035  67.712  1.00  0.00     0.219 C 
HETATM    9  O2  UNL     1      40.072  19.020  68.394  1.00  0.00    -0.274 OA
ATOM     10  H3  UNL     1      40.526  21.447  66.344  1.00  0.00     0.163 HD
BRANCH   8  11
HETATM   11  C7  UNL     1      38.437  20.605  67.768  1.00  0.00     0.122 C 
BRANCH  11  12
HETATM   12  C6  UNL     1      37.364  19.759  67.176  1.00  0.00     0.132 C 
BRANCH  12  13
HETATM   13  N2  UNL     1      37.548  18.357  67.170  1.00  0.00    -0.361 N 
HETATM   14  C5  UNL     1      36.635  17.355  66.817  1.00  0.00     0.217 C 
HETATM   15  O1  UNL     1      35.476  17.654  66.454  1.00  0.00    -0.274 OA
ATOM     16  H2  UNL     1      38.470  18.031  67.461  1.00  0.00     0.162 HD
BRANCH  14  17
HETATM   17  C4  UNL     1      37.007  15.900  66.857  1.00  0.00     0.103 C 
BRANCH  17  18
HETATM   18  C3  UNL     1      38.056  15.573  65.863  1.00  0.00     0.020 C 
BRANCH  18  19
HETATM   19  C2  UNL     1      37.644  15.444  64.442  1.00  0.00     0.084 C 
BRANCH  19  20
HETATM   20  S1  UNL     1      38.981  15.504  63.299  1.00  0.00    -0.139 SA
HETATM   21  C1  UNL     1      38.510  16.529  61.877  1.00  0.00     0.101 C 
BRANCH  20  22
HETATM   22  N1  UNL     1      39.307  13.911  62.657  1.00  0.00    -0.383 NA
ATOM     23  H12 UNL     1      39.708  13.980  61.721  1.00  0.00     0.163 HD
ATOM     24  H11 UNL     1      39.991  13.490  63.286  1.00  0.00     0.163 HD
ENDBRANCH  20  22
ENDBRANCH  19  20
ENDBRANCH  18  19
ENDBRANCH  17  18
ENDBRANCH  14  17
ENDBRANCH  12  13
ENDBRANCH  11  12
ENDBRANCH   8  11
ENDBRANCH   1   7
BRANCH   6  25
HETATM   25  N9  UNL     1      43.049  22.320  66.182  1.00  0.00    -0.345 N 
HETATM   26  C20 UNL     1      44.211  23.053  65.825  1.00  0.00     0.222 C 
HETATM   27  O4  UNL     1      45.197  22.484  65.293  1.00  0.00    -0.273 OA
ATOM     28  H9  UNL     1      42.257  22.793  66.618  1.00  0.00     0.163 HD
BRANCH  26  29
HETATM   29  C21 UNL     1      44.326  24.519  66.056  1.00  0.00     0.141 C 
BRANCH  29  30
HETATM   30  C22 UNL     1      45.590  24.890  66.724  1.00  0.00    -0.050 A 
HETATM   31  C23 UNL     1      46.542  25.732  66.199  1.00  0.00     0.007 A 
HETATM   32  C24 UNL     1      47.707  26.048  66.877  1.00  0.00     0.001 A 
HETATM   33  C25 UNL     1      47.939  25.515  68.115  1.00  0.00     0.000 A 
HETATM   34  C26 UNL     1      46.996  24.657  68.681  1.00  0.00     0.001 A 
HETATM   35  C27 UNL     1      45.854  24.367  67.979  1.00  0.00     0.007 A 
ENDBRANCH  29  30
ENDBRANCH  26  29
ENDBRANCH   6  25
BRANCH   3  36
HETATM   36  C11 UNL     1      41.471  18.524  63.490  1.00  0.00     0.127 C 
BRANCH  36  37
HETATM   37  C12 UNL     1      42.589  17.711  62.895  1.00  0.00     0.047 C 
BRANCH  37  38
HETATM   38  C13 UNL     1      43.639  18.587  62.243  1.00  0.00     0.234 C 
BRANCH  38  39
HETATM   39  N5  UNL     1      44.820  18.713  63.036  1.00  0.00    -0.075 N 
ATOM     40  H52 UNL     1      44.617  18.711  64.036  1.00  0.00     0.277 HD
ATOM     41  H51 UNL     1      45.399  17.873  63.005  1.00  0.00     0.277 HD
BRANCH  39  42
HETATM   42  C14 UNL     1      45.547  19.895  62.627  1.00  0.00     0.234 C 
BRANCH  42  43
HETATM   43  C15 UNL     1      44.902  20.581  61.462  1.00  0.00     0.047 C 
BRANCH  43  44
HETATM   44  C16 UNL     1      45.717  21.839  61.141  1.00  0.00     0.124 C 
BRANCH  44  45
HETATM   45  N6  UNL     1      46.051  22.462  62.388  1.00  0.00    -0.365 N 
HETATM   46  C17 UNL     1      47.412  22.761  62.671  1.00  0.00     0.181 C 
HETATM   47  N7  UNL     1      47.728  23.519  63.661  1.00  0.00    -0.374 N 
HETATM   48  N8  UNL     1      48.502  22.263  61.898  1.00  0.00    -0.064 NA
ATOM     49  H72 UNL     1      46.948  23.876  64.214  1.00  0.00     0.158 HD
ATOM     50  H71 UNL     1      48.704  23.734  63.864  1.00  0.00     0.158 HD
ATOM     51  H6  UNL     1      45.322  22.688  63.064  1.00  0.00     0.162 HD
ENDBRANCH  44  45
ENDBRANCH  43  44
ENDBRANCH  42  43
ENDBRANCH  39  42
ENDBRANCH  38  39
ENDBRANCH  37  38
ENDBRANCH  36  37
ENDBRANCH   3  36
TORSDOF 20
ENDMDL
MODEL 5
REMARK VINA RESULT: -8.023121255      4.391      9.483
REMARK  20 active torsions:
REMARK  status: ('A' for Active; 'I' for Inactive)
REMARK    1  A    between atoms: S1_2  and  N1_3 
REMARK    2  A    between atoms: S1_2  and  C2_6 
REMARK    3  A    between atoms: C2_6  and  C3_7 
REMARK    4  A    between atoms: C3_7  and  C4_8 
REMARK    5  A    between atoms: C4_8  and  C5_9 
REMARK       I    between atoms: C5_9  and  N2_11 
REMARK    6  A    between atoms: N2_11  and  C6_13 
REMARK    7  A    between atoms: C6_13  and  C7_14 
REMARK    8  A    between atoms: C7_14  and  C8_15 
REMARK       I    between atoms: C8_15  and  N3_17 
REMARK    9  A    between atoms: N3_17  and  C9_19 
REMARK   10  A    between atoms: N4_21  and  C11_22 
REMARK   11  A    between atoms: C11_22  and  C12_23 
REMARK   12  A    between atoms: C12_23  and  C13_24 
REMARK   13  A    between atoms: C13_24  and  N5_25 
REMARK   14  A    between atoms: N5_25  and  C14_28 
REMARK   15  A    between atoms: C14_28  and  C15_29 
REMARK   16  A    between atoms: C15_29  and  C16_30 
REMARK   17  A    between atoms: C16_30  and  N6_31 
REMARK       I    between atoms: N6_31  and  C17_33 
REMARK   18  A    between atoms: C19_40  and  N9_41 
REMARK       I    between atoms: N9_41  and  C20_43 
REMARK   19  A    between atoms: C20_43  and  C21_45 
REMARK   20  A    between atoms: C21_45  and  C22_46 
ROOT
HETATM    1  C9  UNL     1      44.136  19.310  64.135  1.00  0.00     0.134 C 
HETATM    2  C10 UNL     1      44.792  19.815  65.456  1.00  0.00     0.153 C 
HETATM    3  N4  UNL     1      43.842  20.845  65.868  1.00  0.00    -0.348 N 
HETATM    4  C18 UNL     1      42.586  20.639  65.237  1.00  0.00     0.244 C 
HETATM    5  O3  UNL     1      41.593  21.410  65.245  1.00  0.00    -0.271 OA
HETATM    6  C19 UNL     1      42.716  19.289  64.553  1.00  0.00     0.201 C 
ENDROOT
BRANCH   1   7
HETATM    7  N3  UNL     1      44.400  20.281  63.089  1.00  0.00    -0.352 N 
HETATM    8  C8  UNL     1      45.494  20.165  62.211  1.00  0.00     0.219 C 
HETATM    9  O2  UNL     1      46.285  19.198  62.321  1.00  0.00    -0.274 OA
ATOM     10  H3  UNL     1      43.769  21.076  62.987  1.00  0.00     0.163 HD
BRANCH   8  11
HETATM   11  C7  UNL     1      45.714  21.178  61.167  1.00  0.00     0.122 C 
BRANCH  11  12
HETATM   12  C6  UNL     1      45.983  22.556  61.662  1.00  0.00     0.132 C 
BRANCH  12  13
HETATM   13  N2  UNL     1      46.760  23.416  60.853  1.00  0.00    -0.361 N 
HETATM   14  C5  UNL     1      48.154  23.478  60.727  1.00  0.00     0.217 C 
HETATM   15  O1  UNL     1      48.885  22.710  61.389  1.00  0.00    -0.274 OA
ATOM     16  H2  UNL     1      46.236  24.080  60.284  1.00  0.00     0.162 HD
BRANCH  14  17
HETATM   17  C4  UNL     1      48.819  24.456  59.800  1.00  0.00     0.103 C 
BRANCH  17  18
HETATM   18  C3  UNL     1      50.288  24.491  59.999  1.00  0.00     0.020 C 
BRANCH  18  19
HETATM   19  C2  UNL     1      50.903  25.793  60.364  1.00  0.00     0.084 C 
BRANCH  19  20
HETATM   20  S1  UNL     1      50.171  26.562  61.769  1.00  0.00    -0.139 SA
HETATM   21  C1  UNL     1      50.539  28.339  61.740  1.00  0.00     0.101 C 
BRANCH  20  22
HETATM   22  N1  UNL     1      50.883  25.947  63.242  1.00  0.00    -0.383 NA
ATOM     23  H12 UNL     1      51.404  26.682  63.720  1.00  0.00     0.163 HD
ATOM     24  H11 UNL     1      50.102  25.651  63.828  1.00  0.00     0.163 HD
ENDBRANCH  20  22
ENDBRANCH  19  20
ENDBRANCH  18  19
ENDBRANCH  17  18
ENDBRANCH  14  17
ENDBRANCH  12  13
ENDBRANCH  11  12
ENDBRANCH   8  11
ENDBRANCH   1   7
BRANCH   6  25
HETATM   25  N9  UNL     1      41.737  19.151  63.526  1.00  0.00    -0.345 N 
HETATM   26  C20 UNL     1      40.595  18.339  63.753  1.00  0.00     0.222 C 
HETATM   27  O4  UNL     1      40.437  17.735  64.843  1.00  0.00    -0.273 OA
ATOM     28  H9  UNL     1      41.856  19.633  62.635  1.00  0.00     0.163 HD
BRANCH  26  29
HETATM   29  C21 UNL     1      39.533  18.160  62.727  1.00  0.00     0.141 C 
BRANCH  29  30
HETATM   30  C22 UNL     1      39.385  16.754  62.301  1.00  0.00    -0.050 A 
HETATM   31  C23 UNL     1      38.187  16.091  62.170  1.00  0.00     0.007 A 
HETATM   32  C24 UNL     1      38.112  14.770  61.760  1.00  0.00     0.001 A 
HETATM   33  C25 UNL     1      39.258  14.082  61.471  1.00  0.00     0.000 A 
HETATM   34  C26 UNL     1      40.492  14.721  61.592  1.00  0.00     0.001 A 
HETATM   35  C27 UNL     1      40.527  16.030  62.001  1.00  0.00     0.007 A 
ENDBRANCH  29  30
ENDBRANCH  26  29
ENDBRANCH   6  25
BRANCH   3  36
HETATM   36  C11 UNL     1      44.142  21.926  66.792  1.00  0.00     0.127 C 
BRANCH  36  37
HETATM   37  C12 UNL     1      44.552  23.156  66.027  1.00  0.00     0.047 C 
BRANCH  37  38
HETATM   38  C13 UNL     1      46.059  23.290  65.940  1.00  0.00     0.234 C 
BRANCH  38  39
HETATM   39  N5  UNL     1      46.494  24.650  65.992  1.00  0.00    -0.075 N 
ATOM     40  H52 UNL     1      47.495  24.742  65.821  1.00  0.00     0.277 HD
ATOM     41  H51 UNL     1      46.160  25.193  65.195  1.00  0.00     0.277 HD
BRANCH  39  42
HETATM   42  C14 UNL     1      46.097  25.231  67.256  1.00  0.00     0.234 C 
BRANCH  42  43
HETATM   43  C15 UNL     1      47.257  25.820  67.997  1.00  0.00     0.047 C 
BRANCH  43  44
HETATM   44  C16 UNL     1      48.542  25.417  67.264  1.00  0.00     0.124 C 
BRANCH  44  45
HETATM   45  N6  UNL     1      49.313  26.609  67.065  1.00  0.00    -0.365 N 
HETATM   46  C17 UNL     1      49.076  27.403  65.909  1.00  0.00     0.181 C 
HETATM   47  N7  UNL     1      49.574  28.584  65.809  1.00  0.00    -0.374 N 
HETATM   48  N8  UNL     1      48.286  26.965  64.806  1.00  0.00    -0.064 NA
ATOM     49  H72 UNL     1      50.138  28.898  66.598  1.00  0.00     0.158 HD
ATOM     50  H71 UNL     1      49.403  29.154  64.980  1.00  0.00     0.158 HD
ATOM     51  H6  UNL     1      50.023  26.884  67.744  1.00  0.00     0.162 HD
ENDBRANCH  44  45
ENDBRANCH  43  44
ENDBRANCH  42  43
ENDBRANCH  39  42
ENDBRANCH  38  39
ENDBRANCH  37  38
ENDBRANCH  36  37
ENDBRANCH   3  36
TORSDOF 20
ENDMDL
