MODEL 1
REMARK VINA RESULT: -7.959415947      0.000      0.000
REMARK  24 active torsions:
REMARK  status: ('A' for Active; 'I' for Inactive)
REMARK    1  A    between atoms: C2_2  and  C3_3 
REMARK    2  A    between atoms: C3_3  and  N1_4 
REMARK       I    between atoms: C4_6  and  N3_8 
REMARK    3  A    between atoms: N3_8  and  C5_10 
REMARK    4  A    between atoms: C7_14  and  C8_15 
REMARK       I    between atoms: C8_15  and  N5_17 
REMARK    5  A    between atoms: N5_17  and  C9_18 
REMARK    6  A    between atoms: C9_18  and  C10_19 
REMARK    7  A    between atoms: C10_19  and  C11_20 
REMARK    8  A    between atoms: C11_20  and  C12_21 
REMARK    9  A    between atoms: C12_21  and  N6_22 
REMARK       I    between atoms: N6_22  and  C13_24 
REMARK   10  A    between atoms: C13_24  and  C14_26 
REMARK   11  A    between atoms: C14_26  and  N7_27 
REMARK   12  A    between atoms: N7_27  and  C16_29 
REMARK   13  A    between atoms: C16_29  and  C17_30 
REMARK   14  A    between atoms: C17_30  and  C18_31 
REMARK   15  A    between atoms: C18_31  and  N8_32 
REMARK       I    between atoms: N8_32  and  C19_34 
REMARK       I    between atoms: C19_34  and  N9_35 
REMARK       I    between atoms: C19_34  and  N10_38 
REMARK   16  A    between atoms: N10_38  and  C20_40 
REMARK   17  A    between atoms: C20_40  and  C21_41 
REMARK   18  A    between atoms: C21_41  and  N11_42 
REMARK   19  A    between atoms: N11_42  and  C23_44 
REMARK   20  A    between atoms: C23_44  and  O3_45 
REMARK   21  A    between atoms: C23_44  and  C24_47 
REMARK   22  A    between atoms: C24_47  and  O4_48 
REMARK   23  A    between atoms: C24_47  and  N12_50 
REMARK   24  A    between atoms: N12_50  and  C25_52 
ROOT
HETATM    1  C14 UNL     1      47.392  22.933  61.241  1.00  0.00     0.197 C 
ENDROOT
BRANCH   1   2
HETATM    2  C13 UNL     1      48.172  24.197  61.166  1.00  0.00     0.231 C 
HETATM    3  N6  UNL     1      48.556  24.870  62.391  1.00  0.00    -0.360 N 
ATOM      4  H6  UNL     1      48.270  24.519  63.305  1.00  0.00     0.162 HD
HETATM    5  O2  UNL     1      48.509  24.658  60.086  1.00  0.00    -0.272 OA
BRANCH   3   6
HETATM    6  C12 UNL     1      49.357  26.055  62.257  1.00  0.00     0.122 C 
BRANCH   6   7
HETATM    7  C11 UNL     1      49.344  27.007  63.422  1.00  0.00     0.022 C 
BRANCH   7   8
HETATM    8  C10 UNL     1      48.489  26.484  64.536  1.00  0.00     0.035 C 
BRANCH   8   9
HETATM    9  C9  UNL     1      49.282  26.235  65.823  1.00  0.00     0.222 C 
BRANCH   9  10
HETATM   10  N5  UNL     1      48.425  25.441  66.663  1.00  0.00    -0.410 NA
HETATM   11  C8  UNL     1      47.644  24.712  67.440  1.00  0.00     0.339 C 
HETATM   12  O1  UNL     1      47.769  24.254  68.575  1.00  0.00    -0.250 OA
BRANCH  11  13
HETATM   13  C7  UNL     1      46.319  24.337  66.795  1.00  0.00     0.146 A 
HETATM   14  C6  UNL     1      45.438  25.194  66.252  1.00  0.00     0.143 A 
HETATM   15  N4  UNL     1      44.375  24.535  65.844  1.00  0.00    -0.199 N 
HETATM   16  C5  UNL     1      44.602  23.152  66.159  1.00  0.00     0.685 A 
ATOM     17  H4  UNL     1      43.550  24.930  65.392  1.00  0.00     0.183 HD
HETATM   18  N13 UNL     1      45.820  23.148  66.732  1.00  0.00    -0.183 N 
ATOM     19  H13 UNL     1      46.290  22.310  67.073  1.00  0.00     0.184 HD
BRANCH  16  20
HETATM   20  N3  UNL     1      43.778  22.375  65.932  1.00  0.00    -0.163 N 
HETATM   21  C4  UNL     1      42.464  21.916  65.723  1.00  0.00     0.206 C 
HETATM   22  N1  UNL     1      41.848  21.276  66.489  1.00  0.00    -0.344 N 
HETATM   23  N2  UNL     1      42.127  22.157  64.290  1.00  0.00    -0.063 NA
ATOM     24  H1  UNL     1      42.346  21.309  67.379  1.00  0.00     0.167 HD
ATOM     25  H3  UNL     1      44.321  21.520  65.814  1.00  0.00     0.187 HD
BRANCH  22  26
HETATM   26  C3  UNL     1      40.723  20.496  66.679  1.00  0.00     0.063 C 
BRANCH  26  27
HETATM   27  C2  UNL     1      39.683  21.158  67.541  1.00  0.00     0.040 C 
HETATM   28  C1  UNL     1      38.444  20.282  67.695  1.00  0.00     0.010 C 
ENDBRANCH  26  27
ENDBRANCH  22  26
ENDBRANCH  16  20
ENDBRANCH  11  13
ENDBRANCH   9  10
ENDBRANCH   8   9
ENDBRANCH   7   8
ENDBRANCH   6   7
ENDBRANCH   3   6
ENDBRANCH   1   2
BRANCH   1  29
HETATM   29  N7  UNL     1      47.504  22.193  62.468  1.00  0.00    -0.288 NA
HETATM   30  C15 UNL     1      48.332  20.996  62.347  1.00  0.00     0.116 C 
BRANCH  29  31
HETATM   31  C16 UNL     1      46.149  21.863  62.855  1.00  0.00     0.061 C 
BRANCH  31  32
HETATM   32  C17 UNL     1      45.194  21.486  61.851  1.00  0.00     0.028 C 
BRANCH  32  33
HETATM   33  C18 UNL     1      44.338  20.308  61.850  1.00  0.00     0.092 C 
BRANCH  33  34
HETATM   34  N8  UNL     1      43.447  19.968  62.850  1.00  0.00    -0.339 N 
HETATM   35  C19 UNL     1      43.427  18.904  63.821  1.00  0.00     0.172 C 
HETATM   36  N9  UNL     1      44.448  18.850  64.630  1.00  0.00    -0.371 N 
HETATM   37  N10 UNL     1      42.373  17.993  63.868  1.00  0.00    -0.361 N 
ATOM     38  H92 UNL     1      45.219  19.516  64.596  1.00  0.00     0.159 HD
ATOM     39  H91 UNL     1      44.434  18.096  65.318  1.00  0.00     0.159 HD
ATOM     40  H10 UNL     1      41.943  17.685  64.739  1.00  0.00     0.162 HD
ATOM     41  H8  UNL     1      42.645  20.595  62.912  1.00  0.00     0.168 HD
BRANCH  37  42
HETATM   42  C20 UNL     1      41.937  17.518  62.550  1.00  0.00     0.142 C 
BRANCH  42  43
HETATM   43  C21 UNL     1      41.107  16.249  62.604  1.00  0.00     0.144 C 
BRANCH  43  44
HETATM   44  N11 UNL     1      39.736  16.649  62.956  1.00  0.00    -0.361 N 
HETATM   45  C22 UNL     1      38.861  16.993  61.836  1.00  0.00     0.152 C 
BRANCH  44  46
HETATM   46  C23 UNL     1      39.254  16.774  64.231  1.00  0.00     0.190 C 
BRANCH  46  47
HETATM   47  O3  UNL     1      39.255  18.109  64.610  1.00  0.00    -0.343 OA
ATOM     48  H3  UNL     1      39.635  18.201  65.475  1.00  0.00     0.219 HD
ENDBRANCH  46  47
BRANCH  46  49
HETATM   49  C24 UNL     1      38.798  15.950  65.225  1.00  0.00     0.188 C 
BRANCH  49  50
HETATM   50  O4  UNL     1      38.255  14.759  64.429  1.00  0.00    -0.343 OA
ATOM     51  H4  UNL     1      39.043  14.255  64.264  1.00  0.00     0.219 HD
ENDBRANCH  49  50
BRANCH  49  52
HETATM   52  N12 UNL     1      38.539  15.566  66.460  1.00  0.00    -0.368 N 
ATOM     53  H12 UNL     1      39.011  14.722  66.785  1.00  0.00     0.161 HD
BRANCH  52  54
HETATM   54  C25 UNL     1      37.634  16.232  67.424  1.00  0.00     0.117 C 
HETATM   55  C26 UNL     1      38.274  16.312  68.800  1.00  0.00     0.026 C 
ENDBRANCH  52  54
ENDBRANCH  49  52
ENDBRANCH  46  49
ENDBRANCH  44  46
ENDBRANCH  43  44
ENDBRANCH  42  43
ENDBRANCH  37  42
ENDBRANCH  33  34
ENDBRANCH  32  33
ENDBRANCH  31  32
ENDBRANCH  29  31
ENDBRANCH   1  29
TORSDOF 24
ENDMDL
MODEL 2
REMARK VINA RESULT: -7.925294119      2.002      5.483
REMARK  24 active torsions:
REMARK  status: ('A' for Active; 'I' for Inactive)
REMARK    1  A    between atoms: C2_2  and  C3_3 
REMARK    2  A    between atoms: C3_3  and  N1_4 
REMARK       I    between atoms: C4_6  and  N3_8 
REMARK    3  A    between atoms: N3_8  and  C5_10 
REMARK    4  A    between atoms: C7_14  and  C8_15 
REMARK       I    between atoms: C8_15  and  N5_17 
REMARK    5  A    between atoms: N5_17  and  C9_18 
REMARK    6  A    between atoms: C9_18  and  C10_19 
REMARK    7  A    between atoms: C10_19  and  C11_20 
REMARK    8  A    between atoms: C11_20  and  C12_21 
REMARK    9  A    between atoms: C12_21  and  N6_22 
REMARK       I    between atoms: N6_22  and  C13_24 
REMARK   10  A    between atoms: C13_24  and  C14_26 
REMARK   11  A    between atoms: C14_26  and  N7_27 
REMARK   12  A    between atoms: N7_27  and  C16_29 
REMARK   13  A    between atoms: C16_29  and  C17_30 
REMARK   14  A    between atoms: C17_30  and  C18_31 
REMARK   15  A    between atoms: C18_31  and  N8_32 
REMARK       I    between atoms: N8_32  and  C19_34 
REMARK       I    between atoms: C19_34  and  N9_35 
REMARK       I    between atoms: C19_34  and  N10_38 
REMARK   16  A    between atoms: N10_38  and  C20_40 
REMARK   17  A    between atoms: C20_40  and  C21_41 
REMARK   18  A    between atoms: C21_41  and  N11_42 
REMARK   19  A    between atoms: N11_42  and  C23_44 
REMARK   20  A    between atoms: C23_44  and  O3_45 
REMARK   21  A    between atoms: C23_44  and  C24_47 
REMARK   22  A    between atoms: C24_47  and  O4_48 
REMARK   23  A    between atoms: C24_47  and  N12_50 
REMARK   24  A    between atoms: N12_50  and  C25_52 
ROOT
HETATM    1  C14 UNL     1      44.109  21.584  64.127  1.00  0.00     0.197 C 
ENDROOT
BRANCH   1   2
HETATM    2  C13 UNL     1      45.199  22.376  64.754  1.00  0.00     0.231 C 
HETATM    3  N6  UNL     1      44.920  23.153  65.945  1.00  0.00    -0.360 N 
ATOM      4  H6  UNL     1      43.982  23.201  66.344  1.00  0.00     0.162 HD
HETATM    5  O2  UNL     1      46.328  22.361  64.287  1.00  0.00    -0.272 OA
BRANCH   3   6
HETATM    6  C12 UNL     1      46.025  23.853  66.538  1.00  0.00     0.122 C 
BRANCH   6   7
HETATM    7  C11 UNL     1      45.830  25.323  66.790  1.00  0.00     0.022 C 
BRANCH   7   8
HETATM    8  C10 UNL     1      46.611  25.774  67.985  1.00  0.00     0.035 C 
BRANCH   8   9
HETATM    9  C9  UNL     1      48.101  25.432  67.881  1.00  0.00     0.222 C 
BRANCH   9  10
HETATM   10  N5  UNL     1      48.622  26.265  66.831  1.00  0.00    -0.410 NA
HETATM   11  C8  UNL     1      49.102  27.036  65.870  1.00  0.00     0.339 C 
HETATM   12  O1  UNL     1      49.568  28.174  65.852  1.00  0.00    -0.250 OA
BRANCH  11  13
HETATM   13  C7  UNL     1      49.051  26.398  64.492  1.00  0.00     0.146 A 
HETATM   14  C6  UNL     1      49.581  26.908  63.367  1.00  0.00     0.143 A 
HETATM   15  N4  UNL     1      49.296  26.126  62.350  1.00  0.00    -0.199 N 
HETATM   16  C5  UNL     1      48.520  25.035  62.873  1.00  0.00     0.685 A 
ATOM     17  H4  UNL     1      49.572  26.265  61.378  1.00  0.00     0.183 HD
HETATM   18  N13 UNL     1      48.437  25.302  64.190  1.00  0.00    -0.183 N 
ATOM     19  H13 UNL     1      47.950  24.713  64.865  1.00  0.00     0.184 HD
BRANCH  16  20
HETATM   20  N3  UNL     1      48.111  24.231  62.152  1.00  0.00    -0.163 N 
HETATM   21  C4  UNL     1      47.270  23.705  61.154  1.00  0.00     0.206 C 
HETATM   22  N1  UNL     1      46.398  22.944  61.344  1.00  0.00    -0.344 N 
HETATM   23  N2  UNL     1      47.856  24.076  59.832  1.00  0.00    -0.063 NA
ATOM     24  H1  UNL     1      46.238  22.915  62.351  1.00  0.00     0.167 HD
ATOM     25  H3  UNL     1      48.713  23.434  62.362  1.00  0.00     0.187 HD
BRANCH  22  26
HETATM   26  C3  UNL     1      45.500  22.070  60.762  1.00  0.00     0.063 C 
BRANCH  26  27
HETATM   27  C2  UNL     1      46.111  20.742  60.408  1.00  0.00     0.040 C 
HETATM   28  C1  UNL     1      46.779  20.094  61.616  1.00  0.00     0.010 C 
ENDBRANCH  26  27
ENDBRANCH  22  26
ENDBRANCH  16  20
ENDBRANCH  11  13
ENDBRANCH   9  10
ENDBRANCH   8   9
ENDBRANCH   7   8
ENDBRANCH   6   7
ENDBRANCH   3   6
ENDBRANCH   1   2
BRANCH   1  29
HETATM   29  N7  UNL     1      44.093  20.179  64.433  1.00  0.00    -0.288 NA
HETATM   30  C15 UNL     1      43.617  19.352  63.327  1.00  0.00     0.116 C 
BRANCH  29  31
HETATM   31  C16 UNL     1      43.250  20.039  65.601  1.00  0.00     0.061 C 
BRANCH  31  32
HETATM   32  C17 UNL     1      41.980  20.710  65.646  1.00  0.00     0.028 C 
BRANCH  32  33
HETATM   33  C18 UNL     1      40.714  20.163  66.112  1.00  0.00     0.092 C 
BRANCH  33  34
HETATM   34  N8  UNL     1      40.415  19.842  67.422  1.00  0.00    -0.339 N 
HETATM   35  C19 UNL     1      40.555  18.629  68.187  1.00  0.00     0.172 C 
HETATM   36  N9  UNL     1      41.764  18.150  68.282  1.00  0.00    -0.371 N 
HETATM   37  N10 UNL     1      39.449  18.019  68.775  1.00  0.00    -0.361 N 
ATOM     38  H92 UNL     1      42.574  18.597  67.852  1.00  0.00     0.159 HD
ATOM     39  H91 UNL     1      41.863  17.291  68.824  1.00  0.00     0.159 HD
ATOM     40  H10 UNL     1      39.459  17.642  69.722  1.00  0.00     0.162 HD
ATOM     41  H8  UNL     1      40.018  20.617  67.952  1.00  0.00     0.168 HD
BRANCH  37  42
HETATM   42  C20 UNL     1      38.267  17.966  67.907  1.00  0.00     0.142 C 
BRANCH  42  43
HETATM   43  C21 UNL     1      37.365  16.776  68.178  1.00  0.00     0.144 C 
BRANCH  43  44
HETATM   44  N11 UNL     1      37.116  16.123  66.884  1.00  0.00    -0.361 N 
HETATM   45  C22 UNL     1      35.720  15.815  66.579  1.00  0.00     0.152 C 
BRANCH  44  46
HETATM   46  C23 UNL     1      38.084  15.742  65.995  1.00  0.00     0.190 C 
BRANCH  46  47
HETATM   47  O3  UNL     1      38.810  14.678  66.511  1.00  0.00    -0.343 OA
ATOM     48  H3  UNL     1      39.198  14.176  65.804  1.00  0.00     0.219 HD
ENDBRANCH  46  47
BRANCH  46  49
HETATM   49  C24 UNL     1      38.536  16.132  64.762  1.00  0.00     0.188 C 
BRANCH  49  50
HETATM   50  O4  UNL     1      39.998  16.486  65.055  1.00  0.00    -0.343 OA
ATOM     51  H4  UNL     1      40.457  16.015  64.370  1.00  0.00     0.219 HD
ENDBRANCH  49  50
BRANCH  49  52
HETATM   52  N12 UNL     1      38.468  16.394  63.471  1.00  0.00    -0.368 N 
ATOM     53  H12 UNL     1      39.042  17.165  63.130  1.00  0.00     0.161 HD
BRANCH  52  54
HETATM   54  C25 UNL     1      37.644  15.686  62.465  1.00  0.00     0.117 C 
HETATM   55  C26 UNL     1      38.363  14.449  61.951  1.00  0.00     0.026 C 
ENDBRANCH  52  54
ENDBRANCH  49  52
ENDBRANCH  46  49
ENDBRANCH  44  46
ENDBRANCH  43  44
ENDBRANCH  42  43
ENDBRANCH  37  42
ENDBRANCH  33  34
ENDBRANCH  32  33
ENDBRANCH  31  32
ENDBRANCH  29  31
ENDBRANCH   1  29
TORSDOF 24
ENDMDL
MODEL 3
REMARK VINA RESULT: -7.769622961      2.184     10.688
REMARK  24 active torsions:
REMARK  status: ('A' for Active; 'I' for Inactive)
REMARK    1  A    between atoms: C2_2  and  C3_3 
REMARK    2  A    between atoms: C3_3  and  N1_4 
REMARK       I    between atoms: C4_6  and  N3_8 
REMARK    3  A    between atoms: N3_8  and  C5_10 
REMARK    4  A    between atoms: C7_14  and  C8_15 
REMARK       I    between atoms: C8_15  and  N5_17 
REMARK    5  A    between atoms: N5_17  and  C9_18 
REMARK    6  A    between atoms: C9_18  and  C10_19 
REMARK    7  A    between atoms: C10_19  and  C11_20 
REMARK    8  A    between atoms: C11_20  and  C12_21 
REMARK    9  A    between atoms: C12_21  and  N6_22 
REMARK       I    between atoms: N6_22  and  C13_24 
REMARK   10  A    between atoms: C13_24  and  C14_26 
REMARK   11  A    between atoms: C14_26  and  N7_27 
REMARK   12  A    between atoms: N7_27  and  C16_29 
REMARK   13  A    between atoms: C16_29  and  C17_30 
REMARK   14  A    between atoms: C17_30  and  C18_31 
REMARK   15  A    between atoms: C18_31  and  N8_32 
REMARK       I    between atoms: N8_32  and  C19_34 
REMARK       I    between atoms: C19_34  and  N9_35 
REMARK       I    between atoms: C19_34  and  N10_38 
REMARK   16  A    between atoms: N10_38  and  C20_40 
REMARK   17  A    between atoms: C20_40  and  C21_41 
REMARK   18  A    between atoms: C21_41  and  N11_42 
REMARK   19  A    between atoms: N11_42  and  C23_44 
REMARK   20  A    between atoms: C23_44  and  O3_45 
REMARK   21  A    between atoms: C23_44  and  C24_47 
REMARK   22  A    between atoms: C24_47  and  O4_48 
REMARK   23  A    between atoms: C24_47  and  N12_50 
REMARK   24  A    between atoms: N12_50  and  C25_52 
ROOT
HETATM    1  C14 UNL     1      42.807  17.647  65.345  1.00  0.00     0.197 C 
ENDROOT
BRANCH   1   2
HETATM    2  C13 UNL     1      41.605  17.358  64.520  1.00  0.00     0.231 C 
HETATM    3  N6  UNL     1      41.767  16.999  63.125  1.00  0.00    -0.360 N 
ATOM      4  H6  UNL     1      42.687  16.977  62.684  1.00  0.00     0.162 HD
HETATM    5  O2  UNL     1      40.487  17.401  65.012  1.00  0.00    -0.272 OA
BRANCH   3   6
HETATM    6  C12 UNL     1      40.574  16.677  62.394  1.00  0.00     0.122 C 
BRANCH   6   7
HETATM    7  C11 UNL     1      40.610  15.414  61.578  1.00  0.00     0.022 C 
BRANCH   7   8
HETATM    8  C10 UNL     1      39.671  14.387  62.134  1.00  0.00     0.035 C 
BRANCH   8   9
HETATM    9  C9  UNL     1      38.414  14.208  61.276  1.00  0.00     0.222 C 
BRANCH   9  10
HETATM   10  N5  UNL     1      37.306  14.242  62.193  1.00  0.00    -0.410 NA
HETATM   11  C8  UNL     1      36.284  14.269  63.030  1.00  0.00     0.339 C 
HETATM   12  O1  UNL     1      35.169  13.750  63.021  1.00  0.00    -0.250 OA
BRANCH  11  13
HETATM   13  C7  UNL     1      36.520  15.139  64.254  1.00  0.00     0.146 A 
HETATM   14  C6  UNL     1      35.656  16.035  64.761  1.00  0.00     0.143 A 
HETATM   15  N4  UNL     1      36.209  16.652  65.782  1.00  0.00    -0.199 N 
HETATM   16  C5  UNL     1      37.530  16.106  65.928  1.00  0.00     0.685 A 
ATOM     17  H4  UNL     1      35.783  17.378  66.359  1.00  0.00     0.183 HD
HETATM   18  N13 UNL     1      37.609  15.188  64.946  1.00  0.00    -0.183 N 
ATOM     19  H13 UNL     1      38.427  14.605  64.771  1.00  0.00     0.184 HD
BRANCH  16  20
HETATM   20  N3  UNL     1      38.233  16.528  66.742  1.00  0.00    -0.163 N 
HETATM   21  C4  UNL     1      38.630  17.397  67.775  1.00  0.00     0.206 C 
HETATM   22  N1  UNL     1      39.430  18.248  67.664  1.00  0.00    -0.344 N 
HETATM   23  N2  UNL     1      38.062  16.869  69.050  1.00  0.00    -0.063 NA
ATOM     24  H1  UNL     1      39.605  18.369  66.667  1.00  0.00     0.167 HD
ATOM     25  H3  UNL     1      39.037  15.905  66.669  1.00  0.00     0.187 HD
BRANCH  22  26
HETATM   26  C3  UNL     1      40.233  19.152  68.333  1.00  0.00     0.063 C 
BRANCH  26  27
HETATM   27  C2  UNL     1      40.218  20.524  67.716  1.00  0.00     0.040 C 
HETATM   28  C1  UNL     1      38.798  21.069  67.598  1.00  0.00     0.010 C 
ENDBRANCH  26  27
ENDBRANCH  22  26
ENDBRANCH  16  20
ENDBRANCH  11  13
ENDBRANCH   9  10
ENDBRANCH   8   9
ENDBRANCH   7   8
ENDBRANCH   6   7
ENDBRANCH   3   6
ENDBRANCH   1   2
BRANCH   1  29
HETATM   29  N7  UNL     1      43.313  18.991  65.277  1.00  0.00    -0.288 NA
HETATM   30  C15 UNL     1      43.608  19.564  66.587  1.00  0.00     0.116 C 
BRANCH  29  31
HETATM   31  C16 UNL     1      42.302  19.756  64.579  1.00  0.00     0.061 C 
BRANCH  31  32
HETATM   32  C17 UNL     1      42.660  20.503  63.405  1.00  0.00     0.028 C 
BRANCH  32  33
HETATM   33  C18 UNL     1      43.837  20.313  62.568  1.00  0.00     0.092 C 
BRANCH  33  34
HETATM   34  N8  UNL     1      45.113  20.744  62.874  1.00  0.00    -0.339 N 
HETATM   35  C19 UNL     1      46.019  20.429  63.950  1.00  0.00     0.172 C 
HETATM   36  N9  UNL     1      46.348  19.173  64.070  1.00  0.00    -0.371 N 
HETATM   37  N10 UNL     1      46.493  21.422  64.805  1.00  0.00    -0.361 N 
ATOM     38  H92 UNL     1      46.001  18.446  63.444  1.00  0.00     0.159 HD
ATOM     39  H91 UNL     1      46.990  18.949  64.831  1.00  0.00     0.159 HD
ATOM     40  H10 UNL     1      47.467  21.481  65.103  1.00  0.00     0.162 HD
ATOM     41  H8  UNL     1      45.489  21.418  62.208  1.00  0.00     0.168 HD
BRANCH  37  42
HETATM   42  C20 UNL     1      45.466  22.376  65.237  1.00  0.00     0.142 C 
BRANCH  42  43
HETATM   43  C21 UNL     1      45.566  22.755  66.703  1.00  0.00     0.144 C 
BRANCH  43  44
HETATM   44  N11 UNL     1      46.213  24.075  66.762  1.00  0.00    -0.361 N 
HETATM   45  C22 UNL     1      45.320  25.230  66.683  1.00  0.00     0.152 C 
BRANCH  44  46
HETATM   46  C23 UNL     1      47.563  24.288  66.823  1.00  0.00     0.190 C 
BRANCH  46  47
HETATM   47  O3  UNL     1      47.978  24.326  68.147  1.00  0.00    -0.343 OA
ATOM     48  H3  UNL     1      48.584  23.615  68.317  1.00  0.00     0.219 HD
ENDBRANCH  46  47
BRANCH  46  49
HETATM   49  C24 UNL     1      48.596  24.493  65.947  1.00  0.00     0.188 C 
BRANCH  49  50
HETATM   50  O4  UNL     1      49.086  23.063  65.692  1.00  0.00    -0.343 OA
ATOM     51  H4  UNL     1      49.526  22.856  66.508  1.00  0.00     0.219 HD
ENDBRANCH  49  50
BRANCH  49  52
HETATM   52  N12 UNL     1      49.430  25.183  65.193  1.00  0.00    -0.368 N 
ATOM     53  H12 UNL     1      50.413  24.913  65.234  1.00  0.00     0.161 HD
BRANCH  52  54
HETATM   54  C25 UNL     1      49.088  26.307  64.293  1.00  0.00     0.117 C 
HETATM   55  C26 UNL     1      48.897  27.592  65.081  1.00  0.00     0.026 C 
ENDBRANCH  52  54
ENDBRANCH  49  52
ENDBRANCH  46  49
ENDBRANCH  44  46
ENDBRANCH  43  44
ENDBRANCH  42  43
ENDBRANCH  37  42
ENDBRANCH  33  34
ENDBRANCH  32  33
ENDBRANCH  31  32
ENDBRANCH  29  31
ENDBRANCH   1  29
TORSDOF 24
ENDMDL
MODEL 4
REMARK VINA RESULT: -7.753313737      2.204      4.984
REMARK  24 active torsions:
REMARK  status: ('A' for Active; 'I' for Inactive)
REMARK    1  A    between atoms: C2_2  and  C3_3 
REMARK    2  A    between atoms: C3_3  and  N1_4 
REMARK       I    between atoms: C4_6  and  N3_8 
REMARK    3  A    between atoms: N3_8  and  C5_10 
REMARK    4  A    between atoms: C7_14  and  C8_15 
REMARK       I    between atoms: C8_15  and  N5_17 
REMARK    5  A    between atoms: N5_17  and  C9_18 
REMARK    6  A    between atoms: C9_18  and  C10_19 
REMARK    7  A    between atoms: C10_19  and  C11_20 
REMARK    8  A    between atoms: C11_20  and  C12_21 
REMARK    9  A    between atoms: C12_21  and  N6_22 
REMARK       I    between atoms: N6_22  and  C13_24 
REMARK   10  A    between atoms: C13_24  and  C14_26 
REMARK   11  A    between atoms: C14_26  and  N7_27 
REMARK   12  A    between atoms: N7_27  and  C16_29 
REMARK   13  A    between atoms: C16_29  and  C17_30 
REMARK   14  A    between atoms: C17_30  and  C18_31 
REMARK   15  A    between atoms: C18_31  and  N8_32 
REMARK       I    between atoms: N8_32  and  C19_34 
REMARK       I    between atoms: C19_34  and  N9_35 
REMARK       I    between atoms: C19_34  and  N10_38 
REMARK   16  A    between atoms: N10_38  and  C20_40 
REMARK   17  A    between atoms: C20_40  and  C21_41 
REMARK   18  A    between atoms: C21_41  and  N11_42 
REMARK   19  A    between atoms: N11_42  and  C23_44 
REMARK   20  A    between atoms: C23_44  and  O3_45 
REMARK   21  A    between atoms: C23_44  and  C24_47 
REMARK   22  A    between atoms: C24_47  and  O4_48 
REMARK   23  A    between atoms: C24_47  and  N12_50 
REMARK   24  A    between atoms: N12_50  and  C25_52 
ROOT
HETATM    1  C14 UNL     1      44.139  20.673  66.073  1.00  0.00     0.197 C 
ENDROOT
BRANCH   1   2
HETATM    2  C13 UNL     1      44.538  22.051  65.682  1.00  0.00     0.231 C 
HETATM    3  N6  UNL     1      44.687  23.066  66.705  1.00  0.00    -0.360 N 
ATOM      4  H6  UNL     1      44.487  22.869  67.685  1.00  0.00     0.162 HD
HETATM    5  O2  UNL     1      44.762  22.327  64.512  1.00  0.00    -0.272 OA
BRANCH   3   6
HETATM    6  C12 UNL     1      45.129  24.363  66.274  1.00  0.00     0.122 C 
BRANCH   6   7
HETATM    7  C11 UNL     1      45.569  25.313  67.354  1.00  0.00     0.022 C 
BRANCH   7   8
HETATM    8  C10 UNL     1      46.838  24.846  67.999  1.00  0.00     0.035 C 
BRANCH   8   9
HETATM    9  C9  UNL     1      47.768  26.002  68.380  1.00  0.00     0.222 C 
BRANCH   9  10
HETATM   10  N5  UNL     1      48.371  26.442  67.150  1.00  0.00    -0.410 NA
HETATM   11  C8  UNL     1      48.927  26.852  66.023  1.00  0.00     0.339 C 
HETATM   12  O1  UNL     1      49.589  27.842  65.718  1.00  0.00    -0.250 OA
BRANCH  11  13
HETATM   13  C7  UNL     1      48.683  25.921  64.847  1.00  0.00     0.146 A 
HETATM   14  C6  UNL     1      48.846  26.231  63.550  1.00  0.00     0.143 A 
HETATM   15  N4  UNL     1      48.485  25.211  62.803  1.00  0.00    -0.199 N 
HETATM   16  C5  UNL     1      48.054  24.175  63.700  1.00  0.00     0.685 A 
ATOM     17  H4  UNL     1      48.506  25.164  61.784  1.00  0.00     0.183 HD
HETATM   18  N13 UNL     1      48.223  24.716  64.921  1.00  0.00    -0.183 N 
ATOM     19  H13 UNL     1      48.014  24.235  65.795  1.00  0.00     0.184 HD
BRANCH  16  20
HETATM   20  N3  UNL     1      47.645  23.184  63.270  1.00  0.00    -0.163 N 
HETATM   21  C4  UNL     1      47.388  22.221  62.276  1.00  0.00     0.206 C 
HETATM   22  N1  UNL     1      46.341  22.028  61.784  1.00  0.00    -0.344 N 
HETATM   23  N2  UNL     1      48.593  21.347  62.177  1.00  0.00    -0.063 NA
ATOM     24  H1  UNL     1      45.737  22.808  62.045  1.00  0.00     0.167 HD
ATOM     25  H3  UNL     1      47.220  22.756  64.093  1.00  0.00     0.187 HD
BRANCH  22  26
HETATM   26  C3  UNL     1      45.591  21.177  60.995  1.00  0.00     0.063 C 
BRANCH  26  27
HETATM   27  C2  UNL     1      44.523  20.447  61.763  1.00  0.00     0.040 C 
HETATM   28  C1  UNL     1      45.121  19.397  62.693  1.00  0.00     0.010 C 
ENDBRANCH  26  27
ENDBRANCH  22  26
ENDBRANCH  16  20
ENDBRANCH  11  13
ENDBRANCH   9  10
ENDBRANCH   8   9
ENDBRANCH   7   8
ENDBRANCH   6   7
ENDBRANCH   3   6
ENDBRANCH   1   2
BRANCH   1  29
HETATM   29  N7  UNL     1      42.806  20.275  65.713  1.00  0.00    -0.288 NA
HETATM   30  C15 UNL     1      41.790  21.255  66.086  1.00  0.00     0.116 C 
BRANCH  29  31
HETATM   31  C16 UNL     1      42.583  19.005  66.369  1.00  0.00     0.061 C 
BRANCH  31  32
HETATM   32  C17 UNL     1      42.845  17.782  65.661  1.00  0.00     0.028 C 
BRANCH  32  33
HETATM   33  C18 UNL     1      42.399  17.431  64.320  1.00  0.00     0.092 C 
BRANCH  33  34
HETATM   34  N8  UNL     1      41.389  18.066  63.622  1.00  0.00    -0.339 N 
HETATM   35  C19 UNL     1      39.953  18.043  63.745  1.00  0.00     0.172 C 
HETATM   36  N9  UNL     1      39.472  18.415  64.899  1.00  0.00    -0.371 N 
HETATM   37  N10 UNL     1      39.147  17.636  62.684  1.00  0.00    -0.361 N 
ATOM     38  H92 UNL     1      40.062  18.714  65.676  1.00  0.00     0.159 HD
ATOM     39  H91 UNL     1      38.456  18.400  64.986  1.00  0.00     0.159 HD
ATOM     40  H10 UNL     1      38.292  18.122  62.416  1.00  0.00     0.162 HD
ATOM     41  H8  UNL     1      41.726  18.669  62.873  1.00  0.00     0.168 HD
BRANCH  37  42
HETATM   42  C20 UNL     1      39.640  16.443  61.986  1.00  0.00     0.142 C 
BRANCH  42  43
HETATM   43  C21 UNL     1      39.694  15.205  62.862  1.00  0.00     0.144 C 
BRANCH  43  44
HETATM   44  N11 UNL     1      38.322  14.943  63.321  1.00  0.00    -0.361 N 
HETATM   45  C22 UNL     1      37.408  14.385  62.325  1.00  0.00     0.152 C 
BRANCH  44  46
HETATM   46  C23 UNL     1      37.838  15.234  64.568  1.00  0.00     0.190 C 
BRANCH  46  47
HETATM   47  O3  UNL     1      38.869  15.198  65.496  1.00  0.00    -0.343 OA
ATOM     48  H3  UNL     1      38.722  15.851  66.170  1.00  0.00     0.219 HD
ENDBRANCH  46  47
BRANCH  46  49
HETATM   49  C24 UNL     1      36.630  15.526  65.141  1.00  0.00     0.188 C 
BRANCH  49  50
HETATM   50  O4  UNL     1      36.790  17.010  65.486  1.00  0.00    -0.343 OA
ATOM     51  H4  UNL     1      36.376  17.061  66.339  1.00  0.00     0.219 HD
ENDBRANCH  49  50
BRANCH  49  52
HETATM   52  N12 UNL     1      35.408  15.296  65.582  1.00  0.00    -0.368 N 
ATOM     53  H12 UNL     1      35.280  15.295  66.594  1.00  0.00     0.161 HD
BRANCH  52  54
HETATM   54  C25 UNL     1      34.203  15.040  64.762  1.00  0.00     0.117 C 
HETATM   55  C26 UNL     1      34.237  15.854  63.479  1.00  0.00     0.026 C 
ENDBRANCH  52  54
ENDBRANCH  49  52
ENDBRANCH  46  49
ENDBRANCH  44  46
ENDBRANCH  43  44
ENDBRANCH  42  43
ENDBRANCH  37  42
ENDBRANCH  33  34
ENDBRANCH  32  33
ENDBRANCH  31  32
ENDBRANCH  29  31
ENDBRANCH   1  29
TORSDOF 24
ENDMDL
MODEL 5
REMARK VINA RESULT: -7.707917791      2.654      4.883
REMARK  24 active torsions:
REMARK  status: ('A' for Active; 'I' for Inactive)
REMARK    1  A    between atoms: C2_2  and  C3_3 
REMARK    2  A    between atoms: C3_3  and  N1_4 
REMARK       I    between atoms: C4_6  and  N3_8 
REMARK    3  A    between atoms: N3_8  and  C5_10 
REMARK    4  A    between atoms: C7_14  and  C8_15 
REMARK       I    between atoms: C8_15  and  N5_17 
REMARK    5  A    between atoms: N5_17  and  C9_18 
REMARK    6  A    between atoms: C9_18  and  C10_19 
REMARK    7  A    between atoms: C10_19  and  C11_20 
REMARK    8  A    between atoms: C11_20  and  C12_21 
REMARK    9  A    between atoms: C12_21  and  N6_22 
REMARK       I    between atoms: N6_22  and  C13_24 
REMARK   10  A    between atoms: C13_24  and  C14_26 
REMARK   11  A    between atoms: C14_26  and  N7_27 
REMARK   12  A    between atoms: N7_27  and  C16_29 
REMARK   13  A    between atoms: C16_29  and  C17_30 
REMARK   14  A    between atoms: C17_30  and  C18_31 
REMARK   15  A    between atoms: C18_31  and  N8_32 
REMARK       I    between atoms: N8_32  and  C19_34 
REMARK       I    between atoms: C19_34  and  N9_35 
REMARK       I    between atoms: C19_34  and  N10_38 
REMARK   16  A    between atoms: N10_38  and  C20_40 
REMARK   17  A    between atoms: C20_40  and  C21_41 
REMARK   18  A    between atoms: C21_41  and  N11_42 
REMARK   19  A    between atoms: N11_42  and  C23_44 
REMARK   20  A    between atoms: C23_44  and  O3_45 
REMARK   21  A    between atoms: C23_44  and  C24_47 
REMARK   22  A    between atoms: C24_47  and  O4_48 
REMARK   23  A    between atoms: C24_47  and  N12_50 
REMARK   24  A    between atoms: N12_50  and  C25_52 
ROOT
HETATM    1  C14 UNL     1      43.919  18.874  63.533  1.00  0.00     0.197 C 
ENDROOT
BRANCH   1   2
HETATM    2  C13 UNL     1      44.106  20.090  62.698  1.00  0.00     0.231 C 
HETATM    3  N6  UNL     1      44.965  20.028  61.532  1.00  0.00    -0.360 N 
ATOM      4  H6  UNL     1      45.476  19.179  61.291  1.00  0.00     0.162 HD
HETATM    5  O2  UNL     1      43.527  21.130  62.974  1.00  0.00    -0.272 OA
BRANCH   3   6
HETATM    6  C12 UNL     1      45.063  21.218  60.733  1.00  0.00     0.122 C 
BRANCH   6   7
HETATM    7  C11 UNL     1      46.398  21.911  60.725  1.00  0.00     0.022 C 
BRANCH   7   8
HETATM    8  C10 UNL     1      46.552  22.798  61.921  1.00  0.00     0.035 C 
BRANCH   8   9
HETATM    9  C9  UNL     1      47.283  22.109  63.078  1.00  0.00     0.222 C 
BRANCH   9  10
HETATM   10  N5  UNL     1      46.653  22.588  64.280  1.00  0.00    -0.410 NA
HETATM   11  C8  UNL     1      46.079  23.032  65.385  1.00  0.00     0.339 C 
HETATM   12  O1  UNL     1      46.297  23.990  66.124  1.00  0.00    -0.250 OA
BRANCH  11  13
HETATM   13  C7  UNL     1      44.920  22.172  65.859  1.00  0.00     0.146 A 
HETATM   14  C6  UNL     1      45.021  21.034  66.567  1.00  0.00     0.143 A 
HETATM   15  N4  UNL     1      43.825  20.520  66.751  1.00  0.00    -0.199 N 
HETATM   16  C5  UNL     1      42.894  21.401  66.104  1.00  0.00     0.685 A 
ATOM     17  H4  UNL     1      43.602  19.661  67.256  1.00  0.00     0.183 HD
HETATM   18  N13 UNL     1      43.672  22.377  65.598  1.00  0.00    -0.183 N 
ATOM     19  H13 UNL     1      43.319  23.177  65.074  1.00  0.00     0.184 HD
BRANCH  16  20
HETATM   20  N3  UNL     1      41.770  21.133  66.093  1.00  0.00    -0.163 N 
HETATM   21  C4  UNL     1      40.574  20.577  66.586  1.00  0.00     0.206 C 
HETATM   22  N1  UNL     1      40.073  19.598  66.181  1.00  0.00    -0.344 N 
HETATM   23  N2  UNL     1      39.955  21.584  67.496  1.00  0.00    -0.063 NA
ATOM     24  H1  UNL     1      40.758  19.133  65.584  1.00  0.00     0.167 HD
ATOM     25  H3  UNL     1      41.467  21.531  65.204  1.00  0.00     0.187 HD
BRANCH  22  26
HETATM   26  C3  UNL     1      38.934  18.815  66.181  1.00  0.00     0.063 C 
BRANCH  26  27
HETATM   27  C2  UNL     1      39.080  17.560  66.997  1.00  0.00     0.040 C 
HETATM   28  C1  UNL     1      39.230  17.873  68.482  1.00  0.00     0.010 C 
ENDBRANCH  26  27
ENDBRANCH  22  26
ENDBRANCH  16  20
ENDBRANCH  11  13
ENDBRANCH   9  10
ENDBRANCH   8   9
ENDBRANCH   7   8
ENDBRANCH   6   7
ENDBRANCH   3   6
ENDBRANCH   1   2
BRANCH   1  29
HETATM   29  N7  UNL     1      42.631  18.727  64.154  1.00  0.00    -0.288 NA
HETATM   30  C15 UNL     1      42.590  17.665  65.155  1.00  0.00     0.116 C 
BRANCH  29  31
HETATM   31  C16 UNL     1      41.700  18.474  63.075  1.00  0.00     0.061 C 
BRANCH  31  32
HETATM   32  C17 UNL     1      40.766  17.388  63.181  1.00  0.00     0.028 C 
BRANCH  32  33
HETATM   33  C18 UNL     1      40.692  16.207  62.333  1.00  0.00     0.092 C 
BRANCH  33  34
HETATM   34  N8  UNL     1      39.945  15.076  62.601  1.00  0.00    -0.339 N 
HETATM   35  C19 UNL     1      39.019  14.306  61.810  1.00  0.00     0.172 C 
HETATM   36  N9  UNL     1      39.493  13.803  60.704  1.00  0.00    -0.371 N 
HETATM   37  N10 UNL     1      37.698  14.130  62.218  1.00  0.00    -0.361 N 
ATOM     38  H92 UNL     1      40.460  13.932  60.405  1.00  0.00     0.159 HD
ATOM     39  H91 UNL     1      38.837  13.258  60.143  1.00  0.00     0.159 HD
ATOM     40  H10 UNL     1      37.213  13.235  62.160  1.00  0.00     0.162 HD
ATOM     41  H8  UNL     1      40.074  14.715  63.546  1.00  0.00     0.168 HD
BRANCH  37  42
HETATM   42  C20 UNL     1      37.068  15.349  62.737  1.00  0.00     0.142 C 
BRANCH  42  43
HETATM   43  C21 UNL     1      37.150  15.481  64.246  1.00  0.00     0.144 C 
BRANCH  43  44
HETATM   44  N11 UNL     1      35.777  15.682  64.734  1.00  0.00    -0.361 N 
HETATM   45  C22 UNL     1      34.806  16.147  63.745  1.00  0.00     0.152 C 
BRANCH  44  46
HETATM   46  C23 UNL     1      35.371  15.525  66.032  1.00  0.00     0.190 C 
BRANCH  46  47
HETATM   47  O3  UNL     1      34.193  14.793  66.075  1.00  0.00    -0.343 OA
ATOM     48  H3  UNL     1      34.317  14.009  66.598  1.00  0.00     0.219 HD
ENDBRANCH  46  47
BRANCH  46  49
HETATM   49  C24 UNL     1      35.795  15.905  67.277  1.00  0.00     0.188 C 
BRANCH  49  50
HETATM   50  O4  UNL     1      36.949  14.931  67.534  1.00  0.00    -0.343 OA
ATOM     51  H4  UNL     1      37.576  15.188  66.869  1.00  0.00     0.219 HD
ENDBRANCH  49  50
BRANCH  49  52
HETATM   52  N12 UNL     1      35.803  16.605  68.396  1.00  0.00    -0.368 N 
ATOM     53  H12 UNL     1      36.355  16.228  69.166  1.00  0.00     0.161 HD
BRANCH  52  54
HETATM   54  C25 UNL     1      35.094  17.879  68.650  1.00  0.00     0.117 C 
HETATM   55  C26 UNL     1      35.781  19.032  67.937  1.00  0.00     0.026 C 
ENDBRANCH  52  54
ENDBRANCH  49  52
ENDBRANCH  46  49
ENDBRANCH  44  46
ENDBRANCH  43  44
ENDBRANCH  42  43
ENDBRANCH  37  42
ENDBRANCH  33  34
ENDBRANCH  32  33
ENDBRANCH  31  32
ENDBRANCH  29  31
ENDBRANCH   1  29
TORSDOF 24
ENDMDL
