MODEL 1
REMARK VINA RESULT: -8.562916076      0.000      0.000
REMARK  21 active torsions:
REMARK  status: ('A' for Active; 'I' for Inactive)
REMARK    1  A    between atoms: N1_2  and  C4_5 
REMARK    2  A    between atoms: C4_5  and  C5_6 
REMARK    3  A    between atoms: C5_6  and  N2_7 
REMARK       I    between atoms: N2_7  and  C6_9 
REMARK    4  A    between atoms: C6_9  and  C7_11 
REMARK    5  A    between atoms: C7_11  and  N3_12 
REMARK       I    between atoms: N3_12  and  C8_14 
REMARK    6  A    between atoms: C8_14  and  C9_16 
REMARK    7  A    between atoms: C9_16  and  N4_17 
REMARK    8  A    between atoms: C9_16  and  C10_21 
REMARK    9  A    between atoms: C9_16  and  C24_48 
REMARK   10  A    between atoms: C10_21  and  C11_22 
REMARK   11  A    between atoms: C11_22  and  C12_23 
REMARK   12  A    between atoms: C12_23  and  N5_24 
REMARK   13  A    between atoms: N5_24  and  C13_26 
REMARK   14  A    between atoms: C13_26  and  C14_27 
REMARK   15  A    between atoms: C14_27  and  C15_28 
REMARK   16  A    between atoms: C15_28  and  C16_29 
REMARK   17  A    between atoms: C16_29  and  N6_30 
REMARK       I    between atoms: N6_30  and  C17_32 
REMARK   18  A    between atoms: C17_32  and  C18_34 
REMARK   19  A    between atoms: C18_34  and  C19_35 
REMARK   20  A    between atoms: N8_41  and  N9_43 
REMARK   21  A    between atoms: C24_48  and  C25_49 
ROOT
HETATM    1  C9  UNL     1      45.334  23.502  66.948  1.00  0.00     0.226 C 
ENDROOT
BRANCH   1   2
HETATM    2  C8  UNL     1      44.124  23.021  66.192  1.00  0.00     0.258 C 
HETATM    3  N3  UNL     1      43.400  21.837  66.539  1.00  0.00    -0.350 N 
ATOM      4  H3  UNL     1      43.687  21.262  67.331  1.00  0.00     0.163 HD
HETATM    5  O2  UNL     1      43.743  23.694  65.218  1.00  0.00    -0.270 OA
BRANCH   3   6
HETATM    6  C7  UNL     1      42.255  21.477  65.745  1.00  0.00     0.225 C 
BRANCH   6   7
HETATM    7  C6  UNL     1      41.258  20.725  66.488  1.00  0.00     0.235 C 
HETATM    8  N2  UNL     1      41.340  19.368  66.800  1.00  0.00    -0.358 N 
ATOM      9  H2  UNL     1      42.157  18.831  66.510  1.00  0.00     0.162 HD
HETATM   10  O1  UNL     1      40.237  21.390  66.868  1.00  0.00    -0.272 OA
BRANCH   8  11
HETATM   11  C5  UNL     1      40.276  18.714  67.534  1.00  0.00     0.150 C 
BRANCH  11  12
HETATM   12  C4  UNL     1      39.333  18.036  66.598  1.00  0.00     0.255 C 
BRANCH  12  13
HETATM   13  N1  UNL     1      38.006  17.870  67.190  1.00  0.00    -0.077 N 
HETATM   14  C1  UNL     1      37.245  17.005  66.322  1.00  0.00     0.271 C 
HETATM   15  C2  UNL     1      37.357  19.171  67.277  1.00  0.00     0.271 C 
HETATM   16  C3  UNL     1      38.153  17.231  68.470  1.00  0.00     0.271 C 
ENDBRANCH  12  13
ENDBRANCH  11  12
ENDBRANCH   8  11
ENDBRANCH   6   7
ENDBRANCH   3   6
ENDBRANCH   1   2
BRANCH   1  17
HETATM   17  N4  UNL     1      45.057  23.324  68.350  1.00  0.00    -0.058 N 
ATOM     18  H43 UNL     1      45.184  22.362  68.663  1.00  0.00     0.276 HD
ATOM     19  H42 UNL     1      45.760  23.751  68.953  1.00  0.00     0.276 HD
ATOM     20  H41 UNL     1      44.116  23.678  68.518  1.00  0.00     0.276 HD
ENDBRANCH   1  17
BRANCH   1  21
HETATM   21  C10 UNL     1      46.464  22.690  66.516  1.00  0.00     0.019 C 
BRANCH  21  22
HETATM   22  C11 UNL     1      46.468  21.870  65.305  1.00  0.00    -0.008 C 
BRANCH  22  23
HETATM   23  C12 UNL     1      46.913  22.375  64.002  1.00  0.00     0.148 C 
BRANCH  23  24
HETATM   24  N5  UNL     1      45.806  22.679  63.096  1.00  0.00    -0.375 N 
ATOM     25  H5  UNL     1      45.042  23.261  63.438  1.00  0.00     0.161 HD
BRANCH  24  26
HETATM   26  C13 UNL     1      45.746  22.194  61.751  1.00  0.00     0.092 C 
HETATM   27  N8  UNL     1      46.247  22.778  60.764  1.00  0.00    -0.287 N 
ATOM     28  H8  UNL     1      46.098  22.275  59.888  1.00  0.00     0.188 HD
BRANCH  26  29
HETATM   29  C14 UNL     1      45.037  20.872  61.545  1.00  0.00     0.079 C 
BRANCH  29  30
HETATM   30  C15 UNL     1      44.134  20.584  62.685  1.00  0.00     0.027 C 
BRANCH  30  31
HETATM   31  C16 UNL     1      43.789  19.193  63.009  1.00  0.00     0.123 C 
BRANCH  31  32
HETATM   32  N6  UNL     1      42.451  18.789  62.786  1.00  0.00    -0.361 N 
HETATM   33  C17 UNL     1      41.640  17.901  63.522  1.00  0.00     0.221 C 
HETATM   34  O3  UNL     1      42.024  17.282  64.526  1.00  0.00    -0.273 OA
ATOM     35  H6  UNL     1      42.006  19.203  61.967  1.00  0.00     0.162 HD
BRANCH  33  36
HETATM   36  C18 UNL     1      40.228  17.672  63.093  1.00  0.00     0.142 C 
BRANCH  36  37
HETATM   37  C19 UNL     1      40.029  16.279  62.606  1.00  0.00    -0.033 A 
HETATM   38  C20 UNL     1      38.967  15.453  62.999  1.00  0.00     0.026 A 
HETATM   39  C21 UNL     1      39.112  14.253  62.336  1.00  0.00     0.088 A 
HETATM   40  N7  UNL     1      40.198  14.309  61.569  1.00  0.00    -0.375 N 
HETATM   41  C22 UNL     1      40.765  15.529  61.720  1.00  0.00     0.095 A 
ATOM     42  H7  UNL     1      40.545  13.560  60.970  1.00  0.00     0.164 HD
ENDBRANCH  36  37
ENDBRANCH  33  36
ENDBRANCH  31  32
ENDBRANCH  30  31
ENDBRANCH  29  30
ENDBRANCH  26  29
BRANCH  27  43
HETATM   43  N9  UNL     1      46.945  23.932  60.599  1.00  0.00    -0.275 N 
HETATM   44  C23 UNL     1      48.218  24.050  60.742  1.00  0.00     0.215 C 
HETATM   45  N10 UNL     1      48.836  25.299  60.544  1.00  0.00    -0.065 NA
HETATM   46  N11 UNL     1      49.001  22.932  61.107  1.00  0.00    -0.065 NA
ATOM     47  H9  UNL     1      46.420  24.768  60.342  1.00  0.00     0.189 HD
ENDBRANCH  27  43
ENDBRANCH  24  26
ENDBRANCH  23  24
ENDBRANCH  22  23
ENDBRANCH  21  22
ENDBRANCH   1  21
BRANCH   1  48
HETATM   48  C24 UNL     1      45.349  24.993  66.705  1.00  0.00     0.111 C 
BRANCH  48  49
HETATM   49  C25 UNL     1      46.663  25.644  66.785  1.00  0.00     0.028 A 
HETATM   50  C26 UNL     1      47.444  25.989  67.843  1.00  0.00     0.114 A 
HETATM   51  N12 UNL     1      48.572  26.590  67.372  1.00  0.00    -0.360 N 
HETATM   52  C27 UNL     1      48.515  26.629  66.033  1.00  0.00     0.180 A 
ATOM     53  H12 UNL     1      49.336  26.951  67.945  1.00  0.00     0.166 HD
HETATM   54  N13 UNL     1      47.372  26.062  65.692  1.00  0.00    -0.354 N 
ATOM     55  H13 UNL     1      47.056  25.949  64.729  1.00  0.00     0.166 HD
ENDBRANCH  48  49
ENDBRANCH   1  48
TORSDOF 21
ENDMDL
MODEL 2
REMARK VINA RESULT: -8.337422934      2.609      8.842
REMARK  21 active torsions:
REMARK  status: ('A' for Active; 'I' for Inactive)
REMARK    1  A    between atoms: N1_2  and  C4_5 
REMARK    2  A    between atoms: C4_5  and  C5_6 
REMARK    3  A    between atoms: C5_6  and  N2_7 
REMARK       I    between atoms: N2_7  and  C6_9 
REMARK    4  A    between atoms: C6_9  and  C7_11 
REMARK    5  A    between atoms: C7_11  and  N3_12 
REMARK       I    between atoms: N3_12  and  C8_14 
REMARK    6  A    between atoms: C8_14  and  C9_16 
REMARK    7  A    between atoms: C9_16  and  N4_17 
REMARK    8  A    between atoms: C9_16  and  C10_21 
REMARK    9  A    between atoms: C9_16  and  C24_48 
REMARK   10  A    between atoms: C10_21  and  C11_22 
REMARK   11  A    between atoms: C11_22  and  C12_23 
REMARK   12  A    between atoms: C12_23  and  N5_24 
REMARK   13  A    between atoms: N5_24  and  C13_26 
REMARK   14  A    between atoms: C13_26  and  C14_27 
REMARK   15  A    between atoms: C14_27  and  C15_28 
REMARK   16  A    between atoms: C15_28  and  C16_29 
REMARK   17  A    between atoms: C16_29  and  N6_30 
REMARK       I    between atoms: N6_30  and  C17_32 
REMARK   18  A    between atoms: C17_32  and  C18_34 
REMARK   19  A    between atoms: C18_34  and  C19_35 
REMARK   20  A    between atoms: N8_41  and  N9_43 
REMARK   21  A    between atoms: C24_48  and  C25_49 
ROOT
HETATM    1  C9  UNL     1      41.824  18.338  63.780  1.00  0.00     0.226 C 
ENDROOT
BRANCH   1   2
HETATM    2  C8  UNL     1      40.783  17.638  62.948  1.00  0.00     0.258 C 
HETATM    3  N3  UNL     1      40.949  16.314  62.432  1.00  0.00    -0.350 N 
ATOM      4  H3  UNL     1      41.802  15.786  62.613  1.00  0.00     0.163 HD
HETATM    5  O2  UNL     1      39.729  18.251  62.703  1.00  0.00    -0.270 OA
BRANCH   3   6
HETATM    6  C7  UNL     1      39.882  15.746  61.650  1.00  0.00     0.225 C 
BRANCH   6   7
HETATM    7  C6  UNL     1      38.816  15.184  62.462  1.00  0.00     0.235 C 
HETATM    8  N2  UNL     1      37.658  15.859  62.851  1.00  0.00    -0.358 N 
ATOM      9  H2  UNL     1      37.509  16.822  62.549  1.00  0.00     0.162 HD
HETATM   10  O1  UNL     1      38.986  13.975  62.835  1.00  0.00    -0.272 OA
BRANCH   8  11
HETATM   11  C5  UNL     1      36.666  15.205  63.678  1.00  0.00     0.150 C 
BRANCH  11  12
HETATM   12  C4  UNL     1      35.360  15.919  63.595  1.00  0.00     0.255 C 
BRANCH  12  13
HETATM   13  N1  UNL     1      34.230  14.990  63.624  1.00  0.00    -0.077 N 
HETATM   14  C1  UNL     1      33.766  14.909  64.987  1.00  0.00     0.271 C 
HETATM   15  C2  UNL     1      34.679  13.678  63.180  1.00  0.00     0.271 C 
HETATM   16  C3  UNL     1      33.176  15.528  62.807  1.00  0.00     0.271 C 
ENDBRANCH  12  13
ENDBRANCH  11  12
ENDBRANCH   8  11
ENDBRANCH   6   7
ENDBRANCH   3   6
ENDBRANCH   1   2
BRANCH   1  17
HETATM   17  N4  UNL     1      43.084  18.186  63.100  1.00  0.00    -0.058 N 
ATOM     18  H43 UNL     1      43.185  17.280  62.644  1.00  0.00     0.276 HD
ATOM     19  H42 UNL     1      43.158  18.763  62.262  1.00  0.00     0.276 HD
ATOM     20  H41 UNL     1      43.819  18.374  63.781  1.00  0.00     0.276 HD
ENDBRANCH   1  17
BRANCH   1  21
HETATM   21  C10 UNL     1      41.432  19.737  63.877  1.00  0.00     0.019 C 
BRANCH  21  22
HETATM   22  C11 UNL     1      42.352  20.824  64.209  1.00  0.00    -0.008 C 
BRANCH  22  23
HETATM   23  C12 UNL     1      42.379  21.472  65.525  1.00  0.00     0.148 C 
BRANCH  23  24
HETATM   24  N5  UNL     1      43.398  20.917  66.416  1.00  0.00    -0.375 N 
ATOM     25  H5  UNL     1      43.159  20.101  66.981  1.00  0.00     0.161 HD
BRANCH  24  26
HETATM   26  C13 UNL     1      44.714  21.467  66.532  1.00  0.00     0.092 C 
HETATM   27  N8  UNL     1      45.705  21.079  65.875  1.00  0.00    -0.287 N 
ATOM     28  H8  UNL     1      46.556  21.595  66.100  1.00  0.00     0.188 HD
BRANCH  26  29
HETATM   29  C14 UNL     1      44.879  22.608  67.514  1.00  0.00     0.079 C 
BRANCH  29  30
HETATM   30  C15 UNL     1      45.257  23.852  66.805  1.00  0.00     0.027 C 
BRANCH  30  31
HETATM   31  C16 UNL     1      45.551  25.070  67.574  1.00  0.00     0.123 C 
BRANCH  31  32
HETATM   32  N6  UNL     1      46.686  25.822  67.187  1.00  0.00    -0.361 N 
HETATM   33  C17 UNL     1      48.057  25.549  67.372  1.00  0.00     0.221 C 
HETATM   34  O3  UNL     1      48.490  24.552  67.970  1.00  0.00    -0.273 OA
ATOM     35  H6  UNL     1      46.481  26.694  66.701  1.00  0.00     0.162 HD
BRANCH  33  36
HETATM   36  C18 UNL     1      49.072  26.497  66.827  1.00  0.00     0.142 C 
BRANCH  36  37
HETATM   37  C19 UNL     1      49.048  26.521  65.338  1.00  0.00    -0.033 A 
HETATM   38  C20 UNL     1      49.307  27.662  64.565  1.00  0.00     0.026 A 
HETATM   39  C21 UNL     1      49.202  27.295  63.241  1.00  0.00     0.088 A 
HETATM   40  N7  UNL     1      48.894  26.002  63.172  1.00  0.00    -0.375 N 
HETATM   41  C22 UNL     1      48.797  25.518  64.433  1.00  0.00     0.095 A 
ATOM     42  H7  UNL     1      48.754  25.466  62.315  1.00  0.00     0.164 HD
ENDBRANCH  36  37
ENDBRANCH  33  36
ENDBRANCH  31  32
ENDBRANCH  30  31
ENDBRANCH  29  30
ENDBRANCH  26  29
BRANCH  27  43
HETATM   43  N9  UNL     1      45.900  20.124  64.927  1.00  0.00    -0.275 N 
HETATM   44  C23 UNL     1      45.933  20.341  63.659  1.00  0.00     0.215 C 
HETATM   45  N10 UNL     1      46.143  19.271  62.768  1.00  0.00    -0.065 NA
HETATM   46  N11 UNL     1      45.750  21.647  63.154  1.00  0.00    -0.065 NA
ATOM     47  H9  UNL     1      46.029  19.164  65.245  1.00  0.00     0.189 HD
ENDBRANCH  27  43
ENDBRANCH  24  26
ENDBRANCH  23  24
ENDBRANCH  22  23
ENDBRANCH  21  22
ENDBRANCH   1  21
BRANCH   1  48
HETATM   48  C24 UNL     1      41.916  17.500  65.034  1.00  0.00     0.111 C 
BRANCH  48  49
HETATM   49  C25 UNL     1      41.174  18.001  66.198  1.00  0.00     0.028 A 
HETATM   50  C26 UNL     1      39.871  18.353  66.363  1.00  0.00     0.114 A 
HETATM   51  N12 UNL     1      39.694  18.774  67.646  1.00  0.00    -0.360 N 
HETATM   52  C27 UNL     1      40.866  18.694  68.293  1.00  0.00     0.180 A 
ATOM     53  H12 UNL     1      38.814  19.098  68.049  1.00  0.00     0.166 HD
HETATM   54  N13 UNL     1      41.743  18.231  67.421  1.00  0.00    -0.354 N 
ATOM     55  H13 UNL     1      42.726  18.066  67.633  1.00  0.00     0.166 HD
ENDBRANCH  48  49
ENDBRANCH   1  48
TORSDOF 21
ENDMDL
MODEL 3
REMARK VINA RESULT: -8.223713498      1.985      8.111
REMARK  21 active torsions:
REMARK  status: ('A' for Active; 'I' for Inactive)
REMARK    1  A    between atoms: N1_2  and  C4_5 
REMARK    2  A    between atoms: C4_5  and  C5_6 
REMARK    3  A    between atoms: C5_6  and  N2_7 
REMARK       I    between atoms: N2_7  and  C6_9 
REMARK    4  A    between atoms: C6_9  and  C7_11 
REMARK    5  A    between atoms: C7_11  and  N3_12 
REMARK       I    between atoms: N3_12  and  C8_14 
REMARK    6  A    between atoms: C8_14  and  C9_16 
REMARK    7  A    between atoms: C9_16  and  N4_17 
REMARK    8  A    between atoms: C9_16  and  C10_21 
REMARK    9  A    between atoms: C9_16  and  C24_48 
REMARK   10  A    between atoms: C10_21  and  C11_22 
REMARK   11  A    between atoms: C11_22  and  C12_23 
REMARK   12  A    between atoms: C12_23  and  N5_24 
REMARK   13  A    between atoms: N5_24  and  C13_26 
REMARK   14  A    between atoms: C13_26  and  C14_27 
REMARK   15  A    between atoms: C14_27  and  C15_28 
REMARK   16  A    between atoms: C15_28  and  C16_29 
REMARK   17  A    between atoms: C16_29  and  N6_30 
REMARK       I    between atoms: N6_30  and  C17_32 
REMARK   18  A    between atoms: C17_32  and  C18_34 
REMARK   19  A    between atoms: C18_34  and  C19_35 
REMARK   20  A    between atoms: N8_41  and  N9_43 
REMARK   21  A    between atoms: C24_48  and  C25_49 
ROOT
HETATM    1  C9  UNL     1      42.229  19.456  63.912  1.00  0.00     0.226 C 
ENDROOT
BRANCH   1   2
HETATM    2  C8  UNL     1      42.174  18.974  65.337  1.00  0.00     0.258 C 
HETATM    3  N3  UNL     1      41.326  19.556  66.332  1.00  0.00    -0.350 N 
ATOM      4  H3  UNL     1      40.715  20.340  66.103  1.00  0.00     0.163 HD
HETATM    5  O2  UNL     1      42.907  18.021  65.656  1.00  0.00    -0.270 OA
BRANCH   3   6
HETATM    6  C7  UNL     1      41.357  19.009  67.662  1.00  0.00     0.225 C 
BRANCH   6   7
HETATM    7  C6  UNL     1      40.049  18.587  68.136  1.00  0.00     0.235 C 
HETATM    8  N2  UNL     1      39.629  17.263  68.270  1.00  0.00    -0.358 N 
ATOM      9  H2  UNL     1      40.270  16.504  68.038  1.00  0.00     0.162 HD
HETATM   10  O1  UNL     1      39.244  19.529  68.442  1.00  0.00    -0.272 OA
BRANCH   8  11
HETATM   11  C5  UNL     1      38.293  16.956  68.737  1.00  0.00     0.150 C 
BRANCH  11  12
HETATM   12  C4  UNL     1      37.584  16.081  67.760  1.00  0.00     0.255 C 
BRANCH  12  13
HETATM   13  N1  UNL     1      36.288  16.639  67.375  1.00  0.00    -0.077 N 
HETATM   14  C1  UNL     1      35.705  15.753  66.396  1.00  0.00     0.271 C 
HETATM   15  C2  UNL     1      36.490  17.955  66.786  1.00  0.00     0.271 C 
HETATM   16  C3  UNL     1      35.440  16.668  68.536  1.00  0.00     0.271 C 
ENDBRANCH  12  13
ENDBRANCH  11  12
ENDBRANCH   8  11
ENDBRANCH   6   7
ENDBRANCH   3   6
ENDBRANCH   1   2
BRANCH   1  17
HETATM   17  N4  UNL     1      42.418  20.883  63.953  1.00  0.00    -0.058 N 
ATOM     18  H43 UNL     1      41.661  21.400  63.508  1.00  0.00     0.276 HD
ATOM     19  H42 UNL     1      42.310  21.273  64.890  1.00  0.00     0.276 HD
ATOM     20  H41 UNL     1      43.331  21.077  63.542  1.00  0.00     0.276 HD
ENDBRANCH   1  17
BRANCH   1  21
HETATM   21  C10 UNL     1      43.351  18.784  63.271  1.00  0.00     0.019 C 
BRANCH  21  22
HETATM   22  C11 UNL     1      44.636  19.424  62.990  1.00  0.00    -0.008 C 
BRANCH  22  23
HETATM   23  C12 UNL     1      45.838  19.186  63.796  1.00  0.00     0.148 C 
BRANCH  23  24
HETATM   24  N5  UNL     1      45.717  19.684  65.167  1.00  0.00    -0.375 N 
ATOM     25  H5  UNL     1      45.594  19.008  65.921  1.00  0.00     0.161 HD
BRANCH  24  26
HETATM   26  C13 UNL     1      45.763  21.076  65.496  1.00  0.00     0.092 C 
HETATM   27  N8  UNL     1      46.573  21.894  65.006  1.00  0.00    -0.287 N 
ATOM     28  H8  UNL     1      46.449  22.840  65.368  1.00  0.00     0.188 HD
BRANCH  26  29
HETATM   29  C14 UNL     1      44.735  21.562  66.496  1.00  0.00     0.079 C 
BRANCH  29  30
HETATM   30  C15 UNL     1      44.703  23.044  66.528  1.00  0.00     0.027 C 
BRANCH  30  31
HETATM   31  C16 UNL     1      45.278  23.761  67.676  1.00  0.00     0.123 C 
BRANCH  31  32
HETATM   32  N6  UNL     1      46.111  24.870  67.396  1.00  0.00    -0.361 N 
HETATM   33  C17 UNL     1      47.454  25.105  67.755  1.00  0.00     0.221 C 
HETATM   34  O3  UNL     1      48.133  24.328  68.443  1.00  0.00    -0.273 OA
ATOM     35  H6  UNL     1      45.673  25.612  66.851  1.00  0.00     0.162 HD
BRANCH  33  36
HETATM   36  C18 UNL     1      48.126  26.356  67.294  1.00  0.00     0.142 C 
BRANCH  36  37
HETATM   37  C19 UNL     1      48.437  26.300  65.839  1.00  0.00    -0.033 A 
HETATM   38  C20 UNL     1      48.776  27.417  65.063  1.00  0.00     0.026 A 
HETATM   39  C21 UNL     1      49.002  26.973  63.778  1.00  0.00     0.088 A 
HETATM   40  N7  UNL     1      48.819  25.656  63.735  1.00  0.00    -0.375 N 
HETATM   41  C22 UNL     1      48.477  25.231  64.975  1.00  0.00     0.095 A 
ATOM     42  H7  UNL     1      48.919  25.066  62.909  1.00  0.00     0.164 HD
ENDBRANCH  36  37
ENDBRANCH  33  36
ENDBRANCH  31  32
ENDBRANCH  30  31
ENDBRANCH  29  30
ENDBRANCH  26  29
BRANCH  27  43
HETATM   43  N9  UNL     1      47.582  21.803  64.099  1.00  0.00    -0.275 N 
HETATM   44  C23 UNL     1      47.482  22.109  62.854  1.00  0.00     0.215 C 
HETATM   45  N10 UNL     1      48.598  21.976  62.005  1.00  0.00    -0.065 NA
HETATM   46  N11 UNL     1      46.256  22.572  62.329  1.00  0.00    -0.065 NA
ATOM     47  H9  UNL     1      48.485  21.466  64.431  1.00  0.00     0.189 HD
ENDBRANCH  27  43
ENDBRANCH  24  26
ENDBRANCH  23  24
ENDBRANCH  22  23
ENDBRANCH  21  22
ENDBRANCH   1  21
BRANCH   1  48
HETATM   48  C24 UNL     1      40.828  19.229  63.394  1.00  0.00     0.111 C 
BRANCH  48  49
HETATM   49  C25 UNL     1      40.312  17.859  63.513  1.00  0.00     0.028 A 
HETATM   50  C26 UNL     1      40.646  16.704  62.880  1.00  0.00     0.114 A 
HETATM   51  N12 UNL     1      39.847  15.705  63.347  1.00  0.00    -0.360 N 
HETATM   52  C27 UNL     1      39.012  16.214  64.266  1.00  0.00     0.180 A 
ATOM     53  H12 UNL     1      39.877  14.730  63.047  1.00  0.00     0.166 HD
HETATM   54  N13 UNL     1      39.298  17.500  64.358  1.00  0.00    -0.354 N 
ATOM     55  H13 UNL     1      38.819  18.147  64.983  1.00  0.00     0.166 HD
ENDBRANCH  48  49
ENDBRANCH   1  48
TORSDOF 21
ENDMDL
MODEL 4
REMARK VINA RESULT: -8.195069918      2.252      8.235
REMARK  21 active torsions:
REMARK  status: ('A' for Active; 'I' for Inactive)
REMARK    1  A    between atoms: N1_2  and  C4_5 
REMARK    2  A    between atoms: C4_5  and  C5_6 
REMARK    3  A    between atoms: C5_6  and  N2_7 
REMARK       I    between atoms: N2_7  and  C6_9 
REMARK    4  A    between atoms: C6_9  and  C7_11 
REMARK    5  A    between atoms: C7_11  and  N3_12 
REMARK       I    between atoms: N3_12  and  C8_14 
REMARK    6  A    between atoms: C8_14  and  C9_16 
REMARK    7  A    between atoms: C9_16  and  N4_17 
REMARK    8  A    between atoms: C9_16  and  C10_21 
REMARK    9  A    between atoms: C9_16  and  C24_48 
REMARK   10  A    between atoms: C10_21  and  C11_22 
REMARK   11  A    between atoms: C11_22  and  C12_23 
REMARK   12  A    between atoms: C12_23  and  N5_24 
REMARK   13  A    between atoms: N5_24  and  C13_26 
REMARK   14  A    between atoms: C13_26  and  C14_27 
REMARK   15  A    between atoms: C14_27  and  C15_28 
REMARK   16  A    between atoms: C15_28  and  C16_29 
REMARK   17  A    between atoms: C16_29  and  N6_30 
REMARK       I    between atoms: N6_30  and  C17_32 
REMARK   18  A    between atoms: C17_32  and  C18_34 
REMARK   19  A    between atoms: C18_34  and  C19_35 
REMARK   20  A    between atoms: N8_41  and  N9_43 
REMARK   21  A    between atoms: C24_48  and  C25_49 
ROOT
HETATM    1  C9  UNL     1      41.938  18.335  64.108  1.00  0.00     0.226 C 
ENDROOT
BRANCH   1   2
HETATM    2  C8  UNL     1      40.678  17.629  63.684  1.00  0.00     0.258 C 
HETATM    3  N3  UNL     1      40.416  16.252  63.968  1.00  0.00    -0.350 N 
ATOM      4  H3  UNL     1      41.092  15.686  64.479  1.00  0.00     0.163 HD
HETATM    5  O2  UNL     1      39.829  18.285  63.056  1.00  0.00    -0.270 OA
BRANCH   3   6
HETATM    6  C7  UNL     1      39.174  15.684  63.514  1.00  0.00     0.225 C 
BRANCH   6   7
HETATM    7  C6  UNL     1      38.157  15.635  64.551  1.00  0.00     0.235 C 
HETATM    8  N2  UNL     1      36.862  16.144  64.435  1.00  0.00    -0.358 N 
ATOM      9  H2  UNL     1      36.568  16.583  63.562  1.00  0.00     0.162 HD
HETATM   10  O1  UNL     1      38.509  15.077  65.643  1.00  0.00    -0.272 OA
BRANCH   8  11
HETATM   11  C5  UNL     1      35.933  16.056  65.542  1.00  0.00     0.150 C 
BRANCH  11  12
HETATM   12  C4  UNL     1      35.871  17.350  66.280  1.00  0.00     0.255 C 
BRANCH  12  13
HETATM   13  N1  UNL     1      35.492  17.158  67.680  1.00  0.00    -0.077 N 
HETATM   14  C1  UNL     1      36.511  16.348  68.302  1.00  0.00     0.271 C 
HETATM   15  C2  UNL     1      34.212  16.466  67.738  1.00  0.00     0.271 C 
HETATM   16  C3  UNL     1      35.464  18.444  68.325  1.00  0.00     0.271 C 
ENDBRANCH  12  13
ENDBRANCH  11  12
ENDBRANCH   8  11
ENDBRANCH   6   7
ENDBRANCH   3   6
ENDBRANCH   1   2
BRANCH   1  17
HETATM   17  N4  UNL     1      42.720  17.391  64.864  1.00  0.00    -0.058 N 
ATOM     18  H43 UNL     1      42.537  16.423  64.606  1.00  0.00     0.276 HD
ATOM     19  H42 UNL     1      43.711  17.407  64.621  1.00  0.00     0.276 HD
ATOM     20  H41 UNL     1      42.548  17.581  65.852  1.00  0.00     0.276 HD
ENDBRANCH   1  17
BRANCH   1  21
HETATM   21  C10 UNL     1      42.628  18.754  62.896  1.00  0.00     0.019 C 
BRANCH  21  22
HETATM   22  C11 UNL     1      43.971  19.333  62.877  1.00  0.00    -0.008 C 
BRANCH  22  23
HETATM   23  C12 UNL     1      44.220  20.761  62.650  1.00  0.00     0.148 C 
BRANCH  23  24
HETATM   24  N5  UNL     1      44.283  21.536  63.889  1.00  0.00    -0.375 N 
ATOM     25  H5  UNL     1      43.600  22.280  64.033  1.00  0.00     0.161 HD
BRANCH  24  26
HETATM   26  C13 UNL     1      45.259  21.297  64.908  1.00  0.00     0.092 C 
HETATM   27  N8  UNL     1      46.463  21.035  64.689  1.00  0.00    -0.287 N 
ATOM     28  H8  UNL     1      47.000  20.896  65.545  1.00  0.00     0.188 HD
BRANCH  26  29
HETATM   29  C14 UNL     1      44.773  21.394  66.339  1.00  0.00     0.079 C 
BRANCH  29  30
HETATM   30  C15 UNL     1      44.548  22.810  66.715  1.00  0.00     0.027 C 
BRANCH  30  31
HETATM   31  C16 UNL     1      45.208  23.361  67.907  1.00  0.00     0.123 C 
BRANCH  31  32
HETATM   32  N6  UNL     1      45.834  24.624  67.776  1.00  0.00    -0.361 N 
HETATM   33  C17 UNL     1      47.150  25.017  68.091  1.00  0.00     0.221 C 
HETATM   34  O3  UNL     1      47.998  24.263  68.592  1.00  0.00    -0.273 OA
ATOM     35  H6  UNL     1      45.242  25.362  67.395  1.00  0.00     0.162 HD
BRANCH  33  36
HETATM   36  C18 UNL     1      47.581  26.420  67.816  1.00  0.00     0.142 C 
BRANCH  36  37
HETATM   37  C19 UNL     1      48.443  26.496  66.604  1.00  0.00    -0.033 A 
HETATM   38  C20 UNL     1      47.964  26.391  65.290  1.00  0.00     0.026 A 
HETATM   39  C21 UNL     1      49.046  26.518  64.446  1.00  0.00     0.088 A 
HETATM   40  N7  UNL     1      50.147  26.691  65.175  1.00  0.00    -0.375 N 
HETATM   41  C22 UNL     1      49.799  26.681  66.483  1.00  0.00     0.095 A 
ATOM     42  H7  UNL     1      51.091  26.811  64.809  1.00  0.00     0.164 HD
ENDBRANCH  36  37
ENDBRANCH  33  36
ENDBRANCH  31  32
ENDBRANCH  30  31
ENDBRANCH  29  30
ENDBRANCH  26  29
BRANCH  27  43
HETATM   43  N9  UNL     1      47.214  20.895  63.564  1.00  0.00    -0.275 N 
HETATM   44  C23 UNL     1      47.934  21.823  63.039  1.00  0.00     0.215 C 
HETATM   45  N10 UNL     1      48.674  21.563  61.870  1.00  0.00    -0.065 NA
HETATM   46  N11 UNL     1      47.981  23.107  63.625  1.00  0.00    -0.065 NA
ATOM     47  H9  UNL     1      47.205  19.986  63.102  1.00  0.00     0.189 HD
ENDBRANCH  27  43
ENDBRANCH  24  26
ENDBRANCH  23  24
ENDBRANCH  22  23
ENDBRANCH  21  22
ENDBRANCH   1  21
BRANCH   1  48
HETATM   48  C24 UNL     1      41.461  19.376  65.094  1.00  0.00     0.111 C 
BRANCH  48  49
HETATM   49  C25 UNL     1      41.017  18.870  66.399  1.00  0.00     0.028 A 
HETATM   50  C26 UNL     1      39.824  18.377  66.825  1.00  0.00     0.114 A 
HETATM   51  N12 UNL     1      39.931  18.058  68.144  1.00  0.00    -0.360 N 
HETATM   52  C27 UNL     1      41.175  18.343  68.558  1.00  0.00     0.180 A 
ATOM     53  H12 UNL     1      39.187  17.667  68.723  1.00  0.00     0.166 HD
HETATM   54  N13 UNL     1      41.815  18.826  67.509  1.00  0.00    -0.354 N 
ATOM     55  H13 UNL     1      42.788  19.131  67.525  1.00  0.00     0.166 HD
ENDBRANCH  48  49
ENDBRANCH   1  48
TORSDOF 21
ENDMDL
MODEL 5
REMARK VINA RESULT: -8.077741794      2.003      8.721
REMARK  21 active torsions:
REMARK  status: ('A' for Active; 'I' for Inactive)
REMARK    1  A    between atoms: N1_2  and  C4_5 
REMARK    2  A    between atoms: C4_5  and  C5_6 
REMARK    3  A    between atoms: C5_6  and  N2_7 
REMARK       I    between atoms: N2_7  and  C6_9 
REMARK    4  A    between atoms: C6_9  and  C7_11 
REMARK    5  A    between atoms: C7_11  and  N3_12 
REMARK       I    between atoms: N3_12  and  C8_14 
REMARK    6  A    between atoms: C8_14  and  C9_16 
REMARK    7  A    between atoms: C9_16  and  N4_17 
REMARK    8  A    between atoms: C9_16  and  C10_21 
REMARK    9  A    between atoms: C9_16  and  C24_48 
REMARK   10  A    between atoms: C10_21  and  C11_22 
REMARK   11  A    between atoms: C11_22  and  C12_23 
REMARK   12  A    between atoms: C12_23  and  N5_24 
REMARK   13  A    between atoms: N5_24  and  C13_26 
REMARK   14  A    between atoms: C13_26  and  C14_27 
REMARK   15  A    between atoms: C14_27  and  C15_28 
REMARK   16  A    between atoms: C15_28  and  C16_29 
REMARK   17  A    between atoms: C16_29  and  N6_30 
REMARK       I    between atoms: N6_30  and  C17_32 
REMARK   18  A    between atoms: C17_32  and  C18_34 
REMARK   19  A    between atoms: C18_34  and  C19_35 
REMARK   20  A    between atoms: N8_41  and  N9_43 
REMARK   21  A    between atoms: C24_48  and  C25_49 
ROOT
HETATM    1  C9  UNL     1      42.980  19.485  63.429  1.00  0.00     0.226 C 
ENDROOT
BRANCH   1   2
HETATM    2  C8  UNL     1      42.977  20.700  64.319  1.00  0.00     0.258 C 
HETATM    3  N3  UNL     1      43.763  20.804  65.510  1.00  0.00    -0.350 N 
ATOM      4  H3  UNL     1      44.367  20.038  65.805  1.00  0.00     0.163 HD
HETATM    5  O2  UNL     1      42.250  21.655  63.993  1.00  0.00    -0.270 OA
BRANCH   3   6
HETATM    6  C7  UNL     1      43.680  22.017  66.280  1.00  0.00     0.225 C 
BRANCH   6   7
HETATM    7  C6  UNL     1      44.766  22.943  66.005  1.00  0.00     0.235 C 
HETATM    8  N2  UNL     1      46.122  22.612  65.987  1.00  0.00    -0.358 N 
ATOM      9  H2  UNL     1      46.409  21.650  66.164  1.00  0.00     0.162 HD
HETATM   10  O1  UNL     1      44.417  24.147  65.769  1.00  0.00    -0.272 OA
BRANCH   8  11
HETATM   11  C5  UNL     1      47.124  23.622  65.717  1.00  0.00     0.150 C 
BRANCH  11  12
HETATM   12  C4  UNL     1      47.745  24.097  66.987  1.00  0.00     0.255 C 
BRANCH  12  13
HETATM   13  N1  UNL     1      47.758  25.557  67.071  1.00  0.00    -0.077 N 
HETATM   14  C1  UNL     1      49.121  25.970  67.304  1.00  0.00     0.271 C 
HETATM   15  C2  UNL     1      46.921  25.979  68.186  1.00  0.00     0.271 C 
HETATM   16  C3  UNL     1      47.321  26.091  65.809  1.00  0.00     0.271 C 
ENDBRANCH  12  13
ENDBRANCH  11  12
ENDBRANCH   8  11
ENDBRANCH   6   7
ENDBRANCH   3   6
ENDBRANCH   1   2
BRANCH   1  17
HETATM   17  N4  UNL     1      43.827  18.503  64.056  1.00  0.00    -0.058 N 
ATOM     18  H43 UNL     1      44.818  18.658  63.878  1.00  0.00     0.276 HD
ATOM     19  H42 UNL     1      43.860  18.593  65.071  1.00  0.00     0.276 HD
ATOM     20  H41 UNL     1      43.504  17.586  63.746  1.00  0.00     0.276 HD
ENDBRANCH   1  17
BRANCH   1  21
HETATM   21  C10 UNL     1      41.604  19.020  63.327  1.00  0.00     0.019 C 
BRANCH  21  22
HETATM   22  C11 UNL     1      41.225  17.623  63.119  1.00  0.00    -0.008 C 
BRANCH  22  23
HETATM   23  C12 UNL     1      40.527  16.826  64.133  1.00  0.00     0.148 C 
BRANCH  23  24
HETATM   24  N5  UNL     1      39.092  17.106  64.194  1.00  0.00    -0.375 N 
ATOM     25  H5  UNL     1      38.767  18.039  63.942  1.00  0.00     0.161 HD
BRANCH  24  26
HETATM   26  C13 UNL     1      38.125  16.128  64.590  1.00  0.00     0.092 C 
HETATM   27  N8  UNL     1      37.548  15.342  63.806  1.00  0.00    -0.287 N 
ATOM     28  H8  UNL     1      36.891  14.721  64.278  1.00  0.00     0.188 HD
BRANCH  26  29
HETATM   29  C14 UNL     1      37.814  16.054  66.070  1.00  0.00     0.079 C 
BRANCH  29  30
HETATM   30  C15 UNL     1      36.395  16.401  66.321  1.00  0.00     0.027 C 
BRANCH  30  31
HETATM   31  C16 UNL     1      36.059  17.410  67.336  1.00  0.00     0.123 C 
BRANCH  31  32
HETATM   32  N6  UNL     1      37.101  18.261  67.774  1.00  0.00    -0.361 N 
HETATM   33  C17 UNL     1      37.403  19.586  67.399  1.00  0.00     0.221 C 
HETATM   34  O3  UNL     1      36.768  20.228  66.548  1.00  0.00    -0.273 OA
ATOM     35  H6  UNL     1      37.730  17.854  68.466  1.00  0.00     0.162 HD
BRANCH  33  36
HETATM   36  C18 UNL     1      38.551  20.287  68.047  1.00  0.00     0.142 C 
BRANCH  36  37
HETATM   37  C19 UNL     1      39.797  19.476  67.966  1.00  0.00    -0.033 A 
HETATM   38  C20 UNL     1      40.616  19.401  66.830  1.00  0.00     0.026 A 
HETATM   39  C21 UNL     1      41.671  18.569  67.137  1.00  0.00     0.088 A 
HETATM   40  N7  UNL     1      41.535  18.139  68.389  1.00  0.00    -0.375 N 
HETATM   41  C22 UNL     1      40.406  18.678  68.906  1.00  0.00     0.095 A 
ATOM     42  H7  UNL     1      42.173  17.509  68.876  1.00  0.00     0.164 HD
ENDBRANCH  36  37
ENDBRANCH  33  36
ENDBRANCH  31  32
ENDBRANCH  30  31
ENDBRANCH  29  30
ENDBRANCH  26  29
BRANCH  27  43
HETATM   43  N9  UNL     1      37.603  15.132  62.463  1.00  0.00    -0.275 N 
HETATM   44  C23 UNL     1      38.501  14.432  61.864  1.00  0.00     0.215 C 
HETATM   45  N10 UNL     1      38.457  14.281  60.465  1.00  0.00    -0.065 NA
HETATM   46  N11 UNL     1      39.539  13.820  62.601  1.00  0.00    -0.065 NA
ATOM     47  H9  UNL     1      36.878  15.560  61.889  1.00  0.00     0.189 HD
ENDBRANCH  27  43
ENDBRANCH  24  26
ENDBRANCH  23  24
ENDBRANCH  22  23
ENDBRANCH  21  22
ENDBRANCH   1  21
BRANCH   1  48
HETATM   48  C24 UNL     1      43.708  19.942  62.187  1.00  0.00     0.111 C 
BRANCH  48  49
HETATM   49  C25 UNL     1      45.054  20.493  62.397  1.00  0.00     0.028 A 
HETATM   50  C26 UNL     1      45.518  21.770  62.431  1.00  0.00     0.114 A 
HETATM   51  N12 UNL     1      46.863  21.737  62.643  1.00  0.00    -0.360 N 
HETATM   52  C27 UNL     1      47.254  20.458  62.742  1.00  0.00     0.180 A 
ATOM     53  H12 UNL     1      47.473  22.552  62.714  1.00  0.00     0.166 HD
HETATM   54  N13 UNL     1      46.168  19.723  62.594  1.00  0.00    -0.354 N 
ATOM     55  H13 UNL     1      46.160  18.704  62.622  1.00  0.00     0.166 HD
ENDBRANCH  48  49
ENDBRANCH   1  48
TORSDOF 21
ENDMDL
