MODEL 1
REMARK VINA RESULT: -8.915827014      0.000      0.000
REMARK  20 active torsions:
REMARK  status: ('A' for Active; 'I' for Inactive)
REMARK    1  A    between atoms: N2_4  and  N3_6 
REMARK       I    between atoms: N3_6  and  C1_8 
REMARK       I    between atoms: C1_8  and  N4_10 
REMARK    2  A    between atoms: N4_10  and  C2_12 
REMARK    3  A    between atoms: C2_12  and  C3_13 
REMARK    4  A    between atoms: C3_13  and  C4_14 
REMARK    5  A    between atoms: C4_14  and  C5_15 
REMARK    6  A    between atoms: C5_15  and  C6_16 
REMARK    7  A    between atoms: C9_19  and  C10_20 
REMARK    8  A    between atoms: C10_20  and  C11_21 
REMARK    9  A    between atoms: C11_21  and  C12_22 
REMARK   10  A    between atoms: C12_22  and  C13_23 
REMARK   11  A    between atoms: C13_23  and  C14_24 
REMARK   12  A    between atoms: C14_24  and  N5_25 
REMARK   13  A    between atoms: N5_25  and  C15_27 
REMARK   14  A    between atoms: C15_27  and  C16_33 
REMARK   15  A    between atoms: N6_28  and  N7_30 
REMARK   16  A    between atoms: N8_36  and  C18_37 
REMARK   17  A    between atoms: C18_37  and  C19_38 
REMARK   18  A    between atoms: C19_38  and  C20_39 
REMARK   19  A    between atoms: C20_39  and  N9_40 
REMARK   20  A    between atoms: C23_49  and  N13_50 
ROOT
HETATM    1  N5  UNL     1      42.599  21.147  66.105  1.00  0.00    -0.378 N 
ATOM      2  H5  UNL     1      42.523  21.987  66.678  1.00  0.00     0.160 HD
ENDROOT
BRANCH   1   3
HETATM    3  C14 UNL     1      41.464  20.710  65.354  1.00  0.00     0.121 C 
BRANCH   3   4
HETATM    4  C13 UNL     1      41.757  20.467  63.881  1.00  0.00     0.020 C 
BRANCH   4   5
HETATM    5  C12 UNL     1      41.135  19.155  63.525  1.00  0.00     0.002 C 
BRANCH   5   6
HETATM    6  C11 UNL     1      42.069  18.023  63.311  1.00  0.00     0.005 C 
BRANCH   6   7
HETATM    7  C10 UNL     1      41.600  16.874  62.513  1.00  0.00     0.038 C 
BRANCH   7   8
HETATM    8  C9  UNL     1      40.202  16.461  62.771  1.00  0.00    -0.058 A 
HETATM    9  C8  UNL     1      39.874  15.978  64.010  1.00  0.00     0.007 A 
HETATM   10  C7  UNL     1      38.565  15.586  64.319  1.00  0.00     0.007 A 
HETATM   11  C6  UNL     1      37.599  15.695  63.354  1.00  0.00    -0.058 A 
HETATM   12  C25 UNL     1      37.954  16.189  62.103  1.00  0.00     0.007 A 
HETATM   13  C24 UNL     1      39.214  16.564  61.809  1.00  0.00     0.007 A 
BRANCH  11  14
HETATM   14  C5  UNL     1      36.200  15.290  63.620  1.00  0.00     0.042 C 
BRANCH  14  15
HETATM   15  C4  UNL     1      35.983  15.393  65.133  1.00  0.00     0.033 C 
BRANCH  15  16
HETATM   16  C3  UNL     1      35.385  16.682  65.526  1.00  0.00    -0.009 C 
BRANCH  16  17
HETATM   17  C2  UNL     1      35.861  17.461  66.675  1.00  0.00     0.089 C 
BRANCH  17  18
HETATM   18  N4  UNL     1      37.138  17.255  67.214  1.00  0.00    -0.318 N 
HETATM   19  C1  UNL     1      38.360  17.918  67.043  1.00  0.00     0.339 C 
HETATM   20  N3  UNL     1      39.556  17.467  67.730  1.00  0.00    -0.237 N 
HETATM   21  O1  UNL     1      38.514  18.902  66.320  1.00  0.00    -0.245 OA
ATOM     22  H3  UNL     1      39.507  16.657  68.347  1.00  0.00     0.193 HD
ATOM     23  H4  UNL     1      37.187  16.467  67.860  1.00  0.00     0.170 HD
BRANCH  20  24
HETATM   24  N2  UNL     1      40.758  18.123  67.559  1.00  0.00    -0.245 N 
HETATM   25  N1  UNL     1      41.591  18.154  68.533  1.00  0.00    -0.331 N 
ATOM     26  H12 UNL     1      41.353  17.697  69.413  1.00  0.00     0.178 HD
ATOM     27  H11 UNL     1      42.479  18.638  68.406  1.00  0.00     0.178 HD
ATOM     28  H2  UNL     1      40.980  18.575  66.671  1.00  0.00     0.208 HD
ENDBRANCH  20  24
ENDBRANCH  17  18
ENDBRANCH  16  17
ENDBRANCH  15  16
ENDBRANCH  14  15
ENDBRANCH  11  14
ENDBRANCH   7   8
ENDBRANCH   6   7
ENDBRANCH   5   6
ENDBRANCH   4   5
ENDBRANCH   3   4
ENDBRANCH   1   3
BRANCH   1  29
HETATM   29  C15 UNL     1      43.860  20.423  66.071  1.00  0.00     0.107 C 
HETATM   30  N6  UNL     1      43.780  19.160  66.125  1.00  0.00    -0.295 N 
ATOM     31  H6  UNL     1      42.840  18.767  66.186  1.00  0.00     0.187 HD
BRANCH  30  32
HETATM   32  N7  UNL     1      44.821  18.258  66.111  1.00  0.00    -0.344 N 
ATOM     33  H72 UNL     1      45.610  18.515  65.519  1.00  0.00     0.176 HD
ATOM     34  H71 UNL     1      44.881  17.377  66.622  1.00  0.00     0.176 HD
ENDBRANCH  30  32
BRANCH  29  35
HETATM   35  C16 UNL     1      45.058  21.233  66.008  1.00  0.00     0.183 C 
HETATM   36  C17 UNL     1      45.132  22.460  66.791  1.00  0.00     0.239 C 
HETATM   37  O2  UNL     1      44.674  22.801  67.920  1.00  0.00    -0.272 OA
HETATM   38  N8  UNL     1      45.913  23.422  66.041  1.00  0.00    -0.305 N 
HETATM   39  C22 UNL     1      46.220  22.822  64.768  1.00  0.00     0.110 C 
HETATM   40  N12 UNL     1      47.194  23.132  63.982  1.00  0.00    -0.387 N 
HETATM   41  C23 UNL     1      45.174  21.785  64.582  1.00  0.00     0.243 C 
ATOM     42 2H12 UNL     1      47.913  23.845  64.110  1.00  0.00     0.157 HD
ATOM     43 1H12 UNL     1      47.412  22.707  63.080  1.00  0.00     0.157 HD
BRANCH  38  44
HETATM   44  C18 UNL     1      46.342  24.744  66.426  1.00  0.00     0.135 C 
BRANCH  44  45
HETATM   45  C19 UNL     1      47.551  24.768  67.287  1.00  0.00     0.040 C 
BRANCH  45  46
HETATM   46  C20 UNL     1      48.810  25.093  66.561  1.00  0.00     0.123 C 
BRANCH  46  47
HETATM   47  N9  UNL     1      48.657  26.356  65.853  1.00  0.00    -0.367 N 
HETATM   48  C21 UNL     1      48.846  26.531  64.609  1.00  0.00     0.196 C 
HETATM   49  N10 UNL     1      49.240  25.442  63.791  1.00  0.00    -0.067 NA
HETATM   50  N11 UNL     1      48.646  27.843  64.092  1.00  0.00    -0.067 NA
ATOM     51  H9  UNL     1      48.374  27.168  66.402  1.00  0.00     0.161 HD
ENDBRANCH  46  47
ENDBRANCH  45  46
ENDBRANCH  44  45
ENDBRANCH  38  44
BRANCH  41  52
HETATM   52  N13 UNL     1      45.577  20.777  63.633  1.00  0.00    -0.142 N 
HETATM   53  O3  UNL     1      46.133  19.711  64.003  1.00  0.00    -0.536 OA
HETATM   54  O4  UNL     1      45.336  21.004  62.314  1.00  0.00    -0.536 OA
ENDBRANCH  41  52
ENDBRANCH  29  35
ENDBRANCH   1  29
TORSDOF 20
ENDMDL
MODEL 2
REMARK VINA RESULT: -8.869759215      2.452      4.055
REMARK  20 active torsions:
REMARK  status: ('A' for Active; 'I' for Inactive)
REMARK    1  A    between atoms: N2_4  and  N3_6 
REMARK       I    between atoms: N3_6  and  C1_8 
REMARK       I    between atoms: C1_8  and  N4_10 
REMARK    2  A    between atoms: N4_10  and  C2_12 
REMARK    3  A    between atoms: C2_12  and  C3_13 
REMARK    4  A    between atoms: C3_13  and  C4_14 
REMARK    5  A    between atoms: C4_14  and  C5_15 
REMARK    6  A    between atoms: C5_15  and  C6_16 
REMARK    7  A    between atoms: C9_19  and  C10_20 
REMARK    8  A    between atoms: C10_20  and  C11_21 
REMARK    9  A    between atoms: C11_21  and  C12_22 
REMARK   10  A    between atoms: C12_22  and  C13_23 
REMARK   11  A    between atoms: C13_23  and  C14_24 
REMARK   12  A    between atoms: C14_24  and  N5_25 
REMARK   13  A    between atoms: N5_25  and  C15_27 
REMARK   14  A    between atoms: C15_27  and  C16_33 
REMARK   15  A    between atoms: N6_28  and  N7_30 
REMARK   16  A    between atoms: N8_36  and  C18_37 
REMARK   17  A    between atoms: C18_37  and  C19_38 
REMARK   18  A    between atoms: C19_38  and  C20_39 
REMARK   19  A    between atoms: C20_39  and  N9_40 
REMARK   20  A    between atoms: C23_49  and  N13_50 
ROOT
HETATM    1  N5  UNL     1      45.606  22.246  65.673  1.00  0.00    -0.378 N 
ATOM      2  H5  UNL     1      46.424  22.829  65.500  1.00  0.00     0.160 HD
ENDROOT
BRANCH   1   3
HETATM    3  C14 UNL     1      44.478  22.810  66.347  1.00  0.00     0.121 C 
BRANCH   3   4
HETATM    4  C13 UNL     1      43.138  22.388  65.765  1.00  0.00     0.020 C 
BRANCH   4   5
HETATM    5  C12 UNL     1      42.481  21.507  66.778  1.00  0.00     0.002 C 
BRANCH   5   6
HETATM    6  C11 UNL     1      41.162  20.945  66.401  1.00  0.00     0.005 C 
BRANCH   6   7
HETATM    7  C10 UNL     1      40.011  21.215  67.283  1.00  0.00     0.038 C 
BRANCH   7   8
HETATM    8  C9  UNL     1      39.084  20.076  67.470  1.00  0.00    -0.058 A 
HETATM    9  C8  UNL     1      39.588  18.879  67.902  1.00  0.00     0.007 A 
HETATM   10  C7  UNL     1      38.758  17.769  68.114  1.00  0.00     0.007 A 
HETATM   11  C6  UNL     1      37.414  17.898  67.881  1.00  0.00    -0.058 A 
HETATM   12  C25 UNL     1      36.924  19.123  67.442  1.00  0.00     0.007 A 
HETATM   13  C24 UNL     1      37.725  20.187  67.239  1.00  0.00     0.007 A 
BRANCH  11  14
HETATM   14  C5  UNL     1      36.490  16.758  68.079  1.00  0.00     0.042 C 
BRANCH  14  15
HETATM   15  C4  UNL     1      35.471  16.802  66.937  1.00  0.00     0.033 C 
BRANCH  15  16
HETATM   16  C3  UNL     1      35.582  15.634  66.043  1.00  0.00    -0.009 C 
BRANCH  16  17
HETATM   17  C2  UNL     1      36.566  15.557  64.957  1.00  0.00     0.089 C 
BRANCH  17  18
HETATM   18  N4  UNL     1      37.483  16.592  64.730  1.00  0.00    -0.318 N 
HETATM   19  C1  UNL     1      38.873  16.610  64.556  1.00  0.00     0.339 C 
HETATM   20  N3  UNL     1      39.583  17.858  64.350  1.00  0.00    -0.237 N 
HETATM   21  O1  UNL     1      39.580  15.604  64.564  1.00  0.00    -0.245 OA
ATOM     22  H3  UNL     1      39.064  18.736  64.332  1.00  0.00     0.193 HD
ATOM     23  H4  UNL     1      37.053  17.516  64.682  1.00  0.00     0.170 HD
BRANCH  20  24
HETATM   24  N2  UNL     1      40.952  17.872  64.179  1.00  0.00    -0.245 N 
HETATM   25  N1  UNL     1      41.703  17.582  65.176  1.00  0.00    -0.331 N 
ATOM     26  H12 UNL     1      41.281  17.347  66.074  1.00  0.00     0.178 HD
ATOM     27  H11 UNL     1      42.715  17.592  65.050  1.00  0.00     0.178 HD
ATOM     28  H2  UNL     1      41.360  18.110  63.274  1.00  0.00     0.208 HD
ENDBRANCH  20  24
ENDBRANCH  17  18
ENDBRANCH  16  17
ENDBRANCH  15  16
ENDBRANCH  14  15
ENDBRANCH  11  14
ENDBRANCH   7   8
ENDBRANCH   6   7
ENDBRANCH   5   6
ENDBRANCH   4   5
ENDBRANCH   3   4
ENDBRANCH   1   3
BRANCH   1  29
HETATM   29  C15 UNL     1      45.614  20.862  65.229  1.00  0.00     0.107 C 
HETATM   30  N6  UNL     1      45.391  19.988  66.118  1.00  0.00    -0.295 N 
ATOM     31  H6  UNL     1      45.225  20.335  67.063  1.00  0.00     0.187 HD
BRANCH  30  32
HETATM   32  N7  UNL     1      45.347  18.622  65.952  1.00  0.00    -0.344 N 
ATOM     33  H72 UNL     1      44.650  18.287  65.288  1.00  0.00     0.176 HD
ATOM     34  H71 UNL     1      45.930  17.925  66.415  1.00  0.00     0.176 HD
ENDBRANCH  30  32
BRANCH  29  35
HETATM   35  C16 UNL     1      45.903  20.644  63.827  1.00  0.00     0.183 C 
HETATM   36  C17 UNL     1      46.895  21.482  63.165  1.00  0.00     0.239 C 
HETATM   37  O2  UNL     1      47.973  22.023  63.549  1.00  0.00    -0.272 OA
HETATM   38  N8  UNL     1      46.476  21.672  61.792  1.00  0.00    -0.305 N 
HETATM   39  C22 UNL     1      45.187  21.045  61.650  1.00  0.00     0.110 C 
HETATM   40  N12 UNL     1      44.647  20.626  60.556  1.00  0.00    -0.387 N 
HETATM   41  C23 UNL     1      44.641  20.996  63.029  1.00  0.00     0.243 C 
ATOM     42 2H12 UNL     1      45.022  20.660  59.607  1.00  0.00     0.157 HD
ATOM     43 1H12 UNL     1      43.734  20.182  60.455  1.00  0.00     0.157 HD
BRANCH  38  44
HETATM   44  C18 UNL     1      47.161  22.345  60.716  1.00  0.00     0.135 C 
BRANCH  44  45
HETATM   45  C19 UNL     1      47.094  23.826  60.781  1.00  0.00     0.040 C 
BRANCH  45  46
HETATM   46  C20 UNL     1      48.377  24.479  61.166  1.00  0.00     0.123 C 
BRANCH  46  47
HETATM   47  N9  UNL     1      48.269  25.017  62.514  1.00  0.00    -0.367 N 
HETATM   48  C21 UNL     1      49.165  25.689  63.113  1.00  0.00     0.196 C 
HETATM   49  N10 UNL     1      50.394  25.970  62.464  1.00  0.00    -0.067 NA
HETATM   50  N11 UNL     1      48.879  26.135  64.435  1.00  0.00    -0.067 NA
ATOM     51  H9  UNL     1      47.401  24.839  63.020  1.00  0.00     0.161 HD
ENDBRANCH  46  47
ENDBRANCH  45  46
ENDBRANCH  44  45
ENDBRANCH  38  44
BRANCH  41  52
HETATM   52  N13 UNL     1      43.608  19.999  63.166  1.00  0.00    -0.142 N 
HETATM   53  O3  UNL     1      42.390  20.310  63.156  1.00  0.00    -0.536 OA
HETATM   54  O4  UNL     1      43.985  18.700  63.302  1.00  0.00    -0.536 OA
ENDBRANCH  41  52
ENDBRANCH  29  35
ENDBRANCH   1  29
TORSDOF 20
ENDMDL
MODEL 3
REMARK VINA RESULT: -8.664330891      1.293      1.970
REMARK  20 active torsions:
REMARK  status: ('A' for Active; 'I' for Inactive)
REMARK    1  A    between atoms: N2_4  and  N3_6 
REMARK       I    between atoms: N3_6  and  C1_8 
REMARK       I    between atoms: C1_8  and  N4_10 
REMARK    2  A    between atoms: N4_10  and  C2_12 
REMARK    3  A    between atoms: C2_12  and  C3_13 
REMARK    4  A    between atoms: C3_13  and  C4_14 
REMARK    5  A    between atoms: C4_14  and  C5_15 
REMARK    6  A    between atoms: C5_15  and  C6_16 
REMARK    7  A    between atoms: C9_19  and  C10_20 
REMARK    8  A    between atoms: C10_20  and  C11_21 
REMARK    9  A    between atoms: C11_21  and  C12_22 
REMARK   10  A    between atoms: C12_22  and  C13_23 
REMARK   11  A    between atoms: C13_23  and  C14_24 
REMARK   12  A    between atoms: C14_24  and  N5_25 
REMARK   13  A    between atoms: N5_25  and  C15_27 
REMARK   14  A    between atoms: C15_27  and  C16_33 
REMARK   15  A    between atoms: N6_28  and  N7_30 
REMARK   16  A    between atoms: N8_36  and  C18_37 
REMARK   17  A    between atoms: C18_37  and  C19_38 
REMARK   18  A    between atoms: C19_38  and  C20_39 
REMARK   19  A    between atoms: C20_39  and  N9_40 
REMARK   20  A    between atoms: C23_49  and  N13_50 
ROOT
HETATM    1  N5  UNL     1      42.844  21.396  66.277  1.00  0.00    -0.378 N 
ATOM      2  H5  UNL     1      42.827  22.407  66.149  1.00  0.00     0.160 HD
ENDROOT
BRANCH   1   3
HETATM    3  C14 UNL     1      41.621  20.706  66.542  1.00  0.00     0.121 C 
BRANCH   3   4
HETATM    4  C13 UNL     1      40.973  20.104  65.304  1.00  0.00     0.020 C 
BRANCH   4   5
HETATM    5  C12 UNL     1      41.592  20.774  64.120  1.00  0.00     0.002 C 
BRANCH   5   6
HETATM    6  C11 UNL     1      42.162  19.878  63.084  1.00  0.00     0.005 C 
BRANCH   6   7
HETATM    7  C10 UNL     1      42.334  18.451  63.415  1.00  0.00     0.038 C 
BRANCH   7   8
HETATM    8  C9  UNL     1      41.327  17.544  62.821  1.00  0.00    -0.058 A 
HETATM    9  C8  UNL     1      41.741  16.347  62.301  1.00  0.00     0.007 A 
HETATM   10  C7  UNL     1      40.833  15.438  61.741  1.00  0.00     0.007 A 
HETATM   11  C6  UNL     1      39.502  15.765  61.720  1.00  0.00    -0.058 A 
HETATM   12  C25 UNL     1      39.104  16.986  62.253  1.00  0.00     0.007 A 
HETATM   13  C24 UNL     1      39.980  17.857  62.791  1.00  0.00     0.007 A 
BRANCH  11  14
HETATM   14  C5  UNL     1      38.498  14.850  61.133  1.00  0.00     0.042 C 
BRANCH  14  15
HETATM   15  C4  UNL     1      37.908  14.033  62.287  1.00  0.00     0.033 C 
BRANCH  15  16
HETATM   16  C3  UNL     1      36.597  14.550  62.724  1.00  0.00    -0.009 C 
BRANCH  16  17
HETATM   17  C2  UNL     1      36.402  15.240  64.004  1.00  0.00     0.089 C 
BRANCH  17  18
HETATM   18  N4  UNL     1      37.241  14.992  65.099  1.00  0.00    -0.318 N 
HETATM   19  C1  UNL     1      37.391  15.621  66.342  1.00  0.00     0.339 C 
HETATM   20  N3  UNL     1      38.374  15.152  67.301  1.00  0.00    -0.237 N 
HETATM   21  O1  UNL     1      36.725  16.588  66.709  1.00  0.00    -0.245 OA
ATOM     22  H3  UNL     1      38.965  14.354  67.068  1.00  0.00     0.193 HD
ATOM     23  H4  UNL     1      37.866  14.197  64.964  1.00  0.00     0.170 HD
BRANCH  20  24
HETATM   24  N2  UNL     1      38.520  15.774  68.524  1.00  0.00    -0.245 N 
HETATM   25  N1  UNL     1      39.093  16.919  68.572  1.00  0.00    -0.331 N 
ATOM     26  H12 UNL     1      39.431  17.350  67.712  1.00  0.00     0.178 HD
ATOM     27  H11 UNL     1      39.201  17.378  69.476  1.00  0.00     0.178 HD
ATOM     28  H2  UNL     1      38.176  15.329  69.376  1.00  0.00     0.208 HD
ENDBRANCH  20  24
ENDBRANCH  17  18
ENDBRANCH  16  17
ENDBRANCH  15  16
ENDBRANCH  14  15
ENDBRANCH  11  14
ENDBRANCH   7   8
ENDBRANCH   6   7
ENDBRANCH   5   6
ENDBRANCH   4   5
ENDBRANCH   3   4
ENDBRANCH   1   3
BRANCH   1  29
HETATM   29  C15 UNL     1      44.113  20.691  66.187  1.00  0.00     0.107 C 
HETATM   30  N6  UNL     1      44.052  19.426  66.213  1.00  0.00    -0.295 N 
ATOM     31  H6  UNL     1      43.120  19.018  66.293  1.00  0.00     0.187 HD
BRANCH  30  32
HETATM   32  N7  UNL     1      45.103  18.540  66.145  1.00  0.00    -0.344 N 
ATOM     33  H72 UNL     1      44.989  17.780  65.476  1.00  0.00     0.176 HD
ATOM     34  H71 UNL     1      45.969  18.566  66.685  1.00  0.00     0.176 HD
ENDBRANCH  30  32
BRANCH  29  35
HETATM   35  C16 UNL     1      45.298  21.519  66.106  1.00  0.00     0.183 C 
HETATM   36  C17 UNL     1      45.382  22.725  66.919  1.00  0.00     0.239 C 
HETATM   37  O2  UNL     1      44.957  23.030  68.072  1.00  0.00    -0.272 OA
HETATM   38  N8  UNL     1      46.124  23.719  66.171  1.00  0.00    -0.305 N 
HETATM   39  C22 UNL     1      46.396  23.157  64.872  1.00  0.00     0.110 C 
HETATM   40  N12 UNL     1      47.339  23.502  64.063  1.00  0.00    -0.387 N 
HETATM   41  C23 UNL     1      45.359  22.111  64.693  1.00  0.00     0.243 C 
ATOM     42 2H12 UNL     1      48.052  24.222  64.186  1.00  0.00     0.157 HD
ATOM     43 1H12 UNL     1      47.532  23.105  63.143  1.00  0.00     0.157 HD
BRANCH  38  44
HETATM   44  C18 UNL     1      46.548  25.036  66.577  1.00  0.00     0.135 C 
BRANCH  44  45
HETATM   45  C19 UNL     1      47.777  25.053  67.409  1.00  0.00     0.040 C 
BRANCH  45  46
HETATM   46  C20 UNL     1      49.010  25.442  66.668  1.00  0.00     0.123 C 
BRANCH  46  47
HETATM   47  N9  UNL     1      48.738  26.608  65.841  1.00  0.00    -0.367 N 
HETATM   48  C21 UNL     1      48.971  26.699  64.595  1.00  0.00     0.196 C 
HETATM   49  N10 UNL     1      49.544  25.604  63.899  1.00  0.00    -0.067 NA
HETATM   50  N11 UNL     1      48.636  27.924  63.951  1.00  0.00    -0.067 NA
ATOM     51  H9  UNL     1      48.325  27.420  66.299  1.00  0.00     0.161 HD
ENDBRANCH  46  47
ENDBRANCH  45  46
ENDBRANCH  44  45
ENDBRANCH  38  44
BRANCH  41  52
HETATM   52  N13 UNL     1      45.743  21.134  63.704  1.00  0.00    -0.142 N 
HETATM   53  O3  UNL     1      45.489  21.301  62.484  1.00  0.00    -0.536 OA
HETATM   54  O4  UNL     1      46.397  20.019  64.124  1.00  0.00    -0.536 OA
ENDBRANCH  41  52
ENDBRANCH  29  35
ENDBRANCH   1  29
TORSDOF 20
ENDMDL
MODEL 4
REMARK VINA RESULT: -8.623955362      2.331      8.217
REMARK  20 active torsions:
REMARK  status: ('A' for Active; 'I' for Inactive)
REMARK    1  A    between atoms: N2_4  and  N3_6 
REMARK       I    between atoms: N3_6  and  C1_8 
REMARK       I    between atoms: C1_8  and  N4_10 
REMARK    2  A    between atoms: N4_10  and  C2_12 
REMARK    3  A    between atoms: C2_12  and  C3_13 
REMARK    4  A    between atoms: C3_13  and  C4_14 
REMARK    5  A    between atoms: C4_14  and  C5_15 
REMARK    6  A    between atoms: C5_15  and  C6_16 
REMARK    7  A    between atoms: C9_19  and  C10_20 
REMARK    8  A    between atoms: C10_20  and  C11_21 
REMARK    9  A    between atoms: C11_21  and  C12_22 
REMARK   10  A    between atoms: C12_22  and  C13_23 
REMARK   11  A    between atoms: C13_23  and  C14_24 
REMARK   12  A    between atoms: C14_24  and  N5_25 
REMARK   13  A    between atoms: N5_25  and  C15_27 
REMARK   14  A    between atoms: C15_27  and  C16_33 
REMARK   15  A    between atoms: N6_28  and  N7_30 
REMARK   16  A    between atoms: N8_36  and  C18_37 
REMARK   17  A    between atoms: C18_37  and  C19_38 
REMARK   18  A    between atoms: C19_38  and  C20_39 
REMARK   19  A    between atoms: C20_39  and  N9_40 
REMARK   20  A    between atoms: C23_49  and  N13_50 
ROOT
HETATM    1  N5  UNL     1      35.900  17.393  65.681  1.00  0.00    -0.378 N 
ATOM      2  H5  UNL     1      36.119  18.277  65.223  1.00  0.00     0.160 HD
ENDROOT
BRANCH   1   3
HETATM    3  C14 UNL     1      35.702  16.224  64.883  1.00  0.00     0.121 C 
BRANCH   3   4
HETATM    4  C13 UNL     1      36.957  15.387  64.695  1.00  0.00     0.020 C 
BRANCH   4   5
HETATM    5  C12 UNL     1      36.869  14.769  63.336  1.00  0.00     0.002 C 
BRANCH   5   6
HETATM    6  C11 UNL     1      37.624  15.450  62.257  1.00  0.00     0.005 C 
BRANCH   6   7
HETATM    7  C10 UNL     1      39.052  15.119  62.090  1.00  0.00     0.038 C 
BRANCH   7   8
HETATM    8  C9  UNL     1      39.991  16.222  62.393  1.00  0.00    -0.058 A 
HETATM    9  C8  UNL     1      39.486  17.413  62.845  1.00  0.00     0.007 A 
HETATM   10  C7  UNL     1      40.325  18.489  63.165  1.00  0.00     0.007 A 
HETATM   11  C6  UNL     1      41.679  18.334  63.021  1.00  0.00    -0.058 A 
HETATM   12  C25 UNL     1      42.169  17.117  62.560  1.00  0.00     0.007 A 
HETATM   13  C24 UNL     1      41.360  16.085  62.253  1.00  0.00     0.007 A 
BRANCH  11  14
HETATM   14  C5  UNL     1      42.614  19.438  63.336  1.00  0.00     0.042 C 
BRANCH  14  15
HETATM   15  C4  UNL     1      44.021  18.836  63.382  1.00  0.00     0.033 C 
BRANCH  15  16
HETATM   16  C3  UNL     1      44.920  19.438  62.379  1.00  0.00    -0.009 C 
BRANCH  16  17
HETATM   17  C2  UNL     1      44.887  20.865  62.039  1.00  0.00     0.089 C 
BRANCH  17  18
HETATM   18  N4  UNL     1      45.308  21.841  62.953  1.00  0.00    -0.318 N 
HETATM   19  C1  UNL     1      46.575  22.245  63.395  1.00  0.00     0.339 C 
HETATM   20  N3  UNL     1      46.718  23.295  64.385  1.00  0.00    -0.237 N 
HETATM   21  O1  UNL     1      47.631  21.759  62.994  1.00  0.00    -0.245 OA
ATOM     22  H3  UNL     1      45.887  23.747  64.766  1.00  0.00     0.193 HD
ATOM     23  H4  UNL     1      44.540  22.360  63.380  1.00  0.00     0.170 HD
BRANCH  20  24
HETATM   24  N2  UNL     1      47.968  23.691  64.819  1.00  0.00    -0.245 N 
HETATM   25  N1  UNL     1      48.619  22.923  65.612  1.00  0.00    -0.331 N 
ATOM     26  H12 UNL     1      48.207  22.039  65.908  1.00  0.00     0.178 HD
ATOM     27  H11 UNL     1      49.542  23.215  65.932  1.00  0.00     0.178 HD
ATOM     28  H2  UNL     1      48.366  24.579  64.514  1.00  0.00     0.208 HD
ENDBRANCH  20  24
ENDBRANCH  17  18
ENDBRANCH  16  17
ENDBRANCH  15  16
ENDBRANCH  14  15
ENDBRANCH  11  14
ENDBRANCH   7   8
ENDBRANCH   6   7
ENDBRANCH   5   6
ENDBRANCH   4   5
ENDBRANCH   3   4
ENDBRANCH   1   3
BRANCH   1  29
HETATM   29  C15 UNL     1      35.796  17.352  67.131  1.00  0.00     0.107 C 
HETATM   30  N6  UNL     1      34.798  16.731  67.602  1.00  0.00    -0.295 N 
ATOM     31  H6  UNL     1      34.160  16.316  66.923  1.00  0.00     0.187 HD
BRANCH  30  32
HETATM   32  N7  UNL     1      34.478  16.554  68.930  1.00  0.00    -0.344 N 
ATOM     33  H72 UNL     1      33.977  15.693  69.145  1.00  0.00     0.176 HD
ATOM     34  H71 UNL     1      34.688  17.183  69.705  1.00  0.00     0.176 HD
ENDBRANCH  30  32
BRANCH  29  35
HETATM   35  C16 UNL     1      36.832  18.051  67.864  1.00  0.00     0.183 C 
HETATM   36  C17 UNL     1      37.317  19.332  67.367  1.00  0.00     0.239 C 
HETATM   37  O2  UNL     1      36.765  20.295  66.758  1.00  0.00    -0.272 OA
HETATM   38  N8  UNL     1      38.726  19.431  67.687  1.00  0.00    -0.305 N 
HETATM   39  C22 UNL     1      39.117  18.176  68.277  1.00  0.00     0.110 C 
HETATM   40  N12 UNL     1      40.126  17.969  69.054  1.00  0.00    -0.387 N 
HETATM   41  C23 UNL     1      38.108  17.203  67.791  1.00  0.00     0.243 C 
ATOM     42 2H12 UNL     1      40.820  18.638  69.388  1.00  0.00     0.157 HD
ATOM     43 1H12 UNL     1      40.404  17.081  69.472  1.00  0.00     0.157 HD
BRANCH  38  44
HETATM   44  C18 UNL     1      39.629  20.536  67.486  1.00  0.00     0.135 C 
BRANCH  44  45
HETATM   45  C19 UNL     1      40.711  20.271  66.505  1.00  0.00     0.040 C 
BRANCH  45  46
HETATM   46  C20 UNL     1      41.672  21.397  66.336  1.00  0.00     0.123 C 
BRANCH  46  47
HETATM   47  N9  UNL     1      43.036  20.895  66.417  1.00  0.00    -0.367 N 
HETATM   48  C21 UNL     1      44.084  21.562  66.148  1.00  0.00     0.196 C 
HETATM   49  N10 UNL     1      43.977  22.911  65.728  1.00  0.00    -0.067 NA
HETATM   50  N11 UNL     1      45.337  20.900  66.287  1.00  0.00    -0.067 NA
ATOM     51  H9  UNL     1      43.161  19.928  66.715  1.00  0.00     0.161 HD
ENDBRANCH  46  47
ENDBRANCH  45  46
ENDBRANCH  44  45
ENDBRANCH  38  44
BRANCH  41  52
HETATM   52  N13 UNL     1      38.039  16.032  68.629  1.00  0.00    -0.142 N 
HETATM   53  O3  UNL     1      38.389  14.901  68.208  1.00  0.00    -0.536 OA
HETATM   54  O4  UNL     1      37.587  16.181  69.903  1.00  0.00    -0.536 OA
ENDBRANCH  41  52
ENDBRANCH  29  35
ENDBRANCH   1  29
TORSDOF 20
ENDMDL
MODEL 5
REMARK VINA RESULT: -8.570469791      2.447     10.910
REMARK  20 active torsions:
REMARK  status: ('A' for Active; 'I' for Inactive)
REMARK    1  A    between atoms: N2_4  and  N3_6 
REMARK       I    between atoms: N3_6  and  C1_8 
REMARK       I    between atoms: C1_8  and  N4_10 
REMARK    2  A    between atoms: N4_10  and  C2_12 
REMARK    3  A    between atoms: C2_12  and  C3_13 
REMARK    4  A    between atoms: C3_13  and  C4_14 
REMARK    5  A    between atoms: C4_14  and  C5_15 
REMARK    6  A    between atoms: C5_15  and  C6_16 
REMARK    7  A    between atoms: C9_19  and  C10_20 
REMARK    8  A    between atoms: C10_20  and  C11_21 
REMARK    9  A    between atoms: C11_21  and  C12_22 
REMARK   10  A    between atoms: C12_22  and  C13_23 
REMARK   11  A    between atoms: C13_23  and  C14_24 
REMARK   12  A    between atoms: C14_24  and  N5_25 
REMARK   13  A    between atoms: N5_25  and  C15_27 
REMARK   14  A    between atoms: C15_27  and  C16_33 
REMARK   15  A    between atoms: N6_28  and  N7_30 
REMARK   16  A    between atoms: N8_36  and  C18_37 
REMARK   17  A    between atoms: C18_37  and  C19_38 
REMARK   18  A    between atoms: C19_38  and  C20_39 
REMARK   19  A    between atoms: C20_39  and  N9_40 
REMARK   20  A    between atoms: C23_49  and  N13_50 
ROOT
HETATM    1  N5  UNL     1      38.917  18.167  66.891  1.00  0.00    -0.378 N 
ATOM      2  H5  UNL     1      38.479  18.409  66.003  1.00  0.00     0.160 HD
ENDROOT
BRANCH   1   3
HETATM    3  C14 UNL     1      40.080  18.882  67.313  1.00  0.00     0.121 C 
BRANCH   3   4
HETATM    4  C13 UNL     1      39.847  20.372  67.516  1.00  0.00     0.020 C 
BRANCH   4   5
HETATM    5  C12 UNL     1      40.762  21.087  66.575  1.00  0.00     0.002 C 
BRANCH   5   6
HETATM    6  C11 UNL     1      42.075  20.445  66.323  1.00  0.00     0.005 C 
BRANCH   6   7
HETATM    7  C10 UNL     1      43.031  21.137  65.437  1.00  0.00     0.038 C 
BRANCH   7   8
HETATM    8  C9  UNL     1      43.841  22.189  66.089  1.00  0.00    -0.058 A 
HETATM    9  C8  UNL     1      44.008  23.387  65.447  1.00  0.00     0.007 A 
HETATM   10  C7  UNL     1      44.750  24.428  66.021  1.00  0.00     0.007 A 
HETATM   11  C6  UNL     1      45.317  24.232  67.253  1.00  0.00    -0.058 A 
HETATM   12  C25 UNL     1      45.135  23.007  67.887  1.00  0.00     0.007 A 
HETATM   13  C24 UNL     1      44.421  22.008  67.331  1.00  0.00     0.007 A 
BRANCH  11  14
HETATM   14  C5  UNL     1      46.119  25.292  67.905  1.00  0.00     0.042 C 
BRANCH  14  15
HETATM   15  C4  UNL     1      47.552  24.765  68.018  1.00  0.00     0.033 C 
BRANCH  15  16
HETATM   16  C3  UNL     1      48.377  25.138  66.853  1.00  0.00    -0.009 C 
BRANCH  16  17
HETATM   17  C2  UNL     1      48.825  24.162  65.852  1.00  0.00     0.089 C 
BRANCH  17  18
HETATM   18  N4  UNL     1      48.031  23.061  65.505  1.00  0.00    -0.318 N 
HETATM   19  C1  UNL     1      47.579  22.566  64.274  1.00  0.00     0.339 C 
HETATM   20  N3  UNL     1      46.735  21.388  64.209  1.00  0.00    -0.237 N 
HETATM   21  O1  UNL     1      47.849  23.073  63.187  1.00  0.00    -0.245 OA
ATOM     22  H3  UNL     1      46.467  20.912  65.070  1.00  0.00     0.193 HD
ATOM     23  H4  UNL     1      47.722  22.509  66.306  1.00  0.00     0.170 HD
BRANCH  20  24
HETATM   24  N2  UNL     1      46.290  20.903  62.996  1.00  0.00    -0.245 N 
HETATM   25  N1  UNL     1      45.324  21.504  62.406  1.00  0.00    -0.331 N 
ATOM     26  H12 UNL     1      44.902  22.325  62.839  1.00  0.00     0.178 HD
ATOM     27  H11 UNL     1      44.996  21.147  61.509  1.00  0.00     0.178 HD
ATOM     28  H2  UNL     1      46.723  20.081  62.576  1.00  0.00     0.208 HD
ENDBRANCH  20  24
ENDBRANCH  17  18
ENDBRANCH  16  17
ENDBRANCH  15  16
ENDBRANCH  14  15
ENDBRANCH  11  14
ENDBRANCH   7   8
ENDBRANCH   6   7
ENDBRANCH   5   6
ENDBRANCH   4   5
ENDBRANCH   3   4
ENDBRANCH   1   3
BRANCH   1  29
HETATM   29  C15 UNL     1      38.344  17.101  67.698  1.00  0.00     0.107 C 
HETATM   30  N6  UNL     1      38.564  17.163  68.943  1.00  0.00    -0.295 N 
ATOM     31  H6  UNL     1      39.122  17.954  69.266  1.00  0.00     0.187 HD
BRANCH  30  32
HETATM   32  N7  UNL     1      38.135  16.281  69.910  1.00  0.00    -0.344 N 
ATOM     33  H72 UNL     1      37.128  16.261  70.063  1.00  0.00     0.176 HD
ATOM     34  H71 UNL     1      38.711  15.659  70.476  1.00  0.00     0.176 HD
ENDBRANCH  30  32
BRANCH  29  35
HETATM   35  C16 UNL     1      37.611  16.080  66.977  1.00  0.00     0.183 C 
HETATM   36  C17 UNL     1      38.114  15.616  65.691  1.00  0.00     0.239 C 
HETATM   37  O2  UNL     1      39.276  15.454  65.217  1.00  0.00    -0.272 OA
HETATM   38  N8  UNL     1      36.975  15.296  64.855  1.00  0.00    -0.305 N 
HETATM   39  C22 UNL     1      35.792  15.664  65.590  1.00  0.00     0.110 C 
HETATM   40  N12 UNL     1      34.600  15.200  65.418  1.00  0.00    -0.387 N 
HETATM   41  C23 UNL     1      36.259  16.677  66.568  1.00  0.00     0.243 C 
ATOM     42 2H12 UNL     1      34.278  14.504  64.745  1.00  0.00     0.157 HD
ATOM     43 1H12 UNL     1      33.761  15.461  65.938  1.00  0.00     0.157 HD
BRANCH  38  44
HETATM   44  C18 UNL     1      36.949  14.718  63.534  1.00  0.00     0.135 C 
BRANCH  44  45
HETATM   45  C19 UNL     1      37.007  15.710  62.432  1.00  0.00     0.040 C 
BRANCH  45  46
HETATM   46  C20 UNL     1      38.384  16.001  61.944  1.00  0.00     0.123 C 
BRANCH  46  47
HETATM   47  N9  UNL     1      38.881  17.215  62.573  1.00  0.00    -0.367 N 
HETATM   48  C21 UNL     1      40.102  17.475  62.812  1.00  0.00     0.196 C 
HETATM   49  N10 UNL     1      41.108  16.541  62.459  1.00  0.00    -0.067 NA
HETATM   50  N11 UNL     1      40.399  18.720  63.437  1.00  0.00    -0.067 NA
ATOM     51  H9  UNL     1      38.192  17.917  62.845  1.00  0.00     0.161 HD
ENDBRANCH  46  47
ENDBRANCH  45  46
ENDBRANCH  44  45
ENDBRANCH  38  44
BRANCH  41  52
HETATM   52  N13 UNL     1      35.355  16.806  67.684  1.00  0.00    -0.142 N 
HETATM   53  O3  UNL     1      34.408  17.632  67.670  1.00  0.00    -0.536 OA
HETATM   54  O4  UNL     1      35.549  16.002  68.764  1.00  0.00    -0.536 OA
ENDBRANCH  41  52
ENDBRANCH  29  35
ENDBRANCH   1  29
TORSDOF 20
ENDMDL
