MODEL 1
REMARK VINA RESULT: -4.749690851      0.000      0.000
REMARK  2 active torsions:
REMARK  status: ('A' for Active; 'I' for Inactive)
REMARK    1  A    between atoms: C5_6  and  O2_7 
REMARK    2  A    between atoms: C6_9  and  N1_10 
ROOT
HETATM    1  C1  UNL     1      20.572  91.336  75.252  1.00  0.00     0.012 C 
HETATM    2  C2  UNL     1      19.538  90.545  74.497  1.00  0.00     0.019 C 
HETATM    3  C3  UNL     1      18.175  90.947  74.938  1.00  0.00     0.033 C 
HETATM    4  C4  UNL     1      17.119  89.921  74.840  1.00  0.00     0.171 C 
HETATM    5  O1  UNL     1      17.349  88.810  74.118  1.00  0.00    -0.359 OA
HETATM    6  C5  UNL     1      18.604  88.430  73.837  1.00  0.00     0.287 C 
HETATM    7  C6  UNL     1      19.683  89.054  74.690  1.00  0.00     0.241 C 
ENDROOT
BRANCH   7   8
HETATM    8  N1  UNL     1      19.536  88.665  76.059  1.00  0.00    -0.070 N 
ATOM      9  H13 UNL     1      20.050  89.292  76.678  1.00  0.00     0.274 HD
ATOM     10  H12 UNL     1      18.590  88.846  76.393  1.00  0.00     0.274 HD
ATOM     11  H11 UNL     1      19.802  87.693  76.218  1.00  0.00     0.274 HD
ENDBRANCH   7   8
BRANCH   6  12
HETATM   12  O2  UNL     1      18.913  88.633  72.478  1.00  0.00    -0.369 OA
ATOM     13  H2  UNL     1      19.220  87.833  72.068  1.00  0.00     0.212 HD
ENDBRANCH   6  12
TORSDOF 2
ENDMDL
MODEL 2
REMARK VINA RESULT: -4.659452630      4.378      5.123
REMARK  2 active torsions:
REMARK  status: ('A' for Active; 'I' for Inactive)
REMARK    1  A    between atoms: C5_6  and  O2_7 
REMARK    2  A    between atoms: C6_9  and  N1_10 
ROOT
HETATM    1  C1  UNL     1      24.122  89.416  73.448  1.00  0.00     0.012 C 
HETATM    2  C2  UNL     1      23.662  90.656  74.168  1.00  0.00     0.019 C 
HETATM    3  C3  UNL     1      23.032  90.282  75.462  1.00  0.00     0.033 C 
HETATM    4  C4  UNL     1      21.990  91.191  75.979  1.00  0.00     0.171 C 
HETATM    5  O1  UNL     1      21.862  92.415  75.437  1.00  0.00    -0.359 OA
HETATM    6  C5  UNL     1      22.354  92.673  74.217  1.00  0.00     0.287 C 
HETATM    7  C6  UNL     1      22.667  91.463  73.368  1.00  0.00     0.241 C 
ENDROOT
BRANCH   7   8
HETATM    8  N1  UNL     1      21.475  90.727  73.076  1.00  0.00    -0.070 N 
ATOM      9  H13 UNL     1      21.691  89.763  72.821  1.00  0.00     0.274 HD
ATOM     10  H12 UNL     1      20.933  90.554  73.923  1.00  0.00     0.274 HD
ATOM     11  H11 UNL     1      20.905  91.177  72.361  1.00  0.00     0.274 HD
ENDBRANCH   7   8
BRANCH   6  12
HETATM   12  O2  UNL     1      23.494  93.498  74.283  1.00  0.00    -0.369 OA
ATOM     13  H2  UNL     1      23.858  93.519  75.160  1.00  0.00     0.212 HD
ENDBRANCH   6  12
TORSDOF 2
ENDMDL
MODEL 3
REMARK VINA RESULT: -4.647836975      4.091      4.621
REMARK  2 active torsions:
REMARK  status: ('A' for Active; 'I' for Inactive)
REMARK    1  A    between atoms: C5_6  and  O2_7 
REMARK    2  A    between atoms: C6_9  and  N1_10 
ROOT
HETATM    1  C1  UNL     1      21.762  89.719  76.556  1.00  0.00     0.012 C 
HETATM    2  C2  UNL     1      22.511  90.453  75.477  1.00  0.00     0.019 C 
HETATM    3  C3  UNL     1      22.652  91.887  75.846  1.00  0.00     0.033 C 
HETATM    4  C4  UNL     1      22.742  92.853  74.733  1.00  0.00     0.171 C 
HETATM    5  O1  UNL     1      22.978  92.398  73.490  1.00  0.00    -0.359 OA
HETATM    6  C5  UNL     1      22.732  91.118  73.176  1.00  0.00     0.287 C 
HETATM    7  C6  UNL     1      21.831  90.371  74.131  1.00  0.00     0.241 C 
ENDROOT
BRANCH   7   8
HETATM    8  N1  UNL     1      20.521  90.947  74.146  1.00  0.00    -0.070 N 
ATOM      9  H13 UNL     1      19.818  90.272  73.846  1.00  0.00     0.274 HD
ATOM     10  H12 UNL     1      20.199  91.104  75.101  1.00  0.00     0.274 HD
ATOM     11  H11 UNL     1      20.466  91.804  73.594  1.00  0.00     0.274 HD
ENDBRANCH   7   8
BRANCH   6  12
HETATM   12  O2  UNL     1      23.926  90.390  73.003  1.00  0.00    -0.369 OA
ATOM     13  H2  UNL     1      23.753  89.467  72.857  1.00  0.00     0.212 HD
ENDBRANCH   6  12
TORSDOF 2
ENDMDL
MODEL 4
REMARK VINA RESULT: -4.599289259      2.440      3.403
REMARK  2 active torsions:
REMARK  status: ('A' for Active; 'I' for Inactive)
REMARK    1  A    between atoms: C5_6  and  O2_7 
REMARK    2  A    between atoms: C6_9  and  N1_10 
ROOT
HETATM    1  C1  UNL     1      21.788  90.655  77.958  1.00  0.00     0.012 C 
HETATM    2  C2  UNL     1      21.428  89.775  76.792  1.00  0.00     0.019 C 
HETATM    3  C3  UNL     1      22.515  89.813  75.777  1.00  0.00     0.033 C 
HETATM    4  C4  UNL     1      22.120  89.589  74.373  1.00  0.00     0.171 C 
HETATM    5  O1  UNL     1      20.898  89.092  74.109  1.00  0.00    -0.359 OA
HETATM    6  C5  UNL     1      19.917  89.179  75.019  1.00  0.00     0.287 C 
HETATM    7  C6  UNL     1      20.137  90.184  76.124  1.00  0.00     0.241 C 
ENDROOT
BRANCH   7   8
HETATM    8  N1  UNL     1      20.194  91.514  75.596  1.00  0.00    -0.070 N 
ATOM      9  H13 UNL     1      19.327  91.757  75.117  1.00  0.00     0.274 HD
ATOM     10  H12 UNL     1      20.168  92.207  76.343  1.00  0.00     0.274 HD
ATOM     11  H11 UNL     1      21.001  91.656  74.989  1.00  0.00     0.274 HD
ENDBRANCH   7   8
BRANCH   6  12
HETATM   12  O2  UNL     1      19.628  87.923  75.588  1.00  0.00    -0.369 OA
ATOM     13  H2  UNL     1      18.975  87.454  75.082  1.00  0.00     0.212 HD
ENDBRANCH   6  12
TORSDOF 2
ENDMDL
MODEL 5
REMARK VINA RESULT: -4.524230520      2.793      3.615
REMARK  2 active torsions:
REMARK  status: ('A' for Active; 'I' for Inactive)
REMARK    1  A    between atoms: C5_6  and  O2_7 
REMARK    2  A    between atoms: C6_9  and  N1_10 
ROOT
HETATM    1  C1  UNL     1      21.344  90.845  77.759  1.00  0.00     0.012 C 
HETATM    2  C2  UNL     1      20.146  89.937  77.697  1.00  0.00     0.019 C 
HETATM    3  C3  UNL     1      20.375  88.868  76.689  1.00  0.00     0.033 C 
HETATM    4  C4  UNL     1      19.179  88.315  76.025  1.00  0.00     0.171 C 
HETATM    5  O1  UNL     1      17.965  88.576  76.540  1.00  0.00    -0.359 OA
HETATM    6  C5  UNL     1      17.786  89.620  77.363  1.00  0.00     0.287 C 
HETATM    7  C6  UNL     1      18.874  90.667  77.338  1.00  0.00     0.241 C 
ENDROOT
BRANCH   7   8
HETATM    8  N1  UNL     1      18.947  91.290  76.051  1.00  0.00    -0.070 N 
ATOM      9  H13 UNL     1      18.428  92.168  76.037  1.00  0.00     0.274 HD
ATOM     10  H12 UNL     1      19.884  91.652  75.871  1.00  0.00     0.274 HD
ATOM     11  H11 UNL     1      18.642  90.670  75.301  1.00  0.00     0.274 HD
ENDBRANCH   7   8
BRANCH   6  12
HETATM   12  O2  UNL     1      17.578  89.201  78.692  1.00  0.00    -0.369 OA
ATOM     13  H2  UNL     1      17.067  89.834  79.181  1.00  0.00     0.212 HD
ENDBRANCH   6  12
TORSDOF 2
ENDMDL
