MODEL 1
REMARK VINA RESULT: -4.434634793      0.000      0.000
REMARK  2 active torsions:
REMARK  status: ('A' for Active; 'I' for Inactive)
REMARK    1  A    between atoms: N1_1  and  C1_5 
REMARK    2  A    between atoms: C5_10  and  O1_11 
ROOT
HETATM    1  C1  UNL     1      22.481  92.542  74.340  1.00  0.00     0.213 C 
HETATM    2  C2  UNL     1      22.179  92.342  75.831  1.00  0.00     0.045 C 
HETATM    3  C3  UNL     1      20.717  91.949  75.903  1.00  0.00     0.076 C 
HETATM    4  S1  UNL     1      20.456  90.550  74.811  1.00  0.00    -0.166 SA
HETATM    5  C4  UNL     1      21.676  90.404  73.514  1.00  0.00     0.107 C 
HETATM    6  C5  UNL     1      22.943  91.220  73.813  1.00  0.00     0.157 C 
ENDROOT
BRANCH   1   7
HETATM    7  N1  UNL     1      23.377  93.610  74.209  1.00  0.00    -0.073 N 
ATOM      8  H13 UNL     1      23.332  94.258  74.996  1.00  0.00     0.274 HD
ATOM      9  H12 UNL     1      24.349  93.321  74.323  1.00  0.00     0.274 HD
ATOM     10  H11 UNL     1      23.206  94.067  73.314  1.00  0.00     0.274 HD
ENDBRANCH   1   7
BRANCH   6  11
HETATM   11  O1  UNL     1      23.741  91.305  72.700  1.00  0.00    -0.393 OA
ATOM     12  H1  UNL     1      24.502  90.737  72.720  1.00  0.00     0.210 HD
ENDBRANCH   6  11
TORSDOF 2
ENDMDL
MODEL 2
REMARK VINA RESULT: -4.412105829      2.523      3.068
REMARK  2 active torsions:
REMARK  status: ('A' for Active; 'I' for Inactive)
REMARK    1  A    between atoms: N1_1  and  C1_5 
REMARK    2  A    between atoms: C5_10  and  O1_11 
ROOT
HETATM    1  C1  UNL     1      23.944  92.030  73.828  1.00  0.00     0.213 C 
HETATM    2  C2  UNL     1      23.205  91.011  74.706  1.00  0.00     0.045 C 
HETATM    3  C3  UNL     1      22.982  89.798  73.825  1.00  0.00     0.076 C 
HETATM    4  S1  UNL     1      24.565  89.305  73.138  1.00  0.00    -0.166 SA
HETATM    5  C4  UNL     1      25.778  90.617  73.092  1.00  0.00     0.107 C 
HETATM    6  C5  UNL     1      25.408  91.783  74.021  1.00  0.00     0.157 C 
ENDROOT
BRANCH   1   7
HETATM    7  N1  UNL     1      23.484  93.312  74.155  1.00  0.00    -0.073 N 
ATOM      8  H13 UNL     1      23.999  93.728  74.931  1.00  0.00     0.274 HD
ATOM      9  H12 UNL     1      23.719  94.005  73.445  1.00  0.00     0.274 HD
ATOM     10  H11 UNL     1      22.480  93.259  74.334  1.00  0.00     0.274 HD
ENDBRANCH   1   7
BRANCH   6  11
HETATM   11  O1  UNL     1      26.201  92.874  73.771  1.00  0.00    -0.393 OA
ATOM     12  H1  UNL     1      27.130  92.681  73.738  1.00  0.00     0.210 HD
ENDBRANCH   6  11
TORSDOF 2
ENDMDL
MODEL 3
REMARK VINA RESULT: -4.336083861      2.975      3.726
REMARK  2 active torsions:
REMARK  status: ('A' for Active; 'I' for Inactive)
REMARK    1  A    between atoms: N1_1  and  C1_5 
REMARK    2  A    between atoms: C5_10  and  O1_11 
ROOT
HETATM    1  C1  UNL     1      23.137  91.238  73.470  1.00  0.00     0.213 C 
HETATM    2  C2  UNL     1      23.447  89.815  73.955  1.00  0.00     0.045 C 
HETATM    3  C3  UNL     1      24.634  89.353  73.135  1.00  0.00     0.076 C 
HETATM    4  S1  UNL     1      25.934  90.580  73.286  1.00  0.00    -0.166 SA
HETATM    5  C4  UNL     1      25.348  92.206  73.742  1.00  0.00     0.107 C 
HETATM    6  C5  UNL     1      23.930  92.169  74.332  1.00  0.00     0.157 C 
ENDROOT
BRANCH   1   7
HETATM    7  N1  UNL     1      21.748  91.416  73.479  1.00  0.00    -0.073 N 
ATOM      8  H13 UNL     1      21.430  92.052  72.748  1.00  0.00     0.274 HD
ATOM      9  H12 UNL     1      21.244  90.586  73.169  1.00  0.00     0.274 HD
ATOM     10  H11 UNL     1      21.468  91.719  74.412  1.00  0.00     0.274 HD
ENDBRANCH   1   7
BRANCH   6  11
HETATM   11  O1  UNL     1      23.409  93.435  74.423  1.00  0.00    -0.393 OA
ATOM     12  H1  UNL     1      23.776  93.958  75.125  1.00  0.00     0.210 HD
ENDBRANCH   6  11
TORSDOF 2
ENDMDL
MODEL 4
REMARK VINA RESULT: -4.254996535      2.106      3.010
REMARK  2 active torsions:
REMARK  status: ('A' for Active; 'I' for Inactive)
REMARK    1  A    between atoms: N1_1  and  C1_5 
REMARK    2  A    between atoms: C5_10  and  O1_11 
ROOT
HETATM    1  C1  UNL     1      24.632  91.748  74.063  1.00  0.00     0.213 C 
HETATM    2  C2  UNL     1      24.826  90.703  72.956  1.00  0.00     0.045 C 
HETATM    3  C3  UNL     1      24.227  89.420  73.496  1.00  0.00     0.076 C 
HETATM    4  S1  UNL     1      22.547  89.762  74.026  1.00  0.00    -0.166 SA
HETATM    5  C4  UNL     1      22.241  91.482  74.403  1.00  0.00     0.107 C 
HETATM    6  C5  UNL     1      23.313  92.407  73.807  1.00  0.00     0.157 C 
ENDROOT
BRANCH   1   7
HETATM    7  N1  UNL     1      25.752  92.588  74.080  1.00  0.00    -0.073 N 
ATOM      8  H13 UNL     1      26.532  92.191  74.604  1.00  0.00     0.274 HD
ATOM      9  H12 UNL     1      26.211  92.647  73.172  1.00  0.00     0.274 HD
ATOM     10  H11 UNL     1      25.466  93.501  74.435  1.00  0.00     0.274 HD
ENDBRANCH   1   7
BRANCH   6  11
HETATM   11  O1  UNL     1      23.205  93.673  74.326  1.00  0.00    -0.393 OA
ATOM     12  H1  UNL     1      22.830  94.309  73.729  1.00  0.00     0.210 HD
ENDBRANCH   6  11
TORSDOF 2
ENDMDL
MODEL 5
REMARK VINA RESULT: -4.103309232      1.913      2.115
REMARK  2 active torsions:
REMARK  status: ('A' for Active; 'I' for Inactive)
REMARK    1  A    between atoms: N1_1  and  C1_5 
REMARK    2  A    between atoms: C5_10  and  O1_11 
ROOT
HETATM    1  C1  UNL     1      22.114  92.266  74.860  1.00  0.00     0.213 C 
HETATM    2  C2  UNL     1      22.220  91.237  75.992  1.00  0.00     0.045 C 
HETATM    3  C3  UNL     1      22.022  89.885  75.336  1.00  0.00     0.076 C 
HETATM    4  S1  UNL     1      23.185  89.743  73.978  1.00  0.00    -0.166 SA
HETATM    5  C4  UNL     1      23.758  91.313  73.345  1.00  0.00     0.107 C 
HETATM    6  C5  UNL     1      23.499  92.465  74.328  1.00  0.00     0.157 C 
ENDROOT
BRANCH   1   7
HETATM    7  N1  UNL     1      21.471  93.407  75.356  1.00  0.00    -0.073 N 
ATOM      8  H13 UNL     1      20.489  93.452  75.085  1.00  0.00     0.274 HD
ATOM      9  H12 UNL     1      21.335  93.371  76.366  1.00  0.00     0.274 HD
ATOM     10  H11 UNL     1      21.998  94.229  75.061  1.00  0.00     0.274 HD
ENDBRANCH   1   7
BRANCH   6  11
HETATM   11  O1  UNL     1      23.700  93.678  73.719  1.00  0.00    -0.393 OA
ATOM     12  H1  UNL     1      23.842  93.626  72.781  1.00  0.00     0.210 HD
ENDBRANCH   6  11
TORSDOF 2
ENDMDL
