MODEL 1
REMARK VINA RESULT: -5.121779759      0.000      0.000
REMARK  2 active torsions:
REMARK  status: ('A' for Active; 'I' for Inactive)
REMARK    1  A    between atoms: C4_4  and  O1_5 
REMARK    2  A    between atoms: N1_8  and  O2_9 
ROOT
HETATM    1  C1  UNL     1      25.154  89.330  72.918  1.00  0.00     0.016 C 
HETATM    2  C2  UNL     1      24.298  90.088  73.912  1.00  0.00     0.025 C 
HETATM    3  C3  UNL     1      24.511  91.556  73.652  1.00  0.00     0.047 C 
HETATM    4  C4  UNL     1      23.507  92.425  74.352  1.00  0.00     0.159 C 
HETATM    5  C5  UNL     1      22.132  91.903  74.387  1.00  0.00     0.126 C 
HETATM    6  N1  UNL     1      21.882  90.579  74.054  1.00  0.00    -0.252 N 
HETATM    7  C6  UNL     1      22.884  89.659  73.810  1.00  0.00     0.099 C 
ENDROOT
BRANCH   4   8
HETATM    8  O1  UNL     1      23.570  93.679  73.737  1.00  0.00    -0.390 OA
ATOM      9  H1  UNL     1      22.702  93.855  73.394  1.00  0.00     0.210 HD
ENDBRANCH   4   8
BRANCH   6  10
HETATM   10  O2  UNL     1      20.816  90.423  73.224  1.00  0.00    -0.284 OA
ATOM     11  H2  UNL     1      20.064  90.026  73.646  1.00  0.00     0.245 HD
ENDBRANCH   6  10
TORSDOF 2
ENDMDL
MODEL 2
REMARK VINA RESULT: -5.119084521      1.942      2.815
REMARK  2 active torsions:
REMARK  status: ('A' for Active; 'I' for Inactive)
REMARK    1  A    between atoms: C4_4  and  O1_5 
REMARK    2  A    between atoms: N1_8  and  O2_9 
ROOT
HETATM    1  C1  UNL     1      22.014  90.598  77.633  1.00  0.00     0.016 C 
HETATM    2  C2  UNL     1      21.678  90.945  76.197  1.00  0.00     0.025 C 
HETATM    3  C3  UNL     1      22.373  92.243  75.881  1.00  0.00     0.047 C 
HETATM    4  C4  UNL     1      22.382  92.558  74.412  1.00  0.00     0.159 C 
HETATM    5  C5  UNL     1      22.585  91.407  73.519  1.00  0.00     0.126 C 
HETATM    6  N1  UNL     1      22.475  90.115  74.012  1.00  0.00    -0.252 N 
HETATM    7  C6  UNL     1      22.047  89.829  75.295  1.00  0.00     0.099 C 
ENDROOT
BRANCH   4   8
HETATM    8  O1  UNL     1      23.358  93.540  74.223  1.00  0.00    -0.390 OA
ATOM      9  H1  UNL     1      24.171  93.083  74.046  1.00  0.00     0.210 HD
ENDBRANCH   4   8
BRANCH   6  10
HETATM   10  O2  UNL     1      23.477  89.293  73.601  1.00  0.00    -0.284 OA
ATOM     11  H2  UNL     1      24.263  89.362  74.130  1.00  0.00     0.245 HD
ENDBRANCH   6  10
TORSDOF 2
ENDMDL
MODEL 3
REMARK VINA RESULT: -5.082307103      3.344      4.847
REMARK  2 active torsions:
REMARK  status: ('A' for Active; 'I' for Inactive)
REMARK    1  A    between atoms: C4_4  and  O1_5 
REMARK    2  A    between atoms: N1_8  and  O2_9 
ROOT
HETATM    1  C1  UNL     1      21.989  90.552  77.994  1.00  0.00     0.016 C 
HETATM    2  C2  UNL     1      21.611  89.501  76.970  1.00  0.00     0.025 C 
HETATM    3  C3  UNL     1      20.172  89.137  77.218  1.00  0.00     0.047 C 
HETATM    4  C4  UNL     1      19.570  88.335  76.100  1.00  0.00     0.159 C 
HETATM    5  C5  UNL     1      19.978  88.735  74.744  1.00  0.00     0.126 C 
HETATM    6  N1  UNL     1      21.057  89.588  74.565  1.00  0.00    -0.252 N 
HETATM    7  C6  UNL     1      21.879  89.996  75.599  1.00  0.00     0.099 C 
ENDROOT
BRANCH   4   8
HETATM    8  O1  UNL     1      18.184  88.401  76.266  1.00  0.00    -0.390 OA
ATOM      9  H1  UNL     1      17.983  87.910  77.053  1.00  0.00     0.210 HD
ENDBRANCH   4   8
BRANCH   6  10
HETATM   10  O2  UNL     1      20.818  90.580  73.667  1.00  0.00    -0.284 OA
ATOM     11  H2  UNL     1      20.656  90.262  72.787  1.00  0.00     0.245 HD
ENDBRANCH   6  10
TORSDOF 2
ENDMDL
MODEL 4
REMARK VINA RESULT: -4.851102295      2.034      3.805
REMARK  2 active torsions:
REMARK  status: ('A' for Active; 'I' for Inactive)
REMARK    1  A    between atoms: C4_4  and  O1_5 
REMARK    2  A    between atoms: N1_8  and  O2_9 
ROOT
HETATM    1  C1  UNL     1      21.594  90.838  77.825  1.00  0.00     0.016 C 
HETATM    2  C2  UNL     1      22.269  90.602  76.489  1.00  0.00     0.025 C 
HETATM    3  C3  UNL     1      21.335  89.758  75.664  1.00  0.00     0.047 C 
HETATM    4  C4  UNL     1      21.729  89.694  74.217  1.00  0.00     0.159 C 
HETATM    5  C5  UNL     1      22.244  90.948  73.645  1.00  0.00     0.126 C 
HETATM    6  N1  UNL     1      22.603  91.997  74.479  1.00  0.00    -0.252 N 
HETATM    7  C6  UNL     1      22.630  91.893  75.857  1.00  0.00     0.099 C 
ENDROOT
BRANCH   4   8
HETATM    8  O1  UNL     1      20.610  89.229  73.521  1.00  0.00    -0.390 OA
ATOM      9  H1  UNL     1      20.096  89.994  73.293  1.00  0.00     0.210 HD
ENDBRANCH   4   8
BRANCH   6  10
HETATM   10  O2  UNL     1      22.141  93.205  74.057  1.00  0.00    -0.284 OA
ATOM     11  H2  UNL     1      22.053  93.841  74.757  1.00  0.00     0.245 HD
ENDBRANCH   6  10
TORSDOF 2
ENDMDL
MODEL 5
REMARK VINA RESULT: -4.727063839      1.967      3.230
REMARK  2 active torsions:
REMARK  status: ('A' for Active; 'I' for Inactive)
REMARK    1  A    between atoms: C4_4  and  O1_5 
REMARK    2  A    between atoms: N1_8  and  O2_9 
ROOT
HETATM    1  C1  UNL     1      21.297  89.940  74.993  1.00  0.00     0.016 C 
HETATM    2  C2  UNL     1      22.742  90.393  75.053  1.00  0.00     0.025 C 
HETATM    3  C3  UNL     1      23.466  89.715  73.921  1.00  0.00     0.047 C 
HETATM    4  C4  UNL     1      24.827  90.296  73.667  1.00  0.00     0.159 C 
HETATM    5  C5  UNL     1      24.927  91.758  73.800  1.00  0.00     0.126 C 
HETATM    6  N1  UNL     1      23.901  92.473  74.401  1.00  0.00    -0.252 N 
HETATM    7  C6  UNL     1      22.820  91.873  75.017  1.00  0.00     0.099 C 
ENDROOT
BRANCH   4   8
HETATM    8  O1  UNL     1      25.213  89.863  72.396  1.00  0.00    -0.390 OA
ATOM      9  H1  UNL     1      25.965  90.388  72.148  1.00  0.00     0.210 HD
ENDBRANCH   4   8
BRANCH   6  10
HETATM   10  O2  UNL     1      23.554  93.597  73.718  1.00  0.00    -0.284 OA
ATOM     11  H2  UNL     1      23.125  94.250  74.258  1.00  0.00     0.245 HD
ENDBRANCH   6  10
TORSDOF 2
ENDMDL
