MODEL 1
REMARK VINA RESULT: -4.977105915      0.000      0.000
REMARK  2 active torsions:
REMARK  status: ('A' for Active; 'I' for Inactive)
REMARK    1  A    between atoms: C5_5  and  N1_6 
REMARK    2  A    between atoms: N2_11  and  O1_12 
ROOT
HETATM    1  C1  UNL     1      20.982  89.320  76.511  1.00  0.00     0.028 C 
HETATM    2  C2  UNL     1      21.253  90.515  75.679  1.00  0.00     0.082 C 
HETATM    3  C3  UNL     1      21.968  91.629  76.455  1.00  0.00     0.024 C 
HETATM    4  C4  UNL     1      21.742  92.846  75.578  1.00  0.00     0.036 C 
HETATM    5  C5  UNL     1      22.282  92.657  74.194  1.00  0.00     0.198 C 
HETATM    6  C6  UNL     1      22.448  91.283  73.726  1.00  0.00     0.153 C 
HETATM    7  N2  UNL     1      22.063  90.214  74.552  1.00  0.00    -0.194 NA
ENDROOT
BRANCH   5   8
HETATM    8  N1  UNL     1      23.558  93.396  74.172  1.00  0.00    -0.074 N 
ATOM      9  H13 UNL     1      24.011  93.463  75.084  1.00  0.00     0.274 HD
ATOM     10  H12 UNL     1      24.314  92.900  73.700  1.00  0.00     0.274 HD
ATOM     11  H11 UNL     1      23.336  94.301  73.756  1.00  0.00     0.274 HD
ENDBRANCH   5   8
BRANCH   7  12
HETATM   12  O1  UNL     1      21.477  89.183  73.879  1.00  0.00    -0.313 OA
ATOM     13  H1  UNL     1      21.466  89.406  72.956  1.00  0.00     0.237 HD
ENDBRANCH   7  12
TORSDOF 2
ENDMDL
MODEL 2
REMARK VINA RESULT: -4.976151403      3.063      4.297
REMARK  2 active torsions:
REMARK  status: ('A' for Active; 'I' for Inactive)
REMARK    1  A    between atoms: C5_5  and  N1_6 
REMARK    2  A    between atoms: N2_11  and  O1_12 
ROOT
HETATM    1  C1  UNL     1      23.004  93.142  74.132  1.00  0.00     0.028 C 
HETATM    2  C2  UNL     1      23.702  91.837  74.123  1.00  0.00     0.082 C 
HETATM    3  C3  UNL     1      22.925  90.751  73.368  1.00  0.00     0.024 C 
HETATM    4  C4  UNL     1      23.576  89.471  73.857  1.00  0.00     0.036 C 
HETATM    5  C5  UNL     1      25.046  89.440  73.576  1.00  0.00     0.198 C 
HETATM    6  C6  UNL     1      25.717  90.724  73.389  1.00  0.00     0.153 C 
HETATM    7  N2  UNL     1      24.986  91.917  73.520  1.00  0.00    -0.194 NA
ENDROOT
BRANCH   5   8
HETATM    8  N1  UNL     1      25.196  88.572  72.393  1.00  0.00    -0.074 N 
ATOM      9  H13 UNL     1      25.769  87.744  72.560  1.00  0.00     0.274 HD
ATOM     10  H12 UNL     1      24.343  88.076  72.135  1.00  0.00     0.274 HD
ATOM     11  H11 UNL     1      25.557  89.180  71.658  1.00  0.00     0.274 HD
ENDBRANCH   5   8
BRANCH   7  12
HETATM   12  O1  UNL     1      25.675  92.919  74.137  1.00  0.00    -0.313 OA
ATOM     13  H1  UNL     1      25.596  92.793  75.075  1.00  0.00     0.237 HD
ENDBRANCH   7  12
TORSDOF 2
ENDMDL
MODEL 3
REMARK VINA RESULT: -4.773345427      2.172      3.129
REMARK  2 active torsions:
REMARK  status: ('A' for Active; 'I' for Inactive)
REMARK    1  A    between atoms: C5_5  and  N1_6 
REMARK    2  A    between atoms: N2_11  and  O1_12 
ROOT
HETATM    1  C1  UNL     1      24.853  88.681  72.739  1.00  0.00     0.028 C 
HETATM    2  C2  UNL     1      24.518  89.896  73.518  1.00  0.00     0.082 C 
HETATM    3  C3  UNL     1      25.304  91.131  73.059  1.00  0.00     0.024 C 
HETATM    4  C4  UNL     1      25.141  92.085  74.228  1.00  0.00     0.036 C 
HETATM    5  C5  UNL     1      23.703  92.381  74.521  1.00  0.00     0.198 C 
HETATM    6  C6  UNL     1      22.715  91.405  74.069  1.00  0.00     0.153 C 
HETATM    7  N2  UNL     1      23.140  90.229  73.429  1.00  0.00    -0.194 NA
ENDROOT
BRANCH   5   8
HETATM    8  N1  UNL     1      23.457  93.714  73.940  1.00  0.00    -0.074 N 
ATOM      9  H13 UNL     1      23.681  94.486  74.569  1.00  0.00     0.274 HD
ATOM     10  H12 UNL     1      24.112  93.969  73.201  1.00  0.00     0.274 HD
ATOM     11  H11 UNL     1      22.482  93.699  73.638  1.00  0.00     0.274 HD
ENDBRANCH   5   8
BRANCH   7  12
HETATM   12  O1  UNL     1      22.420  89.124  73.775  1.00  0.00    -0.313 OA
ATOM     13  H1  UNL     1      22.747  88.812  74.610  1.00  0.00     0.237 HD
ENDBRANCH   7  12
TORSDOF 2
ENDMDL
MODEL 4
REMARK VINA RESULT: -4.615098211      2.692      3.715
REMARK  2 active torsions:
REMARK  status: ('A' for Active; 'I' for Inactive)
REMARK    1  A    between atoms: C5_5  and  N1_6 
REMARK    2  A    between atoms: N2_11  and  O1_12 
ROOT
HETATM    1  C1  UNL     1      25.782  90.258  73.128  1.00  0.00     0.028 C 
HETATM    2  C2  UNL     1      24.500  90.978  73.305  1.00  0.00     0.082 C 
HETATM    3  C3  UNL     1      23.400  90.094  73.906  1.00  0.00     0.024 C 
HETATM    4  C4  UNL     1      22.135  90.868  73.587  1.00  0.00     0.036 C 
HETATM    5  C5  UNL     1      22.157  92.250  74.164  1.00  0.00     0.198 C 
HETATM    6  C6  UNL     1      23.464  92.830  74.459  1.00  0.00     0.153 C 
HETATM    7  N2  UNL     1      24.631  92.107  74.157  1.00  0.00    -0.194 NA
ENDROOT
BRANCH   5   8
HETATM    8  N1  UNL     1      21.310  92.179  75.370  1.00  0.00    -0.074 N 
ATOM      9  H13 UNL     1      20.633  91.416  75.353  1.00  0.00     0.274 HD
ATOM     10  H12 UNL     1      21.808  91.876  76.206  1.00  0.00     0.274 HD
ATOM     11  H11 UNL     1      20.886  93.103  75.455  1.00  0.00     0.274 HD
ENDBRANCH   5   8
BRANCH   7  12
HETATM   12  O1  UNL     1      25.646  92.879  73.675  1.00  0.00    -0.313 OA
ATOM     13  H1  UNL     1      25.262  93.655  73.283  1.00  0.00     0.237 HD
ENDBRANCH   7  12
TORSDOF 2
ENDMDL
MODEL 5
REMARK VINA RESULT: -4.607169683      2.448      3.980
REMARK  2 active torsions:
REMARK  status: ('A' for Active; 'I' for Inactive)
REMARK    1  A    between atoms: C5_5  and  N1_6 
REMARK    2  A    between atoms: N2_11  and  O1_12 
ROOT
HETATM    1  C1  UNL     1      25.885  92.176  73.852  1.00  0.00     0.028 C 
HETATM    2  C2  UNL     1      24.552  91.580  73.603  1.00  0.00     0.082 C 
HETATM    3  C3  UNL     1      24.424  90.156  74.161  1.00  0.00     0.024 C 
HETATM    4  C4  UNL     1      23.208  89.618  73.429  1.00  0.00     0.036 C 
HETATM    5  C5  UNL     1      21.988  90.453  73.668  1.00  0.00     0.198 C 
HETATM    6  C6  UNL     1      22.198  91.840  74.075  1.00  0.00     0.153 C 
HETATM    7  N2  UNL     1      23.505  92.344  74.183  1.00  0.00    -0.194 NA
ENDROOT
BRANCH   5   8
HETATM    8  N1  UNL     1      21.199  89.707  74.666  1.00  0.00    -0.074 N 
ATOM      9  H13 UNL     1      20.208  89.953  74.675  1.00  0.00     0.274 HD
ATOM     10  H12 UNL     1      21.073  88.721  74.439  1.00  0.00     0.274 HD
ATOM     11  H11 UNL     1      21.671  89.868  75.556  1.00  0.00     0.274 HD
ENDBRANCH   5   8
BRANCH   7  12
HETATM   12  O1  UNL     1      23.635  93.630  73.748  1.00  0.00    -0.313 OA
ATOM     13  H1  UNL     1      24.512  93.924  73.964  1.00  0.00     0.237 HD
ENDBRANCH   7  12
TORSDOF 2
ENDMDL
