MODEL 1
REMARK VINA RESULT: -4.655507071      0.000      0.000
REMARK  2 active torsions:
REMARK  status: ('A' for Active; 'I' for Inactive)
REMARK    1  A    between atoms: C5_6  and  O2_7 
REMARK    2  A    between atoms: C6_9  and  O3_10 
ROOT
HETATM    1  C1  UNL     1      20.398  89.760  76.773  1.00  0.00     0.048 C 
HETATM    2  C2  UNL     1      20.045  89.550  75.315  1.00  0.00     0.082 C 
HETATM    3  C3  UNL     1      21.351  89.331  74.572  1.00  0.00     0.048 C 
HETATM    4  O1  UNL     1      19.333  90.605  74.816  1.00  0.00    -0.376 OA
HETATM    5  C4  UNL     1      18.149  90.174  74.298  1.00  0.00     0.203 C 
HETATM    6  C5  UNL     1      18.307  88.674  74.009  1.00  0.00     0.173 C 
HETATM    7  C6  UNL     1      19.210  88.297  75.157  1.00  0.00     0.182 C 
ENDROOT
BRANCH   7   8
HETATM    8  O3  UNL     1      18.359  88.105  76.266  1.00  0.00    -0.390 OA
ATOM      9  H3  UNL     1      17.949  88.919  76.531  1.00  0.00     0.210 HD
ENDBRANCH   7   8
BRANCH   6  10
HETATM   10  O2  UNL     1      18.910  88.571  72.777  1.00  0.00    -0.391 OA
ATOM     11  H2  UNL     1      19.125  87.654  72.655  1.00  0.00     0.210 HD
ENDBRANCH   6  10
TORSDOF 2
ENDMDL
MODEL 2
REMARK VINA RESULT: -4.502069189      3.208      4.518
REMARK  2 active torsions:
REMARK  status: ('A' for Active; 'I' for Inactive)
REMARK    1  A    between atoms: C5_6  and  O2_7 
REMARK    2  A    between atoms: C6_9  and  O3_10 
ROOT
HETATM    1  C1  UNL     1      24.157  92.642  74.954  1.00  0.00     0.048 C 
HETATM    2  C2  UNL     1      22.817  91.949  74.817  1.00  0.00     0.082 C 
HETATM    3  C3  UNL     1      21.756  92.949  75.242  1.00  0.00     0.048 C 
HETATM    4  O1  UNL     1      22.772  90.798  75.554  1.00  0.00    -0.376 OA
HETATM    5  C4  UNL     1      22.460  89.737  74.758  1.00  0.00     0.203 C 
HETATM    6  C5  UNL     1      21.785  90.306  73.501  1.00  0.00     0.173 C 
HETATM    7  C6  UNL     1      22.560  91.593  73.368  1.00  0.00     0.182 C 
ENDROOT
BRANCH   7   8
HETATM    8  O3  UNL     1      23.757  91.251  72.703  1.00  0.00    -0.390 OA
ATOM      9  H3  UNL     1      23.594  90.654  71.983  1.00  0.00     0.210 HD
ENDBRANCH   7   8
BRANCH   6  10
HETATM   10  O2  UNL     1      20.459  90.492  73.815  1.00  0.00    -0.391 OA
ATOM     11  H2  UNL     1      20.169  89.700  74.252  1.00  0.00     0.210 HD
ENDBRANCH   6  10
TORSDOF 2
ENDMDL
MODEL 3
REMARK VINA RESULT: -4.477219126      2.423      3.527
REMARK  2 active torsions:
REMARK  status: ('A' for Active; 'I' for Inactive)
REMARK    1  A    between atoms: C5_6  and  O2_7 
REMARK    2  A    between atoms: C6_9  and  O3_10 
ROOT
HETATM    1  C1  UNL     1      22.338  91.905  76.659  1.00  0.00     0.048 C 
HETATM    2  C2  UNL     1      21.791  90.692  75.935  1.00  0.00     0.082 C 
HETATM    3  C3  UNL     1      20.827  90.007  76.887  1.00  0.00     0.048 C 
HETATM    4  O1  UNL     1      22.796  89.861  75.522  1.00  0.00    -0.376 OA
HETATM    5  C4  UNL     1      22.720  89.657  74.178  1.00  0.00     0.203 C 
HETATM    6  C5  UNL     1      21.283  89.995  73.755  1.00  0.00     0.173 C 
HETATM    7  C6  UNL     1      21.005  91.124  74.716  1.00  0.00     0.182 C 
ENDROOT
BRANCH   7   8
HETATM    8  O3  UNL     1      21.566  92.276  74.124  1.00  0.00    -0.390 OA
ATOM      9  H3  UNL     1      20.973  93.017  74.181  1.00  0.00     0.210 HD
ENDBRANCH   7   8
BRANCH   6  10
HETATM   10  O2  UNL     1      20.526  88.871  73.992  1.00  0.00    -0.391 OA
ATOM     11  H2  UNL     1      20.112  88.643  73.168  1.00  0.00     0.210 HD
ENDBRANCH   6  10
TORSDOF 2
ENDMDL
MODEL 4
REMARK VINA RESULT: -4.447710103      1.331      1.570
REMARK  2 active torsions:
REMARK  status: ('A' for Active; 'I' for Inactive)
REMARK    1  A    between atoms: C5_6  and  O2_7 
REMARK    2  A    between atoms: C6_9  and  O3_10 
ROOT
HETATM    1  C1  UNL     1      19.441  90.000  78.015  1.00  0.00     0.048 C 
HETATM    2  C2  UNL     1      20.118  89.860  76.667  1.00  0.00     0.082 C 
HETATM    3  C3  UNL     1      21.611  89.778  76.930  1.00  0.00     0.048 C 
HETATM    4  O1  UNL     1      19.792  90.895  75.834  1.00  0.00    -0.376 OA
HETATM    5  C4  UNL     1      19.255  90.420  74.676  1.00  0.00     0.203 C 
HETATM    6  C5  UNL     1      19.700  88.956  74.545  1.00  0.00     0.173 C 
HETATM    7  C6  UNL     1      19.696  88.567  76.003  1.00  0.00     0.182 C 
ENDROOT
BRANCH   7   8
HETATM    8  O3  UNL     1      18.356  88.246  76.309  1.00  0.00    -0.390 OA
ATOM      9  H3  UNL     1      18.276  87.911  77.194  1.00  0.00     0.210 HD
ENDBRANCH   7   8
BRANCH   6  10
HETATM   10  O2  UNL     1      20.956  88.974  73.983  1.00  0.00    -0.391 OA
ATOM     11  H2  UNL     1      21.151  89.881  73.782  1.00  0.00     0.210 HD
ENDBRANCH   6  10
TORSDOF 2
ENDMDL
MODEL 5
REMARK VINA RESULT: -4.420833883      2.280      3.285
REMARK  2 active torsions:
REMARK  status: ('A' for Active; 'I' for Inactive)
REMARK    1  A    between atoms: C5_6  and  O2_7 
REMARK    2  A    between atoms: C6_9  and  O3_10 
ROOT
HETATM    1  C1  UNL     1      20.124  88.649  76.492  1.00  0.00     0.048 C 
HETATM    2  C2  UNL     1      21.121  89.763  76.246  1.00  0.00     0.082 C 
HETATM    3  C3  UNL     1      22.197  89.635  77.311  1.00  0.00     0.048 C 
HETATM    4  O1  UNL     1      20.515  90.989  76.263  1.00  0.00    -0.376 OA
HETATM    5  C4  UNL     1      20.755  91.651  75.097  1.00  0.00     0.203 C 
HETATM    6  C5  UNL     1      22.000  91.010  74.467  1.00  0.00     0.173 C 
HETATM    7  C6  UNL     1      21.784  89.581  74.898  1.00  0.00     0.182 C 
ENDROOT
BRANCH   7   8
HETATM    8  O3  UNL     1      20.889  89.029  73.956  1.00  0.00    -0.390 OA
ATOM      9  H3  UNL     1      21.056  89.364  73.084  1.00  0.00     0.210 HD
ENDBRANCH   7   8
BRANCH   6  10
HETATM   10  O2  UNL     1      23.091  91.604  75.056  1.00  0.00    -0.391 OA
ATOM     11  H2  UNL     1      23.068  92.522  74.811  1.00  0.00     0.210 HD
ENDBRANCH   6  10
TORSDOF 2
ENDMDL
