MODEL 1
REMARK VINA RESULT: -4.802554219      0.000      0.000
REMARK  2 active torsions:
REMARK  status: ('A' for Active; 'I' for Inactive)
REMARK    1  A    between atoms: C3_4  and  N1_5 
REMARK    2  A    between atoms: C4_9  and  O2_10 
ROOT
HETATM    1  C1  UNL     1      22.362  89.624  77.314  1.00  0.00     0.040 C 
HETATM    2  C2  UNL     1      21.969  90.040  75.956  1.00  0.00     0.126 C 
HETATM    3  O1  UNL     1      22.957  89.799  74.982  1.00  0.00    -0.352 OA
HETATM    4  C3  UNL     1      22.482  90.435  73.842  1.00  0.00     0.348 C 
HETATM    5  C4  UNL     1      21.613  91.572  74.278  1.00  0.00     0.180 C 
HETATM    6  C5  UNL     1      21.880  91.565  75.792  1.00  0.00     0.043 C 
HETATM    7  C6  UNL     1      20.761  92.160  76.561  1.00  0.00     0.015 C 
ENDROOT
BRANCH   4   8
HETATM    8  N1  UNL     1      23.571  90.896  72.986  1.00  0.00    -0.050 N 
ATOM      9  H13 UNL     1      23.310  91.736  72.472  1.00  0.00     0.277 HD
ATOM     10  H12 UNL     1      24.339  91.279  73.537  1.00  0.00     0.277 HD
ATOM     11  H11 UNL     1      23.895  90.160  72.358  1.00  0.00     0.277 HD
ENDBRANCH   4   8
BRANCH   5  12
HETATM   12  O2  UNL     1      20.286  91.178  74.128  1.00  0.00    -0.391 OA
ATOM     13  H2  UNL     1      19.906  91.098  74.995  1.00  0.00     0.210 HD
ENDBRANCH   5  12
TORSDOF 2
ENDMDL
MODEL 2
REMARK VINA RESULT: -4.752976887      1.986      2.296
REMARK  2 active torsions:
REMARK  status: ('A' for Active; 'I' for Inactive)
REMARK    1  A    between atoms: C3_4  and  N1_5 
REMARK    2  A    between atoms: C4_9  and  O2_10 
ROOT
HETATM    1  C1  UNL     1      22.069  89.473  74.339  1.00  0.00     0.040 C 
HETATM    2  C2  UNL     1      22.551  90.846  74.107  1.00  0.00     0.126 C 
HETATM    3  O1  UNL     1      23.907  90.915  73.731  1.00  0.00    -0.352 OA
HETATM    4  C3  UNL     1      24.206  92.272  73.762  1.00  0.00     0.348 C 
HETATM    5  C4  UNL     1      23.301  92.920  74.761  1.00  0.00     0.180 C 
HETATM    6  C5  UNL     1      22.647  91.681  75.393  1.00  0.00     0.043 C 
HETATM    7  C6  UNL     1      21.320  91.984  75.980  1.00  0.00     0.015 C 
ENDROOT
BRANCH   4   8
HETATM    8  N1  UNL     1      25.610  92.508  74.084  1.00  0.00    -0.050 N 
ATOM      9  H13 UNL     1      26.183  92.549  73.242  1.00  0.00     0.277 HD
ATOM     10  H12 UNL     1      25.759  93.458  74.423  1.00  0.00     0.277 HD
ATOM     11  H11 UNL     1      25.967  91.816  74.744  1.00  0.00     0.277 HD
ENDBRANCH   4   8
BRANCH   5  12
HETATM   12  O2  UNL     1      22.285  93.566  74.062  1.00  0.00    -0.391 OA
ATOM     13  H2  UNL     1      22.677  94.275  73.566  1.00  0.00     0.210 HD
ENDBRANCH   5  12
TORSDOF 2
ENDMDL
MODEL 3
REMARK VINA RESULT: -4.636903754      3.190      3.394
REMARK  2 active torsions:
REMARK  status: ('A' for Active; 'I' for Inactive)
REMARK    1  A    between atoms: C3_4  and  N1_5 
REMARK    2  A    between atoms: C4_9  and  O2_10 
ROOT
HETATM    1  C1  UNL     1      21.333  89.698  75.530  1.00  0.00     0.040 C 
HETATM    2  C2  UNL     1      20.052  89.448  74.845  1.00  0.00     0.126 C 
HETATM    3  O1  UNL     1      20.190  89.156  73.474  1.00  0.00    -0.352 OA
HETATM    4  C3  UNL     1      18.889  89.157  72.987  1.00  0.00     0.348 C 
HETATM    5  C4  UNL     1      18.077  90.074  73.845  1.00  0.00     0.180 C 
HETATM    6  C5  UNL     1      19.184  90.707  74.704  1.00  0.00     0.043 C 
HETATM    7  C6  UNL     1      18.671  91.198  76.005  1.00  0.00     0.015 C 
ENDROOT
BRANCH   4   8
HETATM    8  N1  UNL     1      18.838  89.557  71.584  1.00  0.00    -0.050 N 
ATOM      9  H13 UNL     1      19.196  88.823  70.974  1.00  0.00     0.277 HD
ATOM     10  H12 UNL     1      17.878  89.594  71.242  1.00  0.00     0.277 HD
ATOM     11  H11 UNL     1      19.324  90.441  71.426  1.00  0.00     0.277 HD
ENDBRANCH   4   8
BRANCH   5  12
HETATM   12  O2  UNL     1      17.327  89.290  74.717  1.00  0.00    -0.391 OA
ATOM     13  H2  UNL     1      17.032  88.523  74.240  1.00  0.00     0.210 HD
ENDBRANCH   5  12
TORSDOF 2
ENDMDL
MODEL 4
REMARK VINA RESULT: -4.636232689      2.606      3.652
REMARK  2 active torsions:
REMARK  status: ('A' for Active; 'I' for Inactive)
REMARK    1  A    between atoms: C3_4  and  N1_5 
REMARK    2  A    between atoms: C4_9  and  O2_10 
ROOT
HETATM    1  C1  UNL     1      25.974  92.109  73.879  1.00  0.00     0.040 C 
HETATM    2  C2  UNL     1      24.515  92.046  73.680  1.00  0.00     0.126 C 
HETATM    3  O1  UNL     1      23.792  92.924  74.510  1.00  0.00    -0.352 OA
HETATM    4  C3  UNL     1      22.463  92.569  74.316  1.00  0.00     0.348 C 
HETATM    5  C4  UNL     1      22.424  91.122  73.937  1.00  0.00     0.180 C 
HETATM    6  C5  UNL     1      23.892  90.731  74.173  1.00  0.00     0.043 C 
HETATM    7  C6  UNL     1      24.299  89.563  73.356  1.00  0.00     0.015 C 
ENDROOT
BRANCH   4   8
HETATM    8  N1  UNL     1      21.655  92.829  75.504  1.00  0.00    -0.050 N 
ATOM      9  H13 UNL     1      22.234  93.115  76.293  1.00  0.00     0.277 HD
ATOM     10  H12 UNL     1      21.101  93.679  75.397  1.00  0.00     0.277 HD
ATOM     11  H11 UNL     1      21.068  92.029  75.744  1.00  0.00     0.277 HD
ENDBRANCH   4   8
BRANCH   5  12
HETATM   12  O2  UNL     1      22.231  91.046  72.560  1.00  0.00    -0.391 OA
ATOM     13  H2  UNL     1      21.607  90.350  72.391  1.00  0.00     0.210 HD
ENDBRANCH   5  12
TORSDOF 2
ENDMDL
MODEL 5
REMARK VINA RESULT: -4.616201342      1.669      1.741
REMARK  2 active torsions:
REMARK  status: ('A' for Active; 'I' for Inactive)
REMARK    1  A    between atoms: C3_4  and  N1_5 
REMARK    2  A    between atoms: C4_9  and  O2_10 
ROOT
HETATM    1  C1  UNL     1      22.002  91.001  77.967  1.00  0.00     0.040 C 
HETATM    2  C2  UNL     1      22.024  91.241  76.513  1.00  0.00     0.126 C 
HETATM    3  O1  UNL     1      23.152  91.962  76.075  1.00  0.00    -0.352 OA
HETATM    4  C3  UNL     1      22.882  92.251  74.743  1.00  0.00     0.348 C 
HETATM    5  C4  UNL     1      21.396  92.314  74.578  1.00  0.00     0.180 C 
HETATM    6  C5  UNL     1      20.948  92.232  76.046  1.00  0.00     0.043 C 
HETATM    7  C6  UNL     1      19.574  91.692  76.183  1.00  0.00     0.015 C 
ENDROOT
BRANCH   4   8
HETATM    8  N1  UNL     1      23.518  93.496  74.321  1.00  0.00    -0.050 N 
ATOM      9  H13 UNL     1      23.672  93.512  73.313  1.00  0.00     0.277 HD
ATOM     10  H12 UNL     1      22.876  94.284  74.396  1.00  0.00     0.277 HD
ATOM     11  H11 UNL     1      24.384  93.669  74.832  1.00  0.00     0.277 HD
ENDBRANCH   4   8
BRANCH   5  12
HETATM   12  O2  UNL     1      20.980  91.123  73.990  1.00  0.00    -0.391 OA
ATOM     13  H2  UNL     1      21.756  90.634  73.740  1.00  0.00     0.210 HD
ENDBRANCH   5  12
TORSDOF 2
ENDMDL
