MODEL 1
REMARK VINA RESULT: -4.529700633      0.000      0.000
REMARK  2 active torsions:
REMARK  status: ('A' for Active; 'I' for Inactive)
REMARK    1  A    between atoms: C5_6  and  N1_7 
REMARK    2  A    between atoms: C6_11  and  N2_12 
ROOT
HETATM    1  C1  UNL     1      21.964  89.565  77.134  1.00  0.00     0.014 C 
HETATM    2  C2  UNL     1      22.566  90.562  76.134  1.00  0.00     0.038 C 
HETATM    3  C3  UNL     1      22.176  91.971  76.444  1.00  0.00     0.174 C 
HETATM    4  O1  UNL     1      21.596  92.657  75.423  1.00  0.00    -0.389 OA
HETATM    5  C4  UNL     1      22.194  92.528  74.196  1.00  0.00     0.202 C 
HETATM    6  C5  UNL     1      22.289  91.114  73.698  1.00  0.00     0.237 C 
HETATM    7  C6  UNL     1      22.170  90.091  74.777  1.00  0.00     0.221 C 
ENDROOT
BRANCH   6   8
HETATM    8  N1  UNL     1      23.537  90.906  72.997  1.00  0.00    -0.071 N 
ATOM      9  H13 UNL     1      23.420  90.297  72.187  1.00  0.00     0.274 HD
ATOM     10  H12 UNL     1      23.844  91.749  72.511  1.00  0.00     0.274 HD
ATOM     11  H11 UNL     1      24.251  90.555  73.635  1.00  0.00     0.274 HD
ENDBRANCH   6   8
BRANCH   7  12
HETATM   12  N2  UNL     1      20.813  89.534  74.815  1.00  0.00    -0.072 N 
ATOM     13  H23 UNL     1      20.138  90.137  74.345  1.00  0.00     0.274 HD
ATOM     14  H22 UNL     1      20.720  88.713  74.216  1.00  0.00     0.274 HD
ATOM     15  H21 UNL     1      20.544  89.337  75.779  1.00  0.00     0.274 HD
ENDBRANCH   7  12
TORSDOF 2
ENDMDL
MODEL 2
REMARK VINA RESULT: -4.487332600      1.650      1.816
REMARK  2 active torsions:
REMARK  status: ('A' for Active; 'I' for Inactive)
REMARK    1  A    between atoms: C5_6  and  N1_7 
REMARK    2  A    between atoms: C6_11  and  N2_12 
ROOT
HETATM    1  C1  UNL     1      19.911  92.033  76.529  1.00  0.00     0.014 C 
HETATM    2  C2  UNL     1      21.244  91.752  75.821  1.00  0.00     0.038 C 
HETATM    3  C3  UNL     1      21.890  93.005  75.326  1.00  0.00     0.174 C 
HETATM    4  O1  UNL     1      22.207  93.018  74.003  1.00  0.00    -0.389 OA
HETATM    5  C4  UNL     1      22.806  91.883  73.518  1.00  0.00     0.202 C 
HETATM    6  C5  UNL     1      21.998  90.630  73.703  1.00  0.00     0.237 C 
HETATM    7  C6  UNL     1      20.958  90.740  74.765  1.00  0.00     0.221 C 
ENDROOT
BRANCH   6   8
HETATM    8  N1  UNL     1      22.861  89.512  74.013  1.00  0.00    -0.071 N 
ATOM      9  H13 UNL     1      23.756  89.576  73.527  1.00  0.00     0.274 HD
ATOM     10  H12 UNL     1      23.206  89.555  74.973  1.00  0.00     0.274 HD
ATOM     11  H11 UNL     1      22.387  88.630  73.821  1.00  0.00     0.274 HD
ENDBRANCH   6   8
BRANCH   7  12
HETATM   12  N2  UNL     1      19.638  90.992  74.174  1.00  0.00    -0.072 N 
ATOM     13  H23 UNL     1      18.890  90.919  74.862  1.00  0.00     0.274 HD
ATOM     14  H22 UNL     1      19.513  91.972  73.921  1.00  0.00     0.274 HD
ATOM     15  H21 UNL     1      19.488  90.370  73.379  1.00  0.00     0.274 HD
ENDBRANCH   7  12
TORSDOF 2
ENDMDL
MODEL 3
REMARK VINA RESULT: -4.413750009      1.393      2.894
REMARK  2 active torsions:
REMARK  status: ('A' for Active; 'I' for Inactive)
REMARK    1  A    between atoms: C5_6  and  N1_7 
REMARK    2  A    between atoms: C6_11  and  N2_12 
ROOT
HETATM    1  C1  UNL     1      23.583  92.895  74.203  1.00  0.00     0.014 C 
HETATM    2  C2  UNL     1      22.379  92.006  74.545  1.00  0.00     0.038 C 
HETATM    3  C3  UNL     1      22.455  91.471  75.938  1.00  0.00     0.174 C 
HETATM    4  O1  UNL     1      22.360  90.119  76.053  1.00  0.00    -0.389 OA
HETATM    5  C4  UNL     1      21.378  89.520  75.307  1.00  0.00     0.202 C 
HETATM    6  C5  UNL     1      21.485  89.769  73.829  1.00  0.00     0.237 C 
HETATM    7  C6  UNL     1      22.307  90.964  73.482  1.00  0.00     0.221 C 
ENDROOT
BRANCH   6   8
HETATM    8  N1  UNL     1      20.172  89.923  73.244  1.00  0.00    -0.071 N 
ATOM      9  H13 UNL     1      19.443  89.526  73.838  1.00  0.00     0.274 HD
ATOM     10  H12 UNL     1      19.864  90.896  73.256  1.00  0.00     0.274 HD
ATOM     11  H11 UNL     1      20.151  89.530  72.303  1.00  0.00     0.274 HD
ENDBRANCH   6   8
BRANCH   7  12
HETATM   12  N2  UNL     1      23.660  90.564  73.078  1.00  0.00    -0.072 N 
ATOM     13  H23 UNL     1      24.268  91.368  72.927  1.00  0.00     0.274 HD
ATOM     14  H22 UNL     1      24.175  90.131  73.845  1.00  0.00     0.274 HD
ATOM     15  H21 UNL     1      23.614  89.959  72.259  1.00  0.00     0.274 HD
ENDBRANCH   7  12
TORSDOF 2
ENDMDL
MODEL 4
REMARK VINA RESULT: -4.380193933      1.654      2.506
REMARK  2 active torsions:
REMARK  status: ('A' for Active; 'I' for Inactive)
REMARK    1  A    between atoms: C5_6  and  N1_7 
REMARK    2  A    between atoms: C6_11  and  N2_12 
ROOT
HETATM    1  C1  UNL     1      23.769  89.167  73.477  1.00  0.00     0.014 C 
HETATM    2  C2  UNL     1      23.589  90.398  74.376  1.00  0.00     0.038 C 
HETATM    3  C3  UNL     1      22.733  90.103  75.565  1.00  0.00     0.174 C 
HETATM    4  O1  UNL     1      21.661  90.923  75.734  1.00  0.00    -0.389 OA
HETATM    5  C4  UNL     1      21.899  92.264  75.570  1.00  0.00     0.202 C 
HETATM    6  C5  UNL     1      22.452  92.635  74.223  1.00  0.00     0.237 C 
HETATM    7  C6  UNL     1      23.082  91.492  73.501  1.00  0.00     0.221 C 
ENDROOT
BRANCH   6   8
HETATM    8  N1  UNL     1      23.426  93.696  74.350  1.00  0.00    -0.071 N 
ATOM      9  H13 UNL     1      23.706  93.840  75.321  1.00  0.00     0.274 HD
ATOM     10  H12 UNL     1      24.333  93.425  73.969  1.00  0.00     0.274 HD
ATOM     11  H11 UNL     1      23.077  94.554  73.924  1.00  0.00     0.274 HD
ENDBRANCH   6   8
BRANCH   7  12
HETATM   12  N2  UNL     1      22.162  90.945  72.496  1.00  0.00    -0.072 N 
ATOM     13  H23 UNL     1      22.575  90.167  71.983  1.00  0.00     0.274 HD
ATOM     14  H22 UNL     1      21.383  90.444  72.924  1.00  0.00     0.274 HD
ATOM     15  H21 UNL     1      21.844  91.687  71.874  1.00  0.00     0.274 HD
ENDBRANCH   7  12
TORSDOF 2
ENDMDL
MODEL 5
REMARK VINA RESULT: -4.308912587      1.019      1.054
REMARK  2 active torsions:
REMARK  status: ('A' for Active; 'I' for Inactive)
REMARK    1  A    between atoms: C5_6  and  N1_7 
REMARK    2  A    between atoms: C6_11  and  N2_12 
ROOT
HETATM    1  C1  UNL     1      20.659  89.187  75.795  1.00  0.00     0.014 C 
HETATM    2  C2  UNL     1      21.817  90.099  75.369  1.00  0.00     0.038 C 
HETATM    3  C3  UNL     1      21.715  91.457  75.983  1.00  0.00     0.174 C 
HETATM    4  O1  UNL     1      21.743  92.499  75.109  1.00  0.00    -0.389 OA
HETATM    5  C4  UNL     1      22.694  92.432  74.123  1.00  0.00     0.202 C 
HETATM    6  C5  UNL     1      22.599  91.210  73.254  1.00  0.00     0.237 C 
HETATM    7  C6  UNL     1      21.837  90.090  73.879  1.00  0.00     0.221 C 
ENDROOT
BRANCH   6   8
HETATM    8  N1  UNL     1      23.918  90.734  72.902  1.00  0.00    -0.071 N 
ATOM      9  H13 UNL     1      24.563  91.503  72.720  1.00  0.00     0.274 HD
ATOM     10  H12 UNL     1      24.397  90.319  73.701  1.00  0.00     0.274 HD
ATOM     11  H11 UNL     1      23.866  90.088  72.114  1.00  0.00     0.274 HD
ENDBRANCH   6   8
BRANCH   7  12
HETATM   12  N2  UNL     1      20.466  90.042  73.359  1.00  0.00    -0.072 N 
ATOM     13  H23 UNL     1      19.785  89.843  74.091  1.00  0.00     0.274 HD
ATOM     14  H22 UNL     1      20.127  90.966  73.088  1.00  0.00     0.274 HD
ATOM     15  H21 UNL     1      20.407  89.373  72.591  1.00  0.00     0.274 HD
ENDBRANCH   7  12
TORSDOF 2
ENDMDL
