MODEL 1
REMARK VINA RESULT: -8.117140010      0.000      0.000
REMARK  18 active torsions:
REMARK  status: ('A' for Active; 'I' for Inactive)
REMARK    1  A    between atoms: N1_1  and  C1_5 
REMARK    2  A    between atoms: C1_5  and  C2_6 
REMARK    3  A    between atoms: C2_6  and  C3_7 
REMARK    4  A    between atoms: C3_7  and  C4_8 
REMARK    5  A    between atoms: C4_8  and  C5_9 
REMARK    6  A    between atoms: C5_9  and  N2_10 
REMARK    7  A    between atoms: C5_9  and  C6_14 
REMARK       I    between atoms: C6_14  and  N3_16 
REMARK    8  A    between atoms: N3_16  and  C7_18 
REMARK    9  A    between atoms: C7_18  and  C8_19 
REMARK   10  A    between atoms: C8_19  and  C9_20 
REMARK   11  A    between atoms: C9_20  and  C10_21 
REMARK   12  A    between atoms: C10_21  and  C11_22 
REMARK   13  A    between atoms: C11_22  and  C12_23 
REMARK   14  A    between atoms: C11_22  and  C15_30 
REMARK   15  A    between atoms: C12_23  and  C13_24 
REMARK   16  A    between atoms: C13_24  and  N4_25 
REMARK       I    between atoms: N4_25  and  C14_27 
REMARK   17  A    between atoms: N7_33  and  C17_34 
REMARK   18  A    between atoms: C17_34  and  C18_35 
ROOT
HETATM    1  C11 UNL     1      -8.861  16.315  -1.632  1.00  0.00    -0.057 C 
ENDROOT
BRANCH   1   2
HETATM    2  C10 UNL     1      -9.378  15.962  -0.286  1.00  0.00     0.036 C 
BRANCH   2   3
HETATM    3  C9  UNL     1     -10.811  15.882  -0.021  1.00  0.00     0.006 C 
BRANCH   3   4
HETATM    4  C8  UNL     1     -11.452  14.885   0.849  1.00  0.00     0.020 C 
BRANCH   4   5
HETATM    5  C7  UNL     1     -12.091  15.280   2.130  1.00  0.00     0.122 C 
BRANCH   5   6
HETATM    6  N3  UNL     1     -11.386  16.436   2.712  1.00  0.00    -0.359 N 
HETATM    7  C6  UNL     1     -10.461  16.214   3.751  1.00  0.00     0.248 C 
HETATM    8  O1  UNL     1     -10.251  15.064   4.181  1.00  0.00    -0.271 OA
ATOM      9  H3  UNL     1     -11.564  17.380   2.369  1.00  0.00     0.162 HD
BRANCH   7  10
HETATM   10  C5  UNL     1      -9.730  17.345   4.342  1.00  0.00     0.274 C 
BRANCH  10  11
HETATM   11  C4  UNL     1      -8.647  16.932   5.332  1.00  0.00     0.042 C 
BRANCH  11  12
HETATM   12  C3  UNL     1      -8.889  17.364   6.731  1.00  0.00     0.004 C 
BRANCH  12  13
HETATM   13  C2  UNL     1      -9.326  16.199   7.579  1.00  0.00     0.027 C 
BRANCH  13  14
HETATM   14  C1  UNL     1     -10.812  16.183   7.707  1.00  0.00     0.229 C 
BRANCH  14  15
HETATM   15  N1  UNL     1     -11.393  15.010   7.044  1.00  0.00    -0.079 N 
ATOM     16  H13 UNL     1     -12.343  14.830   7.368  1.00  0.00     0.274 HD
ATOM     17  H12 UNL     1     -11.595  15.196   6.061  1.00  0.00     0.274 HD
ATOM     18  H11 UNL     1     -10.799  14.188   7.154  1.00  0.00     0.274 HD
ENDBRANCH  14  15
ENDBRANCH  13  14
ENDBRANCH  12  13
ENDBRANCH  11  12
ENDBRANCH  10  11
BRANCH  10  19
HETATM   19  N2  UNL     1      -8.985  18.082   3.296  1.00  0.00    -0.067 N 
ATOM     20  H23 UNL     1      -9.519  18.821   2.839  1.00  0.00     0.275 HD
ATOM     21  H22 UNL     1      -8.246  18.687   3.653  1.00  0.00     0.275 HD
ATOM     22  H21 UNL     1      -8.661  17.346   2.668  1.00  0.00     0.275 HD
ENDBRANCH  10  19
ENDBRANCH   7  10
ENDBRANCH   5   6
ENDBRANCH   4   5
ENDBRANCH   3   4
ENDBRANCH   2   3
ENDBRANCH   1   2
BRANCH   1  23
HETATM   23  C12 UNL     1      -9.190  15.450  -2.761  1.00  0.00    -0.003 C 
BRANCH  23  24
HETATM   24  C13 UNL     1     -10.024  15.870  -3.885  1.00  0.00     0.149 C 
BRANCH  24  25
HETATM   25  N4  UNL     1      -9.434  17.048  -4.565  1.00  0.00    -0.363 N 
HETATM   26  C14 UNL     1      -9.353  17.181  -5.818  1.00  0.00     0.197 C 
HETATM   27  N5  UNL     1      -8.765  18.356  -6.347  1.00  0.00    -0.067 NA
HETATM   28  N6  UNL     1      -9.825  16.206  -6.726  1.00  0.00    -0.067 NA
ATOM     29  H4  UNL     1      -9.069  17.801  -3.982  1.00  0.00     0.162 HD
ENDBRANCH  24  25
ENDBRANCH  23  24
ENDBRANCH   1  23
BRANCH   1  30
HETATM   30  C15 UNL     1      -7.442  16.784  -1.484  1.00  0.00     0.201 C 
HETATM   31  C16 UNL     1      -6.954  17.849  -2.328  1.00  0.00     0.247 C 
HETATM   32  O2  UNL     1      -7.544  18.563  -3.158  1.00  0.00    -0.271 OA
HETATM   33  N7  UNL     1      -5.544  18.146  -2.195  1.00  0.00    -0.281 N 
HETATM   34  C25 UNL     1      -4.769  17.631  -1.138  1.00  0.00     0.238 C 
HETATM   35  O3  UNL     1      -3.531  17.390  -1.356  1.00  0.00    -0.272 OA
HETATM   36  C26 UNL     1      -5.253  17.341   0.212  1.00  0.00     0.213 C 
HETATM   37  S1  UNL     1      -7.023  17.199   0.193  1.00  0.00     0.041 S 
HETATM   38  O4  UNL     1      -7.604  18.708   0.645  1.00  0.00    -0.256 OA
BRANCH  33  39
HETATM   39  C17 UNL     1      -4.914  18.995  -3.186  1.00  0.00     0.193 C 
BRANCH  39  40
HETATM   40  C18 UNL     1      -4.782  18.374  -4.503  1.00  0.00     0.039 A 
HETATM   41  N8  UNL     1      -5.699  18.393  -5.477  1.00  0.00    -0.366 N 
HETATM   42  C19 UNL     1      -5.228  17.724  -6.535  1.00  0.00     0.101 A 
ATOM     43  H8  UNL     1      -6.611  18.845  -5.422  1.00  0.00     0.165 HD
HETATM   44  C20 UNL     1      -3.980  17.267  -6.228  1.00  0.00     0.007 A 
HETATM   45  C21 UNL     1      -3.080  16.537  -6.951  1.00  0.00     0.101 A 
HETATM   46  C24 UNL     1      -3.689  17.670  -4.949  1.00  0.00     0.002 A 
HETATM   47  N9  UNL     1      -1.901  16.203  -6.428  1.00  0.00    -0.374 N 
HETATM   48  C22 UNL     1      -1.596  16.588  -5.180  1.00  0.00     0.088 A 
ATOM     49  H9  UNL     1      -1.234  15.657  -6.974  1.00  0.00     0.164 HD
HETATM   50  C23 UNL     1      -2.468  17.315  -4.432  1.00  0.00     0.031 A 
ENDBRANCH  39  40
ENDBRANCH  33  39
ENDBRANCH   1  30
TORSDOF 18
ENDMDL
MODEL 2
REMARK VINA RESULT: -8.083485685      1.903      3.670
REMARK  18 active torsions:
REMARK  status: ('A' for Active; 'I' for Inactive)
REMARK    1  A    between atoms: N1_1  and  C1_5 
REMARK    2  A    between atoms: C1_5  and  C2_6 
REMARK    3  A    between atoms: C2_6  and  C3_7 
REMARK    4  A    between atoms: C3_7  and  C4_8 
REMARK    5  A    between atoms: C4_8  and  C5_9 
REMARK    6  A    between atoms: C5_9  and  N2_10 
REMARK    7  A    between atoms: C5_9  and  C6_14 
REMARK       I    between atoms: C6_14  and  N3_16 
REMARK    8  A    between atoms: N3_16  and  C7_18 
REMARK    9  A    between atoms: C7_18  and  C8_19 
REMARK   10  A    between atoms: C8_19  and  C9_20 
REMARK   11  A    between atoms: C9_20  and  C10_21 
REMARK   12  A    between atoms: C10_21  and  C11_22 
REMARK   13  A    between atoms: C11_22  and  C12_23 
REMARK   14  A    between atoms: C11_22  and  C15_30 
REMARK   15  A    between atoms: C12_23  and  C13_24 
REMARK   16  A    between atoms: C13_24  and  N4_25 
REMARK       I    between atoms: N4_25  and  C14_27 
REMARK   17  A    between atoms: N7_33  and  C17_34 
REMARK   18  A    between atoms: C17_34  and  C18_35 
ROOT
HETATM    1  C11 UNL     1      -9.555  16.927  -1.144  1.00  0.00    -0.057 C 
ENDROOT
BRANCH   1   2
HETATM    2  C10 UNL     1     -10.452  15.749  -1.041  1.00  0.00     0.036 C 
BRANCH   2   3
HETATM    3  C9  UNL     1     -10.411  14.863   0.118  1.00  0.00     0.006 C 
BRANCH   3   4
HETATM    4  C8  UNL     1     -11.422  14.824   1.185  1.00  0.00     0.020 C 
BRANCH   4   5
HETATM    5  C7  UNL     1     -11.376  15.776   2.323  1.00  0.00     0.122 C 
BRANCH   5   6
HETATM    6  N3  UNL     1     -10.214  15.483   3.182  1.00  0.00    -0.359 N 
HETATM    7  C6  UNL     1      -9.825  16.435   4.144  1.00  0.00     0.248 C 
HETATM    8  O1  UNL     1     -10.441  17.511   4.260  1.00  0.00    -0.271 OA
ATOM      9  H3  UNL     1      -9.702  14.608   3.081  1.00  0.00     0.162 HD
BRANCH   7  10
HETATM   10  C5  UNL     1      -8.680  16.166   5.027  1.00  0.00     0.274 C 
BRANCH  10  11
HETATM   11  C4  UNL     1      -8.696  16.967   6.323  1.00  0.00     0.042 C 
BRANCH  11  12
HETATM   12  C3  UNL     1      -9.179  16.217   7.509  1.00  0.00     0.004 C 
BRANCH  12  13
HETATM   13  C2  UNL     1     -10.490  16.778   7.996  1.00  0.00     0.027 C 
BRANCH  13  14
HETATM   14  C1  UNL     1     -11.572  15.764   7.849  1.00  0.00     0.229 C 
BRANCH  14  15
HETATM   15  N1  UNL     1     -12.171  15.812   6.509  1.00  0.00    -0.079 N 
ATOM     16  H13 UNL     1     -12.904  16.518   6.453  1.00  0.00     0.274 HD
ATOM     17  H12 UNL     1     -11.523  16.202   5.824  1.00  0.00     0.274 HD
ATOM     18  H11 UNL     1     -12.512  14.895   6.222  1.00  0.00     0.274 HD
ENDBRANCH  14  15
ENDBRANCH  13  14
ENDBRANCH  12  13
ENDBRANCH  11  12
ENDBRANCH  10  11
BRANCH  10  19
HETATM   19  N2  UNL     1      -8.701  14.758   5.486  1.00  0.00    -0.067 N 
ATOM     20  H23 UNL     1      -8.564  14.640   6.490  1.00  0.00     0.275 HD
ATOM     21  H22 UNL     1      -9.619  14.316   5.449  1.00  0.00     0.275 HD
ATOM     22  H21 UNL     1      -7.992  14.307   4.908  1.00  0.00     0.275 HD
ENDBRANCH  10  19
ENDBRANCH   7  10
ENDBRANCH   5   6
ENDBRANCH   4   5
ENDBRANCH   3   4
ENDBRANCH   2   3
ENDBRANCH   1   2
BRANCH   1  23
HETATM   23  C12 UNL     1      -9.802  18.077  -0.278  1.00  0.00    -0.003 C 
BRANCH  23  24
HETATM   24  C13 UNL     1      -9.037  18.355   0.936  1.00  0.00     0.149 C 
BRANCH  24  25
HETATM   25  N4  UNL     1      -7.581  18.244   0.675  1.00  0.00    -0.363 N 
HETATM   26  C14 UNL     1      -6.883  17.231   0.955  1.00  0.00     0.197 C 
HETATM   27  N5  UNL     1      -5.498  17.248   0.656  1.00  0.00    -0.067 NA
HETATM   28  N6  UNL     1      -7.419  16.070   1.557  1.00  0.00    -0.067 NA
ATOM     29  H4  UNL     1      -7.113  19.040   0.241  1.00  0.00     0.162 HD
ENDBRANCH  24  25
ENDBRANCH  23  24
ENDBRANCH   1  23
BRANCH   1  30
HETATM   30  C15 UNL     1      -9.270  17.179  -2.596  1.00  0.00     0.201 C 
HETATM   31  C16 UNL     1      -7.991  17.724  -2.985  1.00  0.00     0.247 C 
HETATM   32  O2  UNL     1      -6.973  17.969  -2.313  1.00  0.00    -0.271 OA
HETATM   33  N7  UNL     1      -7.857  18.043  -4.391  1.00  0.00    -0.281 N 
HETATM   34  C25 UNL     1      -8.792  17.605  -5.348  1.00  0.00     0.238 C 
HETATM   35  O3  UNL     1      -9.004  18.344  -6.371  1.00  0.00    -0.272 OA
HETATM   36  C26 UNL     1      -9.559  16.361  -5.284  1.00  0.00     0.213 C 
HETATM   37  S1  UNL     1      -9.574  15.754  -3.615  1.00  0.00     0.041 S 
HETATM   38  O4  UNL     1      -8.330  14.628  -3.531  1.00  0.00    -0.256 OA
BRANCH  33  39
HETATM   39  C17 UNL     1      -6.728  18.843  -4.819  1.00  0.00     0.193 C 
BRANCH  39  40
HETATM   40  C18 UNL     1      -5.767  18.118  -5.648  1.00  0.00     0.039 A 
HETATM   41  N8  UNL     1      -5.972  17.691  -6.900  1.00  0.00    -0.366 N 
HETATM   42  C19 UNL     1      -4.871  17.072  -7.337  1.00  0.00     0.101 A 
ATOM     43  H8  UNL     1      -6.831  17.819  -7.434  1.00  0.00     0.165 HD
HETATM   44  C20 UNL     1      -3.940  17.104  -6.341  1.00  0.00     0.007 A 
HETATM   45  C21 UNL     1      -2.665  16.619  -6.277  1.00  0.00     0.101 A 
HETATM   46  C24 UNL     1      -4.494  17.761  -5.271  1.00  0.00     0.002 A 
HETATM   47  N9  UNL     1      -1.934  16.773  -5.173  1.00  0.00    -0.374 N 
HETATM   48  C22 UNL     1      -2.457  17.414  -4.116  1.00  0.00     0.088 A 
ATOM     49  H9  UNL     1      -0.984  16.407  -5.132  1.00  0.00     0.164 HD
HETATM   50  C23 UNL     1      -3.723  17.910  -4.145  1.00  0.00     0.031 A 
ENDBRANCH  39  40
ENDBRANCH  33  39
ENDBRANCH   1  30
TORSDOF 18
ENDMDL
MODEL 3
REMARK VINA RESULT: -8.064022037      3.264     11.594
REMARK  18 active torsions:
REMARK  status: ('A' for Active; 'I' for Inactive)
REMARK    1  A    between atoms: N1_1  and  C1_5 
REMARK    2  A    between atoms: C1_5  and  C2_6 
REMARK    3  A    between atoms: C2_6  and  C3_7 
REMARK    4  A    between atoms: C3_7  and  C4_8 
REMARK    5  A    between atoms: C4_8  and  C5_9 
REMARK    6  A    between atoms: C5_9  and  N2_10 
REMARK    7  A    between atoms: C5_9  and  C6_14 
REMARK       I    between atoms: C6_14  and  N3_16 
REMARK    8  A    between atoms: N3_16  and  C7_18 
REMARK    9  A    between atoms: C7_18  and  C8_19 
REMARK   10  A    between atoms: C8_19  and  C9_20 
REMARK   11  A    between atoms: C9_20  and  C10_21 
REMARK   12  A    between atoms: C10_21  and  C11_22 
REMARK   13  A    between atoms: C11_22  and  C12_23 
REMARK   14  A    between atoms: C11_22  and  C15_30 
REMARK   15  A    between atoms: C12_23  and  C13_24 
REMARK   16  A    between atoms: C13_24  and  N4_25 
REMARK       I    between atoms: N4_25  and  C14_27 
REMARK   17  A    between atoms: N7_33  and  C17_34 
REMARK   18  A    between atoms: C17_34  and  C18_35 
ROOT
HETATM    1  C11 UNL     1      -9.659  15.518   3.556  1.00  0.00    -0.057 C 
ENDROOT
BRANCH   1   2
HETATM    2  C10 UNL     1      -9.030  15.467   2.212  1.00  0.00     0.036 C 
BRANCH   2   3
HETATM    3  C9  UNL     1      -7.967  16.393   1.836  1.00  0.00     0.006 C 
BRANCH   3   4
HETATM    4  C8  UNL     1      -8.078  17.859   1.869  1.00  0.00     0.020 C 
BRANCH   4   5
HETATM    5  C7  UNL     1      -7.207  18.715   1.024  1.00  0.00     0.122 C 
BRANCH   5   6
HETATM    6  N3  UNL     1      -7.596  18.591  -0.393  1.00  0.00    -0.359 N 
HETATM    7  C6  UNL     1      -6.726  17.927  -1.279  1.00  0.00     0.248 C 
HETATM    8  O1  UNL     1      -5.641  17.463  -0.879  1.00  0.00    -0.271 OA
ATOM      9  H3  UNL     1      -8.478  18.979  -0.725  1.00  0.00     0.162 HD
BRANCH   7  10
HETATM   10  C5  UNL     1      -7.092  17.772  -2.695  1.00  0.00     0.274 C 
BRANCH  10  11
HETATM   11  C4  UNL     1      -8.474  17.169  -2.915  1.00  0.00     0.042 C 
BRANCH  11  12
HETATM   12  C3  UNL     1      -8.619  15.766  -2.454  1.00  0.00     0.004 C 
BRANCH  12  13
HETATM   13  C2  UNL     1      -9.725  15.651  -1.438  1.00  0.00     0.027 C 
BRANCH  13  14
HETATM   14  C1  UNL     1     -10.640  16.824  -1.538  1.00  0.00     0.229 C 
BRANCH  14  15
HETATM   15  N1  UNL     1     -10.895  17.417  -0.219  1.00  0.00    -0.079 N 
ATOM     16  H13 UNL     1     -10.250  17.057   0.484  1.00  0.00     0.274 HD
ATOM     17  H12 UNL     1     -10.623  18.401  -0.193  1.00  0.00     0.274 HD
ATOM     18  H11 UNL     1     -11.866  17.289   0.064  1.00  0.00     0.274 HD
ENDBRANCH  14  15
ENDBRANCH  13  14
ENDBRANCH  12  13
ENDBRANCH  11  12
ENDBRANCH  10  11
BRANCH  10  19
HETATM   19  N2  UNL     1      -7.179  19.095  -3.354  1.00  0.00    -0.067 N 
ATOM     20  H23 UNL     1      -8.110  19.337  -3.693  1.00  0.00     0.275 HD
ATOM     21  H22 UNL     1      -7.085  19.889  -2.721  1.00  0.00     0.275 HD
ATOM     22  H21 UNL     1      -6.465  19.048  -4.081  1.00  0.00     0.275 HD
ENDBRANCH  10  19
ENDBRANCH   7  10
ENDBRANCH   5   6
ENDBRANCH   4   5
ENDBRANCH   3   4
ENDBRANCH   2   3
ENDBRANCH   1   2
BRANCH   1  23
HETATM   23  C12 UNL     1      -8.797  15.539   4.734  1.00  0.00    -0.003 C 
BRANCH  23  24
HETATM   24  C13 UNL     1      -8.621  16.714   5.586  1.00  0.00     0.149 C 
BRANCH  24  25
HETATM   25  N4  UNL     1      -9.834  16.955   6.405  1.00  0.00    -0.363 N 
HETATM   26  C14 UNL     1      -9.935  16.668   7.630  1.00  0.00     0.197 C 
HETATM   27  N5  UNL     1     -11.150  16.949   8.303  1.00  0.00    -0.067 NA
HETATM   28  N6  UNL     1      -8.886  16.078   8.371  1.00  0.00    -0.067 NA
ATOM     29  H4  UNL     1     -10.640  17.380   5.948  1.00  0.00     0.162 HD
ENDBRANCH  24  25
ENDBRANCH  23  24
ENDBRANCH   1  23
BRANCH   1  30
HETATM   30  C15 UNL     1     -10.845  14.598   3.558  1.00  0.00     0.201 C 
HETATM   31  C16 UNL     1     -11.933  14.843   4.475  1.00  0.00     0.247 C 
HETATM   32  O2  UNL     1     -12.134  15.783   5.265  1.00  0.00    -0.271 OA
HETATM   33  N7  UNL     1     -12.971  13.835   4.486  1.00  0.00    -0.281 N 
HETATM   34  C25 UNL     1     -13.056  12.840   3.493  1.00  0.00     0.238 C 
HETATM   35  O3  UNL     1     -13.526  11.696   3.821  1.00  0.00    -0.272 OA
HETATM   36  C26 UNL     1     -12.651  12.993   2.095  1.00  0.00     0.213 C 
HETATM   37  S1  UNL     1     -11.551  14.378   1.941  1.00  0.00     0.041 S 
HETATM   38  O4  UNL     1     -12.514  15.674   1.480  1.00  0.00    -0.256 OA
BRANCH  33  39
HETATM   39  C17 UNL     1     -13.947  13.851   5.556  1.00  0.00     0.193 C 
BRANCH  39  40
HETATM   40  C18 UNL     1     -13.402  13.486   6.863  1.00  0.00     0.039 A 
HETATM   41  N8  UNL     1     -12.831  14.322   7.738  1.00  0.00    -0.366 N 
HETATM   42  C19 UNL     1     -12.455  13.632   8.820  1.00  0.00     0.101 A 
ATOM     43  H8  UNL     1     -12.702  15.324   7.600  1.00  0.00     0.165 HD
HETATM   44  C20 UNL     1     -12.796  12.325   8.631  1.00  0.00     0.007 A 
HETATM   45  C21 UNL     1     -12.636  11.224   9.424  1.00  0.00     0.101 A 
HETATM   46  C24 UNL     1     -13.393  12.222   7.400  1.00  0.00     0.002 A 
HETATM   47  N9  UNL     1     -13.057  10.027   9.016  1.00  0.00    -0.374 N 
HETATM   48  C22 UNL     1     -13.644   9.904   7.817  1.00  0.00     0.088 A 
ATOM     49  H9  UNL     1     -12.933   9.210   9.613  1.00  0.00     0.164 HD
HETATM   50  C23 UNL     1     -13.820  10.979   7.002  1.00  0.00     0.031 A 
ENDBRANCH  39  40
ENDBRANCH  33  39
ENDBRANCH   1  30
TORSDOF 18
ENDMDL
MODEL 4
REMARK VINA RESULT: -8.006453023      3.395     11.809
REMARK  18 active torsions:
REMARK  status: ('A' for Active; 'I' for Inactive)
REMARK    1  A    between atoms: N1_1  and  C1_5 
REMARK    2  A    between atoms: C1_5  and  C2_6 
REMARK    3  A    between atoms: C2_6  and  C3_7 
REMARK    4  A    between atoms: C3_7  and  C4_8 
REMARK    5  A    between atoms: C4_8  and  C5_9 
REMARK    6  A    between atoms: C5_9  and  N2_10 
REMARK    7  A    between atoms: C5_9  and  C6_14 
REMARK       I    between atoms: C6_14  and  N3_16 
REMARK    8  A    between atoms: N3_16  and  C7_18 
REMARK    9  A    between atoms: C7_18  and  C8_19 
REMARK   10  A    between atoms: C8_19  and  C9_20 
REMARK   11  A    between atoms: C9_20  and  C10_21 
REMARK   12  A    between atoms: C10_21  and  C11_22 
REMARK   13  A    between atoms: C11_22  and  C12_23 
REMARK   14  A    between atoms: C11_22  and  C15_30 
REMARK   15  A    between atoms: C12_23  and  C13_24 
REMARK   16  A    between atoms: C13_24  and  N4_25 
REMARK       I    between atoms: N4_25  and  C14_27 
REMARK   17  A    between atoms: N7_33  and  C17_34 
REMARK   18  A    between atoms: C17_34  and  C18_35 
ROOT
HETATM    1  C11 UNL     1      -9.614  15.595   3.502  1.00  0.00    -0.057 C 
ENDROOT
BRANCH   1   2
HETATM    2  C10 UNL     1      -8.974  15.576   2.162  1.00  0.00     0.036 C 
BRANCH   2   3
HETATM    3  C9  UNL     1      -7.808  16.402   1.868  1.00  0.00     0.006 C 
BRANCH   3   4
HETATM    4  C8  UNL     1      -7.820  17.869   1.760  1.00  0.00     0.020 C 
BRANCH   4   5
HETATM    5  C7  UNL     1      -7.818  18.542   0.436  1.00  0.00     0.122 C 
BRANCH   5   6
HETATM    6  N3  UNL     1      -9.007  18.142  -0.338  1.00  0.00    -0.359 N 
HETATM    7  C6  UNL     1      -8.832  17.362  -1.497  1.00  0.00     0.248 C 
HETATM    8  O1  UNL     1      -7.692  17.027  -1.872  1.00  0.00    -0.271 OA
ATOM      9  H3  UNL     1      -9.941  18.425  -0.039  1.00  0.00     0.162 HD
BRANCH   7  10
HETATM   10  C5  UNL     1      -9.999  16.934  -2.282  1.00  0.00     0.274 C 
BRANCH  10  11
HETATM   11  C4  UNL     1      -9.907  15.502  -2.797  1.00  0.00     0.042 C 
BRANCH  11  12
HETATM   12  C3  UNL     1      -9.501  15.380  -4.220  1.00  0.00     0.004 C 
BRANCH  12  13
HETATM   13  C2  UNL     1     -10.012  16.549  -5.021  1.00  0.00     0.027 C 
BRANCH  13  14
HETATM   14  C1  UNL     1      -8.889  17.200  -5.754  1.00  0.00     0.229 C 
BRANCH  14  15
HETATM   15  N1  UNL     1      -7.609  16.990  -5.068  1.00  0.00    -0.079 N 
ATOM     16  H13 UNL     1      -6.911  17.674  -5.361  1.00  0.00     0.274 HD
ATOM     17  H12 UNL     1      -7.669  17.240  -4.080  1.00  0.00     0.274 HD
ATOM     18  H11 UNL     1      -7.272  16.036  -5.193  1.00  0.00     0.274 HD
ENDBRANCH  14  15
ENDBRANCH  13  14
ENDBRANCH  12  13
ENDBRANCH  11  12
ENDBRANCH  10  11
BRANCH  10  19
HETATM   19  N2  UNL     1     -11.214  16.923  -1.437  1.00  0.00    -0.067 N 
ATOM     20  H23 UNL     1     -12.031  16.499  -1.878  1.00  0.00     0.275 HD
ATOM     21  H22 UNL     1     -11.173  16.281  -0.646  1.00  0.00     0.275 HD
ATOM     22  H21 UNL     1     -11.336  17.902  -1.179  1.00  0.00     0.275 HD
ENDBRANCH  10  19
ENDBRANCH   7  10
ENDBRANCH   5   6
ENDBRANCH   4   5
ENDBRANCH   3   4
ENDBRANCH   2   3
ENDBRANCH   1   2
BRANCH   1  23
HETATM   23  C12 UNL     1      -8.762  15.597   4.688  1.00  0.00    -0.003 C 
BRANCH  23  24
HETATM   24  C13 UNL     1      -8.615  16.749   5.575  1.00  0.00     0.149 C 
BRANCH  24  25
HETATM   25  N4  UNL     1      -9.843  16.950   6.382  1.00  0.00    -0.363 N 
HETATM   26  C14 UNL     1      -9.945  16.663   7.607  1.00  0.00     0.197 C 
HETATM   27  N5  UNL     1     -11.175  16.903   8.268  1.00  0.00    -0.067 NA
HETATM   28  N6  UNL     1      -8.883  16.111   8.359  1.00  0.00    -0.067 NA
ATOM     29  H4  UNL     1     -10.659  17.347   5.916  1.00  0.00     0.162 HD
ENDBRANCH  24  25
ENDBRANCH  23  24
ENDBRANCH   1  23
BRANCH   1  30
HETATM   30  C15 UNL     1     -10.794  14.666   3.474  1.00  0.00     0.201 C 
HETATM   31  C16 UNL     1     -11.903  14.901   4.367  1.00  0.00     0.247 C 
HETATM   32  O2  UNL     1     -12.128  15.836   5.156  1.00  0.00    -0.271 OA
HETATM   33  N7  UNL     1     -12.935  13.886   4.352  1.00  0.00    -0.281 N 
HETATM   34  C25 UNL     1     -12.990  12.894   3.354  1.00  0.00     0.238 C 
HETATM   35  O3  UNL     1     -13.459  11.745   3.667  1.00  0.00    -0.272 OA
HETATM   36  C26 UNL     1     -12.555  13.054   1.966  1.00  0.00     0.213 C 
HETATM   37  S1  UNL     1     -11.461  14.447   1.841  1.00  0.00     0.041 S 
HETATM   38  O4  UNL     1     -12.423  15.738   1.363  1.00  0.00    -0.256 OA
BRANCH  33  39
HETATM   39  C17 UNL     1     -13.934  13.891   5.400  1.00  0.00     0.193 C 
BRANCH  39  40
HETATM   40  C18 UNL     1     -13.423  13.496   6.711  1.00  0.00     0.039 A 
HETATM   41  N8  UNL     1     -12.869  14.311   7.617  1.00  0.00    -0.366 N 
HETATM   42  C19 UNL     1     -12.522  13.597   8.693  1.00  0.00     0.101 A 
ATOM     43  H8  UNL     1     -12.733  15.315   7.505  1.00  0.00     0.165 HD
HETATM   44  C20 UNL     1     -12.863  12.295   8.469  1.00  0.00     0.007 A 
HETATM   45  C21 UNL     1     -12.727  11.177   9.241  1.00  0.00     0.101 A 
HETATM   46  C24 UNL     1     -13.431  12.221   7.222  1.00  0.00     0.002 A 
HETATM   47  N9  UNL     1     -13.142   9.991   8.799  1.00  0.00    -0.374 N 
HETATM   48  C22 UNL     1     -13.701   9.896   7.583  1.00  0.00     0.088 A 
ATOM     49  H9  UNL     1     -13.036   9.161   9.380  1.00  0.00     0.164 HD
HETATM   50  C23 UNL     1     -13.853  10.988   6.787  1.00  0.00     0.031 A 
ENDBRANCH  39  40
ENDBRANCH  33  39
ENDBRANCH   1  30
TORSDOF 18
ENDMDL
MODEL 5
REMARK VINA RESULT: -7.969125777      1.507      1.926
REMARK  18 active torsions:
REMARK  status: ('A' for Active; 'I' for Inactive)
REMARK    1  A    between atoms: N1_1  and  C1_5 
REMARK    2  A    between atoms: C1_5  and  C2_6 
REMARK    3  A    between atoms: C2_6  and  C3_7 
REMARK    4  A    between atoms: C3_7  and  C4_8 
REMARK    5  A    between atoms: C4_8  and  C5_9 
REMARK    6  A    between atoms: C5_9  and  N2_10 
REMARK    7  A    between atoms: C5_9  and  C6_14 
REMARK       I    between atoms: C6_14  and  N3_16 
REMARK    8  A    between atoms: N3_16  and  C7_18 
REMARK    9  A    between atoms: C7_18  and  C8_19 
REMARK   10  A    between atoms: C8_19  and  C9_20 
REMARK   11  A    between atoms: C9_20  and  C10_21 
REMARK   12  A    between atoms: C10_21  and  C11_22 
REMARK   13  A    between atoms: C11_22  and  C12_23 
REMARK   14  A    between atoms: C11_22  and  C15_30 
REMARK   15  A    between atoms: C12_23  and  C13_24 
REMARK   16  A    between atoms: C13_24  and  N4_25 
REMARK       I    between atoms: N4_25  and  C14_27 
REMARK   17  A    between atoms: N7_33  and  C17_34 
REMARK   18  A    between atoms: C17_34  and  C18_35 
ROOT
HETATM    1  C11 UNL     1      -9.198  16.004  -1.716  1.00  0.00    -0.057 C 
ENDROOT
BRANCH   1   2
HETATM    2  C10 UNL     1     -10.037  15.385  -0.659  1.00  0.00     0.036 C 
BRANCH   2   3
HETATM    3  C9  UNL     1     -11.438  15.758  -0.488  1.00  0.00     0.006 C 
BRANCH   3   4
HETATM    4  C8  UNL     1     -12.001  16.385   0.717  1.00  0.00     0.020 C 
BRANCH   4   5
HETATM    5  C7  UNL     1     -11.791  15.790   2.062  1.00  0.00     0.122 C 
BRANCH   5   6
HETATM    6  N3  UNL     1     -11.085  16.746   2.934  1.00  0.00    -0.359 N 
HETATM    7  C6  UNL     1     -10.327  16.249   4.012  1.00  0.00     0.248 C 
HETATM    8  O1  UNL     1     -10.263  15.025   4.234  1.00  0.00    -0.271 OA
ATOM      9  H3  UNL     1     -11.144  17.749   2.761  1.00  0.00     0.162 HD
BRANCH   7  10
HETATM   10  C5  UNL     1      -9.598  17.175   4.891  1.00  0.00     0.274 C 
BRANCH  10  11
HETATM   11  C4  UNL     1      -8.429  16.536   5.631  1.00  0.00     0.042 C 
BRANCH  11  12
HETATM   12  C3  UNL     1      -8.770  15.978   6.963  1.00  0.00     0.004 C 
BRANCH  12  13
HETATM   13  C2  UNL     1      -9.716  16.892   7.697  1.00  0.00     0.027 C 
BRANCH  13  14
HETATM   14  C1  UNL     1     -10.923  16.136   8.138  1.00  0.00     0.229 C 
BRANCH  14  15
HETATM   15  N1  UNL     1     -11.092  14.900   7.365  1.00  0.00    -0.079 N 
ATOM     16  H13 UNL     1     -11.961  14.908   6.831  1.00  0.00     0.274 HD
ATOM     17  H12 UNL     1     -10.431  14.851   6.589  1.00  0.00     0.274 HD
ATOM     18  H11 UNL     1     -11.029  14.076   7.963  1.00  0.00     0.274 HD
ENDBRANCH  14  15
ENDBRANCH  13  14
ENDBRANCH  12  13
ENDBRANCH  11  12
ENDBRANCH  10  11
BRANCH  10  19
HETATM   19  N2  UNL     1      -8.962  18.250   4.095  1.00  0.00    -0.067 N 
ATOM     20  H23 UNL     1      -8.876  19.142   4.584  1.00  0.00     0.275 HD
ATOM     21  H22 UNL     1      -7.964  18.120   3.932  1.00  0.00     0.275 HD
ATOM     22  H21 UNL     1      -9.527  18.287   3.247  1.00  0.00     0.275 HD
ENDBRANCH  10  19
ENDBRANCH   7  10
ENDBRANCH   5   6
ENDBRANCH   4   5
ENDBRANCH   3   4
ENDBRANCH   2   3
ENDBRANCH   1   2
BRANCH   1  23
HETATM   23  C12 UNL     1      -9.049  15.310  -2.992  1.00  0.00    -0.003 C 
BRANCH  23  24
HETATM   24  C13 UNL     1      -9.275  15.944  -4.289  1.00  0.00     0.149 C 
BRANCH  24  25
HETATM   25  N4  UNL     1      -8.007  16.485  -4.837  1.00  0.00    -0.363 N 
HETATM   26  C14 UNL     1      -7.939  17.413  -5.690  1.00  0.00     0.197 C 
HETATM   27  N5  UNL     1      -6.665  17.843  -6.136  1.00  0.00    -0.067 NA
HETATM   28  N6  UNL     1      -9.081  18.051  -6.225  1.00  0.00    -0.067 NA
ATOM     29  H4  UNL     1      -7.133  16.081  -4.502  1.00  0.00     0.162 HD
ENDBRANCH  24  25
ENDBRANCH  23  24
ENDBRANCH   1  23
BRANCH   1  30
HETATM   30  C15 UNL     1      -7.969  16.575  -1.069  1.00  0.00     0.201 C 
HETATM   31  C16 UNL     1      -7.371  17.771  -1.612  1.00  0.00     0.247 C 
HETATM   32  O2  UNL     1      -7.746  18.523  -2.529  1.00  0.00    -0.271 OA
HETATM   33  N7  UNL     1      -6.124  18.174  -0.996  1.00  0.00    -0.281 N 
HETATM   34  C25 UNL     1      -5.673  17.608   0.212  1.00  0.00     0.238 C 
HETATM   35  O3  UNL     1      -4.410  17.504   0.397  1.00  0.00    -0.272 OA
HETATM   36  C26 UNL     1      -6.524  17.119   1.296  1.00  0.00     0.213 C 
HETATM   37  S1  UNL     1      -8.163  16.824   0.681  1.00  0.00     0.041 S 
HETATM   38  O4  UNL     1      -9.038  18.213   1.038  1.00  0.00    -0.256 OA
BRANCH  33  39
HETATM   39  C17 UNL     1      -5.319  19.185  -1.648  1.00  0.00     0.193 C 
BRANCH  39  40
HETATM   40  C18 UNL     1      -4.335  18.648  -2.587  1.00  0.00     0.039 A 
HETATM   41  N8  UNL     1      -4.601  17.890  -3.657  1.00  0.00    -0.366 N 
HETATM   42  C19 UNL     1      -3.455  17.589  -4.276  1.00  0.00     0.101 A 
ATOM     43  H8  UNL     1      -5.530  17.591  -3.953  1.00  0.00     0.165 HD
HETATM   44  C20 UNL     1      -2.433  18.168  -3.584  1.00  0.00     0.007 A 
HETATM   45  C21 UNL     1      -1.083  18.168  -3.793  1.00  0.00     0.101 A 
HETATM   46  C24 UNL     1      -2.976  18.838  -2.517  1.00  0.00     0.002 A 
HETATM   47  N9  UNL     1      -0.267  18.817  -2.964  1.00  0.00    -0.374 N 
HETATM   48  C22 UNL     1      -0.778  19.479  -1.915  1.00  0.00     0.088 A 
ATOM     49  H9  UNL     1       0.740  18.812  -3.125  1.00  0.00     0.164 HD
HETATM   50  C23 UNL     1      -2.116  19.501  -1.676  1.00  0.00     0.031 A 
ENDBRANCH  39  40
ENDBRANCH  33  39
ENDBRANCH   1  30
TORSDOF 18
ENDMDL
