MODEL 1
REMARK VINA RESULT: -8.674089480      0.000      0.000
REMARK  20 active torsions:
REMARK  status: ('A' for Active; 'I' for Inactive)
REMARK    1  A    between atoms: C2_2  and  N1_3 
REMARK    2  A    between atoms: N1_3  and  C3_4 
REMARK       I    between atoms: N1_3  and  C10_11 
REMARK    3  A    between atoms: C3_4  and  C4_5 
REMARK    4  A    between atoms: C10_11  and  C11_13 
REMARK    5  A    between atoms: C11_13  and  C12_14 
REMARK    6  A    between atoms: C12_14  and  N6_39 
REMARK    7  A    between atoms: N2_15  and  C13_17 
REMARK    8  A    between atoms: C13_17  and  C14_18 
REMARK    9  A    between atoms: C14_18  and  C15_19 
REMARK   10  A    between atoms: C15_19  and  C16_20 
REMARK   11  A    between atoms: N4_28  and  C20_29 
REMARK   12  A    between atoms: C20_29  and  O4_30 
REMARK   13  A    between atoms: C20_29  and  C21_32 
REMARK   14  A    between atoms: C21_32  and  N5_33 
REMARK   15  A    between atoms: C21_32  and  C22_37 
REMARK   16  A    between atoms: N6_39  and  C23_41 
REMARK   17  A    between atoms: C23_41  and  C24_42 
REMARK   18  A    between atoms: C24_42  and  C25_43 
REMARK   19  A    between atoms: C25_43  and  C26_44 
REMARK   20  A    between atoms: C26_44  and  N7_45 
REMARK       I    between atoms: N7_45  and  C27_47 
ROOT
HETATM    1  C12 UNL     1      -8.370  17.064   2.588  1.00  0.00     0.081 C 
HETATM    2  N2  UNL     1      -8.170  18.211   2.149  1.00  0.00    -0.380 N 
ATOM      3  H2  UNL     1      -8.111  18.940   2.860  1.00  0.00     0.160 HD
ENDROOT
BRANCH   1   4
HETATM    4  C11 UNL     1      -8.481  15.878   1.681  1.00  0.00     0.179 C 
BRANCH   4   5
HETATM    5  C10 UNL     1      -9.835  15.317   1.739  1.00  0.00     0.230 C 
HETATM    6  N1  UNL     1     -10.859  15.532   0.800  1.00  0.00    -0.332 N 
HETATM    7  O1  UNL     1     -10.100  14.546   2.742  1.00  0.00    -0.273 OA
BRANCH   6   8
HETATM    8  C2  UNL     1     -12.108  14.788   1.027  1.00  0.00     0.126 C 
HETATM    9  C1  UNL     1     -13.256  15.748   1.261  1.00  0.00     0.027 C 
ENDBRANCH   6   8
BRANCH   6  10
HETATM   10  C3  UNL     1     -10.755  16.412  -0.291  1.00  0.00     0.071 C 
BRANCH  10  11
HETATM   11  C4  UNL     1     -10.344  15.915  -1.621  1.00  0.00     0.024 C 
HETATM   12  C5  UNL     1     -10.817  16.806  -2.768  1.00  0.00     0.010 C 
HETATM   13  C6  UNL     1     -10.825  15.958  -4.017  1.00  0.00     0.001 C 
HETATM   14  C7  UNL     1      -9.807  14.871  -4.046  1.00  0.00     0.000 C 
HETATM   15  C8  UNL     1      -8.572  15.253  -3.257  1.00  0.00     0.001 C 
HETATM   16  C9  UNL     1      -8.908  15.594  -1.829  1.00  0.00     0.010 C 
ENDBRANCH  10  11
ENDBRANCH   6  10
ENDBRANCH   4   5
ENDBRANCH   1   4
BRANCH   1  17
HETATM   17  N6  UNL     1      -8.511  16.767   3.984  1.00  0.00    -0.380 N 
ATOM     18  H6  UNL     1      -8.336  15.819   4.317  1.00  0.00     0.160 HD
BRANCH  17  19
HETATM   19  C23 UNL     1      -8.901  17.800   4.932  1.00  0.00     0.121 C 
BRANCH  19  20
HETATM   20  C24 UNL     1      -8.472  17.439   6.316  1.00  0.00     0.021 C 
BRANCH  20  21
HETATM   21  C25 UNL     1      -8.970  16.073   6.751  1.00  0.00     0.021 C 
BRANCH  21  22
HETATM   22  C26 UNL     1     -10.397  16.158   7.218  1.00  0.00     0.122 C 
BRANCH  22  23
HETATM   23  N7  UNL     1     -11.218  15.075   6.762  1.00  0.00    -0.365 N 
HETATM   24  C27 UNL     1     -12.232  15.394   5.801  1.00  0.00     0.181 C 
HETATM   25  N8  UNL     1     -11.926  15.967   4.677  1.00  0.00    -0.374 N 
HETATM   26  N9  UNL     1     -13.597  15.110   6.020  1.00  0.00    -0.064 NA
ATOM     27  H82 UNL     1     -10.939  16.173   4.519  1.00  0.00     0.158 HD
ATOM     28  H81 UNL     1     -12.648  16.194   3.993  1.00  0.00     0.158 HD
ATOM     29  H7  UNL     1     -11.087  14.123   7.104  1.00  0.00     0.162 HD
ENDBRANCH  22  23
ENDBRANCH  21  22
ENDBRANCH  20  21
ENDBRANCH  19  20
ENDBRANCH  17  19
ENDBRANCH   1  17
BRANCH   2  30
HETATM   30  C13 UNL     1      -8.011  18.663   0.814  1.00  0.00     0.121 C 
BRANCH  30  31
HETATM   31  C14 UNL     1      -6.735  19.485   0.767  1.00  0.00     0.022 C 
BRANCH  31  32
HETATM   32  C15 UNL     1      -5.725  18.989  -0.206  1.00  0.00     0.039 C 
BRANCH  32  33
HETATM   33  C16 UNL     1      -5.800  19.692  -1.557  1.00  0.00     0.208 C 
HETATM   34  C17 UNL     1      -4.544  20.490  -1.779  1.00  0.00     0.243 C 
HETATM   35  O2  UNL     1      -4.482  21.674  -1.392  1.00  0.00    -0.271 OA
HETATM   36  N3  UNL     1      -3.351  20.029  -2.410  1.00  0.00    -0.357 N 
HETATM   37  C18 UNL     1      -3.269  18.860  -3.257  1.00  0.00     0.151 C 
ATOM     38  H3  UNL     1      -2.496  20.562  -2.252  1.00  0.00     0.162 HD
HETATM   39  C19 UNL     1      -3.776  17.600  -2.656  1.00  0.00     0.221 C 
HETATM   40  O3  UNL     1      -5.117  17.496  -2.428  1.00  0.00    -0.274 OA
HETATM   41  N4  UNL     1      -5.802  18.683  -2.580  1.00  0.00    -0.224 N 
BRANCH  41  42
HETATM   42  C20 UNL     1      -6.442  18.814  -3.804  1.00  0.00     0.176 C 
BRANCH  42  43
HETATM   43  O4  UNL     1      -6.939  19.999  -4.033  1.00  0.00    -0.346 OA
ATOM     44  H4  UNL     1      -7.017  20.224  -4.953  1.00  0.00     0.219 HD
ENDBRANCH  42  43
BRANCH  42  45
HETATM   45  C21 UNL     1      -6.672  17.874  -4.898  1.00  0.00     0.319 C 
BRANCH  45  46
HETATM   46  N5  UNL     1      -5.504  17.375  -5.572  1.00  0.00    -0.061 N 
ATOM     47  H53 UNL     1      -5.709  17.242  -6.561  1.00  0.00     0.275 HD
ATOM     48  H52 UNL     1      -4.798  18.110  -5.625  1.00  0.00     0.275 HD
ATOM     49  H51 UNL     1      -5.087  16.526  -5.190  1.00  0.00     0.275 HD
ENDBRANCH  45  46
BRANCH  45  50
HETATM   50  C22 UNL     1      -7.593  18.427  -5.936  1.00  0.00     0.272 C 
HETATM   51  O5  UNL     1      -8.783  18.223  -5.878  1.00  0.00    -0.304 OA
ENDBRANCH  45  50
ENDBRANCH  42  45
ENDBRANCH  41  42
ENDBRANCH  32  33
ENDBRANCH  31  32
ENDBRANCH  30  31
ENDBRANCH   2  30
TORSDOF 20
ENDMDL
MODEL 2
REMARK VINA RESULT: -8.669101294      2.532     10.452
REMARK  20 active torsions:
REMARK  status: ('A' for Active; 'I' for Inactive)
REMARK    1  A    between atoms: C2_2  and  N1_3 
REMARK    2  A    between atoms: N1_3  and  C3_4 
REMARK       I    between atoms: N1_3  and  C10_11 
REMARK    3  A    between atoms: C3_4  and  C4_5 
REMARK    4  A    between atoms: C10_11  and  C11_13 
REMARK    5  A    between atoms: C11_13  and  C12_14 
REMARK    6  A    between atoms: C12_14  and  N6_39 
REMARK    7  A    between atoms: N2_15  and  C13_17 
REMARK    8  A    between atoms: C13_17  and  C14_18 
REMARK    9  A    between atoms: C14_18  and  C15_19 
REMARK   10  A    between atoms: C15_19  and  C16_20 
REMARK   11  A    between atoms: N4_28  and  C20_29 
REMARK   12  A    between atoms: C20_29  and  O4_30 
REMARK   13  A    between atoms: C20_29  and  C21_32 
REMARK   14  A    between atoms: C21_32  and  N5_33 
REMARK   15  A    between atoms: C21_32  and  C22_37 
REMARK   16  A    between atoms: N6_39  and  C23_41 
REMARK   17  A    between atoms: C23_41  and  C24_42 
REMARK   18  A    between atoms: C24_42  and  C25_43 
REMARK   19  A    between atoms: C25_43  and  C26_44 
REMARK   20  A    between atoms: C26_44  and  N7_45 
REMARK       I    between atoms: N7_45  and  C27_47 
ROOT
HETATM    1  C12 UNL     1     -10.595  16.337  -0.402  1.00  0.00     0.081 C 
HETATM    2  N2  UNL     1     -11.650  16.613   0.197  1.00  0.00    -0.380 N 
ATOM      3  H2  UNL     1     -12.335  17.129  -0.354  1.00  0.00     0.160 HD
ENDROOT
BRANCH   1   4
HETATM    4  C11 UNL     1      -9.484  15.582   0.259  1.00  0.00     0.179 C 
BRANCH   4   5
HETATM    5  C10 UNL     1      -8.265  16.396   0.295  1.00  0.00     0.230 C 
HETATM    6  N1  UNL     1      -7.916  17.317   1.298  1.00  0.00    -0.332 N 
HETATM    7  O1  UNL     1      -7.435  16.240  -0.684  1.00  0.00    -0.273 OA
BRANCH   6   8
HETATM    8  C2  UNL     1      -6.595  17.951   1.160  1.00  0.00     0.126 C 
HETATM    9  C1  UNL     1      -6.751  19.420   0.822  1.00  0.00     0.027 C 
ENDBRANCH   6   8
BRANCH   6  10
HETATM   10  C3  UNL     1      -8.750  17.663   2.375  1.00  0.00     0.071 C 
BRANCH  10  11
HETATM   11  C4  UNL     1      -8.560  17.042   3.703  1.00  0.00     0.024 C 
HETATM   12  C5  UNL     1      -9.192  17.847   4.837  1.00  0.00     0.010 C 
HETATM   13  C6  UNL     1      -8.495  17.440   6.114  1.00  0.00     0.001 C 
HETATM   14  C7  UNL     1      -7.995  16.037   6.138  1.00  0.00     0.000 C 
HETATM   15  C8  UNL     1      -8.860  15.130   5.287  1.00  0.00     0.001 C 
HETATM   16  C9  UNL     1      -8.940  15.615   3.863  1.00  0.00     0.010 C 
ENDBRANCH  10  11
ENDBRANCH   6  10
ENDBRANCH   4   5
ENDBRANCH   1   4
BRANCH   1  17
HETATM   17  N6  UNL     1     -10.341  16.707  -1.764  1.00  0.00    -0.380 N 
ATOM     18  H6  UNL     1     -10.310  17.694  -2.020  1.00  0.00     0.160 HD
BRANCH  17  19
HETATM   19  C23 UNL     1     -10.127  15.695  -2.787  1.00  0.00     0.121 C 
BRANCH  19  20
HETATM   20  C24 UNL     1     -10.881  16.029  -4.032  1.00  0.00     0.021 C 
BRANCH  20  21
HETATM   21  C25 UNL     1      -9.982  16.523  -5.151  1.00  0.00     0.021 C 
BRANCH  21  22
HETATM   22  C26 UNL     1      -8.571  16.049  -4.939  1.00  0.00     0.122 C 
BRANCH  22  23
HETATM   23  N7  UNL     1      -7.578  17.034  -5.259  1.00  0.00    -0.365 N 
HETATM   24  C27 UNL     1      -7.258  17.984  -4.235  1.00  0.00     0.181 C 
HETATM   25  N8  UNL     1      -6.853  17.590  -3.066  1.00  0.00    -0.374 N 
HETATM   26  N9  UNL     1      -7.364  19.376  -4.436  1.00  0.00    -0.064 NA
ATOM     27  H82 UNL     1      -6.776  16.583  -2.920  1.00  0.00     0.158 HD
ATOM     28  H81 UNL     1      -6.626  18.267  -2.337  1.00  0.00     0.158 HD
ATOM     29  H7  UNL     1      -7.121  17.056  -6.171  1.00  0.00     0.162 HD
ENDBRANCH  22  23
ENDBRANCH  21  22
ENDBRANCH  20  21
ENDBRANCH  19  20
ENDBRANCH  17  19
ENDBRANCH   1  17
BRANCH   2  30
HETATM   30  C13 UNL     1     -12.047  16.322   1.527  1.00  0.00     0.121 C 
BRANCH  30  31
HETATM   31  C14 UNL     1     -13.412  15.659   1.453  1.00  0.00     0.022 C 
BRANCH  31  32
HETATM   32  C15 UNL     1     -13.573  14.491   2.360  1.00  0.00     0.039 C 
BRANCH  32  33
HETATM   33  C16 UNL     1     -14.157  14.863   3.717  1.00  0.00     0.208 C 
HETATM   34  C17 UNL     1     -15.456  14.132   3.924  1.00  0.00     0.243 C 
HETATM   35  O2  UNL     1     -16.527  14.649   3.546  1.00  0.00    -0.271 OA
HETATM   36  N3  UNL     1     -15.617  12.852   4.529  1.00  0.00    -0.357 N 
HETATM   37  C18 UNL     1     -14.629  12.207   5.364  1.00  0.00     0.151 C 
ATOM     38  H3  UNL     1     -16.492  12.355   4.360  1.00  0.00     0.162 HD
HETATM   39  C19 UNL     1     -13.278  12.067   4.761  1.00  0.00     0.221 C 
HETATM   40  O3  UNL     1     -12.549  13.202   4.557  1.00  0.00    -0.274 OA
HETATM   41  N4  UNL     1     -13.269  14.366   4.732  1.00  0.00    -0.224 N 
BRANCH  41  42
HETATM   42  C20 UNL     1     -13.082  14.966   5.968  1.00  0.00     0.176 C 
BRANCH  42  43
HETATM   43  O4  UNL     1     -13.753  16.072   6.143  1.00  0.00    -0.346 OA
ATOM     44  H4  UNL     1     -13.275  16.757   6.596  1.00  0.00     0.219 HD
ENDBRANCH  42  43
BRANCH  42  45
HETATM   45  C21 UNL     1     -12.270  14.600   7.126  1.00  0.00     0.319 C 
BRANCH  45  46
HETATM   46  N5  UNL     1     -12.967  14.017   8.240  1.00  0.00    -0.061 N 
ATOM     47  H53 UNL     1     -13.969  14.174   8.138  1.00  0.00     0.275 HD
ATOM     48  H52 UNL     1     -12.930  13.000   8.175  1.00  0.00     0.275 HD
ATOM     49  H51 UNL     1     -12.666  14.313   9.170  1.00  0.00     0.275 HD
ENDBRANCH  45  46
BRANCH  45  50
HETATM   50  C22 UNL     1     -11.468  15.749   7.642  1.00  0.00     0.272 C 
HETATM   51  O5  UNL     1     -11.900  16.459   8.520  1.00  0.00    -0.304 OA
ENDBRANCH  45  50
ENDBRANCH  42  45
ENDBRANCH  41  42
ENDBRANCH  32  33
ENDBRANCH  31  32
ENDBRANCH  30  31
ENDBRANCH   2  30
TORSDOF 20
ENDMDL
MODEL 3
REMARK VINA RESULT: -8.474790820      2.847      8.575
REMARK  20 active torsions:
REMARK  status: ('A' for Active; 'I' for Inactive)
REMARK    1  A    between atoms: C2_2  and  N1_3 
REMARK    2  A    between atoms: N1_3  and  C3_4 
REMARK       I    between atoms: N1_3  and  C10_11 
REMARK    3  A    between atoms: C3_4  and  C4_5 
REMARK    4  A    between atoms: C10_11  and  C11_13 
REMARK    5  A    between atoms: C11_13  and  C12_14 
REMARK    6  A    between atoms: C12_14  and  N6_39 
REMARK    7  A    between atoms: N2_15  and  C13_17 
REMARK    8  A    between atoms: C13_17  and  C14_18 
REMARK    9  A    between atoms: C14_18  and  C15_19 
REMARK   10  A    between atoms: C15_19  and  C16_20 
REMARK   11  A    between atoms: N4_28  and  C20_29 
REMARK   12  A    between atoms: C20_29  and  O4_30 
REMARK   13  A    between atoms: C20_29  and  C21_32 
REMARK   14  A    between atoms: C21_32  and  N5_33 
REMARK   15  A    between atoms: C21_32  and  C22_37 
REMARK   16  A    between atoms: N6_39  and  C23_41 
REMARK   17  A    between atoms: C23_41  and  C24_42 
REMARK   18  A    between atoms: C24_42  and  C25_43 
REMARK   19  A    between atoms: C25_43  and  C26_44 
REMARK   20  A    between atoms: C26_44  and  N7_45 
REMARK       I    between atoms: N7_45  and  C27_47 
ROOT
HETATM    1  C12 UNL     1      -9.469  15.937   2.060  1.00  0.00     0.081 C 
HETATM    2  N2  UNL     1     -10.706  15.997   1.947  1.00  0.00    -0.380 N 
ATOM      3  H2  UNL     1     -11.196  16.362   2.763  1.00  0.00     0.160 HD
ENDROOT
BRANCH   1   4
HETATM    4  C11 UNL     1      -8.596  15.427   0.955  1.00  0.00     0.179 C 
BRANCH   4   5
HETATM    5  C10 UNL     1      -7.596  16.434   0.587  1.00  0.00     0.230 C 
HETATM    6  N1  UNL     1      -7.760  17.448  -0.372  1.00  0.00    -0.332 N 
HETATM    7  O1  UNL     1      -6.466  16.383   1.212  1.00  0.00    -0.273 OA
BRANCH   6   8
HETATM    8  C2  UNL     1      -6.643  18.397  -0.504  1.00  0.00     0.126 C 
HETATM    9  C1  UNL     1      -6.746  19.480   0.552  1.00  0.00     0.027 C 
ENDBRANCH   6   8
BRANCH   6  10
HETATM   10  C3  UNL     1      -8.891  17.579  -1.196  1.00  0.00     0.071 C 
BRANCH  10  11
HETATM   11  C4  UNL     1      -8.985  16.832  -2.469  1.00  0.00     0.024 C 
HETATM   12  C5  UNL     1     -10.406  16.378  -2.795  1.00  0.00     0.010 C 
HETATM   13  C6  UNL     1     -10.293  15.221  -3.760  1.00  0.00     0.001 C 
HETATM   14  C7  UNL     1      -9.103  15.262  -4.654  1.00  0.00     0.000 C 
HETATM   15  C8  UNL     1      -8.683  16.687  -4.947  1.00  0.00     0.001 C 
HETATM   16  C9  UNL     1      -8.392  17.451  -3.682  1.00  0.00     0.010 C 
ENDBRANCH  10  11
ENDBRANCH   6  10
ENDBRANCH   4   5
ENDBRANCH   1   4
BRANCH   1  17
HETATM   17  N6  UNL     1      -8.763  16.344   3.241  1.00  0.00    -0.380 N 
ATOM     18  H6  UNL     1      -8.063  15.724   3.647  1.00  0.00     0.160 HD
BRANCH  17  19
HETATM   19  C23 UNL     1      -9.033  17.630   3.867  1.00  0.00     0.121 C 
BRANCH  19  20
HETATM   20  C24 UNL     1      -9.134  17.487   5.350  1.00  0.00     0.021 C 
BRANCH  20  21
HETATM   21  C25 UNL     1      -8.039  16.614   5.935  1.00  0.00     0.021 C 
BRANCH  21  22
HETATM   22  C26 UNL     1      -8.636  15.467   6.703  1.00  0.00     0.122 C 
BRANCH  22  23
HETATM   23  N7  UNL     1      -9.327  15.868   7.893  1.00  0.00    -0.365 N 
HETATM   24  C27 UNL     1     -10.728  15.571   7.957  1.00  0.00     0.181 C 
HETATM   25  N8  UNL     1     -11.156  14.353   7.817  1.00  0.00    -0.374 N 
HETATM   26  N9  UNL     1     -11.703  16.567   8.172  1.00  0.00    -0.064 NA
ATOM     27  H82 UNL     1     -10.450  13.632   7.663  1.00  0.00     0.158 HD
ATOM     28  H81 UNL     1     -12.152  14.141   7.863  1.00  0.00     0.158 HD
ATOM     29  H7  UNL     1      -8.846  16.342   8.658  1.00  0.00     0.162 HD
ENDBRANCH  22  23
ENDBRANCH  21  22
ENDBRANCH  20  21
ENDBRANCH  19  20
ENDBRANCH  17  19
ENDBRANCH   1  17
BRANCH   2  30
HETATM   30  C13 UNL     1     -11.542  15.637   0.859  1.00  0.00     0.121 C 
BRANCH  30  31
HETATM   31  C14 UNL     1     -12.254  14.352   1.247  1.00  0.00     0.022 C 
BRANCH  31  32
HETATM   32  C15 UNL     1     -13.397  14.546   2.179  1.00  0.00     0.039 C 
BRANCH  32  33
HETATM   33  C16 UNL     1     -13.212  13.827   3.510  1.00  0.00     0.208 C 
HETATM   34  C17 UNL     1     -12.629  14.778   4.519  1.00  0.00     0.243 C 
HETATM   35  O2  UNL     1     -11.391  14.882   4.633  1.00  0.00    -0.271 OA
HETATM   36  N3  UNL     1     -13.360  15.622   5.406  1.00  0.00    -0.357 N 
HETATM   37  C18 UNL     1     -14.755  15.447   5.743  1.00  0.00     0.151 C 
ATOM     38  H3  UNL     1     -12.864  16.404   5.833  1.00  0.00     0.162 HD
HETATM   39  C19 UNL     1     -15.686  15.377   4.588  1.00  0.00     0.221 C 
HETATM   40  O3  UNL     1     -15.615  14.282   3.776  1.00  0.00    -0.274 OA
HETATM   41  N4  UNL     1     -14.515  13.484   4.012  1.00  0.00    -0.224 N 
BRANCH  41  42
HETATM   42  C20 UNL     1     -14.782  12.370   4.794  1.00  0.00     0.176 C 
BRANCH  42  43
HETATM   43  O4  UNL     1     -16.040  12.209   5.100  1.00  0.00    -0.346 OA
ATOM     44  H4  UNL     1     -16.251  12.380   6.010  1.00  0.00     0.219 HD
ENDBRANCH  42  43
BRANCH  42  45
HETATM   45  C21 UNL     1     -13.919  11.331   5.351  1.00  0.00     0.319 C 
BRANCH  45  46
HETATM   46  N5  UNL     1     -14.457   9.999   5.382  1.00  0.00    -0.061 N 
ATOM     47  H53 UNL     1     -14.841   9.805   6.306  1.00  0.00     0.275 HD
ATOM     48  H52 UNL     1     -15.305   9.957   4.815  1.00  0.00     0.275 HD
ATOM     49  H51 UNL     1     -13.825   9.246   5.108  1.00  0.00     0.275 HD
ENDBRANCH  45  46
BRANCH  45  50
HETATM   50  C22 UNL     1     -13.449  11.664   6.729  1.00  0.00     0.272 C 
HETATM   51  O5  UNL     1     -13.667  12.751   7.211  1.00  0.00    -0.304 OA
ENDBRANCH  45  50
ENDBRANCH  42  45
ENDBRANCH  41  42
ENDBRANCH  32  33
ENDBRANCH  31  32
ENDBRANCH  30  31
ENDBRANCH   2  30
TORSDOF 20
ENDMDL
MODEL 4
REMARK VINA RESULT: -8.390065134      1.905      6.634
REMARK  20 active torsions:
REMARK  status: ('A' for Active; 'I' for Inactive)
REMARK    1  A    between atoms: C2_2  and  N1_3 
REMARK    2  A    between atoms: N1_3  and  C3_4 
REMARK       I    between atoms: N1_3  and  C10_11 
REMARK    3  A    between atoms: C3_4  and  C4_5 
REMARK    4  A    between atoms: C10_11  and  C11_13 
REMARK    5  A    between atoms: C11_13  and  C12_14 
REMARK    6  A    between atoms: C12_14  and  N6_39 
REMARK    7  A    between atoms: N2_15  and  C13_17 
REMARK    8  A    between atoms: C13_17  and  C14_18 
REMARK    9  A    between atoms: C14_18  and  C15_19 
REMARK   10  A    between atoms: C15_19  and  C16_20 
REMARK   11  A    between atoms: N4_28  and  C20_29 
REMARK   12  A    between atoms: C20_29  and  O4_30 
REMARK   13  A    between atoms: C20_29  and  C21_32 
REMARK   14  A    between atoms: C21_32  and  N5_33 
REMARK   15  A    between atoms: C21_32  and  C22_37 
REMARK   16  A    between atoms: N6_39  and  C23_41 
REMARK   17  A    between atoms: C23_41  and  C24_42 
REMARK   18  A    between atoms: C24_42  and  C25_43 
REMARK   19  A    between atoms: C25_43  and  C26_44 
REMARK   20  A    between atoms: C26_44  and  N7_45 
REMARK       I    between atoms: N7_45  and  C27_47 
ROOT
HETATM    1  C12 UNL     1      -9.331  17.363   0.767  1.00  0.00     0.081 C 
HETATM    2  N2  UNL     1      -8.688  18.428   0.820  1.00  0.00    -0.380 N 
ATOM      3  H2  UNL     1      -9.068  19.188   0.256  1.00  0.00     0.160 HD
ENDROOT
BRANCH   1   4
HETATM    4  C11 UNL     1      -8.913  16.147   1.534  1.00  0.00     0.179 C 
BRANCH   4   5
HETATM    5  C10 UNL     1     -10.061  15.264   1.757  1.00  0.00     0.230 C 
HETATM    6  N1  UNL     1     -11.035  15.413   2.760  1.00  0.00    -0.332 N 
HETATM    7  O1  UNL     1     -10.189  14.264   0.949  1.00  0.00    -0.273 OA
BRANCH   6   8
HETATM    8  C2  UNL     1     -12.145  14.448   2.729  1.00  0.00     0.126 C 
HETATM    9  C1  UNL     1     -13.358  15.063   2.062  1.00  0.00     0.027 C 
ENDBRANCH   6   8
BRANCH   6  10
HETATM   10  C3  UNL     1     -10.986  16.392   3.767  1.00  0.00     0.071 C 
BRANCH  10  11
HETATM   11  C4  UNL     1     -10.169  16.181   4.981  1.00  0.00     0.024 C 
HETATM   12  C5  UNL     1      -9.047  17.206   5.135  1.00  0.00     0.010 C 
HETATM   13  C6  UNL     1      -8.006  16.593   6.043  1.00  0.00     0.001 C 
HETATM   14  C7  UNL     1      -8.538  15.640   7.055  1.00  0.00     0.000 C 
HETATM   15  C8  UNL     1      -9.949  16.003   7.466  1.00  0.00     0.001 C 
HETATM   16  C9  UNL     1     -10.877  16.052   6.281  1.00  0.00     0.010 C 
ENDBRANCH  10  11
ENDBRANCH   6  10
ENDBRANCH   4   5
ENDBRANCH   1   4
BRANCH   1  17
HETATM   17  N6  UNL     1     -10.518  17.197  -0.020  1.00  0.00    -0.380 N 
ATOM     18  H6  UNL     1     -11.411  17.030   0.445  1.00  0.00     0.160 HD
BRANCH  17  19
HETATM   19  C23 UNL     1     -10.468  17.262  -1.473  1.00  0.00     0.121 C 
BRANCH  19  20
HETATM   20  C24 UNL     1     -10.150  15.924  -2.055  1.00  0.00     0.021 C 
BRANCH  20  21
HETATM   21  C25 UNL     1     -10.538  15.810  -3.517  1.00  0.00     0.021 C 
BRANCH  21  22
HETATM   22  C26 UNL     1      -9.439  15.149  -4.302  1.00  0.00     0.122 C 
BRANCH  22  23
HETATM   23  N7  UNL     1      -9.221  15.734  -5.593  1.00  0.00    -0.365 N 
HETATM   24  C27 UNL     1      -8.541  16.995  -5.624  1.00  0.00     0.181 C 
HETATM   25  N8  UNL     1      -7.368  17.131  -5.086  1.00  0.00    -0.374 N 
HETATM   26  N9  UNL     1      -9.101  18.140  -6.230  1.00  0.00    -0.064 NA
ATOM     27  H82 UNL     1      -6.964  16.303  -4.648  1.00  0.00     0.158 HD
ATOM     28  H81 UNL     1      -6.884  18.029  -5.109  1.00  0.00     0.158 HD
ATOM     29  H7  UNL     1      -9.534  15.274  -6.449  1.00  0.00     0.162 HD
ENDBRANCH  22  23
ENDBRANCH  21  22
ENDBRANCH  20  21
ENDBRANCH  19  20
ENDBRANCH  17  19
ENDBRANCH   1  17
BRANCH   2  30
HETATM   30  C13 UNL     1      -7.510  18.747   1.540  1.00  0.00     0.121 C 
BRANCH  30  31
HETATM   31  C14 UNL     1      -6.439  19.094   0.519  1.00  0.00     0.022 C 
BRANCH  31  32
HETATM   32  C15 UNL     1      -5.385  18.056   0.364  1.00  0.00     0.039 C 
BRANCH  32  33
HETATM   33  C16 UNL     1      -5.241  17.559  -1.069  1.00  0.00     0.208 C 
HETATM   34  C17 UNL     1      -6.185  18.317  -1.963  1.00  0.00     0.243 C 
HETATM   35  O2  UNL     1      -7.344  17.893  -2.145  1.00  0.00    -0.271 OA
HETATM   36  N3  UNL     1      -5.899  19.526  -2.660  1.00  0.00    -0.357 N 
HETATM   37  C18 UNL     1      -4.569  20.030  -2.922  1.00  0.00     0.151 C 
ATOM     38  H3  UNL     1      -6.689  20.076  -2.998  1.00  0.00     0.162 HD
HETATM   39  C19 UNL     1      -3.698  20.179  -1.728  1.00  0.00     0.221 C 
HETATM   40  O3  UNL     1      -3.280  19.044  -1.096  1.00  0.00    -0.274 OA
HETATM   41  N4  UNL     1      -3.921  17.900  -1.525  1.00  0.00    -0.224 N 
BRANCH  41  42
HETATM   42  C20 UNL     1      -3.196  17.156  -2.444  1.00  0.00     0.176 C 
BRANCH  42  43
HETATM   43  O4  UNL     1      -2.742  16.021  -1.989  1.00  0.00    -0.346 OA
ATOM     44  H4  UNL     1      -3.119  15.251  -2.400  1.00  0.00     0.219 HD
ENDBRANCH  42  43
BRANCH  42  45
HETATM   45  C21 UNL     1      -2.835  17.400  -3.839  1.00  0.00     0.319 C 
BRANCH  45  46
HETATM   46  N5  UNL     1      -3.878  17.224  -4.812  1.00  0.00    -0.061 N 
ATOM     47  H53 UNL     1      -3.530  16.667  -5.592  1.00  0.00     0.275 HD
ATOM     48  H52 UNL     1      -4.593  16.597  -4.440  1.00  0.00     0.275 HD
ATOM     49  H51 UNL     1      -4.319  18.073  -5.166  1.00  0.00     0.275 HD
ENDBRANCH  45  46
BRANCH  45  50
HETATM   50  C22 UNL     1      -1.665  16.580  -4.273  1.00  0.00     0.272 C 
HETATM   51  O5  UNL     1      -0.574  16.751  -3.781  1.00  0.00    -0.304 OA
ENDBRANCH  45  50
ENDBRANCH  42  45
ENDBRANCH  41  42
ENDBRANCH  32  33
ENDBRANCH  31  32
ENDBRANCH  30  31
ENDBRANCH   2  30
TORSDOF 20
ENDMDL
MODEL 5
REMARK VINA RESULT: -8.332151637      2.907      8.592
REMARK  20 active torsions:
REMARK  status: ('A' for Active; 'I' for Inactive)
REMARK    1  A    between atoms: C2_2  and  N1_3 
REMARK    2  A    between atoms: N1_3  and  C3_4 
REMARK       I    between atoms: N1_3  and  C10_11 
REMARK    3  A    between atoms: C3_4  and  C4_5 
REMARK    4  A    between atoms: C10_11  and  C11_13 
REMARK    5  A    between atoms: C11_13  and  C12_14 
REMARK    6  A    between atoms: C12_14  and  N6_39 
REMARK    7  A    between atoms: N2_15  and  C13_17 
REMARK    8  A    between atoms: C13_17  and  C14_18 
REMARK    9  A    between atoms: C14_18  and  C15_19 
REMARK   10  A    between atoms: C15_19  and  C16_20 
REMARK   11  A    between atoms: N4_28  and  C20_29 
REMARK   12  A    between atoms: C20_29  and  O4_30 
REMARK   13  A    between atoms: C20_29  and  C21_32 
REMARK   14  A    between atoms: C21_32  and  N5_33 
REMARK   15  A    between atoms: C21_32  and  C22_37 
REMARK   16  A    between atoms: N6_39  and  C23_41 
REMARK   17  A    between atoms: C23_41  and  C24_42 
REMARK   18  A    between atoms: C24_42  and  C25_43 
REMARK   19  A    between atoms: C25_43  and  C26_44 
REMARK   20  A    between atoms: C26_44  and  N7_45 
REMARK       I    between atoms: N7_45  and  C27_47 
ROOT
HETATM    1  C12 UNL     1     -10.189  16.802   1.608  1.00  0.00     0.081 C 
HETATM    2  N2  UNL     1     -11.430  16.789   1.523  1.00  0.00    -0.380 N 
ATOM      3  H2  UNL     1     -11.907  17.500   2.076  1.00  0.00     0.160 HD
ENDROOT
BRANCH   1   4
HETATM    4  C11 UNL     1      -9.333  15.828   0.861  1.00  0.00     0.179 C 
BRANCH   4   5
HETATM    5  C10 UNL     1      -8.042  16.435   0.522  1.00  0.00     0.230 C 
HETATM    6  N1  UNL     1      -7.800  17.322  -0.541  1.00  0.00    -0.332 N 
HETATM    7  O1  UNL     1      -7.042  16.131   1.282  1.00  0.00    -0.273 OA
BRANCH   6   8
HETATM    8  C2  UNL     1      -6.438  17.870  -0.626  1.00  0.00     0.126 C 
HETATM    9  C1  UNL     1      -6.353  19.186   0.120  1.00  0.00     0.027 C 
ENDBRANCH   6   8
BRANCH   6  10
HETATM   10  C3  UNL     1      -8.760  17.677  -1.505  1.00  0.00     0.071 C 
BRANCH  10  11
HETATM   11  C4  UNL     1      -8.940  16.860  -2.724  1.00  0.00     0.024 C 
HETATM   12  C5  UNL     1     -10.372  16.361  -2.906  1.00  0.00     0.010 C 
HETATM   13  C6  UNL     1     -10.311  15.155  -3.814  1.00  0.00     0.001 C 
HETATM   14  C7  UNL     1      -9.200  15.170  -4.805  1.00  0.00     0.000 C 
HETATM   15  C8  UNL     1      -8.840  16.585  -5.207  1.00  0.00     0.001 C 
HETATM   16  C9  UNL     1      -8.464  17.423  -4.013  1.00  0.00     0.010 C 
ENDBRANCH  10  11
ENDBRANCH   6  10
ENDBRANCH   4   5
ENDBRANCH   1   4
BRANCH   1  17
HETATM   17  N6  UNL     1      -9.464  17.738   2.419  1.00  0.00    -0.380 N 
ATOM     18  H6  UNL     1      -8.884  18.447   1.971  1.00  0.00     0.160 HD
BRANCH  17  19
HETATM   19  C23 UNL     1      -9.545  17.689   3.871  1.00  0.00     0.121 C 
BRANCH  19  20
HETATM   20  C24 UNL     1      -8.600  16.673   4.422  1.00  0.00     0.021 C 
BRANCH  20  21
HETATM   21  C25 UNL     1      -8.235  16.931   5.872  1.00  0.00     0.021 C 
BRANCH  21  22
HETATM   22  C26 UNL     1      -8.374  15.672   6.682  1.00  0.00     0.122 C 
BRANCH  22  23
HETATM   23  N7  UNL     1      -9.062  15.858   7.926  1.00  0.00    -0.365 N 
HETATM   24  C27 UNL     1     -10.495  15.835   7.881  1.00  0.00     0.181 C 
HETATM   25  N8  UNL     1     -11.128  14.811   7.396  1.00  0.00    -0.374 N 
HETATM   26  N9  UNL     1     -11.283  16.906   8.353  1.00  0.00    -0.064 NA
ATOM     27  H82 UNL     1     -10.558  14.037   7.054  1.00  0.00     0.158 HD
ATOM     28  H81 UNL     1     -12.147  14.795   7.364  1.00  0.00     0.158 HD
ATOM     29  H7  UNL     1      -8.557  16.000   8.801  1.00  0.00     0.162 HD
ENDBRANCH  22  23
ENDBRANCH  21  22
ENDBRANCH  20  21
ENDBRANCH  19  20
ENDBRANCH  17  19
ENDBRANCH   1  17
BRANCH   2  30
HETATM   30  C13 UNL     1     -12.284  15.938   0.776  1.00  0.00     0.121 C 
BRANCH  30  31
HETATM   31  C14 UNL     1     -13.108  15.142   1.773  1.00  0.00     0.022 C 
BRANCH  31  32
HETATM   32  C15 UNL     1     -12.704  13.717   1.899  1.00  0.00     0.039 C 
BRANCH  32  33
HETATM   33  C16 UNL     1     -12.412  13.302   3.336  1.00  0.00     0.208 C 
HETATM   34  C17 UNL     1     -12.571  14.490   4.245  1.00  0.00     0.243 C 
HETATM   35  O2  UNL     1     -11.595  15.233   4.474  1.00  0.00    -0.271 OA
HETATM   36  N3  UNL     1     -13.766  14.892   4.909  1.00  0.00    -0.357 N 
HETATM   37  C18 UNL     1     -14.917  14.040   5.117  1.00  0.00     0.151 C 
ATOM     38  H3  UNL     1     -13.814  15.847   5.262  1.00  0.00     0.162 HD
HETATM   39  C19 UNL     1     -15.471  13.408   3.892  1.00  0.00     0.221 C 
HETATM   40  O3  UNL     1     -14.720  12.455   3.269  1.00  0.00    -0.274 OA
HETATM   41  N4  UNL     1     -13.427  12.368   3.741  1.00  0.00    -0.224 N 
BRANCH  41  42
HETATM   42  C20 UNL     1     -13.224  11.341   4.651  1.00  0.00     0.176 C 
BRANCH  42  43
HETATM   43  O4  UNL     1     -12.489  10.358   4.207  1.00  0.00    -0.346 OA
ATOM     44  H4  UNL     1     -12.058  10.530   3.378  1.00  0.00     0.219 HD
ENDBRANCH  42  43
BRANCH  42  45
HETATM   45  C21 UNL     1     -13.681  11.140   6.024  1.00  0.00     0.319 C 
BRANCH  45  46
HETATM   46  N5  UNL     1     -12.962  11.847   7.049  1.00  0.00    -0.061 N 
ATOM     47  H53 UNL     1     -13.577  12.528   7.492  1.00  0.00     0.275 HD
ATOM     48  H52 UNL     1     -12.779  11.222   7.834  1.00  0.00     0.275 HD
ATOM     49  H51 UNL     1     -12.094  12.302   6.764  1.00  0.00     0.275 HD
ENDBRANCH  45  46
BRANCH  45  50
HETATM   50  C22 UNL     1     -13.714   9.697   6.405  1.00  0.00     0.272 C 
HETATM   51  O5  UNL     1     -14.425   8.918   5.815  1.00  0.00    -0.304 OA
ENDBRANCH  45  50
ENDBRANCH  42  45
ENDBRANCH  41  42
ENDBRANCH  32  33
ENDBRANCH  31  32
ENDBRANCH  30  31
ENDBRANCH   2  30
TORSDOF 20
ENDMDL
