MODEL 1
REMARK VINA RESULT: -7.504043058      0.000      0.000
REMARK  20 active torsions:
REMARK  status: ('A' for Active; 'I' for Inactive)
REMARK    1  A    between atoms: C2_2  and  C3_3 
REMARK    2  A    between atoms: C3_3  and  C4_4 
REMARK    3  A    between atoms: C4_4  and  N1_5 
REMARK    4  A    between atoms: N1_5  and  C6_7 
REMARK    5  A    between atoms: C6_7  and  O1_8 
REMARK    6  A    between atoms: C6_7  and  C7_10 
REMARK    7  A    between atoms: C10_13  and  N2_14 
REMARK    8  A    between atoms: C12_17  and  C13_18 
REMARK    9  A    between atoms: C13_18  and  C14_19 
REMARK   10  A    between atoms: C14_19  and  C15_20 
REMARK   11  A    between atoms: C15_20  and  C16_21 
REMARK   12  A    between atoms: C16_21  and  N3_22 
REMARK   13  A    between atoms: C18_27  and  C19_28 
REMARK   14  A    between atoms: N6_29  and  N7_31 
REMARK       I    between atoms: N8_34  and  C20_35 
REMARK   15  A    between atoms: C20_35  and  C21_37 
REMARK   16  A    between atoms: C21_37  and  N9_38 
REMARK   17  A    between atoms: C21_37  and  C22_42 
REMARK   18  A    between atoms: C22_42  and  C23_43 
REMARK   19  A    between atoms: C23_43  and  C24_44 
REMARK   20  A    between atoms: C24_44  and  N10_45 
ROOT
HETATM    1  N2  UNL     1      -7.912  17.634  -0.415  1.00  0.00    -0.218 N 
HETATM    2  C11 UNL     1      -7.135  18.782  -0.092  1.00  0.00     0.250 C 
HETATM    3  O2  UNL     1      -7.334  19.714   0.682  1.00  0.00    -0.271 OA
HETATM    4  C12 UNL     1      -5.875  18.636  -0.971  1.00  0.00     0.110 C 
HETATM    5  C18 UNL     1      -6.573  18.230  -2.257  1.00  0.00     0.165 C 
HETATM    6  N8  UNL     1      -7.720  17.422  -1.786  1.00  0.00    -0.239 N 
HETATM    7  C20 UNL     1      -8.504  16.522  -2.591  1.00  0.00     0.270 C 
HETATM    8  O3  UNL     1      -9.426  15.849  -2.014  1.00  0.00    -0.269 OA
ENDROOT
BRANCH   1   9
HETATM    9  C10 UNL     1      -8.705  16.887   0.525  1.00  0.00     0.060 A 
HETATM   10  C9  UNL     1      -8.296  15.777   1.194  1.00  0.00     0.032 A 
HETATM   11  C8  UNL     1      -9.108  15.096   2.119  1.00  0.00     0.018 A 
HETATM   12  C7  UNL     1     -10.367  15.542   2.379  1.00  0.00     0.015 A 
HETATM   13  C27 UNL     1     -10.804  16.695   1.690  1.00  0.00     0.018 A 
HETATM   14  C26 UNL     1      -9.978  17.330   0.793  1.00  0.00     0.032 A 
BRANCH  12  15
HETATM   15  C6  UNL     1     -11.258  14.895   3.318  1.00  0.00     0.148 C 
BRANCH  15  16
HETATM   16  N1  UNL     1     -11.626  15.216   4.613  1.00  0.00    -0.366 N 
HETATM   17  C5  UNL     1     -12.609  14.675   5.490  1.00  0.00     0.151 C 
BRANCH  16  18
HETATM   18  C4  UNL     1     -10.845  16.347   5.219  1.00  0.00     0.124 C 
BRANCH  18  19
HETATM   19  C3  UNL     1      -9.717  15.681   5.943  1.00  0.00     0.019 C 
BRANCH  19  20
HETATM   20  C2  UNL     1      -8.424  16.407   5.644  1.00  0.00    -0.003 C 
HETATM   21  C1  UNL     1      -8.733  17.664   4.859  1.00  0.00     0.005 C 
ENDBRANCH  19  20
ENDBRANCH  18  19
ENDBRANCH  16  18
ENDBRANCH  15  16
BRANCH  15  22
HETATM   22  O1  UNL     1     -11.828  13.797   2.861  1.00  0.00    -0.346 OA
ATOM     23  H1  UNL     1     -12.554  13.960   2.271  1.00  0.00     0.219 HD
ENDBRANCH  15  22
ENDBRANCH  12  15
ENDBRANCH   1   9
BRANCH   4  24
HETATM   24  C13 UNL     1      -5.144  17.504  -0.344  1.00  0.00     0.017 C 
BRANCH  24  25
HETATM   25  C14 UNL     1      -3.822  17.091  -0.834  1.00  0.00     0.002 C 
BRANCH  25  26
HETATM   26  C15 UNL     1      -3.204  17.942  -1.879  1.00  0.00     0.020 C 
BRANCH  26  27
HETATM   27  C16 UNL     1      -2.588  16.964  -2.900  1.00  0.00     0.122 C 
BRANCH  27  28
HETATM   28  N3  UNL     1      -2.112  15.831  -2.178  1.00  0.00    -0.367 N 
HETATM   29  C17 UNL     1      -0.897  15.362  -2.347  1.00  0.00     0.196 C 
HETATM   30  N4  UNL     1      -0.430  14.238  -1.625  1.00  0.00    -0.067 NA
HETATM   31  N5  UNL     1      -0.090  16.036  -3.289  1.00  0.00    -0.067 NA
ATOM     32  H3  UNL     1      -2.732  15.371  -1.511  1.00  0.00     0.161 HD
ENDBRANCH  27  28
ENDBRANCH  26  27
ENDBRANCH  25  26
ENDBRANCH  24  25
ENDBRANCH   4  24
BRANCH   5  33
HETATM   33  C19 UNL     1      -7.024  19.445  -2.990  1.00  0.00     0.107 C 
HETATM   34  N6  UNL     1      -6.305  20.067  -3.829  1.00  0.00    -0.320 N 
ATOM     35  H6  UNL     1      -6.711  20.889  -4.275  1.00  0.00     0.185 HD
BRANCH  34  36
HETATM   36  N7  UNL     1      -5.013  19.721  -4.189  1.00  0.00    -0.346 N 
ATOM     37  H72 UNL     1      -4.264  20.134  -3.632  1.00  0.00     0.176 HD
ATOM     38  H71 UNL     1      -4.760  19.096  -4.955  1.00  0.00     0.176 HD
ENDBRANCH  34  36
ENDBRANCH   5  33
BRANCH   7  39
HETATM   39  C21 UNL     1      -8.348  16.292  -4.024  1.00  0.00     0.276 C 
BRANCH  39  40
HETATM   40  N9  UNL     1      -8.711  14.872  -4.309  1.00  0.00    -0.066 N 
ATOM     41  H93 UNL     1      -7.984  14.215  -4.027  1.00  0.00     0.275 HD
ATOM     42  H92 UNL     1      -9.453  14.526  -3.701  1.00  0.00     0.275 HD
ATOM     43  H91 UNL     1      -8.946  14.796  -5.299  1.00  0.00     0.275 HD
ENDBRANCH  39  40
BRANCH  39  44
HETATM   44  C22 UNL     1      -9.360  17.095  -4.872  1.00  0.00     0.044 C 
BRANCH  44  45
HETATM   45  C23 UNL     1      -8.585  17.667  -6.027  1.00  0.00     0.022 C 
BRANCH  45  46
HETATM   46  C24 UNL     1      -7.104  17.361  -5.915  1.00  0.00     0.122 C 
BRANCH  46  47
HETATM   47  N10 UNL     1      -6.342  18.059  -6.920  1.00  0.00    -0.367 N 
HETATM   48  C25 UNL     1      -5.182  17.731  -7.328  1.00  0.00     0.196 C 
HETATM   49  N11 UNL     1      -4.516  16.585  -6.788  1.00  0.00    -0.067 NA
HETATM   50  N12 UNL     1      -4.566  18.526  -8.332  1.00  0.00    -0.067 NA
ATOM     51  H10 UNL     1      -6.768  18.886  -7.339  1.00  0.00     0.161 HD
ENDBRANCH  46  47
ENDBRANCH  45  46
ENDBRANCH  44  45
ENDBRANCH  39  44
ENDBRANCH   7  39
TORSDOF 20
ENDMDL
MODEL 2
REMARK VINA RESULT: -7.464479721      1.129      1.560
REMARK  20 active torsions:
REMARK  status: ('A' for Active; 'I' for Inactive)
REMARK    1  A    between atoms: C2_2  and  C3_3 
REMARK    2  A    between atoms: C3_3  and  C4_4 
REMARK    3  A    between atoms: C4_4  and  N1_5 
REMARK    4  A    between atoms: N1_5  and  C6_7 
REMARK    5  A    between atoms: C6_7  and  O1_8 
REMARK    6  A    between atoms: C6_7  and  C7_10 
REMARK    7  A    between atoms: C10_13  and  N2_14 
REMARK    8  A    between atoms: C12_17  and  C13_18 
REMARK    9  A    between atoms: C13_18  and  C14_19 
REMARK   10  A    between atoms: C14_19  and  C15_20 
REMARK   11  A    between atoms: C15_20  and  C16_21 
REMARK   12  A    between atoms: C16_21  and  N3_22 
REMARK   13  A    between atoms: C18_27  and  C19_28 
REMARK   14  A    between atoms: N6_29  and  N7_31 
REMARK       I    between atoms: N8_34  and  C20_35 
REMARK   15  A    between atoms: C20_35  and  C21_37 
REMARK   16  A    between atoms: C21_37  and  N9_38 
REMARK   17  A    between atoms: C21_37  and  C22_42 
REMARK   18  A    between atoms: C22_42  and  C23_43 
REMARK   19  A    between atoms: C23_43  and  C24_44 
REMARK   20  A    between atoms: C24_44  and  N10_45 
ROOT
HETATM    1  N2  UNL     1      -7.869  17.657  -0.390  1.00  0.00    -0.218 N 
HETATM    2  C11 UNL     1      -7.073  18.791  -0.063  1.00  0.00     0.250 C 
HETATM    3  O2  UNL     1      -7.252  19.718   0.721  1.00  0.00    -0.271 OA
HETATM    4  C12 UNL     1      -5.822  18.634  -0.954  1.00  0.00     0.110 C 
HETATM    5  C18 UNL     1      -6.537  18.250  -2.238  1.00  0.00     0.165 C 
HETATM    6  N8  UNL     1      -7.692  17.454  -1.765  1.00  0.00    -0.239 N 
HETATM    7  C20 UNL     1      -8.496  16.573  -2.571  1.00  0.00     0.270 C 
HETATM    8  O3  UNL     1      -9.423  15.909  -1.993  1.00  0.00    -0.269 OA
ENDROOT
BRANCH   1   9
HETATM    9  C10 UNL     1      -8.665  16.914   0.549  1.00  0.00     0.060 A 
HETATM   10  C9  UNL     1      -8.261  15.802   1.219  1.00  0.00     0.032 A 
HETATM   11  C8  UNL     1      -9.076  15.124   2.144  1.00  0.00     0.018 A 
HETATM   12  C7  UNL     1     -10.333  15.576   2.403  1.00  0.00     0.015 A 
HETATM   13  C27 UNL     1     -10.766  16.730   1.714  1.00  0.00     0.018 A 
HETATM   14  C26 UNL     1      -9.937  17.361   0.817  1.00  0.00     0.032 A 
BRANCH  12  15
HETATM   15  C6  UNL     1     -11.228  14.933   3.343  1.00  0.00     0.148 C 
BRANCH  15  16
HETATM   16  N1  UNL     1     -11.593  15.254   4.637  1.00  0.00    -0.366 N 
HETATM   17  C5  UNL     1     -12.577  14.716   5.515  1.00  0.00     0.151 C 
BRANCH  16  18
HETATM   18  C4  UNL     1     -10.807  16.382   5.244  1.00  0.00     0.124 C 
BRANCH  18  19
HETATM   19  C3  UNL     1      -9.698  15.709   5.992  1.00  0.00     0.019 C 
BRANCH  19  20
HETATM   20  C2  UNL     1      -8.388  16.397   5.681  1.00  0.00    -0.003 C 
HETATM   21  C1  UNL     1      -8.666  17.661   4.897  1.00  0.00     0.005 C 
ENDBRANCH  19  20
ENDBRANCH  18  19
ENDBRANCH  16  18
ENDBRANCH  15  16
BRANCH  15  22
HETATM   22  O1  UNL     1     -11.803  13.838   2.885  1.00  0.00    -0.346 OA
ATOM     23  H1  UNL     1     -12.713  13.958   2.639  1.00  0.00     0.219 HD
ENDBRANCH  15  22
ENDBRANCH  12  15
ENDBRANCH   1   9
BRANCH   4  24
HETATM   24  C13 UNL     1      -5.103  17.486  -0.344  1.00  0.00     0.017 C 
BRANCH  24  25
HETATM   25  C14 UNL     1      -3.715  17.177  -0.713  1.00  0.00     0.002 C 
BRANCH  25  26
HETATM   26  C15 UNL     1      -3.421  17.070  -2.162  1.00  0.00     0.020 C 
BRANCH  26  27
HETATM   27  C16 UNL     1      -2.070  17.785  -2.366  1.00  0.00     0.122 C 
BRANCH  27  28
HETATM   28  N3  UNL     1      -1.898  17.990  -3.766  1.00  0.00    -0.367 N 
HETATM   29  C17 UNL     1      -1.585  19.166  -4.259  1.00  0.00     0.196 C 
HETATM   30  N4  UNL     1      -1.414  19.363  -5.651  1.00  0.00    -0.067 NA
HETATM   31  N5  UNL     1      -1.435  20.217  -3.330  1.00  0.00    -0.067 NA
ATOM     32  H3  UNL     1      -2.022  17.202  -4.402  1.00  0.00     0.161 HD
ENDBRANCH  27  28
ENDBRANCH  26  27
ENDBRANCH  25  26
ENDBRANCH  24  25
ENDBRANCH   4  24
BRANCH   5  33
HETATM   33  C19 UNL     1      -6.976  19.478  -2.956  1.00  0.00     0.107 C 
HETATM   34  N6  UNL     1      -6.176  20.294  -3.506  1.00  0.00    -0.320 N 
ATOM     35  H6  UNL     1      -6.582  21.105  -3.973  1.00  0.00     0.185 HD
BRANCH  34  36
HETATM   36  N7  UNL     1      -4.796  20.174  -3.526  1.00  0.00    -0.346 N 
ATOM     37  H72 UNL     1      -4.368  19.764  -2.695  1.00  0.00     0.176 HD
ATOM     38  H71 UNL     1      -4.189  20.460  -4.294  1.00  0.00     0.176 HD
ENDBRANCH  34  36
ENDBRANCH   5  33
BRANCH   7  39
HETATM   39  C21 UNL     1      -8.355  16.354  -4.007  1.00  0.00     0.276 C 
BRANCH  39  40
HETATM   40  N9  UNL     1      -8.578  14.903  -4.280  1.00  0.00    -0.066 N 
ATOM     41  H93 UNL     1      -8.217  14.613  -5.188  1.00  0.00     0.275 HD
ATOM     42  H92 UNL     1      -7.995  14.299  -3.701  1.00  0.00     0.275 HD
ATOM     43  H91 UNL     1      -9.574  14.709  -4.173  1.00  0.00     0.275 HD
ENDBRANCH  39  40
BRANCH  39  44
HETATM   44  C22 UNL     1      -9.466  17.045  -4.829  1.00  0.00     0.044 C 
BRANCH  44  45
HETATM   45  C23 UNL     1      -8.861  17.372  -6.167  1.00  0.00     0.022 C 
BRANCH  45  46
HETATM   46  C24 UNL     1      -7.508  18.040  -6.023  1.00  0.00     0.122 C 
BRANCH  46  47
HETATM   47  N10 UNL     1      -6.504  17.381  -6.820  1.00  0.00    -0.367 N 
HETATM   48  C25 UNL     1      -5.266  17.307  -6.536  1.00  0.00     0.196 C 
HETATM   49  N11 UNL     1      -4.755  17.906  -5.341  1.00  0.00    -0.067 NA
HETATM   50  N12 UNL     1      -4.406  16.614  -7.429  1.00  0.00    -0.067 NA
ATOM     51  H10 UNL     1      -6.813  16.937  -7.685  1.00  0.00     0.161 HD
ENDBRANCH  46  47
ENDBRANCH  45  46
ENDBRANCH  44  45
ENDBRANCH  39  44
ENDBRANCH   7  39
TORSDOF 20
ENDMDL
MODEL 3
REMARK VINA RESULT: -7.453565458      3.408     11.731
REMARK  20 active torsions:
REMARK  status: ('A' for Active; 'I' for Inactive)
REMARK    1  A    between atoms: C2_2  and  C3_3 
REMARK    2  A    between atoms: C3_3  and  C4_4 
REMARK    3  A    between atoms: C4_4  and  N1_5 
REMARK    4  A    between atoms: N1_5  and  C6_7 
REMARK    5  A    between atoms: C6_7  and  O1_8 
REMARK    6  A    between atoms: C6_7  and  C7_10 
REMARK    7  A    between atoms: C10_13  and  N2_14 
REMARK    8  A    between atoms: C12_17  and  C13_18 
REMARK    9  A    between atoms: C13_18  and  C14_19 
REMARK   10  A    between atoms: C14_19  and  C15_20 
REMARK   11  A    between atoms: C15_20  and  C16_21 
REMARK   12  A    between atoms: C16_21  and  N3_22 
REMARK   13  A    between atoms: C18_27  and  C19_28 
REMARK   14  A    between atoms: N6_29  and  N7_31 
REMARK       I    between atoms: N8_34  and  C20_35 
REMARK   15  A    between atoms: C20_35  and  C21_37 
REMARK   16  A    between atoms: C21_37  and  N9_38 
REMARK   17  A    between atoms: C21_37  and  C22_42 
REMARK   18  A    between atoms: C22_42  and  C23_43 
REMARK   19  A    between atoms: C23_43  and  C24_44 
REMARK   20  A    between atoms: C24_44  and  N10_45 
ROOT
HETATM    1  N2  UNL     1     -11.388  15.655   2.532  1.00  0.00    -0.218 N 
HETATM    2  C11 UNL     1     -12.780  15.530   2.263  1.00  0.00     0.250 C 
HETATM    3  O2  UNL     1     -13.527  16.145   1.508  1.00  0.00    -0.271 OA
HETATM    4  C12 UNL     1     -13.231  14.372   3.179  1.00  0.00     0.110 C 
HETATM    5  C18 UNL     1     -12.487  14.805   4.431  1.00  0.00     0.165 C 
HETATM    6  N8  UNL     1     -11.242  15.406   3.902  1.00  0.00    -0.239 N 
HETATM    7  C20 UNL     1     -10.045  15.667   4.657  1.00  0.00     0.270 C 
HETATM    8  O3  UNL     1      -9.032  16.136   4.034  1.00  0.00    -0.269 OA
ENDROOT
BRANCH   1   9
HETATM    9  C10 UNL     1     -10.386  15.970   1.548  1.00  0.00     0.060 A 
HETATM   10  C9  UNL     1      -9.654  15.062   0.851  1.00  0.00     0.032 A 
HETATM   11  C8  UNL     1      -8.700  15.426  -0.117  1.00  0.00     0.018 A 
HETATM   12  C7  UNL     1      -8.475  16.739  -0.392  1.00  0.00     0.015 A 
HETATM   13  C27 UNL     1      -9.229  17.693   0.326  1.00  0.00     0.018 A 
HETATM   14  C26 UNL     1     -10.151  17.294   1.264  1.00  0.00     0.032 A 
BRANCH  12  15
HETATM   15  C6  UNL     1      -7.511  17.189  -1.375  1.00  0.00     0.148 C 
BRANCH  15  16
HETATM   16  N1  UNL     1      -7.658  17.623  -2.680  1.00  0.00    -0.366 N 
HETATM   17  C5  UNL     1      -6.812  18.385  -3.535  1.00  0.00     0.151 C 
BRANCH  16  18
HETATM   18  C4  UNL     1      -8.951  17.217  -3.328  1.00  0.00     0.124 C 
BRANCH  18  19
HETATM   19  C3  UNL     1      -8.538  16.467  -4.556  1.00  0.00     0.019 C 
BRANCH  19  20
HETATM   20  C2  UNL     1      -9.280  15.150  -4.618  1.00  0.00    -0.003 C 
HETATM   21  C1  UNL     1     -10.572  15.273  -3.839  1.00  0.00     0.005 C 
ENDBRANCH  19  20
ENDBRANCH  18  19
ENDBRANCH  16  18
ENDBRANCH  15  16
BRANCH  15  22
HETATM   22  O1  UNL     1      -6.262  17.187  -0.953  1.00  0.00    -0.346 OA
ATOM     23  H1  UNL     1      -6.146  17.579  -0.095  1.00  0.00     0.219 HD
ENDBRANCH  15  22
ENDBRANCH  12  15
ENDBRANCH   1   9
BRANCH   4  24
HETATM   24  C13 UNL     1     -12.621  13.173   2.547  1.00  0.00     0.017 C 
BRANCH  24  25
HETATM   25  C14 UNL     1     -13.007  11.818   2.963  1.00  0.00     0.002 C 
BRANCH  25  26
HETATM   26  C15 UNL     1     -12.961  11.529   4.416  1.00  0.00     0.020 C 
BRANCH  26  27
HETATM   27  C16 UNL     1     -14.035  10.450   4.659  1.00  0.00     0.122 C 
BRANCH  27  28
HETATM   28  N3  UNL     1     -14.352  10.463   6.049  1.00  0.00    -0.367 N 
HETATM   29  C17 UNL     1     -15.480  10.964   6.497  1.00  0.00     0.196 C 
HETATM   30  N4  UNL     1     -15.789  10.973   7.879  1.00  0.00    -0.067 NA
HETATM   31  N5  UNL     1     -16.358  11.497   5.529  1.00  0.00    -0.067 NA
ATOM     32  H3  UNL     1     -13.684  10.072   6.714  1.00  0.00     0.161 HD
ENDBRANCH  27  28
ENDBRANCH  26  27
ENDBRANCH  25  26
ENDBRANCH  24  25
ENDBRANCH   4  24
BRANCH   5  33
HETATM   33  C19 UNL     1     -13.301  15.801   5.180  1.00  0.00     0.107 C 
HETATM   34  N6  UNL     1     -14.197  15.487   6.021  1.00  0.00    -0.320 N 
ATOM     35  H6  UNL     1     -14.697  16.249   6.478  1.00  0.00     0.185 HD
BRANCH  34  36
HETATM   36  N7  UNL     1     -14.553  14.194   6.368  1.00  0.00    -0.346 N 
ATOM     37  H72 UNL     1     -14.706  13.546   5.594  1.00  0.00     0.176 HD
ATOM     38  H71 UNL     1     -14.670  13.849   7.320  1.00  0.00     0.176 HD
ENDBRANCH  34  36
ENDBRANCH   5  33
BRANCH   7  39
HETATM   39  C21 UNL     1      -9.865  15.441   6.088  1.00  0.00     0.276 C 
BRANCH  39  40
HETATM   40  N9  UNL     1      -8.420  15.153   6.336  1.00  0.00    -0.066 N 
ATOM     41  H93 UNL     1      -7.814  15.528   5.607  1.00  0.00     0.275 HD
ATOM     42  H92 UNL     1      -8.041  15.686   7.118  1.00  0.00     0.275 HD
ATOM     43  H91 UNL     1      -8.313  14.146   6.456  1.00  0.00     0.275 HD
ENDBRANCH  39  40
BRANCH  39  44
HETATM   44  C22 UNL     1     -10.123  16.710   6.931  1.00  0.00     0.044 C 
BRANCH  44  45
HETATM   45  C23 UNL     1     -10.900  16.265   8.139  1.00  0.00     0.022 C 
BRANCH  45  46
HETATM   46  C24 UNL     1     -11.367  14.829   8.008  1.00  0.00     0.122 C 
BRANCH  46  47
HETATM   47  N10 UNL     1     -12.261  14.463   9.078  1.00  0.00    -0.367 N 
HETATM   48  C25 UNL     1     -12.796  13.319   9.236  1.00  0.00     0.196 C 
HETATM   49  N11 UNL     1     -12.535  12.259   8.311  1.00  0.00    -0.067 NA
HETATM   50  N12 UNL     1     -13.654  13.119  10.350  1.00  0.00    -0.067 NA
ATOM     51  H10 UNL     1     -12.484  15.182   9.767  1.00  0.00     0.161 HD
ENDBRANCH  46  47
ENDBRANCH  45  46
ENDBRANCH  44  45
ENDBRANCH  39  44
ENDBRANCH   7  39
TORSDOF 20
ENDMDL
MODEL 4
REMARK VINA RESULT: -7.439708952      3.404     11.249
REMARK  20 active torsions:
REMARK  status: ('A' for Active; 'I' for Inactive)
REMARK    1  A    between atoms: C2_2  and  C3_3 
REMARK    2  A    between atoms: C3_3  and  C4_4 
REMARK    3  A    between atoms: C4_4  and  N1_5 
REMARK    4  A    between atoms: N1_5  and  C6_7 
REMARK    5  A    between atoms: C6_7  and  O1_8 
REMARK    6  A    between atoms: C6_7  and  C7_10 
REMARK    7  A    between atoms: C10_13  and  N2_14 
REMARK    8  A    between atoms: C12_17  and  C13_18 
REMARK    9  A    between atoms: C13_18  and  C14_19 
REMARK   10  A    between atoms: C14_19  and  C15_20 
REMARK   11  A    between atoms: C15_20  and  C16_21 
REMARK   12  A    between atoms: C16_21  and  N3_22 
REMARK   13  A    between atoms: C18_27  and  C19_28 
REMARK   14  A    between atoms: N6_29  and  N7_31 
REMARK       I    between atoms: N8_34  and  C20_35 
REMARK   15  A    between atoms: C20_35  and  C21_37 
REMARK   16  A    between atoms: C21_37  and  N9_38 
REMARK   17  A    between atoms: C21_37  and  C22_42 
REMARK   18  A    between atoms: C22_42  and  C23_43 
REMARK   19  A    between atoms: C23_43  and  C24_44 
REMARK   20  A    between atoms: C24_44  and  N10_45 
ROOT
HETATM    1  N2  UNL     1     -11.691  15.399   2.449  1.00  0.00    -0.218 N 
HETATM    2  C11 UNL     1     -13.100  15.284   2.273  1.00  0.00     0.250 C 
HETATM    3  O2  UNL     1     -13.881  15.864   1.525  1.00  0.00    -0.271 OA
HETATM    4  C12 UNL     1     -13.512  14.197   3.289  1.00  0.00     0.110 C 
HETATM    5  C18 UNL     1     -12.687  14.696   4.462  1.00  0.00     0.165 C 
HETATM    6  N8  UNL     1     -11.467  15.236   3.822  1.00  0.00    -0.239 N 
HETATM    7  C20 UNL     1     -10.222  15.522   4.486  1.00  0.00     0.270 C 
HETATM    8  O3  UNL     1      -9.241  15.929   3.773  1.00  0.00    -0.269 OA
ENDROOT
BRANCH   1   9
HETATM    9  C10 UNL     1     -10.747  15.629   1.388  1.00  0.00     0.060 A 
HETATM   10  C9  UNL     1      -9.830  14.731   0.942  1.00  0.00     0.032 A 
HETATM   11  C8  UNL     1      -8.942  15.003  -0.115  1.00  0.00     0.018 A 
HETATM   12  C7  UNL     1      -8.976  16.211  -0.741  1.00  0.00     0.015 A 
HETATM   13  C27 UNL     1      -9.924  17.153  -0.286  1.00  0.00     0.018 A 
HETATM   14  C26 UNL     1     -10.773  16.847   0.751  1.00  0.00     0.032 A 
BRANCH  12  15
HETATM   15  C6  UNL     1      -8.096  16.561  -1.836  1.00  0.00     0.148 C 
BRANCH  15  16
HETATM   16  N1  UNL     1      -7.085  17.499  -1.943  1.00  0.00    -0.366 N 
HETATM   17  C5  UNL     1      -6.715  18.391  -2.989  1.00  0.00     0.151 C 
BRANCH  16  18
HETATM   18  C4  UNL     1      -6.205  17.607  -0.729  1.00  0.00     0.124 C 
BRANCH  18  19
HETATM   19  C3  UNL     1      -6.044  19.079  -0.510  1.00  0.00     0.019 C 
BRANCH  19  20
HETATM   20  C2  UNL     1      -6.749  19.480   0.767  1.00  0.00    -0.003 C 
HETATM   21  C1  UNL     1      -7.100  18.234   1.551  1.00  0.00     0.005 C 
ENDBRANCH  19  20
ENDBRANCH  18  19
ENDBRANCH  16  18
ENDBRANCH  15  16
BRANCH  15  22
HETATM   22  O1  UNL     1      -8.289  15.860  -2.936  1.00  0.00    -0.346 OA
ATOM     23  H1  UNL     1      -9.200  15.643  -3.096  1.00  0.00     0.219 HD
ENDBRANCH  15  22
ENDBRANCH  12  15
ENDBRANCH   1   9
BRANCH   4  24
HETATM   24  C13 UNL     1     -12.961  12.948   2.702  1.00  0.00     0.017 C 
BRANCH  24  25
HETATM   25  C14 UNL     1     -12.714  11.764   3.536  1.00  0.00     0.002 C 
BRANCH  25  26
HETATM   26  C15 UNL     1     -13.850  11.278   4.355  1.00  0.00     0.020 C 
BRANCH  26  27
HETATM   27  C16 UNL     1     -13.276  10.148   5.233  1.00  0.00     0.122 C 
BRANCH  27  28
HETATM   28  N3  UNL     1     -12.525   9.283   4.384  1.00  0.00    -0.367 N 
HETATM   29  C17 UNL     1     -12.786   7.999   4.300  1.00  0.00     0.196 C 
HETATM   30  N4  UNL     1     -12.037   7.145   3.453  1.00  0.00    -0.067 NA
HETATM   31  N5  UNL     1     -13.844   7.519   5.100  1.00  0.00    -0.067 NA
ATOM     32  H3  UNL     1     -11.764   9.672   3.827  1.00  0.00     0.161 HD
ENDBRANCH  27  28
ENDBRANCH  26  27
ENDBRANCH  25  26
ENDBRANCH  24  25
ENDBRANCH   4  24
BRANCH   5  33
HETATM   33  C19 UNL     1     -13.438  15.755   5.192  1.00  0.00     0.107 C 
HETATM   34  N6  UNL     1     -14.314  15.513   6.075  1.00  0.00    -0.320 N 
ATOM     35  H6  UNL     1     -14.770  16.313   6.514  1.00  0.00     0.185 HD
BRANCH  34  36
HETATM   36  N7  UNL     1     -14.704  14.251   6.493  1.00  0.00    -0.346 N 
ATOM     37  H72 UNL     1     -14.012  13.718   7.021  1.00  0.00     0.176 HD
ATOM     38  H71 UNL     1     -15.613  13.824   6.315  1.00  0.00     0.176 HD
ENDBRANCH  34  36
ENDBRANCH   5  33
BRANCH   7  39
HETATM   39  C21 UNL     1      -9.959  15.385   5.915  1.00  0.00     0.276 C 
BRANCH  39  40
HETATM   40  N9  UNL     1      -8.497  15.138   6.097  1.00  0.00    -0.066 N 
ATOM     41  H93 UNL     1      -8.149  14.383   5.507  1.00  0.00     0.275 HD
ATOM     42  H92 UNL     1      -7.921  15.888   5.716  1.00  0.00     0.275 HD
ATOM     43  H91 UNL     1      -8.324  14.973   7.089  1.00  0.00     0.275 HD
ENDBRANCH  39  40
BRANCH  39  44
HETATM   44  C22 UNL     1     -10.196  16.699   6.694  1.00  0.00     0.044 C 
BRANCH  44  45
HETATM   45  C23 UNL     1     -10.913  16.316   7.960  1.00  0.00     0.022 C 
BRANCH  45  46
HETATM   46  C24 UNL     1     -11.342  14.862   7.944  1.00  0.00     0.122 C 
BRANCH  46  47
HETATM   47  N10 UNL     1     -12.325  14.589   8.962  1.00  0.00    -0.367 N 
HETATM   48  C25 UNL     1     -12.644  13.434   9.391  1.00  0.00     0.196 C 
HETATM   49  N11 UNL     1     -12.015  12.262   8.864  1.00  0.00    -0.067 NA
HETATM   50  N12 UNL     1     -13.633  13.336  10.406  1.00  0.00    -0.067 NA
ATOM     51  H10 UNL     1     -12.807  15.389   9.373  1.00  0.00     0.161 HD
ENDBRANCH  46  47
ENDBRANCH  45  46
ENDBRANCH  44  45
ENDBRANCH  39  44
ENDBRANCH   7  39
TORSDOF 20
ENDMDL
MODEL 5
REMARK VINA RESULT: -7.430642562      3.424     11.445
REMARK  20 active torsions:
REMARK  status: ('A' for Active; 'I' for Inactive)
REMARK    1  A    between atoms: C2_2  and  C3_3 
REMARK    2  A    between atoms: C3_3  and  C4_4 
REMARK    3  A    between atoms: C4_4  and  N1_5 
REMARK    4  A    between atoms: N1_5  and  C6_7 
REMARK    5  A    between atoms: C6_7  and  O1_8 
REMARK    6  A    between atoms: C6_7  and  C7_10 
REMARK    7  A    between atoms: C10_13  and  N2_14 
REMARK    8  A    between atoms: C12_17  and  C13_18 
REMARK    9  A    between atoms: C13_18  and  C14_19 
REMARK   10  A    between atoms: C14_19  and  C15_20 
REMARK   11  A    between atoms: C15_20  and  C16_21 
REMARK   12  A    between atoms: C16_21  and  N3_22 
REMARK   13  A    between atoms: C18_27  and  C19_28 
REMARK   14  A    between atoms: N6_29  and  N7_31 
REMARK       I    between atoms: N8_34  and  C20_35 
REMARK   15  A    between atoms: C20_35  and  C21_37 
REMARK   16  A    between atoms: C21_37  and  N9_38 
REMARK   17  A    between atoms: C21_37  and  C22_42 
REMARK   18  A    between atoms: C22_42  and  C23_43 
REMARK   19  A    between atoms: C23_43  and  C24_44 
REMARK   20  A    between atoms: C24_44  and  N10_45 
ROOT
HETATM    1  N2  UNL     1     -11.388  15.660   2.509  1.00  0.00    -0.218 N 
HETATM    2  C11 UNL     1     -12.780  15.526   2.239  1.00  0.00     0.250 C 
HETATM    3  O2  UNL     1     -13.530  16.137   1.483  1.00  0.00    -0.271 OA
HETATM    4  C12 UNL     1     -13.223  14.362   3.151  1.00  0.00     0.110 C 
HETATM    5  C18 UNL     1     -12.484  14.797   4.404  1.00  0.00     0.165 C 
HETATM    6  N8  UNL     1     -11.243  15.408   3.879  1.00  0.00    -0.239 N 
HETATM    7  C20 UNL     1     -10.048  15.675   4.636  1.00  0.00     0.270 C 
HETATM    8  O3  UNL     1      -9.038  16.153   4.015  1.00  0.00    -0.269 OA
ENDROOT
BRANCH   1   9
HETATM    9  C10 UNL     1     -10.388  15.984   1.527  1.00  0.00     0.060 A 
HETATM   10  C9  UNL     1      -9.642  15.082   0.836  1.00  0.00     0.032 A 
HETATM   11  C8  UNL     1      -8.689  15.455  -0.131  1.00  0.00     0.018 A 
HETATM   12  C7  UNL     1      -8.480  16.770  -0.410  1.00  0.00     0.015 A 
HETATM   13  C27 UNL     1      -9.249  17.717   0.302  1.00  0.00     0.018 A 
HETATM   14  C26 UNL     1     -10.169  17.310   1.238  1.00  0.00     0.032 A 
BRANCH  12  15
HETATM   15  C6  UNL     1      -7.520  17.229  -1.391  1.00  0.00     0.148 C 
BRANCH  15  16
HETATM   16  N1  UNL     1      -7.672  17.694  -2.685  1.00  0.00    -0.366 N 
HETATM   17  C5  UNL     1      -6.854  18.522  -3.506  1.00  0.00     0.151 C 
BRANCH  16  18
HETATM   18  C4  UNL     1      -8.936  17.245  -3.362  1.00  0.00     0.124 C 
BRANCH  18  19
HETATM   19  C3  UNL     1      -8.471  16.418  -4.519  1.00  0.00     0.019 C 
BRANCH  19  20
HETATM   20  C2  UNL     1      -9.247  15.120  -4.557  1.00  0.00    -0.003 C 
HETATM   21  C1  UNL     1     -10.565  15.310  -3.838  1.00  0.00     0.005 C 
ENDBRANCH  19  20
ENDBRANCH  18  19
ENDBRANCH  16  18
ENDBRANCH  15  16
BRANCH  15  22
HETATM   22  O1  UNL     1      -6.267  17.200  -0.982  1.00  0.00    -0.346 OA
ATOM     23  H1  UNL     1      -6.166  16.935  -0.075  1.00  0.00     0.219 HD
ENDBRANCH  15  22
ENDBRANCH  12  15
ENDBRANCH   1   9
BRANCH   4  24
HETATM   24  C13 UNL     1     -12.604  13.169   2.517  1.00  0.00     0.017 C 
BRANCH  24  25
HETATM   25  C14 UNL     1     -12.979  11.811   2.931  1.00  0.00     0.002 C 
BRANCH  25  26
HETATM   26  C15 UNL     1     -13.938  11.699   4.057  1.00  0.00     0.020 C 
BRANCH  26  27
HETATM   27  C16 UNL     1     -13.282  10.737   5.068  1.00  0.00     0.122 C 
BRANCH  27  28
HETATM   28  N3  UNL     1     -12.624   9.714   4.325  1.00  0.00    -0.367 N 
HETATM   29  C17 UNL     1     -12.861   8.441   4.541  1.00  0.00     0.196 C 
HETATM   30  N4  UNL     1     -12.206   7.429   3.798  1.00  0.00    -0.067 NA
HETATM   31  N5  UNL     1     -13.797   8.140   5.554  1.00  0.00    -0.067 NA
ATOM     32  H3  UNL     1     -11.950   9.978   3.606  1.00  0.00     0.161 HD
ENDBRANCH  27  28
ENDBRANCH  26  27
ENDBRANCH  25  26
ENDBRANCH  24  25
ENDBRANCH   4  24
BRANCH   5  33
HETATM   33  C19 UNL     1     -13.306  15.786   5.155  1.00  0.00     0.107 C 
HETATM   34  N6  UNL     1     -14.180  15.465   6.016  1.00  0.00    -0.320 N 
ATOM     35  H6  UNL     1     -14.688  16.222   6.472  1.00  0.00     0.185 HD
BRANCH  34  36
HETATM   36  N7  UNL     1     -14.501  14.169   6.386  1.00  0.00    -0.346 N 
ATOM     37  H72 UNL     1     -13.945  13.765   7.140  1.00  0.00     0.176 HD
ATOM     38  H71 UNL     1     -15.239  13.601   5.968  1.00  0.00     0.176 HD
ENDBRANCH  34  36
ENDBRANCH   5  33
BRANCH   7  39
HETATM   39  C21 UNL     1      -9.868  15.447   6.067  1.00  0.00     0.276 C 
BRANCH  39  40
HETATM   40  N9  UNL     1      -8.431  15.125   6.309  1.00  0.00    -0.066 N 
ATOM     41  H93 UNL     1      -8.091  14.370   5.714  1.00  0.00     0.275 HD
ATOM     42  H92 UNL     1      -7.802  15.856   5.976  1.00  0.00     0.275 HD
ATOM     43  H91 UNL     1      -8.312  14.926   7.302  1.00  0.00     0.275 HD
ENDBRANCH  39  40
BRANCH  39  44
HETATM   44  C22 UNL     1     -10.093  16.724   6.908  1.00  0.00     0.044 C 
BRANCH  44  45
HETATM   45  C23 UNL     1     -10.821  16.290   8.150  1.00  0.00     0.022 C 
BRANCH  45  46
HETATM   46  C24 UNL     1     -11.345  14.872   8.027  1.00  0.00     0.122 C 
BRANCH  46  47
HETATM   47  N10 UNL     1     -12.323  14.579   9.044  1.00  0.00    -0.367 N 
HETATM   48  C25 UNL     1     -12.675  13.414   9.417  1.00  0.00     0.196 C 
HETATM   49  N11 UNL     1     -12.094  12.251   8.820  1.00  0.00    -0.067 NA
HETATM   50  N12 UNL     1     -13.654  13.296  10.440  1.00  0.00    -0.067 NA
ATOM     51  H10 UNL     1     -12.772  15.372   9.503  1.00  0.00     0.161 HD
ENDBRANCH  46  47
ENDBRANCH  45  46
ENDBRANCH  44  45
ENDBRANCH  39  44
ENDBRANCH   7  39
TORSDOF 20
ENDMDL
