MODEL 1
REMARK VINA RESULT: -8.180238429      0.000      0.000
REMARK  21 active torsions:
REMARK  status: ('A' for Active; 'I' for Inactive)
REMARK    1  A    between atoms: C2_2  and  C3_3 
REMARK    2  A    between atoms: C3_3  and  N1_4 
REMARK    3  A    between atoms: N1_4  and  C4_6 
REMARK    4  A    between atoms: C5_9  and  N3_10 
REMARK    5  A    between atoms: N3_10  and  C6_12 
REMARK    6  A    between atoms: C6_12  and  C7_13 
REMARK    7  A    between atoms: C7_13  and  C8_14 
REMARK    8  A    between atoms: C8_14  and  N4_15 
REMARK    9  A    between atoms: N4_15  and  C9_17 
REMARK   10  A    between atoms: C9_17  and  O1_18 
REMARK   11  A    between atoms: C9_17  and  C10_20 
REMARK   12  A    between atoms: C10_20  and  C11_21 
REMARK   13  A    between atoms: C11_21  and  C12_22 
REMARK   14  A    between atoms: C12_22  and  C13_23 
REMARK   15  A    between atoms: C12_22  and  C16_30 
REMARK   16  A    between atoms: C13_23  and  C14_24 
REMARK   17  A    between atoms: C14_24  and  N5_25 
REMARK   18  A    between atoms: N9_39  and  C23_41 
REMARK   19  A    between atoms: C23_41  and  C24_42 
REMARK   20  A    between atoms: C24_42  and  C25_43 
REMARK   21  A    between atoms: C25_43  and  N10_44 
ROOT
HETATM    1  C4  UNL     1      -8.323  17.465  -4.493  1.00  0.00     0.707 A 
HETATM    2  N2  UNL     1      -7.923  18.445  -3.669  1.00  0.00    -0.022 N 
ATOM      3  H2  UNL     1      -8.462  18.683  -2.836  1.00  0.00     0.203 HD
HETATM    4  C5  UNL     1      -6.791  19.105  -3.972  1.00  0.00     0.707 A 
HETATM    5  N8  UNL     1      -6.083  18.763  -5.105  1.00  0.00    -0.022 N 
ATOM      6  H8  UNL     1      -5.228  19.276  -5.319  1.00  0.00     0.203 HD
HETATM    7  C22 UNL     1      -6.470  17.794  -5.931  1.00  0.00     0.707 A 
HETATM    8  N9  UNL     1      -5.858  17.449  -6.988  1.00  0.00    -0.225 N 
ATOM      9  H9  UNL     1      -6.266  16.687  -7.530  1.00  0.00     0.177 HD
HETATM   10  N12 UNL     1      -7.626  17.138  -5.597  1.00  0.00    -0.022 N 
ATOM     11  H12 UNL     1      -7.966  16.387  -6.198  1.00  0.00     0.203 HD
ENDROOT
BRANCH   4  12
HETATM   12  N3  UNL     1      -6.341  20.049  -3.257  1.00  0.00    -0.225 N 
ATOM     13  H3  UNL     1      -6.999  20.678  -2.796  1.00  0.00     0.177 HD
BRANCH  12  14
HETATM   14  C6  UNL     1      -4.936  20.261  -3.076  1.00  0.00     0.139 C 
BRANCH  14  15
HETATM   15  C7  UNL     1      -4.599  20.288  -1.588  1.00  0.00     0.040 C 
BRANCH  15  16
HETATM   16  C8  UNL     1      -4.647  18.886  -1.081  1.00  0.00     0.123 C 
BRANCH  16  17
HETATM   17  N4  UNL     1      -5.344  18.810   0.206  1.00  0.00    -0.371 N 
ATOM     18  H4  UNL     1      -4.853  19.114   1.047  1.00  0.00     0.161 HD
BRANCH  17  19
HETATM   19  C9  UNL     1      -6.653  18.339   0.327  1.00  0.00     0.135 C 
BRANCH  19  20
HETATM   20  O1  UNL     1      -7.455  18.676  -0.666  1.00  0.00    -0.346 OA
ATOM     21  H1  UNL     1      -7.210  19.472  -1.122  1.00  0.00     0.219 HD
ENDBRANCH  19  20
BRANCH  19  22
HETATM   22  C10 UNL     1      -7.287  17.554   1.335  1.00  0.00     0.052 C 
BRANCH  22  23
HETATM   23  C11 UNL     1      -8.409  17.722   1.945  1.00  0.00    -0.013 C 
BRANCH  23  24
HETATM   24  C12 UNL     1      -9.380  16.845   2.557  1.00  0.00     0.042 C 
BRANCH  24  25
HETATM   25  C13 UNL     1     -10.805  17.303   2.410  1.00  0.00     0.033 C 
BRANCH  25  26
HETATM   26  C14 UNL     1     -11.561  16.596   1.335  1.00  0.00     0.123 C 
BRANCH  26  27
HETATM   27  N5  UNL     1     -11.418  15.153   1.418  1.00  0.00    -0.367 N 
HETATM   28  C15 UNL     1     -12.430  14.375   1.591  1.00  0.00     0.196 C 
HETATM   29  N6  UNL     1     -12.294  12.981   1.671  1.00  0.00    -0.067 NA
HETATM   30  N7  UNL     1     -13.713  14.970   1.703  1.00  0.00    -0.067 NA
ATOM     31  H5  UNL     1     -10.487  14.743   1.337  1.00  0.00     0.161 HD
ENDBRANCH  26  27
ENDBRANCH  25  26
ENDBRANCH  24  25
BRANCH  24  32
HETATM   32  C16 UNL     1      -9.026  16.682   4.016  1.00  0.00    -0.050 A 
HETATM   33  C17 UNL     1      -8.864  15.384   4.476  1.00  0.00     0.008 A 
HETATM   34  C18 UNL     1      -8.546  15.107   5.796  1.00  0.00     0.001 A 
HETATM   35  C19 UNL     1      -8.400  16.198   6.630  1.00  0.00     0.000 A 
HETATM   36  C20 UNL     1      -8.552  17.482   6.213  1.00  0.00     0.001 A 
HETATM   37  C21 UNL     1      -8.872  17.735   4.879  1.00  0.00     0.008 A 
ENDBRANCH  24  32
ENDBRANCH  23  24
ENDBRANCH  22  23
ENDBRANCH  19  22
ENDBRANCH  17  19
ENDBRANCH  16  17
ENDBRANCH  15  16
ENDBRANCH  14  15
ENDBRANCH  12  14
ENDBRANCH   4  12
BRANCH   1  38
HETATM   38  N1  UNL     1      -9.391  16.790  -4.265  1.00  0.00    -0.222 N 
ATOM     39  H1  UNL     1     -10.270  17.152  -4.634  1.00  0.00     0.178 HD
BRANCH  38  40
HETATM   40  C3  UNL     1      -9.429  15.574  -3.534  1.00  0.00     0.164 C 
BRANCH  40  41
HETATM   41  C2  UNL     1      -9.779  15.739  -2.090  1.00  0.00    -0.017 C 
HETATM   42  C1  UNL     1      -8.932  15.485  -1.119  1.00  0.00     0.008 C 
ENDBRANCH  40  41
ENDBRANCH  38  40
ENDBRANCH   1  38
BRANCH   8  43
HETATM   43  C23 UNL     1      -4.669  18.020  -7.485  1.00  0.00     0.140 C 
BRANCH  43  44
HETATM   44  C24 UNL     1      -3.470  17.106  -7.262  1.00  0.00     0.050 C 
BRANCH  44  45
HETATM   45  C25 UNL     1      -2.534  17.761  -6.301  1.00  0.00     0.274 C 
BRANCH  45  46
HETATM   46  N10 UNL     1      -2.174  16.866  -5.217  1.00  0.00     0.091 N 
HETATM   47  C26 UNL     1      -2.593  17.480  -3.981  1.00  0.00     0.302 C 
HETATM   48  C27 UNL     1      -2.346  16.562  -2.798  1.00  0.00     0.302 C 
HETATM   49  N11 UNL     1      -1.363  15.587  -3.229  1.00  0.00     0.087 N 
HETATM   50  C28 UNL     1      -0.960  14.693  -2.187  1.00  0.00     0.310 C 
HETATM   51  C29 UNL     1      -0.269  16.252  -3.878  1.00  0.00     0.302 C 
HETATM   52  C30 UNL     1      -0.749  16.640  -5.280  1.00  0.00     0.302 C 
ENDBRANCH  45  46
ENDBRANCH  44  45
ENDBRANCH  43  44
ENDBRANCH   8  43
TORSDOF 21
ENDMDL
MODEL 2
REMARK VINA RESULT: -7.944422951      4.650     12.251
REMARK  21 active torsions:
REMARK  status: ('A' for Active; 'I' for Inactive)
REMARK    1  A    between atoms: C2_2  and  C3_3 
REMARK    2  A    between atoms: C3_3  and  N1_4 
REMARK    3  A    between atoms: N1_4  and  C4_6 
REMARK    4  A    between atoms: C5_9  and  N3_10 
REMARK    5  A    between atoms: N3_10  and  C6_12 
REMARK    6  A    between atoms: C6_12  and  C7_13 
REMARK    7  A    between atoms: C7_13  and  C8_14 
REMARK    8  A    between atoms: C8_14  and  N4_15 
REMARK    9  A    between atoms: N4_15  and  C9_17 
REMARK   10  A    between atoms: C9_17  and  O1_18 
REMARK   11  A    between atoms: C9_17  and  C10_20 
REMARK   12  A    between atoms: C10_20  and  C11_21 
REMARK   13  A    between atoms: C11_21  and  C12_22 
REMARK   14  A    between atoms: C12_22  and  C13_23 
REMARK   15  A    between atoms: C12_22  and  C16_30 
REMARK   16  A    between atoms: C13_23  and  C14_24 
REMARK   17  A    between atoms: C14_24  and  N5_25 
REMARK   18  A    between atoms: N9_39  and  C23_41 
REMARK   19  A    between atoms: C23_41  and  C24_42 
REMARK   20  A    between atoms: C24_42  and  C25_43 
REMARK   21  A    between atoms: C25_43  and  N10_44 
ROOT
HETATM    1  C4  UNL     1     -11.467  15.727   6.805  1.00  0.00     0.707 A 
HETATM    2  N2  UNL     1     -12.507  16.072   6.031  1.00  0.00    -0.022 N 
ATOM      3  H2  UNL     1     -12.471  16.906   5.445  1.00  0.00     0.203 HD
HETATM    4  C5  UNL     1     -13.599  15.288   6.053  1.00  0.00     0.707 A 
HETATM    5  N8  UNL     1     -13.621  14.168   6.856  1.00  0.00    -0.022 N 
ATOM      6  H8  UNL     1     -14.458  13.585   6.860  1.00  0.00     0.203 HD
HETATM    7  C22 UNL     1     -12.595  13.815   7.628  1.00  0.00     0.707 A 
HETATM    8  N9  UNL     1     -12.571  12.801   8.390  1.00  0.00    -0.225 N 
ATOM      9  H9  UNL     1     -11.717  12.648   8.928  1.00  0.00     0.177 HD
HETATM   10  N12 UNL     1     -11.495  14.632   7.587  1.00  0.00    -0.022 N 
ATOM     11  H12 UNL     1     -10.683  14.406   8.161  1.00  0.00     0.203 HD
ENDROOT
BRANCH   4  12
HETATM   12  N3  UNL     1     -14.632  15.539   5.362  1.00  0.00    -0.225 N 
ATOM     13  H3  UNL     1     -15.054  16.465   5.423  1.00  0.00     0.177 HD
BRANCH  12  14
HETATM   14  C6  UNL     1     -15.223  14.561   4.498  1.00  0.00     0.139 C 
BRANCH  14  15
HETATM   15  C7  UNL     1     -14.695  14.732   3.077  1.00  0.00     0.040 C 
BRANCH  15  16
HETATM   16  C8  UNL     1     -13.795  13.582   2.780  1.00  0.00     0.123 C 
BRANCH  16  17
HETATM   17  N4  UNL     1     -12.408  13.886   3.139  1.00  0.00    -0.371 N 
ATOM     18  H4  UNL     1     -11.990  13.401   3.934  1.00  0.00     0.161 HD
BRANCH  17  19
HETATM   19  C9  UNL     1     -11.634  14.813   2.438  1.00  0.00     0.135 C 
BRANCH  19  20
HETATM   20  O1  UNL     1     -11.564  16.008   2.995  1.00  0.00    -0.346 OA
ATOM     21  H1  UNL     1     -11.083  16.037   3.813  1.00  0.00     0.219 HD
ENDBRANCH  19  20
BRANCH  19  22
HETATM   22  C10 UNL     1     -10.901  14.705   1.219  1.00  0.00     0.052 C 
BRANCH  22  23
HETATM   23  C11 UNL     1     -10.909  15.450   0.168  1.00  0.00    -0.013 C 
BRANCH  23  24
HETATM   24  C12 UNL     1      -9.946  16.309  -0.483  1.00  0.00     0.042 C 
BRANCH  24  25
HETATM   25  C13 UNL     1     -10.194  17.778  -0.282  1.00  0.00     0.033 C 
BRANCH  25  26
HETATM   26  C14 UNL     1      -9.638  18.318   0.994  1.00  0.00     0.123 C 
BRANCH  26  27
HETATM   27  N5  UNL     1      -8.534  19.235   0.769  1.00  0.00    -0.367 N 
HETATM   28  C15 UNL     1      -7.306  18.865   0.884  1.00  0.00     0.196 C 
HETATM   29  N6  UNL     1      -6.237  19.749   0.667  1.00  0.00    -0.067 NA
HETATM   30  N7  UNL     1      -7.048  17.517   1.244  1.00  0.00    -0.067 NA
ATOM     31  H5  UNL     1      -8.737  20.200   0.512  1.00  0.00     0.161 HD
ENDBRANCH  26  27
ENDBRANCH  25  26
ENDBRANCH  24  25
BRANCH  24  32
HETATM   32  C16 UNL     1      -9.924  15.975  -1.955  1.00  0.00    -0.050 A 
HETATM   33  C17 UNL     1      -8.805  15.304  -2.425  1.00  0.00     0.008 A 
HETATM   34  C18 UNL     1      -8.667  14.950  -3.758  1.00  0.00     0.001 A 
HETATM   35  C19 UNL     1      -9.707  15.303  -4.593  1.00  0.00     0.000 A 
HETATM   36  C20 UNL     1     -10.817  15.959  -4.167  1.00  0.00     0.001 A 
HETATM   37  C21 UNL     1     -10.934  16.305  -2.821  1.00  0.00     0.008 A 
ENDBRANCH  24  32
ENDBRANCH  23  24
ENDBRANCH  22  23
ENDBRANCH  19  22
ENDBRANCH  17  19
ENDBRANCH  16  17
ENDBRANCH  15  16
ENDBRANCH  14  15
ENDBRANCH  12  14
ENDBRANCH   4  12
BRANCH   1  38
HETATM   38  N1  UNL     1     -10.390  16.426   6.833  1.00  0.00    -0.222 N 
ATOM     39  H1  UNL     1     -10.482  17.442   6.829  1.00  0.00     0.178 HD
BRANCH  38  40
HETATM   40  C3  UNL     1      -9.080  15.879   6.868  1.00  0.00     0.164 C 
BRANCH  40  41
HETATM   41  C2  UNL     1      -8.217  16.283   5.717  1.00  0.00    -0.017 C 
HETATM   42  C1  UNL     1      -8.638  17.067   4.752  1.00  0.00     0.008 C 
ENDBRANCH  40  41
ENDBRANCH  38  40
ENDBRANCH   1  38
BRANCH   8  43
HETATM   43  C23 UNL     1     -13.611  11.865   8.564  1.00  0.00     0.140 C 
BRANCH  43  44
HETATM   44  C24 UNL     1     -13.235  10.496   8.014  1.00  0.00     0.050 C 
BRANCH  44  45
HETATM   45  C25 UNL     1     -13.358  10.521   6.525  1.00  0.00     0.274 C 
BRANCH  45  46
HETATM   46  N10 UNL     1     -13.399   9.179   5.973  1.00  0.00     0.091 N 
HETATM   47  C26 UNL     1     -12.727   9.207   4.697  1.00  0.00     0.302 C 
HETATM   48  C27 UNL     1     -12.634   7.819   4.093  1.00  0.00     0.302 C 
HETATM   49  N11 UNL     1     -13.641   7.011   4.755  1.00  0.00     0.087 N 
HETATM   50  C28 UNL     1     -13.734   5.683   4.231  1.00  0.00     0.310 C 
HETATM   51  C29 UNL     1     -14.892   7.714   4.780  1.00  0.00     0.302 C 
HETATM   52  C30 UNL     1     -14.783   8.781   5.874  1.00  0.00     0.302 C 
ENDBRANCH  45  46
ENDBRANCH  44  45
ENDBRANCH  43  44
ENDBRANCH   8  43
TORSDOF 21
ENDMDL
MODEL 3
REMARK VINA RESULT: -7.890526915      3.328      6.297
REMARK  21 active torsions:
REMARK  status: ('A' for Active; 'I' for Inactive)
REMARK    1  A    between atoms: C2_2  and  C3_3 
REMARK    2  A    between atoms: C3_3  and  N1_4 
REMARK    3  A    between atoms: N1_4  and  C4_6 
REMARK    4  A    between atoms: C5_9  and  N3_10 
REMARK    5  A    between atoms: N3_10  and  C6_12 
REMARK    6  A    between atoms: C6_12  and  C7_13 
REMARK    7  A    between atoms: C7_13  and  C8_14 
REMARK    8  A    between atoms: C8_14  and  N4_15 
REMARK    9  A    between atoms: N4_15  and  C9_17 
REMARK   10  A    between atoms: C9_17  and  O1_18 
REMARK   11  A    between atoms: C9_17  and  C10_20 
REMARK   12  A    between atoms: C10_20  and  C11_21 
REMARK   13  A    between atoms: C11_21  and  C12_22 
REMARK   14  A    between atoms: C12_22  and  C13_23 
REMARK   15  A    between atoms: C12_22  and  C16_30 
REMARK   16  A    between atoms: C13_23  and  C14_24 
REMARK   17  A    between atoms: C14_24  and  N5_25 
REMARK   18  A    between atoms: N9_39  and  C23_41 
REMARK   19  A    between atoms: C23_41  and  C24_42 
REMARK   20  A    between atoms: C24_42  and  C25_43 
REMARK   21  A    between atoms: C25_43  and  N10_44 
ROOT
HETATM    1  C4  UNL     1     -10.065  16.256  -2.041  1.00  0.00     0.707 A 
HETATM    2  N2  UNL     1     -10.454  15.414  -1.073  1.00  0.00    -0.022 N 
ATOM      3  H2  UNL     1     -11.073  14.628  -1.277  1.00  0.00     0.203 HD
HETATM    4  C5  UNL     1     -10.005  15.634   0.176  1.00  0.00     0.707 A 
HETATM    5  N8  UNL     1      -9.172  16.704   0.423  1.00  0.00    -0.022 N 
ATOM      6  H8  UNL     1      -8.842  16.856   1.376  1.00  0.00     0.203 HD
HETATM    7  C22 UNL     1      -8.779  17.547  -0.529  1.00  0.00     0.707 A 
HETATM    8  N9  UNL     1      -8.021  18.549  -0.349  1.00  0.00    -0.225 N 
ATOM      9  H9  UNL     1      -7.799  19.113  -1.170  1.00  0.00     0.177 HD
HETATM   10  N12 UNL     1      -9.251  17.298  -1.792  1.00  0.00    -0.022 N 
ATOM     11  H12 UNL     1      -8.980  17.916  -2.557  1.00  0.00     0.203 HD
ENDROOT
BRANCH   4  12
HETATM   12  N3  UNL     1     -10.326  14.896   1.155  1.00  0.00    -0.225 N 
ATOM     13  H3  UNL     1      -9.623  14.679   1.861  1.00  0.00     0.177 HD
BRANCH  12  14
HETATM   14  C6  UNL     1     -11.645  14.357   1.298  1.00  0.00     0.139 C 
BRANCH  14  15
HETATM   15  C7  UNL     1     -12.588  15.424   1.845  1.00  0.00     0.040 C 
BRANCH  15  16
HETATM   16  C8  UNL     1     -13.835  14.744   2.301  1.00  0.00     0.123 C 
BRANCH  16  17
HETATM   17  N4  UNL     1     -13.616  14.015   3.553  1.00  0.00    -0.371 N 
ATOM     18  H4  UNL     1     -12.915  13.274   3.572  1.00  0.00     0.161 HD
BRANCH  17  19
HETATM   19  C9  UNL     1     -14.328  14.294   4.721  1.00  0.00     0.135 C 
BRANCH  19  20
HETATM   20  O1  UNL     1     -15.368  13.510   4.935  1.00  0.00    -0.346 OA
ATOM     21  H1  UNL     1     -16.128  13.702   4.399  1.00  0.00     0.219 HD
ENDBRANCH  19  20
BRANCH  19  22
HETATM   22  C10 UNL     1     -14.138  15.281   5.733  1.00  0.00     0.052 C 
BRANCH  22  23
HETATM   23  C11 UNL     1     -13.059  15.715   6.287  1.00  0.00    -0.013 C 
BRANCH  23  24
HETATM   24  C12 UNL     1     -11.795  15.125   6.664  1.00  0.00     0.042 C 
BRANCH  24  25
HETATM   25  C13 UNL     1     -11.626  14.922   8.144  1.00  0.00     0.033 C 
BRANCH  25  26
HETATM   26  C14 UNL     1     -12.466  13.823   8.706  1.00  0.00     0.123 C 
BRANCH  26  27
HETATM   27  N5  UNL     1     -12.379  12.606   7.917  1.00  0.00    -0.367 N 
HETATM   28  C15 UNL     1     -13.429  11.970   7.527  1.00  0.00     0.196 C 
HETATM   29  N6  UNL     1     -13.349  10.795   6.764  1.00  0.00    -0.067 NA
HETATM   30  N7  UNL     1     -14.697  12.493   7.893  1.00  0.00    -0.067 NA
ATOM     31  H5  UNL     1     -11.460  12.245   7.664  1.00  0.00     0.161 HD
ENDBRANCH  26  27
ENDBRANCH  25  26
ENDBRANCH  24  25
BRANCH  24  32
HETATM   32  C16 UNL     1     -10.682  15.988   6.120  1.00  0.00    -0.050 A 
HETATM   33  C17 UNL     1     -10.807  16.409   4.805  1.00  0.00     0.008 A 
HETATM   34  C18 UNL     1      -9.846  17.198   4.192  1.00  0.00     0.001 A 
HETATM   35  C19 UNL     1      -8.756  17.542   4.965  1.00  0.00     0.000 A 
HETATM   36  C20 UNL     1      -8.601  17.147   6.255  1.00  0.00     0.001 A 
HETATM   37  C21 UNL     1      -9.581  16.353   6.850  1.00  0.00     0.008 A 
ENDBRANCH  24  32
ENDBRANCH  23  24
ENDBRANCH  22  23
ENDBRANCH  19  22
ENDBRANCH  17  19
ENDBRANCH  16  17
ENDBRANCH  15  16
ENDBRANCH  14  15
ENDBRANCH  12  14
ENDBRANCH   4  12
BRANCH   1  38
HETATM   38  N1  UNL     1     -10.451  16.106  -3.257  1.00  0.00    -0.222 N 
ATOM     39  H1  UNL     1     -11.444  16.222  -3.459  1.00  0.00     0.178 HD
BRANCH  38  40
HETATM   40  C3  UNL     1      -9.586  15.788  -4.338  1.00  0.00     0.164 C 
BRANCH  40  41
HETATM   41  C2  UNL     1      -9.796  16.628  -5.556  1.00  0.00    -0.017 C 
HETATM   42  C1  UNL     1      -8.939  17.544  -5.945  1.00  0.00     0.008 C 
ENDBRANCH  40  41
ENDBRANCH  38  40
ENDBRANCH   1  38
BRANCH   8  43
HETATM   43  C23 UNL     1      -7.458  18.957   0.877  1.00  0.00     0.140 C 
BRANCH  43  44
HETATM   44  C24 UNL     1      -5.955  19.176   0.761  1.00  0.00     0.050 C 
BRANCH  44  45
HETATM   45  C25 UNL     1      -5.642  19.665  -0.615  1.00  0.00     0.274 C 
BRANCH  45  46
HETATM   46  N10 UNL     1      -4.379  19.130  -1.093  1.00  0.00     0.091 N 
HETATM   47  C26 UNL     1      -4.057  19.801  -2.329  1.00  0.00     0.302 C 
HETATM   48  C27 UNL     1      -2.697  19.375  -2.850  1.00  0.00     0.302 C 
HETATM   49  N11 UNL     1      -2.382  18.116  -2.200  1.00  0.00     0.087 N 
HETATM   50  C28 UNL     1      -1.154  17.538  -2.655  1.00  0.00     0.310 C 
HETATM   51  C29 UNL     1      -3.507  17.229  -2.285  1.00  0.00     0.302 C 
HETATM   52  C30 UNL     1      -4.530  17.703  -1.248  1.00  0.00     0.302 C 
ENDBRANCH  45  46
ENDBRANCH  44  45
ENDBRANCH  43  44
ENDBRANCH   8  43
TORSDOF 21
ENDMDL
MODEL 4
REMARK VINA RESULT: -7.871275920      4.180      7.760
REMARK  21 active torsions:
REMARK  status: ('A' for Active; 'I' for Inactive)
REMARK    1  A    between atoms: C2_2  and  C3_3 
REMARK    2  A    between atoms: C3_3  and  N1_4 
REMARK    3  A    between atoms: N1_4  and  C4_6 
REMARK    4  A    between atoms: C5_9  and  N3_10 
REMARK    5  A    between atoms: N3_10  and  C6_12 
REMARK    6  A    between atoms: C6_12  and  C7_13 
REMARK    7  A    between atoms: C7_13  and  C8_14 
REMARK    8  A    between atoms: C8_14  and  N4_15 
REMARK    9  A    between atoms: N4_15  and  C9_17 
REMARK   10  A    between atoms: C9_17  and  O1_18 
REMARK   11  A    between atoms: C9_17  and  C10_20 
REMARK   12  A    between atoms: C10_20  and  C11_21 
REMARK   13  A    between atoms: C11_21  and  C12_22 
REMARK   14  A    between atoms: C12_22  and  C13_23 
REMARK   15  A    between atoms: C12_22  and  C16_30 
REMARK   16  A    between atoms: C13_23  and  C14_24 
REMARK   17  A    between atoms: C14_24  and  N5_25 
REMARK   18  A    between atoms: N9_39  and  C23_41 
REMARK   19  A    between atoms: C23_41  and  C24_42 
REMARK   20  A    between atoms: C24_42  and  C25_43 
REMARK   21  A    between atoms: C25_43  and  N10_44 
ROOT
HETATM    1  C4  UNL     1     -11.301  17.203   1.750  1.00  0.00     0.707 A 
HETATM    2  N2  UNL     1     -10.997  16.901   3.021  1.00  0.00    -0.022 N 
ATOM      3  H2  UNL     1     -11.655  16.391   3.612  1.00  0.00     0.203 HD
HETATM    4  C5  UNL     1      -9.800  17.289   3.495  1.00  0.00     0.707 A 
HETATM    5  N8  UNL     1      -8.931  17.977   2.675  1.00  0.00    -0.022 N 
ATOM      6  H8  UNL     1      -8.027  18.264   3.051  1.00  0.00     0.203 HD
HETATM    7  C22 UNL     1      -9.221  18.282   1.412  1.00  0.00     0.707 A 
HETATM    8  N9  UNL     1      -8.460  18.921   0.622  1.00  0.00    -0.225 N 
ATOM      9  H9  UNL     1      -8.809  19.087  -0.322  1.00  0.00     0.177 HD
HETATM   10  N12 UNL     1     -10.448  17.875   0.956  1.00  0.00    -0.022 N 
ATOM     11  H12 UNL     1     -10.719  18.085  -0.005  1.00  0.00     0.203 HD
ENDROOT
BRANCH   4  12
HETATM   12  N3  UNL     1      -9.429  17.055   4.684  1.00  0.00    -0.225 N 
ATOM     13  H3  UNL     1      -9.477  17.804   5.373  1.00  0.00     0.177 HD
BRANCH  12  14
HETATM   14  C6  UNL     1      -8.945  15.768   5.088  1.00  0.00     0.139 C 
BRANCH  14  15
HETATM   15  C7  UNL     1      -8.468  15.822   6.536  1.00  0.00     0.040 C 
BRANCH  15  16
HETATM   16  C8  UNL     1      -9.638  16.169   7.393  1.00  0.00     0.123 C 
BRANCH  16  17
HETATM   17  N4  UNL     1     -10.725  15.201   7.227  1.00  0.00    -0.371 N 
ATOM     18  H4  UNL     1     -10.763  14.650   6.369  1.00  0.00     0.161 HD
BRANCH  17  19
HETATM   19  C9  UNL     1     -11.711  15.003   8.196  1.00  0.00     0.135 C 
BRANCH  19  20
HETATM   20  O1  UNL     1     -12.148  16.107   8.773  1.00  0.00    -0.346 OA
ATOM     21  H1  UNL     1     -13.093  16.187   8.812  1.00  0.00     0.219 HD
ENDBRANCH  19  20
BRANCH  19  22
HETATM   22  C10 UNL     1     -12.335  13.816   8.682  1.00  0.00     0.052 C 
BRANCH  22  23
HETATM   23  C11 UNL     1     -12.978  12.892   8.057  1.00  0.00    -0.013 C 
BRANCH  23  24
HETATM   24  C12 UNL     1     -13.187  12.553   6.667  1.00  0.00     0.042 C 
BRANCH  24  25
HETATM   25  C13 UNL     1     -14.305  13.311   6.008  1.00  0.00     0.033 C 
BRANCH  25  26
HETATM   26  C14 UNL     1     -13.860  14.531   5.271  1.00  0.00     0.123 C 
BRANCH  26  27
HETATM   27  N5  UNL     1     -14.717  15.674   5.532  1.00  0.00    -0.367 N 
HETATM   28  C15 UNL     1     -15.772  15.909   4.831  1.00  0.00     0.196 C 
HETATM   29  N6  UNL     1     -16.603  17.013   5.081  1.00  0.00    -0.067 NA
HETATM   30  N7  UNL     1     -16.085  15.010   3.778  1.00  0.00    -0.067 NA
ATOM     31  H5  UNL     1     -14.477  16.310   6.291  1.00  0.00     0.161 HD
ENDBRANCH  26  27
ENDBRANCH  25  26
ENDBRANCH  24  25
BRANCH  24  32
HETATM   32  C16 UNL     1     -13.427  11.066   6.567  1.00  0.00    -0.050 A 
HETATM   33  C17 UNL     1     -13.560  10.375   7.762  1.00  0.00     0.008 A 
HETATM   34  C18 UNL     1     -13.776   9.006   7.799  1.00  0.00     0.001 A 
HETATM   35  C19 UNL     1     -13.851   8.368   6.578  1.00  0.00     0.000 A 
HETATM   36  C20 UNL     1     -13.727   9.013   5.389  1.00  0.00     0.001 A 
HETATM   37  C21 UNL     1     -13.509  10.391   5.378  1.00  0.00     0.008 A 
ENDBRANCH  24  32
ENDBRANCH  23  24
ENDBRANCH  22  23
ENDBRANCH  19  22
ENDBRANCH  17  19
ENDBRANCH  16  17
ENDBRANCH  15  16
ENDBRANCH  14  15
ENDBRANCH  12  14
ENDBRANCH   4  12
BRANCH   1  38
HETATM   38  N1  UNL     1     -12.424  16.861   1.230  1.00  0.00    -0.222 N 
ATOM     39  H1  UNL     1     -12.826  17.474   0.520  1.00  0.00     0.178 HD
BRANCH  38  40
HETATM   40  C3  UNL     1     -13.144  15.687   1.576  1.00  0.00     0.164 C 
BRANCH  40  41
HETATM   41  C2  UNL     1     -12.447  14.414   1.219  1.00  0.00    -0.017 C 
HETATM   42  C1  UNL     1     -12.624  13.295   1.883  1.00  0.00     0.008 C 
ENDBRANCH  40  41
ENDBRANCH  38  40
ENDBRANCH   1  38
BRANCH   8  43
HETATM   43  C23 UNL     1      -7.178  19.423   0.926  1.00  0.00     0.140 C 
BRANCH  43  44
HETATM   44  C24 UNL     1      -6.199  19.195  -0.218  1.00  0.00     0.050 C 
BRANCH  44  45
HETATM   45  C25 UNL     1      -6.291  17.771  -0.660  1.00  0.00     0.274 C 
BRANCH  45  46
HETATM   46  N10 UNL     1      -6.553  17.674  -2.084  1.00  0.00     0.091 N 
HETATM   47  C26 UNL     1      -6.387  18.989  -2.654  1.00  0.00     0.302 C 
HETATM   48  C27 UNL     1      -6.544  18.960  -4.162  1.00  0.00     0.302 C 
HETATM   49  N11 UNL     1      -7.257  17.737  -4.481  1.00  0.00     0.087 N 
HETATM   50  C28 UNL     1      -7.557  17.605  -5.874  1.00  0.00     0.310 C 
HETATM   51  C29 UNL     1      -8.401  17.603  -3.625  1.00  0.00     0.302 C 
HETATM   52  C30 UNL     1      -7.886  17.148  -2.257  1.00  0.00     0.302 C 
ENDBRANCH  45  46
ENDBRANCH  44  45
ENDBRANCH  43  44
ENDBRANCH   8  43
TORSDOF 21
ENDMDL
MODEL 5
REMARK VINA RESULT: -7.821963480      2.469      9.990
REMARK  21 active torsions:
REMARK  status: ('A' for Active; 'I' for Inactive)
REMARK    1  A    between atoms: C2_2  and  C3_3 
REMARK    2  A    between atoms: C3_3  and  N1_4 
REMARK    3  A    between atoms: N1_4  and  C4_6 
REMARK    4  A    between atoms: C5_9  and  N3_10 
REMARK    5  A    between atoms: N3_10  and  C6_12 
REMARK    6  A    between atoms: C6_12  and  C7_13 
REMARK    7  A    between atoms: C7_13  and  C8_14 
REMARK    8  A    between atoms: C8_14  and  N4_15 
REMARK    9  A    between atoms: N4_15  and  C9_17 
REMARK   10  A    between atoms: C9_17  and  O1_18 
REMARK   11  A    between atoms: C9_17  and  C10_20 
REMARK   12  A    between atoms: C10_20  and  C11_21 
REMARK   13  A    between atoms: C11_21  and  C12_22 
REMARK   14  A    between atoms: C12_22  and  C13_23 
REMARK   15  A    between atoms: C12_22  and  C16_30 
REMARK   16  A    between atoms: C13_23  and  C14_24 
REMARK   17  A    between atoms: C14_24  and  N5_25 
REMARK   18  A    between atoms: N9_39  and  C23_41 
REMARK   19  A    between atoms: C23_41  and  C24_42 
REMARK   20  A    between atoms: C24_42  and  C25_43 
REMARK   21  A    between atoms: C25_43  and  N10_44 
ROOT
HETATM    1  C4  UNL     1      -9.435  18.186   0.293  1.00  0.00     0.707 A 
HETATM    2  N2  UNL     1      -9.053  17.248  -0.586  1.00  0.00    -0.022 N 
ATOM      3  H2  UNL     1      -8.194  17.353  -1.126  1.00  0.00     0.203 HD
HETATM    4  C5  UNL     1      -9.834  16.163  -0.733  1.00  0.00     0.707 A 
HETATM    5  N8  UNL     1     -10.989  16.047   0.010  1.00  0.00    -0.022 N 
ATOM      6  H8  UNL     1     -11.570  15.217  -0.116  1.00  0.00     0.203 HD
HETATM    7  C22 UNL     1     -11.380  16.971   0.884  1.00  0.00     0.707 A 
HETATM    8  N9  UNL     1     -12.437  16.914   1.583  1.00  0.00    -0.225 N 
ATOM      9  H9  UNL     1     -12.616  17.694   2.216  1.00  0.00     0.177 HD
HETATM   10  N12 UNL     1     -10.565  18.066   1.014  1.00  0.00    -0.022 N 
ATOM     11  H12 UNL     1     -10.820  18.804   1.671  1.00  0.00     0.203 HD
ENDROOT
BRANCH   4  12
HETATM   12  N3  UNL     1      -9.557  15.229  -1.544  1.00  0.00    -0.225 N 
ATOM     13  H3  UNL     1      -9.741  14.265  -1.270  1.00  0.00     0.177 HD
BRANCH  12  14
HETATM   14  C6  UNL     1      -8.992  15.489  -2.835  1.00  0.00     0.139 C 
BRANCH  14  15
HETATM   15  C7  UNL     1     -10.099  15.583  -3.880  1.00  0.00     0.040 C 
BRANCH  15  16
HETATM   16  C8  UNL     1      -9.458  15.769  -5.213  1.00  0.00     0.123 C 
BRANCH  16  17
HETATM   17  N4  UNL     1      -9.494  17.173  -5.629  1.00  0.00    -0.371 N 
ATOM     18  H4  UNL     1     -10.381  17.569  -5.940  1.00  0.00     0.161 HD
BRANCH  17  19
HETATM   19  C9  UNL     1      -8.361  17.991  -5.617  1.00  0.00     0.135 C 
BRANCH  19  20
HETATM   20  O1  UNL     1      -8.064  18.538  -6.781  1.00  0.00    -0.346 OA
ATOM     21  H1  UNL     1      -7.388  18.086  -7.272  1.00  0.00     0.219 HD
ENDBRANCH  19  20
BRANCH  19  22
HETATM   22  C10 UNL     1      -7.460  18.343  -4.570  1.00  0.00     0.052 C 
BRANCH  22  23
HETATM   23  C11 UNL     1      -6.227  18.022  -4.383  1.00  0.00    -0.013 C 
BRANCH  23  24
HETATM   24  C12 UNL     1      -4.956  18.533  -4.845  1.00  0.00     0.042 C 
BRANCH  24  25
HETATM   25  C13 UNL     1      -4.203  17.593  -5.746  1.00  0.00     0.033 C 
BRANCH  25  26
HETATM   26  C14 UNL     1      -4.916  17.270  -7.017  1.00  0.00     0.123 C 
BRANCH  26  27
HETATM   27  N5  UNL     1      -5.176  18.454  -7.818  1.00  0.00    -0.367 N 
HETATM   28  C15 UNL     1      -4.486  18.732  -8.869  1.00  0.00     0.196 C 
HETATM   29  N6  UNL     1      -4.735  19.875  -9.645  1.00  0.00    -0.067 NA
HETATM   30  N7  UNL     1      -3.443  17.841  -9.234  1.00  0.00    -0.067 NA
ATOM     31  H5  UNL     1      -5.929  19.083  -7.540  1.00  0.00     0.161 HD
ENDBRANCH  26  27
ENDBRANCH  25  26
ENDBRANCH  24  25
BRANCH  24  32
HETATM   32  C16 UNL     1      -4.119  18.894  -3.642  1.00  0.00    -0.050 A 
HETATM   33  C17 UNL     1      -3.077  18.035  -3.328  1.00  0.00     0.008 A 
HETATM   34  C18 UNL     1      -2.244  18.256  -2.243  1.00  0.00     0.001 A 
HETATM   35  C19 UNL     1      -2.510  19.383  -1.490  1.00  0.00     0.000 A 
HETATM   36  C20 UNL     1      -3.521  20.245  -1.769  1.00  0.00     0.001 A 
HETATM   37  C21 UNL     1      -4.346  20.001  -2.867  1.00  0.00     0.008 A 
ENDBRANCH  24  32
ENDBRANCH  23  24
ENDBRANCH  22  23
ENDBRANCH  19  22
ENDBRANCH  17  19
ENDBRANCH  16  17
ENDBRANCH  15  16
ENDBRANCH  14  15
ENDBRANCH  12  14
ENDBRANCH   4  12
BRANCH   1  38
HETATM   38  N1  UNL     1      -8.738  19.246   0.489  1.00  0.00    -0.222 N 
ATOM     39  H1  UNL     1      -9.087  20.124   0.104  1.00  0.00     0.178 HD
BRANCH  38  40
HETATM   40  C3  UNL     1      -7.512  19.277   1.205  1.00  0.00     0.164 C 
BRANCH  40  41
HETATM   41  C2  UNL     1      -6.298  19.128   0.347  1.00  0.00    -0.017 C 
HETATM   42  C1  UNL     1      -5.584  18.026   0.309  1.00  0.00     0.008 C 
ENDBRANCH  40  41
ENDBRANCH  38  40
ENDBRANCH   1  38
BRANCH   8  43
HETATM   43  C23 UNL     1     -13.390  15.874   1.568  1.00  0.00     0.140 C 
BRANCH  43  44
HETATM   44  C24 UNL     1     -12.869  14.623   2.263  1.00  0.00     0.050 C 
BRANCH  44  45
HETATM   45  C25 UNL     1     -12.978  14.810   3.741  1.00  0.00     0.274 C 
BRANCH  45  46
HETATM   46  N10 UNL     1     -11.840  15.539   4.269  1.00  0.00     0.091 N 
HETATM   47  C26 UNL     1     -10.645  14.824   3.891  1.00  0.00     0.302 C 
HETATM   48  C27 UNL     1      -9.396  15.573   4.317  1.00  0.00     0.302 C 
HETATM   49  N11 UNL     1      -9.805  16.504   5.353  1.00  0.00     0.087 N 
HETATM   50  C28 UNL     1      -8.713  17.233   5.920  1.00  0.00     0.310 C 
HETATM   51  C29 UNL     1     -10.617  15.826   6.324  1.00  0.00     0.302 C 
HETATM   52  C30 UNL     1     -12.005  15.647   5.699  1.00  0.00     0.302 C 
ENDBRANCH  45  46
ENDBRANCH  44  45
ENDBRANCH  43  44
ENDBRANCH   8  43
TORSDOF 21
ENDMDL
