MODEL 1
REMARK VINA RESULT: -8.510989053      0.000      0.000
REMARK  3 active torsions:
REMARK  status: ('A' for Active; 'I' for Inactive)
REMARK    1  A    between atoms: N1_1  and  C1_4 
REMARK    2  A    between atoms: C2_7  and  C3_8 
REMARK    3  A    between atoms: C4_19  and  C5_20 
ROOT
HETATM    1  C1  UNL     1       1.805  20.401  37.449  1.00  0.00     0.679 A 
HETATM    2  N2  UNL     1       1.495  20.752  38.711  1.00  0.00    -0.173 N 
ATOM      3  H2  UNL     1       0.595  21.180  38.926  1.00  0.00     0.186 HD
HETATM    4  C2  UNL     1       2.396  20.526  39.681  1.00  0.00     0.170 A 
HETATM    5  N7  UNL     1       3.557  19.965  39.358  1.00  0.00    -0.324 N 
ATOM      6  H7  UNL     1       4.231  19.800  40.106  1.00  0.00     0.169 HD
HETATM    7  C4  UNL     1       3.900  19.602  38.110  1.00  0.00     0.140 A 
HETATM    8  N10 UNL     1       2.998  19.829  37.143  1.00  0.00    -0.176 N 
ATOM      9  H10 UNL     1       3.208  19.573  36.179  1.00  0.00     0.186 HD
ENDROOT
BRANCH   4  10
HETATM   10  C3  UNL     1       2.107  20.890  41.075  1.00  0.00     0.182 A 
HETATM   11  N3  UNL     1       0.939  20.719  41.714  1.00  0.00    -0.266 N 
HETATM   12  N4  UNL     1       1.098  21.174  42.937  1.00  0.00    -0.226 N 
ATOM     13  H3  UNL     1       0.089  20.313  41.323  1.00  0.00     0.190 HD
HETATM   14  N5  UNL     1       2.322  21.631  43.107  1.00  0.00    -0.226 N 
ATOM     15  H4  UNL     1       0.373  21.173  43.656  1.00  0.00     0.210 HD
HETATM   16  N6  UNL     1       2.939  21.455  41.959  1.00  0.00    -0.266 N 
ATOM     17  H5  UNL     1       2.711  22.040  43.956  1.00  0.00     0.210 HD
ATOM     18  H6  UNL     1       3.909  21.710  41.770  1.00  0.00     0.190 HD
ENDBRANCH   4  10
BRANCH   1  19
HETATM   19  N1  UNL     1       0.964  20.600  36.474  1.00  0.00    -0.234 N 
ATOM     20  H12 UNL     1       0.806  19.832  35.822  1.00  0.00     0.174 HD
ATOM     21  H11 UNL     1       0.482  21.494  36.372  1.00  0.00     0.174 HD
ENDBRANCH   1  19
BRANCH   7  22
HETATM   22  C5  UNL     1       5.197  19.000  37.891  1.00  0.00     0.092 A 
HETATM   23  C6  UNL     1       5.922  18.489  38.927  1.00  0.00     0.110 A 
HETATM   24  N8  UNL     1       7.143  17.930  38.682  1.00  0.00    -0.361 N 
HETATM   25  C7  UNL     1       7.645  17.872  37.438  1.00  0.00     0.183 A 
ATOM     26  H8  UNL     1       7.684  17.549  39.459  1.00  0.00     0.166 HD
HETATM   27  N9  UNL     1       6.919  18.378  36.442  1.00  0.00    -0.319 N 
HETATM   28  C8  UNL     1       5.715  18.938  36.624  1.00  0.00     0.261 A 
ATOM     29  H9  UNL     1       7.297  18.337  35.496  1.00  0.00     0.169 HD
HETATM   30  O1  UNL     1       5.097  19.393  35.613  1.00  0.00    -0.267 OA
ENDBRANCH   7  22
TORSDOF 3
ENDMDL
MODEL 2
REMARK VINA RESULT: -8.491425581      3.271      5.580
REMARK  3 active torsions:
REMARK  status: ('A' for Active; 'I' for Inactive)
REMARK    1  A    between atoms: N1_1  and  C1_4 
REMARK    2  A    between atoms: C2_7  and  C3_8 
REMARK    3  A    between atoms: C4_19  and  C5_20 
ROOT
HETATM    1  C1  UNL     1       8.281  18.675  36.688  1.00  0.00     0.679 A 
HETATM    2  N2  UNL     1       7.096  19.312  36.737  1.00  0.00    -0.173 N 
ATOM      3  H2  UNL     1       7.036  20.313  36.553  1.00  0.00     0.186 HD
HETATM    4  C2  UNL     1       5.996  18.602  37.034  1.00  0.00     0.170 A 
HETATM    5  N7  UNL     1       6.118  17.299  37.267  1.00  0.00    -0.324 N 
ATOM      6  H7  UNL     1       5.273  16.773  37.491  1.00  0.00     0.169 HD
HETATM    7  C4  UNL     1       7.284  16.630  37.226  1.00  0.00     0.140 A 
HETATM    8  N10 UNL     1       8.382  17.343  36.930  1.00  0.00    -0.176 N 
ATOM      9  H10 UNL     1       9.291  16.884  36.886  1.00  0.00     0.186 HD
ENDROOT
BRANCH   4  10
HETATM   10  C3  UNL     1       4.678  19.250  37.100  1.00  0.00     0.182 A 
HETATM   11  N3  UNL     1       3.843  19.455  36.070  1.00  0.00    -0.266 N 
HETATM   12  N4  UNL     1       2.779  20.060  36.551  1.00  0.00    -0.226 N 
ATOM     13  H3  UNL     1       4.003  19.192  35.098  1.00  0.00     0.190 HD
HETATM   14  N5  UNL     1       2.901  20.252  37.849  1.00  0.00    -0.226 N 
ATOM     15  H4  UNL     1       1.971  20.342  35.996  1.00  0.00     0.210 HD
HETATM   16  N6  UNL     1       4.070  19.752  38.183  1.00  0.00    -0.266 N 
ATOM     17  H5  UNL     1       2.225  20.698  38.469  1.00  0.00     0.210 HD
ATOM     18  H6  UNL     1       4.458  19.746  39.126  1.00  0.00     0.190 HD
ENDBRANCH   4  10
BRANCH   1  19
HETATM   19  N1  UNL     1       9.376  19.321  36.404  1.00  0.00    -0.234 N 
ATOM     20  H12 UNL     1      10.130  19.297  37.092  1.00  0.00     0.174 HD
ATOM     21  H11 UNL     1       9.472  19.830  35.525  1.00  0.00     0.174 HD
ENDBRANCH   1  19
BRANCH   7  22
HETATM   22  C5  UNL     1       7.283  15.210  37.501  1.00  0.00     0.092 A 
HETATM   23  C6  UNL     1       6.403  14.664  38.390  1.00  0.00     0.110 A 
HETATM   24  N8  UNL     1       6.432  13.319  38.624  1.00  0.00    -0.361 N 
HETATM   25  C7  UNL     1       7.310  12.522  37.995  1.00  0.00     0.183 A 
ATOM     26  H8  UNL     1       5.774  12.913  39.289  1.00  0.00     0.166 HD
HETATM   27  N9  UNL     1       8.159  13.078  37.132  1.00  0.00    -0.319 N 
HETATM   28  C8  UNL     1       8.177  14.391  36.863  1.00  0.00     0.261 A 
ATOM     29  H9  UNL     1       8.829  12.475  36.653  1.00  0.00     0.169 HD
HETATM   30  O1  UNL     1       9.022  14.829  36.025  1.00  0.00    -0.267 OA
ENDBRANCH   7  22
TORSDOF 3
ENDMDL
MODEL 3
REMARK VINA RESULT: -8.298920695      3.248      5.604
REMARK  3 active torsions:
REMARK  status: ('A' for Active; 'I' for Inactive)
REMARK    1  A    between atoms: N1_1  and  C1_4 
REMARK    2  A    between atoms: C2_7  and  C3_8 
REMARK    3  A    between atoms: C4_19  and  C5_20 
ROOT
HETATM    1  C1  UNL     1       8.308  18.774  36.706  1.00  0.00     0.679 A 
HETATM    2  N2  UNL     1       7.102  19.370  36.710  1.00  0.00    -0.173 N 
ATOM      3  H2  UNL     1       7.003  20.346  36.431  1.00  0.00     0.186 HD
HETATM    4  C2  UNL     1       6.030  18.654  37.088  1.00  0.00     0.170 A 
HETATM    5  N7  UNL     1       6.201  17.385  37.443  1.00  0.00    -0.324 N 
ATOM      6  H7  UNL     1       5.378  16.854  37.728  1.00  0.00     0.169 HD
HETATM    7  C4  UNL     1       7.390  16.756  37.450  1.00  0.00     0.140 A 
HETATM    8  N10 UNL     1       8.458  17.475  37.072  1.00  0.00    -0.176 N 
ATOM      9  H10 UNL     1       9.383  17.046  37.061  1.00  0.00     0.186 HD
ENDROOT
BRANCH   4  10
HETATM   10  C3  UNL     1       4.691  19.260  37.110  1.00  0.00     0.182 A 
HETATM   11  N3  UNL     1       3.888  19.448  36.050  1.00  0.00    -0.266 N 
HETATM   12  N4  UNL     1       2.789  20.014  36.496  1.00  0.00    -0.226 N 
ATOM     13  H3  UNL     1       4.093  19.198  35.083  1.00  0.00     0.190 HD
HETATM   14  N5  UNL     1       2.856  20.199  37.799  1.00  0.00    -0.226 N 
ATOM     15  H4  UNL     1       1.993  20.275  35.913  1.00  0.00     0.210 HD
HETATM   16  N6  UNL     1       4.028  19.733  38.172  1.00  0.00    -0.266 N 
ATOM     17  H5  UNL     1       2.144  20.618  38.396  1.00  0.00     0.210 HD
ATOM     18  H6  UNL     1       4.379  19.731  39.130  1.00  0.00     0.190 HD
ENDBRANCH   4  10
BRANCH   1  19
HETATM   19  N1  UNL     1       9.376  19.427  36.347  1.00  0.00    -0.234 N 
ATOM     20  H12 UNL     1      10.237  19.243  36.863  1.00  0.00     0.174 HD
ATOM     21  H11 UNL     1       9.348  20.095  35.577  1.00  0.00     0.174 HD
ENDBRANCH   1  19
BRANCH   7  22
HETATM   22  C5  UNL     1       7.442  15.370  37.859  1.00  0.00     0.092 A 
HETATM   23  C6  UNL     1       7.956  14.410  37.037  1.00  0.00     0.110 A 
HETATM   24  N8  UNL     1       7.988  13.111  37.457  1.00  0.00    -0.361 N 
HETATM   25  C7  UNL     1       7.523  12.760  38.666  1.00  0.00     0.183 A 
ATOM     26  H8  UNL     1       8.372  12.396  36.840  1.00  0.00     0.166 HD
HETATM   27  N9  UNL     1       7.026  13.714  39.452  1.00  0.00    -0.319 N 
HETATM   28  C8  UNL     1       6.969  15.003  39.092  1.00  0.00     0.261 A 
ATOM     29  H9  UNL     1       6.671  13.450  40.371  1.00  0.00     0.169 HD
HETATM   30  O1  UNL     1       6.477  15.842  39.908  1.00  0.00    -0.267 OA
ENDBRANCH   7  22
TORSDOF 3
ENDMDL
MODEL 4
REMARK VINA RESULT: -8.268991417      2.650      6.988
REMARK  3 active torsions:
REMARK  status: ('A' for Active; 'I' for Inactive)
REMARK    1  A    between atoms: N1_1  and  C1_4 
REMARK    2  A    between atoms: C2_7  and  C3_8 
REMARK    3  A    between atoms: C4_19  and  C5_20 
ROOT
HETATM    1  C1  UNL     1       8.266  18.480  36.704  1.00  0.00     0.679 A 
HETATM    2  N2  UNL     1       8.327  17.145  36.862  1.00  0.00    -0.173 N 
ATOM      3  H2  UNL     1       9.211  16.649  36.752  1.00  0.00     0.186 HD
HETATM    4  C2  UNL     1       7.201  16.481  37.167  1.00  0.00     0.170 A 
HETATM    5  N7  UNL     1       6.070  17.166  37.302  1.00  0.00    -0.324 N 
ATOM      6  H7  UNL     1       5.222  16.648  37.534  1.00  0.00     0.169 HD
HETATM    7  C4  UNL     1       5.971  18.499  37.152  1.00  0.00     0.140 A 
HETATM    8  N10 UNL     1       7.099  19.160  36.847  1.00  0.00    -0.176 N 
ATOM      9  H10 UNL     1       7.079  20.171  36.722  1.00  0.00     0.186 HD
ENDROOT
BRANCH   4  10
HETATM   10  C3  UNL     1       7.214  15.022  37.350  1.00  0.00     0.182 A 
HETATM   11  N3  UNL     1       8.237  14.198  37.075  1.00  0.00    -0.266 N 
HETATM   12  N4  UNL     1       7.844  12.981  37.379  1.00  0.00    -0.226 N 
ATOM     13  H3  UNL     1       9.147  14.466  36.702  1.00  0.00     0.190 HD
HETATM   14  N5  UNL     1       6.608  12.993  37.836  1.00  0.00    -0.226 N 
ATOM     15  H4  UNL     1       8.416  12.143  37.275  1.00  0.00     0.210 HD
HETATM   16  N6  UNL     1       6.225  14.251  37.817  1.00  0.00    -0.266 N 
ATOM     17  H5  UNL     1       6.059  12.189  38.142  1.00  0.00     0.210 HD
ATOM     18  H6  UNL     1       5.309  14.589  38.114  1.00  0.00     0.190 HD
ENDBRANCH   4  10
BRANCH   1  19
HETATM   19  N1  UNL     1       9.332  19.168  36.407  1.00  0.00    -0.234 N 
ATOM     20  H12 UNL     1       9.593  19.929  37.035  1.00  0.00     0.174 HD
ATOM     21  H11 UNL     1       9.882  18.950  35.576  1.00  0.00     0.174 HD
ENDBRANCH   1  19
BRANCH   7  22
HETATM   22  C5  UNL     1       4.680  19.126  37.325  1.00  0.00     0.092 A 
HETATM   23  C6  UNL     1       3.921  19.487  36.250  1.00  0.00     0.110 A 
HETATM   24  N8  UNL     1       2.707  20.078  36.453  1.00  0.00    -0.361 N 
HETATM   25  C7  UNL     1       2.244  20.310  37.691  1.00  0.00     0.183 A 
ATOM     26  H8  UNL     1       2.141  20.348  35.647  1.00  0.00     0.166 HD
HETATM   27  N9  UNL     1       3.002  19.949  38.725  1.00  0.00    -0.319 N 
HETATM   28  C8  UNL     1       4.201  19.366  38.587  1.00  0.00     0.261 A 
ATOM     29  H9  UNL     1       2.653  20.124  39.668  1.00  0.00     0.169 HD
HETATM   30  O1  UNL     1       4.851  19.057  39.631  1.00  0.00    -0.267 OA
ENDBRANCH   7  22
TORSDOF 3
ENDMDL
MODEL 5
REMARK VINA RESULT: -8.077380659      2.404      6.790
REMARK  3 active torsions:
REMARK  status: ('A' for Active; 'I' for Inactive)
REMARK    1  A    between atoms: N1_1  and  C1_4 
REMARK    2  A    between atoms: C2_7  and  C3_8 
REMARK    3  A    between atoms: C4_19  and  C5_20 
ROOT
HETATM    1  C1  UNL     1       8.325  18.727  36.773  1.00  0.00     0.679 A 
HETATM    2  N2  UNL     1       8.372  17.385  36.867  1.00  0.00    -0.173 N 
ATOM      3  H2  UNL     1       9.235  16.880  36.667  1.00  0.00     0.186 HD
HETATM    4  C2  UNL     1       7.259  16.726  37.228  1.00  0.00     0.170 A 
HETATM    5  N7  UNL     1       6.155  17.422  37.479  1.00  0.00    -0.324 N 
ATOM      6  H7  UNL     1       5.318  16.908  37.752  1.00  0.00     0.169 HD
HETATM    7  C4  UNL     1       6.071  18.762  37.396  1.00  0.00     0.140 A 
HETATM    8  N10 UNL     1       7.185  19.418  37.034  1.00  0.00    -0.176 N 
ATOM      9  H10 UNL     1       7.176  20.434  36.956  1.00  0.00     0.186 HD
ENDROOT
BRANCH   4  10
HETATM   10  C3  UNL     1       7.258  15.260  37.345  1.00  0.00     0.182 A 
HETATM   11  N3  UNL     1       8.237  14.433  36.948  1.00  0.00    -0.266 N 
HETATM   12  N4  UNL     1       7.846  13.210  37.230  1.00  0.00    -0.226 N 
ATOM     13  H3  UNL     1       9.118  14.702  36.511  1.00  0.00     0.190 HD
HETATM   14  N5  UNL     1       6.653  13.221  37.790  1.00  0.00    -0.226 N 
ATOM     15  H4  UNL     1       8.390  12.368  37.042  1.00  0.00     0.210 HD
HETATM   16  N6  UNL     1       6.296  14.485  37.859  1.00  0.00    -0.266 N 
ATOM     17  H5  UNL     1       6.116  12.414  38.106  1.00  0.00     0.210 HD
ATOM     18  H6  UNL     1       5.415  14.824  38.247  1.00  0.00     0.190 HD
ENDBRANCH   4  10
BRANCH   1  19
HETATM   19  N1  UNL     1       9.378  19.411  36.426  1.00  0.00    -0.234 N 
ATOM     20  H12 UNL     1      10.292  19.013  36.643  1.00  0.00     0.174 HD
ATOM     21  H11 UNL     1       9.286  20.311  35.953  1.00  0.00     0.174 HD
ENDBRANCH   1  19
BRANCH   7  22
HETATM   22  C5  UNL     1       4.809  19.401  37.695  1.00  0.00     0.092 A 
HETATM   23  C6  UNL     1       4.588  19.995  38.903  1.00  0.00     0.110 A 
HETATM   24  N8  UNL     1       3.382  20.588  39.149  1.00  0.00    -0.361 N 
HETATM   25  C7  UNL     1       2.410  20.598  38.224  1.00  0.00     0.183 A 
ATOM     26  H8  UNL     1       3.219  21.032  40.053  1.00  0.00     0.166 HD
HETATM   27  N9  UNL     1       2.649  20.011  37.052  1.00  0.00    -0.319 N 
HETATM   28  C8  UNL     1       3.811  19.414  36.755  1.00  0.00     0.261 A 
ATOM     29  H9  UNL     1       1.911  20.016  36.348  1.00  0.00     0.169 HD
HETATM   30  O1  UNL     1       3.947  18.881  35.612  1.00  0.00    -0.267 OA
ENDBRANCH   7  22
TORSDOF 3
ENDMDL
