MODEL 1
REMARK VINA RESULT: -5.878062543      0.000      0.000
REMARK  14 active torsions:
REMARK  status: ('A' for Active; 'I' for Inactive)
REMARK    1  A    between atoms: C3_3  and  C4_4 
REMARK    2  A    between atoms: C4_4  and  C5_5 
REMARK    3  A    between atoms: C5_5  and  C6_6 
REMARK    4  A    between atoms: C6_6  and  C7_7 
REMARK    5  A    between atoms: C7_7  and  C8_8 
REMARK    6  A    between atoms: C8_8  and  C9_9 
REMARK    7  A    between atoms: C9_9  and  C10_10 
REMARK    8  A    between atoms: C10_10  and  C11_11 
REMARK    9  A    between atoms: C11_11  and  C12_12 
REMARK   10  A    between atoms: C12_12  and  C13_13 
REMARK   11  A    between atoms: C13_13  and  C14_14 
REMARK   12  A    between atoms: C14_14  and  C15_15 
REMARK   13  A    between atoms: C15_15  and  O1_16 
REMARK   14  A    between atoms: O1_16  and  C16_17 
ROOT
HETATM    1  C1  UNL     1     -51.502  72.293  -8.884  1.00  0.00     0.012 C 
HETATM    2  C2  UNL     1     -50.743  72.778  -8.077  1.00  0.00    -0.117 C 
HETATM    3  C3  UNL     1     -49.821  73.377  -7.097  1.00  0.00     0.093 C 
ENDROOT
BRANCH   3   4
HETATM    4  C4  UNL     1     -49.678  72.487  -5.909  1.00  0.00     0.012 C 
BRANCH   4   5
HETATM    5  C5  UNL     1     -48.327  71.800  -5.857  1.00  0.00     0.001 C 
BRANCH   5   6
HETATM    6  C6  UNL     1     -47.235  72.714  -6.384  1.00  0.00     0.000 C 
BRANCH   6   7
HETATM    7  C7  UNL     1     -46.175  71.854  -7.038  1.00  0.00     0.000 C 
BRANCH   7   8
HETATM    8  C8  UNL     1     -46.671  70.454  -7.274  1.00  0.00     0.000 C 
BRANCH   8   9
HETATM    9  C9  UNL     1     -46.605  70.052  -8.717  1.00  0.00     0.000 C 
BRANCH   9  10
HETATM   10  C10 UNL     1     -47.989  70.403  -9.353  1.00  0.00     0.000 C 
BRANCH  10  11
HETATM   11  C11 UNL     1     -48.943  69.484  -8.736  1.00  0.00     0.004 C 
BRANCH  11  12
HETATM   12  C12 UNL     1     -48.904  68.031  -8.950  1.00  0.00     0.027 C 
BRANCH  12  13
HETATM   13  C13 UNL     1     -50.116  67.263  -9.208  1.00  0.00    -0.025 C 
BRANCH  13  14
HETATM   14  C14 UNL     1     -50.287  66.367 -10.348  1.00  0.00     0.020 C 
BRANCH  14  15
HETATM   15  C15 UNL     1     -49.677  66.495 -11.656  1.00  0.00     0.135 C 
BRANCH  15  16
HETATM   16  O1  UNL     1     -50.142  66.861 -12.817  1.00  0.00    -0.358 OA
BRANCH  16  17
HETATM   17  C16 UNL     1     -50.683  68.022 -13.182  1.00  0.00     0.127 C 
HETATM   18  C17 UNL     1     -50.252  69.216 -12.394  1.00  0.00     0.032 C 
HETATM   19  C18 UNL     1     -51.394  69.942 -11.732  1.00  0.00     0.002 C 
HETATM   20  C19 UNL     1     -52.508  70.308 -12.654  1.00  0.00     0.000 C 
HETATM   21  C20 UNL     1     -52.704  69.262 -13.720  1.00  0.00     0.002 C 
HETATM   22  C21 UNL     1     -52.244  67.940 -13.146  1.00  0.00     0.032 C 
ENDBRANCH  16  17
ENDBRANCH  15  16
ENDBRANCH  14  15
ENDBRANCH  13  14
ENDBRANCH  12  13
ENDBRANCH  11  12
ENDBRANCH  10  11
ENDBRANCH   9  10
ENDBRANCH   8   9
ENDBRANCH   7   8
ENDBRANCH   6   7
ENDBRANCH   5   6
ENDBRANCH   4   5
ENDBRANCH   3   4
TORSDOF 14
ENDMDL
MODEL 2
REMARK VINA RESULT: -5.774226222      1.201      3.827
REMARK  14 active torsions:
REMARK  status: ('A' for Active; 'I' for Inactive)
REMARK    1  A    between atoms: C3_3  and  C4_4 
REMARK    2  A    between atoms: C4_4  and  C5_5 
REMARK    3  A    between atoms: C5_5  and  C6_6 
REMARK    4  A    between atoms: C6_6  and  C7_7 
REMARK    5  A    between atoms: C7_7  and  C8_8 
REMARK    6  A    between atoms: C8_8  and  C9_9 
REMARK    7  A    between atoms: C9_9  and  C10_10 
REMARK    8  A    between atoms: C10_10  and  C11_11 
REMARK    9  A    between atoms: C11_11  and  C12_12 
REMARK   10  A    between atoms: C12_12  and  C13_13 
REMARK   11  A    between atoms: C13_13  and  C14_14 
REMARK   12  A    between atoms: C14_14  and  C15_15 
REMARK   13  A    between atoms: C15_15  and  O1_16 
REMARK   14  A    between atoms: O1_16  and  C16_17 
ROOT
HETATM    1  C1  UNL     1     -50.342  73.980  -5.749  1.00  0.00     0.012 C 
HETATM    2  C2  UNL     1     -49.189  73.624  -5.829  1.00  0.00    -0.117 C 
HETATM    3  C3  UNL     1     -47.781  73.199  -5.925  1.00  0.00     0.093 C 
ENDROOT
BRANCH   3   4
HETATM    4  C4  UNL     1     -47.667  71.730  -5.692  1.00  0.00     0.012 C 
BRANCH   4   5
HETATM    5  C5  UNL     1     -46.886  71.028  -6.787  1.00  0.00     0.001 C 
BRANCH   5   6
HETATM    6  C6  UNL     1     -47.775  70.066  -7.554  1.00  0.00     0.000 C 
BRANCH   6   7
HETATM    7  C7  UNL     1     -48.359  70.805  -8.739  1.00  0.00     0.000 C 
BRANCH   7   8
HETATM    8  C8  UNL     1     -49.853  70.930  -8.627  1.00  0.00     0.000 C 
BRANCH   8   9
HETATM    9  C9  UNL     1     -50.354  72.281  -9.046  1.00  0.00     0.000 C 
BRANCH   9  10
HETATM   10  C10 UNL     1     -51.852  72.106  -9.457  1.00  0.00     0.000 C 
BRANCH  10  11
HETATM   11  C11 UNL     1     -51.860  72.149 -10.917  1.00  0.00     0.004 C 
BRANCH  11  12
HETATM   12  C12 UNL     1     -51.756  70.944 -11.752  1.00  0.00     0.027 C 
BRANCH  12  13
HETATM   13  C13 UNL     1     -52.811  70.565 -12.682  1.00  0.00    -0.025 C 
BRANCH  13  14
HETATM   14  C14 UNL     1     -52.999  69.211 -13.196  1.00  0.00     0.020 C 
BRANCH  14  15
HETATM   15  C15 UNL     1     -52.022  68.141 -13.207  1.00  0.00     0.135 C 
BRANCH  15  16
HETATM   16  O1  UNL     1     -51.503  67.407 -12.263  1.00  0.00    -0.358 OA
BRANCH  16  17
HETATM   17  C16 UNL     1     -50.627  67.743 -11.318  1.00  0.00     0.127 C 
HETATM   18  C17 UNL     1     -49.298  68.220 -11.802  1.00  0.00     0.032 C 
HETATM   19  C18 UNL     1     -48.143  67.399 -11.290  1.00  0.00     0.002 C 
HETATM   20  C19 UNL     1     -48.119  67.226  -9.810  1.00  0.00     0.000 C 
HETATM   21  C20 UNL     1     -49.512  67.128  -9.246  1.00  0.00     0.002 C 
HETATM   22  C21 UNL     1     -50.399  66.553 -10.329  1.00  0.00     0.032 C 
ENDBRANCH  16  17
ENDBRANCH  15  16
ENDBRANCH  14  15
ENDBRANCH  13  14
ENDBRANCH  12  13
ENDBRANCH  11  12
ENDBRANCH  10  11
ENDBRANCH   9  10
ENDBRANCH   8   9
ENDBRANCH   7   8
ENDBRANCH   6   7
ENDBRANCH   5   6
ENDBRANCH   4   5
ENDBRANCH   3   4
TORSDOF 14
ENDMDL
MODEL 3
REMARK VINA RESULT: -5.754334125      2.205      7.198
REMARK  14 active torsions:
REMARK  status: ('A' for Active; 'I' for Inactive)
REMARK    1  A    between atoms: C3_3  and  C4_4 
REMARK    2  A    between atoms: C4_4  and  C5_5 
REMARK    3  A    between atoms: C5_5  and  C6_6 
REMARK    4  A    between atoms: C6_6  and  C7_7 
REMARK    5  A    between atoms: C7_7  and  C8_8 
REMARK    6  A    between atoms: C8_8  and  C9_9 
REMARK    7  A    between atoms: C9_9  and  C10_10 
REMARK    8  A    between atoms: C10_10  and  C11_11 
REMARK    9  A    between atoms: C11_11  and  C12_12 
REMARK   10  A    between atoms: C12_12  and  C13_13 
REMARK   11  A    between atoms: C13_13  and  C14_14 
REMARK   12  A    between atoms: C14_14  and  C15_15 
REMARK   13  A    between atoms: C15_15  and  O1_16 
REMARK   14  A    between atoms: O1_16  and  C16_17 
ROOT
HETATM    1  C1  UNL     1     -52.597  67.242 -14.267  1.00  0.00     0.012 C 
HETATM    2  C2  UNL     1     -52.158  68.224 -13.714  1.00  0.00    -0.117 C 
HETATM    3  C3  UNL     1     -51.631  69.424 -13.043  1.00  0.00     0.093 C 
ENDROOT
BRANCH   3   4
HETATM    4  C4  UNL     1     -50.680  69.037 -11.961  1.00  0.00     0.012 C 
BRANCH   4   5
HETATM    5  C5  UNL     1     -49.291  68.736 -12.489  1.00  0.00     0.001 C 
BRANCH   5   6
HETATM    6  C6  UNL     1     -48.940  67.273 -12.288  1.00  0.00     0.000 C 
BRANCH   6   7
HETATM    7  C7  UNL     1     -49.467  66.843 -10.936  1.00  0.00     0.000 C 
BRANCH   7   8
HETATM    8  C8  UNL     1     -48.436  67.031  -9.858  1.00  0.00     0.000 C 
BRANCH   8   9
HETATM    9  C9  UNL     1     -48.926  67.892  -8.732  1.00  0.00     0.000 C 
BRANCH   9  10
HETATM   10  C10 UNL     1     -47.917  69.078  -8.591  1.00  0.00     0.000 C 
BRANCH  10  11
HETATM   11  C11 UNL     1     -48.621  70.248  -9.112  1.00  0.00     0.004 C 
BRANCH  11  12
HETATM   12  C12 UNL     1     -50.005  70.576  -8.743  1.00  0.00     0.027 C 
BRANCH  12  13
HETATM   13  C13 UNL     1     -50.579  71.887  -9.017  1.00  0.00    -0.025 C 
BRANCH  13  14
HETATM   14  C14 UNL     1     -50.925  72.859  -7.984  1.00  0.00     0.020 C 
BRANCH  14  15
HETATM   15  C15 UNL     1     -50.097  73.280  -6.872  1.00  0.00     0.135 C 
BRANCH  15  16
HETATM   16  O1  UNL     1     -48.873  73.722  -6.798  1.00  0.00    -0.358 OA
BRANCH  16  17
HETATM   17  C16 UNL     1     -47.816  73.183  -6.193  1.00  0.00     0.127 C 
HETATM   18  C17 UNL     1     -46.533  73.237  -6.955  1.00  0.00     0.032 C 
HETATM   19  C18 UNL     1     -45.927  71.881  -7.207  1.00  0.00     0.002 C 
HETATM   20  C19 UNL     1     -45.765  71.041  -5.985  1.00  0.00     0.000 C 
HETATM   21  C20 UNL     1     -46.888  71.273  -5.007  1.00  0.00     0.002 C 
HETATM   22  C21 UNL     1     -48.102  71.694  -5.806  1.00  0.00     0.032 C 
ENDBRANCH  16  17
ENDBRANCH  15  16
ENDBRANCH  14  15
ENDBRANCH  13  14
ENDBRANCH  12  13
ENDBRANCH  11  12
ENDBRANCH  10  11
ENDBRANCH   9  10
ENDBRANCH   8   9
ENDBRANCH   7   8
ENDBRANCH   6   7
ENDBRANCH   5   6
ENDBRANCH   4   5
ENDBRANCH   3   4
TORSDOF 14
ENDMDL
MODEL 4
REMARK VINA RESULT: -5.748418073      2.897      4.980
REMARK  14 active torsions:
REMARK  status: ('A' for Active; 'I' for Inactive)
REMARK    1  A    between atoms: C3_3  and  C4_4 
REMARK    2  A    between atoms: C4_4  and  C5_5 
REMARK    3  A    between atoms: C5_5  and  C6_6 
REMARK    4  A    between atoms: C6_6  and  C7_7 
REMARK    5  A    between atoms: C7_7  and  C8_8 
REMARK    6  A    between atoms: C8_8  and  C9_9 
REMARK    7  A    between atoms: C9_9  and  C10_10 
REMARK    8  A    between atoms: C10_10  and  C11_11 
REMARK    9  A    between atoms: C11_11  and  C12_12 
REMARK   10  A    between atoms: C12_12  and  C13_13 
REMARK   11  A    between atoms: C13_13  and  C14_14 
REMARK   12  A    between atoms: C14_14  and  C15_15 
REMARK   13  A    between atoms: C15_15  and  O1_16 
REMARK   14  A    between atoms: O1_16  and  C16_17 
ROOT
HETATM    1  C1  UNL     1     -51.405  71.758  -9.829  1.00  0.00     0.012 C 
HETATM    2  C2  UNL     1     -51.067  72.263  -8.783  1.00  0.00    -0.117 C 
HETATM    3  C3  UNL     1     -50.664  72.876  -7.506  1.00  0.00     0.093 C 
ENDROOT
BRANCH   3   4
HETATM    4  C4  UNL     1     -49.184  72.797  -7.338  1.00  0.00     0.012 C 
BRANCH   4   5
HETATM    5  C5  UNL     1     -48.783  72.083  -6.061  1.00  0.00     0.001 C 
BRANCH   5   6
HETATM    6  C6  UNL     1     -47.278  71.896  -5.995  1.00  0.00     0.000 C 
BRANCH   6   7
HETATM    7  C7  UNL     1     -46.979  70.829  -4.964  1.00  0.00     0.000 C 
BRANCH   7   8
HETATM    8  C8  UNL     1     -46.103  69.746  -5.532  1.00  0.00     0.000 C 
BRANCH   8   9
HETATM    9  C9  UNL     1     -46.703  68.379  -5.382  1.00  0.00     0.000 C 
BRANCH   9  10
HETATM   10  C10 UNL     1     -45.655  67.500  -4.625  1.00  0.00     0.000 C 
BRANCH  10  11
HETATM   11  C11 UNL     1     -45.221  66.496  -5.594  1.00  0.00     0.004 C 
BRANCH  11  12
HETATM   12  C12 UNL     1     -43.847  66.428  -6.111  1.00  0.00     0.027 C 
BRANCH  12  13
HETATM   13  C13 UNL     1     -43.146  67.617  -6.579  1.00  0.00    -0.025 C 
BRANCH  13  14
HETATM   14  C14 UNL     1     -42.869  67.901  -7.984  1.00  0.00     0.020 C 
BRANCH  14  15
HETATM   15  C15 UNL     1     -43.799  68.418  -8.968  1.00  0.00     0.135 C 
BRANCH  15  16
HETATM   16  O1  UNL     1     -44.950  67.993  -9.407  1.00  0.00    -0.358 OA
BRANCH  16  17
HETATM   17  C16 UNL     1     -46.157  68.107  -8.856  1.00  0.00     0.127 C 
HETATM   18  C17 UNL     1     -47.035  66.903  -8.959  1.00  0.00     0.032 C 
HETATM   19  C18 UNL     1     -48.340  67.171  -9.663  1.00  0.00     0.002 C 
HETATM   20  C19 UNL     1     -49.110  68.325  -9.116  1.00  0.00     0.000 C 
HETATM   21  C20 UNL     1     -48.193  69.420  -8.638  1.00  0.00     0.002 C 
HETATM   22  C21 UNL     1     -46.922  69.333  -9.455  1.00  0.00     0.032 C 
ENDBRANCH  16  17
ENDBRANCH  15  16
ENDBRANCH  14  15
ENDBRANCH  13  14
ENDBRANCH  12  13
ENDBRANCH  11  12
ENDBRANCH  10  11
ENDBRANCH   9  10
ENDBRANCH   8   9
ENDBRANCH   7   8
ENDBRANCH   6   7
ENDBRANCH   5   6
ENDBRANCH   4   5
ENDBRANCH   3   4
TORSDOF 14
ENDMDL
MODEL 5
REMARK VINA RESULT: -5.735722401      1.321      4.282
REMARK  14 active torsions:
REMARK  status: ('A' for Active; 'I' for Inactive)
REMARK    1  A    between atoms: C3_3  and  C4_4 
REMARK    2  A    between atoms: C4_4  and  C5_5 
REMARK    3  A    between atoms: C5_5  and  C6_6 
REMARK    4  A    between atoms: C6_6  and  C7_7 
REMARK    5  A    between atoms: C7_7  and  C8_8 
REMARK    6  A    between atoms: C8_8  and  C9_9 
REMARK    7  A    between atoms: C9_9  and  C10_10 
REMARK    8  A    between atoms: C10_10  and  C11_11 
REMARK    9  A    between atoms: C11_11  and  C12_12 
REMARK   10  A    between atoms: C12_12  and  C13_13 
REMARK   11  A    between atoms: C13_13  and  C14_14 
REMARK   12  A    between atoms: C14_14  and  C15_15 
REMARK   13  A    between atoms: C15_15  and  O1_16 
REMARK   14  A    between atoms: O1_16  and  C16_17 
ROOT
HETATM    1  C1  UNL     1     -46.774  73.040  -8.416  1.00  0.00     0.012 C 
HETATM    2  C2  UNL     1     -47.311  72.886  -7.343  1.00  0.00    -0.117 C 
HETATM    3  C3  UNL     1     -47.958  72.703  -6.032  1.00  0.00     0.093 C 
ENDROOT
BRANCH   3   4
HETATM    4  C4  UNL     1     -49.381  72.292  -6.210  1.00  0.00     0.012 C 
BRANCH   4   5
HETATM    5  C5  UNL     1     -50.227  73.384  -6.836  1.00  0.00     0.001 C 
BRANCH   5   6
HETATM    6  C6  UNL     1     -51.110  72.822  -7.936  1.00  0.00     0.000 C 
BRANCH   6   7
HETATM    7  C7  UNL     1     -50.624  71.428  -8.265  1.00  0.00     0.000 C 
BRANCH   7   8
HETATM    8  C8  UNL     1     -50.792  71.119  -9.728  1.00  0.00     0.000 C 
BRANCH   8   9
HETATM    9  C9  UNL     1     -51.722  72.072 -10.418  1.00  0.00     0.000 C 
BRANCH   9  10
HETATM   10  C10 UNL     1     -51.862  71.583 -11.897  1.00  0.00     0.000 C 
BRANCH  10  11
HETATM   11  C11 UNL     1     -51.445  70.183 -11.882  1.00  0.00     0.004 C 
BRANCH  11  12
HETATM   12  C12 UNL     1     -51.442  69.339 -13.086  1.00  0.00     0.027 C 
BRANCH  12  13
HETATM   13  C13 UNL     1     -51.384  67.885 -13.000  1.00  0.00    -0.025 C 
BRANCH  13  14
HETATM   14  C14 UNL     1     -50.817  67.157 -11.869  1.00  0.00     0.020 C 
BRANCH  14  15
HETATM   15  C15 UNL     1     -49.546  66.462 -11.829  1.00  0.00     0.135 C 
BRANCH  15  16
HETATM   16  O1  UNL     1     -48.314  66.878 -11.748  1.00  0.00    -0.358 OA
BRANCH  16  17
HETATM   17  C16 UNL     1     -47.690  67.478 -10.735  1.00  0.00     0.127 C 
HETATM   18  C17 UNL     1     -48.131  67.072  -9.367  1.00  0.00     0.032 C 
HETATM   19  C18 UNL     1     -48.636  68.222  -8.533  1.00  0.00     0.002 C 
HETATM   20  C19 UNL     1     -47.700  69.379  -8.450  1.00  0.00     0.000 C 
HETATM   21  C20 UNL     1     -46.942  69.567  -9.738  1.00  0.00     0.002 C 
HETATM   22  C21 UNL     1     -47.812  69.033 -10.856  1.00  0.00     0.032 C 
ENDBRANCH  16  17
ENDBRANCH  15  16
ENDBRANCH  14  15
ENDBRANCH  13  14
ENDBRANCH  12  13
ENDBRANCH  11  12
ENDBRANCH  10  11
ENDBRANCH   9  10
ENDBRANCH   8   9
ENDBRANCH   7   8
ENDBRANCH   6   7
ENDBRANCH   5   6
ENDBRANCH   4   5
ENDBRANCH   3   4
TORSDOF 14
ENDMDL
