MODEL 1
REMARK VINA RESULT: -5.908795970      0.000      0.000
REMARK  14 active torsions:
REMARK  status: ('A' for Active; 'I' for Inactive)
REMARK    1  A    between atoms: C1_1  and  C2_2 
REMARK    2  A    between atoms: C1_1  and  C11_11 
REMARK    3  A    between atoms: C2_2  and  C3_3 
REMARK    4  A    between atoms: C3_3  and  C4_4 
REMARK    5  A    between atoms: C4_4  and  C5_5 
REMARK    6  A    between atoms: C5_5  and  C6_6 
REMARK    7  A    between atoms: C6_6  and  C7_7 
REMARK    8  A    between atoms: C7_7  and  C8_8 
REMARK    9  A    between atoms: C11_11  and  C12_12 
REMARK   10  A    between atoms: C12_12  and  C13_13 
REMARK   11  A    between atoms: C13_13  and  C14_14 
REMARK   12  A    between atoms: C14_14  and  C15_15 
REMARK   13  A    between atoms: C15_15  and  C16_16 
REMARK   14  A    between atoms: C16_16  and  C17_17 
ROOT
HETATM    1  C12 UNL     1     -50.309  69.965  -9.119  1.00  0.00    -0.031 C 
ENDROOT
BRANCH   1   2
HETATM    2  C11 UNL     1     -51.001  71.219  -9.444  1.00  0.00     0.027 C 
BRANCH   2   3
HETATM    3  C1  UNL     1     -50.369  72.486  -8.993  1.00  0.00     0.004 C 
BRANCH   3   4
HETATM    4  C2  UNL     1     -51.007  73.079  -7.782  1.00  0.00     0.000 C 
BRANCH   4   5
HETATM    5  C3  UNL     1     -49.993  73.441  -6.753  1.00  0.00     0.000 C 
BRANCH   5   6
HETATM    6  C4  UNL     1     -49.524  72.232  -6.001  1.00  0.00     0.000 C 
BRANCH   6   7
HETATM    7  C5  UNL     1     -48.053  72.237  -5.789  1.00  0.00     0.000 C 
BRANCH   7   8
HETATM    8  C6  UNL     1     -47.383  70.979  -6.283  1.00  0.00     0.000 C 
BRANCH   8   9
HETATM    9  C7  UNL     1     -46.214  71.282  -7.194  1.00  0.00     0.004 C 
BRANCH   9  10
HETATM   10  C8  UNL     1     -46.692  72.317  -8.198  1.00  0.00    -0.014 A 
HETATM   11  C9  UNL     1     -45.923  72.268  -9.504  1.00  0.00     0.005 A 
HETATM   12  C10 UNL     1     -45.840  73.443  -8.600  1.00  0.00     0.005 A 
ENDBRANCH   9  10
ENDBRANCH   8   9
ENDBRANCH   7   8
ENDBRANCH   6   7
ENDBRANCH   5   6
ENDBRANCH   4   5
ENDBRANCH   3   4
ENDBRANCH   2   3
ENDBRANCH   1   2
BRANCH   1  13
HETATM   13  C13 UNL     1     -48.884  69.755  -9.342  1.00  0.00    -0.031 C 
BRANCH  13  14
HETATM   14  C14 UNL     1     -48.221  68.476  -9.026  1.00  0.00     0.027 C 
BRANCH  14  15
HETATM   15  C15 UNL     1     -48.800  67.274  -9.679  1.00  0.00     0.006 C 
BRANCH  15  16
HETATM   16  C16 UNL     1     -48.191  67.230 -11.101  1.00  0.00     0.033 C 
BRANCH  16  17
HETATM   17  C17 UNL     1     -49.229  66.804 -12.099  1.00  0.00     0.185 C 
HETATM   18  C18 UNL     1     -50.598  67.142 -11.594  1.00  0.00     0.033 C 
HETATM   19  C19 UNL     1     -51.284  68.034 -12.637  1.00  0.00     0.004 C 
HETATM   20  C20 UNL     1     -50.378  69.267 -12.755  1.00  0.00     0.027 C 
HETATM   21  C21 UNL     1     -49.035  68.842 -13.315  1.00  0.00     0.232 C 
HETATM   22  N1  UNL     1     -48.964  67.414 -13.364  1.00  0.00    -0.071 N 
ATOM     23  H12 UNL     1     -48.067  67.105 -13.738  1.00  0.00     0.277 HD
ATOM     24  H11 UNL     1     -49.582  67.042 -14.086  1.00  0.00     0.277 HD
ENDBRANCH  16  17
ENDBRANCH  15  16
ENDBRANCH  14  15
ENDBRANCH  13  14
ENDBRANCH   1  13
TORSDOF 14
ENDMDL
MODEL 2
REMARK VINA RESULT: -5.896148653      1.237      2.069
REMARK  14 active torsions:
REMARK  status: ('A' for Active; 'I' for Inactive)
REMARK    1  A    between atoms: C1_1  and  C2_2 
REMARK    2  A    between atoms: C1_1  and  C11_11 
REMARK    3  A    between atoms: C2_2  and  C3_3 
REMARK    4  A    between atoms: C3_3  and  C4_4 
REMARK    5  A    between atoms: C4_4  and  C5_5 
REMARK    6  A    between atoms: C5_5  and  C6_6 
REMARK    7  A    between atoms: C6_6  and  C7_7 
REMARK    8  A    between atoms: C7_7  and  C8_8 
REMARK    9  A    between atoms: C11_11  and  C12_12 
REMARK   10  A    between atoms: C12_12  and  C13_13 
REMARK   11  A    between atoms: C13_13  and  C14_14 
REMARK   12  A    between atoms: C14_14  and  C15_15 
REMARK   13  A    between atoms: C15_15  and  C16_16 
REMARK   14  A    between atoms: C16_16  and  C17_17 
ROOT
HETATM    1  C12 UNL     1     -50.254  69.986  -9.055  1.00  0.00    -0.031 C 
ENDROOT
BRANCH   1   2
HETATM    2  C11 UNL     1     -50.879  71.181  -9.636  1.00  0.00     0.027 C 
BRANCH   2   3
HETATM    3  C1  UNL     1     -50.431  72.504  -9.129  1.00  0.00     0.004 C 
BRANCH   3   4
HETATM    4  C2  UNL     1     -51.079  72.909  -7.849  1.00  0.00     0.000 C 
BRANCH   4   5
HETATM    5  C3  UNL     1     -50.076  73.366  -6.849  1.00  0.00     0.000 C 
BRANCH   5   6
HETATM    6  C4  UNL     1     -49.447  72.205  -6.137  1.00  0.00     0.000 C 
BRANCH   6   7
HETATM    7  C5  UNL     1     -47.980  72.133  -6.364  1.00  0.00     0.000 C 
BRANCH   7   8
HETATM    8  C6  UNL     1     -47.302  71.096  -5.503  1.00  0.00     0.000 C 
BRANCH   8   9
HETATM    9  C7  UNL     1     -46.244  70.331  -6.267  1.00  0.00     0.004 C 
BRANCH   9  10
HETATM   10  C8  UNL     1     -45.812  69.172  -5.384  1.00  0.00    -0.014 A 
HETATM   11  C9  UNL     1     -45.573  67.895  -6.168  1.00  0.00     0.005 A 
HETATM   12  C10 UNL     1     -46.677  68.004  -5.180  1.00  0.00     0.005 A 
ENDBRANCH   9  10
ENDBRANCH   8   9
ENDBRANCH   7   8
ENDBRANCH   6   7
ENDBRANCH   5   6
ENDBRANCH   4   5
ENDBRANCH   3   4
ENDBRANCH   2   3
ENDBRANCH   1   2
BRANCH   1  13
HETATM   13  C13 UNL     1     -48.825  69.712  -9.131  1.00  0.00    -0.031 C 
BRANCH  13  14
HETATM   14  C14 UNL     1     -48.255  68.406  -8.751  1.00  0.00     0.027 C 
BRANCH  14  15
HETATM   15  C15 UNL     1     -48.785  67.234  -9.493  1.00  0.00     0.006 C 
BRANCH  15  16
HETATM   16  C16 UNL     1     -48.187  67.328 -10.916  1.00  0.00     0.033 C 
BRANCH  16  17
HETATM   17  C17 UNL     1     -49.171  66.817 -11.929  1.00  0.00     0.185 C 
HETATM   18  C18 UNL     1     -50.568  67.149 -11.502  1.00  0.00     0.033 C 
HETATM   19  C19 UNL     1     -51.230  67.961 -12.624  1.00  0.00     0.004 C 
HETATM   20  C20 UNL     1     -50.349  69.208 -12.777  1.00  0.00     0.027 C 
HETATM   21  C21 UNL     1     -48.973  68.785 -13.255  1.00  0.00     0.232 C 
HETATM   22  N1  UNL     1     -48.867  67.360 -13.217  1.00  0.00    -0.071 N 
ATOM     23  H12 UNL     1     -47.948  67.053 -13.535  1.00  0.00     0.277 HD
ATOM     24  H11 UNL     1     -49.445  66.930 -13.940  1.00  0.00     0.277 HD
ENDBRANCH  16  17
ENDBRANCH  15  16
ENDBRANCH  14  15
ENDBRANCH  13  14
ENDBRANCH   1  13
TORSDOF 14
ENDMDL
MODEL 3
REMARK VINA RESULT: -5.826821742      2.812      4.841
REMARK  14 active torsions:
REMARK  status: ('A' for Active; 'I' for Inactive)
REMARK    1  A    between atoms: C1_1  and  C2_2 
REMARK    2  A    between atoms: C1_1  and  C11_11 
REMARK    3  A    between atoms: C2_2  and  C3_3 
REMARK    4  A    between atoms: C3_3  and  C4_4 
REMARK    5  A    between atoms: C4_4  and  C5_5 
REMARK    6  A    between atoms: C5_5  and  C6_6 
REMARK    7  A    between atoms: C6_6  and  C7_7 
REMARK    8  A    between atoms: C7_7  and  C8_8 
REMARK    9  A    between atoms: C11_11  and  C12_12 
REMARK   10  A    between atoms: C12_12  and  C13_13 
REMARK   11  A    between atoms: C13_13  and  C14_14 
REMARK   12  A    between atoms: C14_14  and  C15_15 
REMARK   13  A    between atoms: C15_15  and  C16_16 
REMARK   14  A    between atoms: C16_16  and  C17_17 
ROOT
HETATM    1  C12 UNL     1     -46.597  67.305  -8.950  1.00  0.00    -0.031 C 
ENDROOT
BRANCH   1   2
HETATM    2  C11 UNL     1     -45.584  68.351  -9.147  1.00  0.00     0.027 C 
BRANCH   2   3
HETATM    3  C1  UNL     1     -44.186  68.033  -8.756  1.00  0.00     0.004 C 
BRANCH   3   4
HETATM    4  C2  UNL     1     -43.934  66.577  -8.553  1.00  0.00     0.000 C 
BRANCH   4   5
HETATM    5  C3  UNL     1     -43.165  66.325  -7.304  1.00  0.00     0.000 C 
BRANCH   5   6
HETATM    6  C4  UNL     1     -43.719  67.111  -6.154  1.00  0.00     0.000 C 
BRANCH   6   7
HETATM    7  C5  UNL     1     -44.908  66.459  -5.546  1.00  0.00     0.000 C 
BRANCH   7   8
HETATM    8  C6  UNL     1     -45.979  67.442  -5.145  1.00  0.00     0.000 C 
BRANCH   8   9
HETATM    9  C7  UNL     1     -45.528  68.875  -5.327  1.00  0.00     0.004 C 
BRANCH   9  10
HETATM   10  C8  UNL     1     -46.744  69.668  -5.775  1.00  0.00    -0.014 A 
HETATM   11  C9  UNL     1     -46.377  70.889  -6.597  1.00  0.00     0.005 A 
HETATM   12  C10 UNL     1     -47.009  71.016  -5.259  1.00  0.00     0.005 A 
ENDBRANCH   9  10
ENDBRANCH   8   9
ENDBRANCH   7   8
ENDBRANCH   6   7
ENDBRANCH   5   6
ENDBRANCH   4   5
ENDBRANCH   3   4
ENDBRANCH   2   3
ENDBRANCH   1   2
BRANCH   1  13
HETATM   13  C13 UNL     1     -47.982  67.589  -8.595  1.00  0.00    -0.031 C 
BRANCH  13  14
HETATM   14  C14 UNL     1     -48.622  68.882  -8.905  1.00  0.00     0.027 C 
BRANCH  14  15
HETATM   15  C15 UNL     1     -49.997  68.800  -9.460  1.00  0.00     0.006 C 
BRANCH  15  16
HETATM   16  C16 UNL     1     -50.131  67.378 -10.052  1.00  0.00     0.033 C 
BRANCH  16  17
HETATM   17  C17 UNL     1     -50.574  67.450 -11.485  1.00  0.00     0.185 C 
HETATM   18  C18 UNL     1     -50.500  68.863 -11.976  1.00  0.00     0.033 C 
HETATM   19  C19 UNL     1     -49.592  68.891 -13.214  1.00  0.00     0.004 C 
HETATM   20  C20 UNL     1     -48.238  68.368 -12.717  1.00  0.00     0.027 C 
HETATM   21  C21 UNL     1     -48.395  66.923 -12.286  1.00  0.00     0.232 C 
HETATM   22  N1  UNL     1     -49.780  66.569 -12.283  1.00  0.00    -0.071 N 
ATOM     23  H12 UNL     1     -49.909  65.599 -11.995  1.00  0.00     0.277 HD
ATOM     24  H11 UNL     1     -50.144  66.509 -13.234  1.00  0.00     0.277 HD
ENDBRANCH  16  17
ENDBRANCH  15  16
ENDBRANCH  14  15
ENDBRANCH  13  14
ENDBRANCH   1  13
TORSDOF 14
ENDMDL
MODEL 4
REMARK VINA RESULT: -5.748089283      2.207      6.646
REMARK  14 active torsions:
REMARK  status: ('A' for Active; 'I' for Inactive)
REMARK    1  A    between atoms: C1_1  and  C2_2 
REMARK    2  A    between atoms: C1_1  and  C11_11 
REMARK    3  A    between atoms: C2_2  and  C3_3 
REMARK    4  A    between atoms: C3_3  and  C4_4 
REMARK    5  A    between atoms: C4_4  and  C5_5 
REMARK    6  A    between atoms: C5_5  and  C6_6 
REMARK    7  A    between atoms: C6_6  and  C7_7 
REMARK    8  A    between atoms: C7_7  and  C8_8 
REMARK    9  A    between atoms: C11_11  and  C12_12 
REMARK   10  A    between atoms: C12_12  and  C13_13 
REMARK   11  A    between atoms: C13_13  and  C14_14 
REMARK   12  A    between atoms: C14_14  and  C15_15 
REMARK   13  A    between atoms: C15_15  and  C16_16 
REMARK   14  A    between atoms: C16_16  and  C17_17 
ROOT
HETATM    1  C12 UNL     1     -51.893  71.016 -11.505  1.00  0.00    -0.031 C 
ENDROOT
BRANCH   1   2
HETATM    2  C11 UNL     1     -52.239  71.240 -12.915  1.00  0.00     0.027 C 
BRANCH   2   3
HETATM    3  C1  UNL     1     -53.173  70.275 -13.552  1.00  0.00     0.004 C 
BRANCH   3   4
HETATM    4  C2  UNL     1     -52.491  69.135 -14.228  1.00  0.00     0.000 C 
BRANCH   4   5
HETATM    5  C3  UNL     1     -52.540  67.900 -13.398  1.00  0.00     0.000 C 
BRANCH   5   6
HETATM    6  C4  UNL     1     -51.196  67.578 -12.818  1.00  0.00     0.000 C 
BRANCH   6   7
HETATM    7  C5  UNL     1     -50.099  68.320 -13.493  1.00  0.00     0.000 C 
BRANCH   7   8
HETATM    8  C6  UNL     1     -48.999  68.733 -12.548  1.00  0.00     0.000 C 
BRANCH   8   9
HETATM    9  C7  UNL     1     -48.927  67.831 -11.335  1.00  0.00     0.004 C 
BRANCH   9  10
HETATM   10  C8  UNL     1     -48.908  68.733 -10.113  1.00  0.00    -0.014 A 
HETATM   11  C9  UNL     1     -48.944  67.957  -8.810  1.00  0.00     0.005 A 
HETATM   12  C10 UNL     1     -50.070  68.835  -9.221  1.00  0.00     0.005 A 
ENDBRANCH   9  10
ENDBRANCH   8   9
ENDBRANCH   7   8
ENDBRANCH   6   7
ENDBRANCH   5   6
ENDBRANCH   4   5
ENDBRANCH   3   4
ENDBRANCH   2   3
ENDBRANCH   1   2
BRANCH   1  13
HETATM   13  C13 UNL     1     -51.573  72.095 -10.578  1.00  0.00    -0.031 C 
BRANCH  13  14
HETATM   14  C14 UNL     1     -52.200  72.197  -9.247  1.00  0.00     0.027 C 
BRANCH  14  15
HETATM   15  C15 UNL     1     -51.372  72.839  -8.195  1.00  0.00     0.006 C 
BRANCH  15  16
HETATM   16  C16 UNL     1     -49.903  72.510  -8.552  1.00  0.00     0.033 C 
BRANCH  16  17
HETATM   17  C17 UNL     1     -48.982  73.007  -7.475  1.00  0.00     0.185 C 
HETATM   18  C18 UNL     1     -49.222  72.252  -6.203  1.00  0.00     0.033 C 
HETATM   19  C19 UNL     1     -47.895  71.614  -5.770  1.00  0.00     0.004 C 
HETATM   20  C20 UNL     1     -47.502  70.696  -6.935  1.00  0.00     0.027 C 
HETATM   21  C21 UNL     1     -47.233  71.545  -8.163  1.00  0.00     0.232 C 
HETATM   22  N1  UNL     1     -47.625  72.897  -7.910  1.00  0.00    -0.071 N 
ATOM     23  H12 UNL     1     -47.452  73.486  -8.724  1.00  0.00     0.277 HD
ATOM     24  H11 UNL     1     -46.991  73.342  -7.246  1.00  0.00     0.277 HD
ENDBRANCH  16  17
ENDBRANCH  15  16
ENDBRANCH  14  15
ENDBRANCH  13  14
ENDBRANCH   1  13
TORSDOF 14
ENDMDL
MODEL 5
REMARK VINA RESULT: -5.725163320      1.302      2.277
REMARK  14 active torsions:
REMARK  status: ('A' for Active; 'I' for Inactive)
REMARK    1  A    between atoms: C1_1  and  C2_2 
REMARK    2  A    between atoms: C1_1  and  C11_11 
REMARK    3  A    between atoms: C2_2  and  C3_3 
REMARK    4  A    between atoms: C3_3  and  C4_4 
REMARK    5  A    between atoms: C4_4  and  C5_5 
REMARK    6  A    between atoms: C5_5  and  C6_6 
REMARK    7  A    between atoms: C6_6  and  C7_7 
REMARK    8  A    between atoms: C7_7  and  C8_8 
REMARK    9  A    between atoms: C11_11  and  C12_12 
REMARK   10  A    between atoms: C12_12  and  C13_13 
REMARK   11  A    between atoms: C13_13  and  C14_14 
REMARK   12  A    between atoms: C14_14  and  C15_15 
REMARK   13  A    between atoms: C15_15  and  C16_16 
REMARK   14  A    between atoms: C16_16  and  C17_17 
ROOT
HETATM    1  C12 UNL     1     -48.073  69.338  -8.310  1.00  0.00    -0.031 C 
ENDROOT
BRANCH   1   2
HETATM    2  C11 UNL     1     -48.870  70.206  -9.186  1.00  0.00     0.027 C 
BRANCH   2   3
HETATM    3  C1  UNL     1     -50.350  70.096  -9.096  1.00  0.00     0.004 C 
BRANCH   3   4
HETATM    4  C2  UNL     1     -51.073  71.308  -9.575  1.00  0.00     0.000 C 
BRANCH   4   5
HETATM    5  C3  UNL     1     -50.470  72.555  -9.030  1.00  0.00     0.000 C 
BRANCH   5   6
HETATM    6  C4  UNL     1     -51.226  73.048  -7.832  1.00  0.00     0.000 C 
BRANCH   6   7
HETATM    7  C5  UNL     1     -50.324  73.580  -6.777  1.00  0.00     0.000 C 
BRANCH   7   8
HETATM    8  C6  UNL     1     -48.906  73.084  -6.910  1.00  0.00     0.000 C 
BRANCH   8   9
HETATM    9  C7  UNL     1     -48.575  72.034  -5.873  1.00  0.00     0.004 C 
BRANCH   9  10
HETATM   10  C8  UNL     1     -47.071  71.819  -5.925  1.00  0.00    -0.014 A 
HETATM   11  C9  UNL     1     -46.631  70.566  -5.192  1.00  0.00     0.005 A 
HETATM   12  C10 UNL     1     -46.243  71.919  -4.717  1.00  0.00     0.005 A 
ENDBRANCH   9  10
ENDBRANCH   8   9
ENDBRANCH   7   8
ENDBRANCH   6   7
ENDBRANCH   5   6
ENDBRANCH   4   5
ENDBRANCH   3   4
ENDBRANCH   2   3
ENDBRANCH   1   2
BRANCH   1  13
HETATM   13  C13 UNL     1     -47.045  68.430  -8.802  1.00  0.00    -0.031 C 
BRANCH  13  14
HETATM   14  C14 UNL     1     -47.330  67.015  -9.110  1.00  0.00     0.027 C 
BRANCH  14  15
HETATM   15  C15 UNL     1     -48.573  66.765  -9.884  1.00  0.00     0.006 C 
BRANCH  15  16
HETATM   16  C16 UNL     1     -48.267  67.209 -11.333  1.00  0.00     0.033 C 
BRANCH  16  17
HETATM   17  C17 UNL     1     -49.418  66.869 -12.236  1.00  0.00     0.185 C 
HETATM   18  C18 UNL     1     -50.712  67.264 -11.591  1.00  0.00     0.033 C 
HETATM   19  C19 UNL     1     -51.444  68.224 -12.539  1.00  0.00     0.004 C 
HETATM   20  C20 UNL     1     -50.485  69.410 -12.713  1.00  0.00     0.027 C 
HETATM   21  C21 UNL     1     -49.228  68.930 -13.413  1.00  0.00     0.232 C 
HETATM   22  N1  UNL     1     -49.243  67.503 -13.505  1.00  0.00    -0.071 N 
ATOM     23  H12 UNL     1     -48.405  67.159 -13.973  1.00  0.00     0.277 HD
ATOM     24  H11 UNL     1     -49.947  67.187 -14.172  1.00  0.00     0.277 HD
ENDBRANCH  16  17
ENDBRANCH  15  16
ENDBRANCH  14  15
ENDBRANCH  13  14
ENDBRANCH   1  13
TORSDOF 14
ENDMDL
