MODEL 1
REMARK VINA RESULT: -6.157688654      0.000      0.000
REMARK  14 active torsions:
REMARK  status: ('A' for Active; 'I' for Inactive)
REMARK    1  A    between atoms: C3_3  and  C4_4 
REMARK    2  A    between atoms: C4_4  and  C5_5 
REMARK    3  A    between atoms: C5_5  and  C6_6 
REMARK    4  A    between atoms: C6_6  and  C7_7 
REMARK    5  A    between atoms: C7_7  and  C8_8 
REMARK    6  A    between atoms: C8_8  and  C9_9 
REMARK    7  A    between atoms: C9_9  and  C10_10 
REMARK    8  A    between atoms: C10_10  and  C11_11 
REMARK    9  A    between atoms: C11_11  and  C12_12 
REMARK   10  A    between atoms: C12_12  and  C13_13 
REMARK   11  A    between atoms: C13_13  and  C14_14 
REMARK   12  A    between atoms: C14_14  and  C15_15 
REMARK   13  A    between atoms: C15_15  and  C16_16 
REMARK   14  A    between atoms: C16_16  and  C17_17 
ROOT
HETATM    1  C1  UNL     1     -50.019  74.356  -5.322  1.00  0.00     0.012 C 
HETATM    2  C2  UNL     1     -50.033  73.457  -6.106  1.00  0.00    -0.117 C 
HETATM    3  C3  UNL     1     -50.027  72.355  -7.061  1.00  0.00     0.093 C 
ENDROOT
BRANCH   3   4
HETATM    4  C4  UNL     1     -51.021  72.732  -8.178  1.00  0.00     0.012 C 
BRANCH   4   5
HETATM    5  C5  UNL     1     -50.682  72.056  -9.442  1.00  0.00     0.001 C 
BRANCH   5   6
HETATM    6  C6  UNL     1     -51.683  72.124 -10.508  1.00  0.00     0.000 C 
BRANCH   6   7
HETATM    7  C7  UNL     1     -51.790  71.038 -11.465  1.00  0.00     0.000 C 
BRANCH   7   8
HETATM    8  C8  UNL     1     -52.229  71.208 -12.857  1.00  0.00     0.000 C 
BRANCH   8   9
HETATM    9  C9  UNL     1     -53.276  70.263 -13.355  1.00  0.00     0.000 C 
BRANCH   9  10
HETATM   10  C10 UNL     1     -52.596  69.162 -14.152  1.00  0.00     0.000 C 
BRANCH  10  11
HETATM   11  C11 UNL     1     -52.538  67.925 -13.290  1.00  0.00     0.000 C 
BRANCH  11  12
HETATM   12  C12 UNL     1     -51.141  67.548 -12.917  1.00  0.00     0.000 C 
BRANCH  12  13
HETATM   13  C13 UNL     1     -50.088  68.346 -13.614  1.00  0.00     0.000 C 
BRANCH  13  14
HETATM   14  C14 UNL     1     -48.975  68.639 -12.636  1.00  0.00     0.000 C 
BRANCH  14  15
HETATM   15  C15 UNL     1     -49.307  68.231 -11.230  1.00  0.00     0.002 C 
BRANCH  15  16
HETATM   16  C16 UNL     1     -48.319  67.183 -10.746  1.00  0.00     0.033 C 
BRANCH  16  17
HETATM   17  C17 UNL     1     -47.732  67.642  -9.409  1.00  0.00     0.185 C 
HETATM   18  C18 UNL     1     -48.542  68.795  -8.922  1.00  0.00     0.033 C 
HETATM   19  C19 UNL     1     -47.602  69.790  -8.243  1.00  0.00     0.004 C 
HETATM   20  C20 UNL     1     -46.699  70.330  -9.338  1.00  0.00     0.027 C 
HETATM   21  C21 UNL     1     -46.067  69.220 -10.126  1.00  0.00     0.232 C 
HETATM   22  N1  UNL     1     -46.329  67.916  -9.551  1.00  0.00    -0.071 N 
ATOM     23  H12 UNL     1     -45.844  67.804  -8.661  1.00  0.00     0.277 HD
ATOM     24  H11 UNL     1     -45.866  67.181 -10.086  1.00  0.00     0.277 HD
ENDBRANCH  16  17
ENDBRANCH  15  16
ENDBRANCH  14  15
ENDBRANCH  13  14
ENDBRANCH  12  13
ENDBRANCH  11  12
ENDBRANCH  10  11
ENDBRANCH   9  10
ENDBRANCH   8   9
ENDBRANCH   7   8
ENDBRANCH   6   7
ENDBRANCH   5   6
ENDBRANCH   4   5
ENDBRANCH   3   4
TORSDOF 14
ENDMDL
MODEL 2
REMARK VINA RESULT: -6.100162241      2.718      5.932
REMARK  14 active torsions:
REMARK  status: ('A' for Active; 'I' for Inactive)
REMARK    1  A    between atoms: C3_3  and  C4_4 
REMARK    2  A    between atoms: C4_4  and  C5_5 
REMARK    3  A    between atoms: C5_5  and  C6_6 
REMARK    4  A    between atoms: C6_6  and  C7_7 
REMARK    5  A    between atoms: C7_7  and  C8_8 
REMARK    6  A    between atoms: C8_8  and  C9_9 
REMARK    7  A    between atoms: C9_9  and  C10_10 
REMARK    8  A    between atoms: C10_10  and  C11_11 
REMARK    9  A    between atoms: C11_11  and  C12_12 
REMARK   10  A    between atoms: C12_12  and  C13_13 
REMARK   11  A    between atoms: C13_13  and  C14_14 
REMARK   12  A    between atoms: C14_14  and  C15_15 
REMARK   13  A    between atoms: C15_15  and  C16_16 
REMARK   14  A    between atoms: C16_16  and  C17_17 
ROOT
HETATM    1  C1  UNL     1     -47.016  71.216  -5.334  1.00  0.00     0.012 C 
HETATM    2  C2  UNL     1     -46.613  70.096  -5.430  1.00  0.00    -0.117 C 
HETATM    3  C3  UNL     1     -46.100  68.737  -5.546  1.00  0.00     0.093 C 
ENDROOT
BRANCH   3   4
HETATM    4  C4  UNL     1     -47.009  68.003  -6.553  1.00  0.00     0.012 C 
BRANCH   4   5
HETATM    5  C5  UNL     1     -46.305  66.873  -7.181  1.00  0.00     0.001 C 
BRANCH   5   6
HETATM    6  C6  UNL     1     -45.860  67.067  -8.563  1.00  0.00     0.000 C 
BRANCH   6   7
HETATM    7  C7  UNL     1     -44.554  67.643  -8.823  1.00  0.00     0.000 C 
BRANCH   7   8
HETATM    8  C8  UNL     1     -44.344  68.973  -9.415  1.00  0.00     0.000 C 
BRANCH   8   9
HETATM    9  C9  UNL     1     -45.434  69.500 -10.293  1.00  0.00     0.000 C 
BRANCH   9  10
HETATM   10  C10 UNL     1     -45.685  70.955  -9.933  1.00  0.00     0.000 C 
BRANCH  10  11
HETATM   11  C11 UNL     1     -46.928  71.021  -9.080  1.00  0.00     0.000 C 
BRANCH  11  12
HETATM   12  C12 UNL     1     -47.955  70.011  -9.479  1.00  0.00     0.000 C 
BRANCH  12  13
HETATM   13  C13 UNL     1     -49.232  70.105  -8.710  1.00  0.00     0.000 C 
BRANCH  13  14
HETATM   14  C14 UNL     1     -50.159  69.008  -9.176  1.00  0.00     0.000 C 
BRANCH  14  15
HETATM   15  C15 UNL     1     -49.451  67.709  -9.427  1.00  0.00     0.002 C 
BRANCH  15  16
HETATM   16  C16 UNL     1     -50.323  66.796 -10.273  1.00  0.00     0.033 C 
BRANCH  16  17
HETATM   17  C17 UNL     1     -49.596  66.504 -11.588  1.00  0.00     0.185 C 
HETATM   18  C18 UNL     1     -48.226  67.085 -11.497  1.00  0.00     0.033 C 
HETATM   19  C19 UNL     1     -47.848  67.642 -12.869  1.00  0.00     0.004 C 
HETATM   20  C20 UNL     1     -48.791  68.803 -13.128  1.00  0.00     0.027 C 
HETATM   21  C21 UNL     1     -50.223  68.402 -12.922  1.00  0.00     0.232 C 
HETATM   22  N1  UNL     1     -50.372  66.978 -12.700  1.00  0.00    -0.071 N 
ATOM     23  H12 UNL     1     -50.157  66.452 -13.547  1.00  0.00     0.277 HD
ATOM     24  H11 UNL     1     -51.355  66.726 -12.594  1.00  0.00     0.277 HD
ENDBRANCH  16  17
ENDBRANCH  15  16
ENDBRANCH  14  15
ENDBRANCH  13  14
ENDBRANCH  12  13
ENDBRANCH  11  12
ENDBRANCH  10  11
ENDBRANCH   9  10
ENDBRANCH   8   9
ENDBRANCH   7   8
ENDBRANCH   6   7
ENDBRANCH   5   6
ENDBRANCH   4   5
ENDBRANCH   3   4
TORSDOF 14
ENDMDL
MODEL 3
REMARK VINA RESULT: -6.086918716      1.847      4.714
REMARK  14 active torsions:
REMARK  status: ('A' for Active; 'I' for Inactive)
REMARK    1  A    between atoms: C3_3  and  C4_4 
REMARK    2  A    between atoms: C4_4  and  C5_5 
REMARK    3  A    between atoms: C5_5  and  C6_6 
REMARK    4  A    between atoms: C6_6  and  C7_7 
REMARK    5  A    between atoms: C7_7  and  C8_8 
REMARK    6  A    between atoms: C8_8  and  C9_9 
REMARK    7  A    between atoms: C9_9  and  C10_10 
REMARK    8  A    between atoms: C10_10  and  C11_11 
REMARK    9  A    between atoms: C11_11  and  C12_12 
REMARK   10  A    between atoms: C12_12  and  C13_13 
REMARK   11  A    between atoms: C13_13  and  C14_14 
REMARK   12  A    between atoms: C14_14  and  C15_15 
REMARK   13  A    between atoms: C15_15  and  C16_16 
REMARK   14  A    between atoms: C16_16  and  C17_17 
ROOT
HETATM    1  C1  UNL     1     -49.258  72.563  -6.092  1.00  0.00     0.012 C 
HETATM    2  C2  UNL     1     -48.301  71.981  -5.683  1.00  0.00    -0.117 C 
HETATM    3  C3  UNL     1     -47.128  71.284  -5.166  1.00  0.00     0.093 C 
ENDROOT
BRANCH   3   4
HETATM    4  C4  UNL     1     -46.324  70.801  -6.390  1.00  0.00     0.012 C 
BRANCH   4   5
HETATM    5  C5  UNL     1     -46.437  69.342  -6.558  1.00  0.00     0.001 C 
BRANCH   5   6
HETATM    6  C6  UNL     1     -47.341  68.874  -7.610  1.00  0.00     0.000 C 
BRANCH   6   7
HETATM    7  C7  UNL     1     -47.354  69.545  -8.898  1.00  0.00     0.000 C 
BRANCH   7   8
HETATM    8  C8  UNL     1     -48.547  70.169  -9.488  1.00  0.00     0.000 C 
BRANCH   8   9
HETATM    9  C9  UNL     1     -49.863  69.527  -9.188  1.00  0.00     0.000 C 
BRANCH   9  10
HETATM   10  C10 UNL     1     -50.818  70.593  -8.677  1.00  0.00     0.000 C 
BRANCH  10  11
HETATM   11  C11 UNL     1     -50.714  71.793  -9.587  1.00  0.00     0.000 C 
BRANCH  11  12
HETATM   12  C12 UNL     1     -51.966  72.034 -10.368  1.00  0.00     0.000 C 
BRANCH  12  13
HETATM   13  C13 UNL     1     -51.846  71.717 -11.823  1.00  0.00     0.000 C 
BRANCH  13  14
HETATM   14  C14 UNL     1     -52.845  70.639 -12.167  1.00  0.00     0.000 C 
BRANCH  14  15
HETATM   15  C15 UNL     1     -52.301  69.620 -13.126  1.00  0.00     0.002 C 
BRANCH  15  16
HETATM   16  C16 UNL     1     -50.795  69.506 -12.965  1.00  0.00     0.033 C 
BRANCH  16  17
HETATM   17  C17 UNL     1     -50.386  68.049 -13.192  1.00  0.00     0.185 C 
HETATM   18  C18 UNL     1     -50.595  67.307 -11.915  1.00  0.00     0.033 C 
HETATM   19  C19 UNL     1     -49.470  66.284 -11.763  1.00  0.00     0.004 C 
HETATM   20  C20 UNL     1     -48.192  67.086 -11.591  1.00  0.00     0.027 C 
HETATM   21  C21 UNL     1     -48.040  68.115 -12.673  1.00  0.00     0.232 C 
HETATM   22  N1  UNL     1     -49.047  67.983 -13.707  1.00  0.00    -0.071 N 
ATOM     23  H12 UNL     1     -48.904  67.130 -14.248  1.00  0.00     0.277 HD
ATOM     24  H11 UNL     1     -48.904  68.673 -14.445  1.00  0.00     0.277 HD
ENDBRANCH  16  17
ENDBRANCH  15  16
ENDBRANCH  14  15
ENDBRANCH  13  14
ENDBRANCH  12  13
ENDBRANCH  11  12
ENDBRANCH  10  11
ENDBRANCH   9  10
ENDBRANCH   8   9
ENDBRANCH   7   8
ENDBRANCH   6   7
ENDBRANCH   5   6
ENDBRANCH   4   5
ENDBRANCH   3   4
TORSDOF 14
ENDMDL
MODEL 4
REMARK VINA RESULT: -6.054955348      3.047      7.829
REMARK  14 active torsions:
REMARK  status: ('A' for Active; 'I' for Inactive)
REMARK    1  A    between atoms: C3_3  and  C4_4 
REMARK    2  A    between atoms: C4_4  and  C5_5 
REMARK    3  A    between atoms: C5_5  and  C6_6 
REMARK    4  A    between atoms: C6_6  and  C7_7 
REMARK    5  A    between atoms: C7_7  and  C8_8 
REMARK    6  A    between atoms: C8_8  and  C9_9 
REMARK    7  A    between atoms: C9_9  and  C10_10 
REMARK    8  A    between atoms: C10_10  and  C11_11 
REMARK    9  A    between atoms: C11_11  and  C12_12 
REMARK   10  A    between atoms: C12_12  and  C13_13 
REMARK   11  A    between atoms: C13_13  and  C14_14 
REMARK   12  A    between atoms: C14_14  and  C15_15 
REMARK   13  A    between atoms: C15_15  and  C16_16 
REMARK   14  A    between atoms: C16_16  and  C17_17 
ROOT
HETATM    1  C1  UNL     1     -49.671  69.066  -9.911  1.00  0.00     0.012 C 
HETATM    2  C2  UNL     1     -48.954  68.499  -9.144  1.00  0.00    -0.117 C 
HETATM    3  C3  UNL     1     -48.082  67.824  -8.190  1.00  0.00     0.093 C 
ENDROOT
BRANCH   3   4
HETATM    4  C4  UNL     1     -46.886  67.276  -8.994  1.00  0.00     0.012 C 
BRANCH   4   5
HETATM    5  C5  UNL     1     -45.892  68.331  -9.256  1.00  0.00     0.001 C 
BRANCH   5   6
HETATM    6  C6  UNL     1     -44.508  68.030  -8.886  1.00  0.00     0.000 C 
BRANCH   6   7
HETATM    7  C7  UNL     1     -44.152  66.688  -8.464  1.00  0.00     0.000 C 
BRANCH   7   8
HETATM    8  C8  UNL     1     -43.336  66.387  -7.278  1.00  0.00     0.000 C 
BRANCH   8   9
HETATM    9  C9  UNL     1     -43.778  66.993  -5.984  1.00  0.00     0.000 C 
BRANCH   9  10
HETATM   10  C10 UNL     1     -45.131  66.412  -5.613  1.00  0.00     0.000 C 
BRANCH  10  11
HETATM   11  C11 UNL     1     -46.013  67.540  -5.136  1.00  0.00     0.000 C 
BRANCH  11  12
HETATM   12  C12 UNL     1     -45.328  68.868  -5.186  1.00  0.00     0.000 C 
BRANCH  12  13
HETATM   13  C13 UNL     1     -46.131  69.943  -5.842  1.00  0.00     0.000 C 
BRANCH  13  14
HETATM   14  C14 UNL     1     -45.191  70.868  -6.578  1.00  0.00     0.000 C 
BRANCH  14  15
HETATM   15  C15 UNL     1     -45.877  71.678  -7.639  1.00  0.00     0.002 C 
BRANCH  15  16
HETATM   16  C16 UNL     1     -47.380  71.470  -7.562  1.00  0.00     0.033 C 
BRANCH  16  17
HETATM   17  C17 UNL     1     -48.057  72.836  -7.422  1.00  0.00     0.185 C 
HETATM   18  C18 UNL     1     -48.999  72.766  -6.268  1.00  0.00     0.033 C 
HETATM   19  C19 UNL     1     -50.240  73.589  -6.609  1.00  0.00     0.004 C 
HETATM   20  C20 UNL     1     -50.919  72.870  -7.762  1.00  0.00     0.027 C 
HETATM   21  C21 UNL     1     -49.954  72.590  -8.878  1.00  0.00     0.232 C 
HETATM   22  N1  UNL     1     -48.666  73.218  -8.665  1.00  0.00    -0.071 N 
ATOM     23  H12 UNL     1     -48.738  74.233  -8.739  1.00  0.00     0.277 HD
ATOM     24  H11 UNL     1     -48.039  73.039  -9.450  1.00  0.00     0.277 HD
ENDBRANCH  16  17
ENDBRANCH  15  16
ENDBRANCH  14  15
ENDBRANCH  13  14
ENDBRANCH  12  13
ENDBRANCH  11  12
ENDBRANCH  10  11
ENDBRANCH   9  10
ENDBRANCH   8   9
ENDBRANCH   7   8
ENDBRANCH   6   7
ENDBRANCH   5   6
ENDBRANCH   4   5
ENDBRANCH   3   4
TORSDOF 14
ENDMDL
MODEL 5
REMARK VINA RESULT: -6.004886359      2.032      4.960
REMARK  14 active torsions:
REMARK  status: ('A' for Active; 'I' for Inactive)
REMARK    1  A    between atoms: C3_3  and  C4_4 
REMARK    2  A    between atoms: C4_4  and  C5_5 
REMARK    3  A    between atoms: C5_5  and  C6_6 
REMARK    4  A    between atoms: C6_6  and  C7_7 
REMARK    5  A    between atoms: C7_7  and  C8_8 
REMARK    6  A    between atoms: C8_8  and  C9_9 
REMARK    7  A    between atoms: C9_9  and  C10_10 
REMARK    8  A    between atoms: C10_10  and  C11_11 
REMARK    9  A    between atoms: C11_11  and  C12_12 
REMARK   10  A    between atoms: C12_12  and  C13_13 
REMARK   11  A    between atoms: C13_13  and  C14_14 
REMARK   12  A    between atoms: C14_14  and  C15_15 
REMARK   13  A    between atoms: C15_15  and  C16_16 
REMARK   14  A    between atoms: C16_16  and  C17_17 
ROOT
HETATM    1  C1  UNL     1     -46.866  69.430 -10.797  1.00  0.00     0.012 C 
HETATM    2  C2  UNL     1     -47.559  69.270  -9.839  1.00  0.00    -0.117 C 
HETATM    3  C3  UNL     1     -48.388  69.068  -8.656  1.00  0.00     0.093 C 
ENDROOT
BRANCH   3   4
HETATM    4  C4  UNL     1     -49.666  68.346  -9.127  1.00  0.00     0.012 C 
BRANCH   4   5
HETATM    5  C5  UNL     1     -49.390  66.938  -9.462  1.00  0.00     0.001 C 
BRANCH   5   6
HETATM    6  C6  UNL     1     -49.982  66.434 -10.702  1.00  0.00     0.000 C 
BRANCH   6   7
HETATM    7  C7  UNL     1     -49.233  66.522 -11.943  1.00  0.00     0.000 C 
BRANCH   7   8
HETATM    8  C8  UNL     1     -49.298  67.666 -12.864  1.00  0.00     0.000 C 
BRANCH   8   9
HETATM    9  C9  UNL     1     -50.661  68.120 -13.280  1.00  0.00     0.000 C 
BRANCH   9  10
HETATM   10  C10 UNL     1     -50.725  69.634 -13.160  1.00  0.00     0.000 C 
BRANCH  10  11
HETATM   11  C11 UNL     1     -51.086  69.978 -11.736  1.00  0.00     0.000 C 
BRANCH  11  12
HETATM   12  C12 UNL     1     -52.129  71.045 -11.648  1.00  0.00     0.000 C 
BRANCH  12  13
HETATM   13  C13 UNL     1     -51.779  72.163 -10.721  1.00  0.00     0.000 C 
BRANCH  13  14
HETATM   14  C14 UNL     1     -51.373  71.579  -9.389  1.00  0.00     0.000 C 
BRANCH  14  15
HETATM   15  C15 UNL     1     -51.024  72.625  -8.371  1.00  0.00     0.002 C 
BRANCH  15  16
HETATM   16  C16 UNL     1     -50.021  72.068  -7.376  1.00  0.00     0.033 C 
BRANCH  16  17
HETATM   17  C17 UNL     1     -48.820  73.015  -7.306  1.00  0.00     0.185 C 
HETATM   18  C18 UNL     1     -48.012  72.827  -8.544  1.00  0.00     0.033 C 
HETATM   19  C19 UNL     1     -46.534  72.949  -8.177  1.00  0.00     0.004 C 
HETATM   20  C20 UNL     1     -46.223  71.767  -7.276  1.00  0.00     0.027 C 
HETATM   21  C21 UNL     1     -47.205  71.667  -6.145  1.00  0.00     0.232 C 
HETATM   22  N1  UNL     1     -48.095  72.808  -6.083  1.00  0.00    -0.071 N 
ATOM     23  H12 UNL     1     -47.590  73.652  -5.811  1.00  0.00     0.277 HD
ATOM     24  H11 UNL     1     -48.731  72.733  -5.289  1.00  0.00     0.277 HD
ENDBRANCH  16  17
ENDBRANCH  15  16
ENDBRANCH  14  15
ENDBRANCH  13  14
ENDBRANCH  12  13
ENDBRANCH  11  12
ENDBRANCH  10  11
ENDBRANCH   9  10
ENDBRANCH   8   9
ENDBRANCH   7   8
ENDBRANCH   6   7
ENDBRANCH   5   6
ENDBRANCH   4   5
ENDBRANCH   3   4
TORSDOF 14
ENDMDL
