MODEL 1
REMARK VINA RESULT: -5.519224905      0.000      0.000
REMARK  6 active torsions:
REMARK  status: ('A' for Active; 'I' for Inactive)
REMARK    1  A    between atoms: C2_3  and  N2_4 
REMARK    2  A    between atoms: C2_3  and  C3_8 
REMARK    3  A    between atoms: C3_8  and  N3_9 
REMARK    4  A    between atoms: C5_11  and  C6_12 
REMARK    5  A    between atoms: C6_12  and  N4_13 
REMARK    6  A    between atoms: C6_12  and  N5_17 
ROOT
HETATM    1  N1  UNL     1      22.242  27.576  23.259  1.00  0.00    -0.195 NA
HETATM    2  C1  UNL     1      23.359  27.683  23.505  1.00  0.00     0.094 C 
HETATM    3  C2  UNL     1      24.770  27.840  23.826  1.00  0.00     0.308 C 
ENDROOT
BRANCH   3   4
HETATM    4  N2  UNL     1      25.439  28.780  22.953  1.00  0.00    -0.061 N 
ATOM      5  H23 UNL     1      26.432  28.842  23.175  1.00  0.00     0.276 HD
ATOM      6  H22 UNL     1      25.504  28.416  22.003  1.00  0.00     0.276 HD
ATOM      7  H21 UNL     1      25.003  29.703  22.962  1.00  0.00     0.276 HD
ENDBRANCH   3   4
BRANCH   3   8
HETATM    8  C3  UNL     1      25.446  26.492  23.697  1.00  0.00     0.197 C 
BRANCH   8   9
HETATM    9  N3  UNL     1      25.291  25.696  24.890  1.00  0.00    -0.284 N 
HETATM   10  C4  UNL     1      25.566  26.111  26.139  1.00  0.00     0.142 A 
HETATM   11  C5  UNL     1      25.300  25.082  27.029  1.00  0.00     0.101 A 
HETATM   12  N6  UNL     1      24.866  24.067  26.264  1.00  0.00    -0.285 N 
HETATM   13  N7  UNL     1      24.868  24.451  24.992  1.00  0.00    -0.241 N 
ATOM     14  H6  UNL     1      24.581  23.148  26.605  1.00  0.00     0.188 HD
ATOM     15  H7  UNL     1      24.582  23.866  24.207  1.00  0.00     0.208 HD
BRANCH  11  16
HETATM   16  C6  UNL     1      25.479  25.164  28.478  1.00  0.00     0.430 C 
BRANCH  16  17
HETATM   17  N4  UNL     1      24.260  24.938  29.230  1.00  0.00    -0.045 N 
ATOM     18  H43 UNL     1      23.632  25.737  29.147  1.00  0.00     0.277 HD
ATOM     19  H42 UNL     1      23.688  24.223  28.781  1.00  0.00     0.277 HD
ATOM     20  H41 UNL     1      24.421  24.707  30.211  1.00  0.00     0.277 HD
ENDBRANCH  16  17
BRANCH  16  21
HETATM   21  N5  UNL     1      26.542  24.269  28.953  1.00  0.00    -0.045 N 
ATOM     22  H53 UNL     1      26.157  23.483  29.476  1.00  0.00     0.277 HD
ATOM     23  H52 UNL     1      26.967  23.756  28.180  1.00  0.00     0.277 HD
ATOM     24  H51 UNL     1      27.246  24.767  29.498  1.00  0.00     0.277 HD
ENDBRANCH  16  21
ENDBRANCH  11  16
ENDBRANCH   8   9
ENDBRANCH   3   8
TORSDOF 6
ENDMDL
MODEL 2
REMARK VINA RESULT: -5.502821602      1.173      1.392
REMARK  6 active torsions:
REMARK  status: ('A' for Active; 'I' for Inactive)
REMARK    1  A    between atoms: C2_3  and  N2_4 
REMARK    2  A    between atoms: C2_3  and  C3_8 
REMARK    3  A    between atoms: C3_8  and  N3_9 
REMARK    4  A    between atoms: C5_11  and  C6_12 
REMARK    5  A    between atoms: C6_12  and  N4_13 
REMARK    6  A    between atoms: C6_12  and  N5_17 
ROOT
HETATM    1  N1  UNL     1      23.719  30.640  23.603  1.00  0.00    -0.195 NA
HETATM    2  C1  UNL     1      24.192  29.593  23.640  1.00  0.00     0.094 C 
HETATM    3  C2  UNL     1      24.813  28.278  23.687  1.00  0.00     0.308 C 
ENDROOT
BRANCH   3   4
HETATM    4  N2  UNL     1      25.423  27.905  22.428  1.00  0.00    -0.061 N 
ATOM      5  H23 UNL     1      24.823  28.155  21.642  1.00  0.00     0.276 HD
ATOM      6  H22 UNL     1      26.225  28.499  22.220  1.00  0.00     0.276 HD
ATOM      7  H21 UNL     1      25.680  26.918  22.394  1.00  0.00     0.276 HD
ENDBRANCH   3   4
BRANCH   3   8
HETATM    8  C3  UNL     1      23.751  27.257  24.033  1.00  0.00     0.197 C 
BRANCH   8   9
HETATM    9  N3  UNL     1      24.222  26.299  25.003  1.00  0.00    -0.284 N 
HETATM   10  C4  UNL     1      24.451  26.559  26.302  1.00  0.00     0.142 A 
HETATM   11  C5  UNL     1      24.896  25.403  26.925  1.00  0.00     0.101 A 
HETATM   12  N6  UNL     1      24.918  24.474  25.956  1.00  0.00    -0.285 N 
HETATM   13  N7  UNL     1      24.514  25.025  24.818  1.00  0.00    -0.241 N 
ATOM     14  H6  UNL     1      25.200  23.501  26.076  1.00  0.00     0.188 HD
ATOM     15  H7  UNL     1      24.440  24.534  23.927  1.00  0.00     0.208 HD
BRANCH  11  16
HETATM   16  C6  UNL     1      25.246  25.301  28.341  1.00  0.00     0.430 C 
BRANCH  16  17
HETATM   17  N4  UNL     1      24.119  24.990  29.200  1.00  0.00    -0.045 N 
ATOM     18  H43 UNL     1      24.049  25.667  29.961  1.00  0.00     0.277 HD
ATOM     19  H42 UNL     1      23.239  25.181  28.721  1.00  0.00     0.277 HD
ATOM     20  H41 UNL     1      24.132  24.038  29.565  1.00  0.00     0.277 HD
ENDBRANCH  16  17
BRANCH  16  21
HETATM   21  N5  UNL     1      26.337  24.346  28.572  1.00  0.00    -0.045 N 
ATOM     22  H53 UNL     1      26.651  24.370  29.542  1.00  0.00     0.277 HD
ATOM     23  H52 UNL     1      26.001  23.384  28.535  1.00  0.00     0.277 HD
ATOM     24  H51 UNL     1      27.115  24.491  27.928  1.00  0.00     0.277 HD
ENDBRANCH  16  21
ENDBRANCH  11  16
ENDBRANCH   8   9
ENDBRANCH   3   8
TORSDOF 6
ENDMDL
MODEL 3
REMARK VINA RESULT: -5.467873191      1.198      1.392
REMARK  6 active torsions:
REMARK  status: ('A' for Active; 'I' for Inactive)
REMARK    1  A    between atoms: C2_3  and  N2_4 
REMARK    2  A    between atoms: C2_3  and  C3_8 
REMARK    3  A    between atoms: C3_8  and  N3_9 
REMARK    4  A    between atoms: C5_11  and  C6_12 
REMARK    5  A    between atoms: C6_12  and  N4_13 
REMARK    6  A    between atoms: C6_12  and  N5_17 
ROOT
HETATM    1  N1  UNL     1      23.403  28.700  22.882  1.00  0.00    -0.195 NA
HETATM    2  C1  UNL     1      24.294  27.997  23.060  1.00  0.00     0.094 C 
HETATM    3  C2  UNL     1      25.436  27.125  23.290  1.00  0.00     0.308 C 
ENDROOT
BRANCH   3   4
HETATM    4  N2  UNL     1      26.398  27.169  22.209  1.00  0.00    -0.061 N 
ATOM      5  H23 UNL     1      26.099  27.817  21.480  1.00  0.00     0.276 HD
ATOM      6  H22 UNL     1      27.257  27.634  22.502  1.00  0.00     0.276 HD
ATOM      7  H21 UNL     1      26.595  26.246  21.821  1.00  0.00     0.276 HD
ENDBRANCH   3   4
BRANCH   3   8
HETATM    8  C3  UNL     1      24.935  25.704  23.436  1.00  0.00     0.197 C 
BRANCH   8   9
HETATM    9  N3  UNL     1      24.903  25.285  24.816  1.00  0.00    -0.284 N 
HETATM   10  C4  UNL     1      24.834  26.110  25.875  1.00  0.00     0.142 A 
HETATM   11  C5  UNL     1      24.823  25.356  27.039  1.00  0.00     0.101 A 
HETATM   12  N6  UNL     1      24.886  24.080  26.625  1.00  0.00    -0.285 N 
HETATM   13  N7  UNL     1      24.933  24.057  25.298  1.00  0.00    -0.241 N 
ATOM     14  H6  UNL     1      24.896  23.260  27.232  1.00  0.00     0.188 HD
ATOM     15  H7  UNL     1      24.985  23.210  24.731  1.00  0.00     0.208 HD
BRANCH  11  16
HETATM   16  C6  UNL     1      24.755  25.909  28.391  1.00  0.00     0.430 C 
BRANCH  16  17
HETATM   17  N4  UNL     1      24.115  27.208  28.459  1.00  0.00    -0.045 N 
ATOM     18  H43 UNL     1      23.253  27.214  27.913  1.00  0.00     0.277 HD
ATOM     19  H42 UNL     1      23.730  27.371  29.389  1.00  0.00     0.277 HD
ATOM     20  H41 UNL     1      24.722  27.979  28.181  1.00  0.00     0.277 HD
ENDBRANCH  16  17
BRANCH  16  21
HETATM   21  N5  UNL     1      24.119  24.981  29.334  1.00  0.00    -0.045 N 
ATOM     22  H53 UNL     1      24.740  24.207  29.568  1.00  0.00     0.277 HD
ATOM     23  H52 UNL     1      24.028  25.399  30.260  1.00  0.00     0.277 HD
ATOM     24  H51 UNL     1      23.220  24.643  28.991  1.00  0.00     0.277 HD
ENDBRANCH  16  21
ENDBRANCH  11  16
ENDBRANCH   8   9
ENDBRANCH   3   8
TORSDOF 6
ENDMDL
MODEL 4
REMARK VINA RESULT: -5.353402748      1.174      1.331
REMARK  6 active torsions:
REMARK  status: ('A' for Active; 'I' for Inactive)
REMARK    1  A    between atoms: C2_3  and  N2_4 
REMARK    2  A    between atoms: C2_3  and  C3_8 
REMARK    3  A    between atoms: C3_8  and  N3_9 
REMARK    4  A    between atoms: C5_11  and  C6_12 
REMARK    5  A    between atoms: C6_12  and  N4_13 
REMARK    6  A    between atoms: C6_12  and  N5_17 
ROOT
HETATM    1  N1  UNL     1      22.273  27.242  23.247  1.00  0.00    -0.195 NA
HETATM    2  C1  UNL     1      22.952  27.967  23.824  1.00  0.00     0.094 C 
HETATM    3  C2  UNL     1      23.792  28.896  24.566  1.00  0.00     0.308 C 
ENDROOT
BRANCH   3   4
HETATM    4  N2  UNL     1      23.759  30.235  24.020  1.00  0.00    -0.061 N 
ATOM      5  H23 UNL     1      22.971  30.764  24.395  1.00  0.00     0.276 HD
ATOM      6  H22 UNL     1      24.525  30.799  24.386  1.00  0.00     0.276 HD
ATOM      7  H21 UNL     1      23.754  30.244  23.000  1.00  0.00     0.276 HD
ENDBRANCH   3   4
BRANCH   3   8
HETATM    8  C3  UNL     1      25.219  28.390  24.526  1.00  0.00     0.197 C 
BRANCH   8   9
HETATM    9  N3  UNL     1      25.387  27.192  25.311  1.00  0.00    -0.284 N 
HETATM   10  C4  UNL     1      25.301  27.126  26.651  1.00  0.00     0.142 A 
HETATM   11  C5  UNL     1      25.519  25.818  27.056  1.00  0.00     0.101 A 
HETATM   12  N6  UNL     1      25.733  25.135  25.919  1.00  0.00    -0.285 N 
HETATM   13  N7  UNL     1      25.651  25.970  24.890  1.00  0.00    -0.241 N 
ATOM     14  H6  UNL     1      25.927  24.135  25.857  1.00  0.00     0.188 HD
ATOM     15  H7  UNL     1      25.774  25.704  23.912  1.00  0.00     0.208 HD
BRANCH  11  16
HETATM   16  C6  UNL     1      25.503  25.360  28.444  1.00  0.00     0.430 C 
BRANCH  16  17
HETATM   17  N4  UNL     1      24.193  24.944  28.907  1.00  0.00    -0.045 N 
ATOM     18  H43 UNL     1      23.925  24.057  28.478  1.00  0.00     0.277 HD
ATOM     19  H42 UNL     1      24.232  24.656  29.885  1.00  0.00     0.277 HD
ATOM     20  H41 UNL     1      23.466  25.645  28.766  1.00  0.00     0.277 HD
ENDBRANCH  16  17
BRANCH  16  21
HETATM   21  N5  UNL     1      26.487  24.298  28.686  1.00  0.00    -0.045 N 
ATOM     22  H53 UNL     1      26.041  23.381  28.723  1.00  0.00     0.277 HD
ATOM     23  H52 UNL     1      27.084  24.154  27.871  1.00  0.00     0.277 HD
ATOM     24  H51 UNL     1      27.042  24.473  29.524  1.00  0.00     0.277 HD
ENDBRANCH  16  21
ENDBRANCH  11  16
ENDBRANCH   8   9
ENDBRANCH   3   8
TORSDOF 6
ENDMDL
MODEL 5
REMARK VINA RESULT: -5.339322962      1.482      1.759
REMARK  6 active torsions:
REMARK  status: ('A' for Active; 'I' for Inactive)
REMARK    1  A    between atoms: C2_3  and  N2_4 
REMARK    2  A    between atoms: C2_3  and  C3_8 
REMARK    3  A    between atoms: C3_8  and  N3_9 
REMARK    4  A    between atoms: C5_11  and  C6_12 
REMARK    5  A    between atoms: C6_12  and  N4_13 
REMARK    6  A    between atoms: C6_12  and  N5_17 
ROOT
HETATM    1  N1  UNL     1      23.689  28.303  22.591  1.00  0.00    -0.195 NA
HETATM    2  C1  UNL     1      24.529  27.567  22.859  1.00  0.00     0.094 C 
HETATM    3  C2  UNL     1      25.608  26.651  23.196  1.00  0.00     0.308 C 
ENDROOT
BRANCH   3   4
HETATM    4  N2  UNL     1      26.400  26.276  22.044  1.00  0.00    -0.061 N 
ATOM      5  H23 UNL     1      25.815  26.172  21.215  1.00  0.00     0.276 HD
ATOM      6  H22 UNL     1      26.988  27.050  21.736  1.00  0.00     0.276 HD
ATOM      7  H21 UNL     1      26.957  25.437  22.207  1.00  0.00     0.276 HD
ENDBRANCH   3   4
BRANCH   3   8
HETATM    8  C3  UNL     1      25.008  25.400  23.801  1.00  0.00     0.197 C 
BRANCH   8   9
HETATM    9  N3  UNL     1      24.899  25.495  25.235  1.00  0.00    -0.284 N 
HETATM   10  C4  UNL     1      25.884  25.214  26.107  1.00  0.00     0.142 A 
HETATM   11  C5  UNL     1      25.420  25.417  27.398  1.00  0.00     0.101 A 
HETATM   12  N6  UNL     1      24.147  25.820  27.249  1.00  0.00    -0.285 N 
HETATM   13  N7  UNL     1      23.854  25.861  25.954  1.00  0.00    -0.241 N 
ATOM     14  H6  UNL     1      23.508  26.056  28.008  1.00  0.00     0.188 HD
ATOM     15  H7  UNL     1      22.950  26.135  25.569  1.00  0.00     0.208 HD
BRANCH  11  16
HETATM   16  C6  UNL     1      26.210  25.212  28.611  1.00  0.00     0.430 C 
BRANCH  16  17
HETATM   17  N4  UNL     1      26.902  23.938  28.649  1.00  0.00    -0.045 N 
ATOM     18  H43 UNL     1      26.235  23.166  28.621  1.00  0.00     0.277 HD
ATOM     19  H42 UNL     1      27.395  23.771  27.772  1.00  0.00     0.277 HD
ATOM     20  H41 UNL     1      27.534  23.839  29.443  1.00  0.00     0.277 HD
ENDBRANCH  16  17
BRANCH  16  21
HETATM   21  N5  UNL     1      27.157  26.310  28.843  1.00  0.00    -0.045 N 
ATOM     22  H53 UNL     1      27.856  26.360  28.101  1.00  0.00     0.277 HD
ATOM     23  H52 UNL     1      26.712  27.218  28.705  1.00  0.00     0.277 HD
ATOM     24  H51 UNL     1      27.597  26.250  29.761  1.00  0.00     0.277 HD
ENDBRANCH  16  21
ENDBRANCH  11  16
ENDBRANCH   8   9
ENDBRANCH   3   8
TORSDOF 6
ENDMDL
