MODEL 1
REMARK VINA RESULT: -5.616253354      0.000      0.000
REMARK  4 active torsions:
REMARK  status: ('A' for Active; 'I' for Inactive)
REMARK    1  A    between atoms: C2_3  and  N2_4 
REMARK    2  A    between atoms: N2_4  and  C3_7 
REMARK    3  A    between atoms: C3_7  and  N3_8 
REMARK    4  A    between atoms: C3_7  and  C4_12 
ROOT
HETATM    1  N1  UNL     1      23.605  30.959  23.608  1.00  0.00    -0.196 NA
HETATM    2  C1  UNL     1      24.089  29.983  23.992  1.00  0.00     0.086 C 
HETATM    3  C2  UNL     1      24.684  28.744  24.497  1.00  0.00     0.358 C 
ENDROOT
BRANCH   3   4
HETATM    4  N2  UNL     1      23.628  27.830  24.781  1.00  0.00    -0.029 N 
ATOM      5  H22 UNL     1      23.361  27.887  25.764  1.00  0.00     0.281 HD
ATOM      6  H21 UNL     1      22.759  28.142  24.348  1.00  0.00     0.281 HD
BRANCH   4   7
HETATM    7  C3  UNL     1      23.911  26.466  24.415  1.00  0.00     0.434 C 
BRANCH   7   8
HETATM    8  N3  UNL     1      22.785  25.832  23.754  1.00  0.00    -0.044 N 
ATOM      9  H33 UNL     1      22.390  26.438  23.035  1.00  0.00     0.277 HD
ATOM     10  H32 UNL     1      23.091  25.059  23.163  1.00  0.00     0.277 HD
ATOM     11  H31 UNL     1      22.070  25.530  24.417  1.00  0.00     0.277 HD
ENDBRANCH   7   8
BRANCH   7  12
HETATM   12  C4  UNL     1      24.310  25.745  25.646  1.00  0.00     0.110 A 
HETATM   13  N4  UNL     1      24.140  26.199  26.895  1.00  0.00    -0.350 N 
HETATM   14  C5  UNL     1      24.608  25.310  27.792  1.00  0.00     0.182 A 
ATOM     15  H4  UNL     1      23.715  27.095  27.134  1.00  0.00     0.166 HD
HETATM   16  N5  UNL     1      25.079  24.284  27.092  1.00  0.00    -0.339 N 
HETATM   17  C6  UNL     1      24.914  24.513  25.764  1.00  0.00     0.143 A 
ATOM     18  H5  UNL     1      25.501  23.447  27.493  1.00  0.00     0.167 HD
HETATM   19  N6  UNL     1      25.290  23.650  24.700  1.00  0.00    -0.080 NA
ENDBRANCH   7  12
ENDBRANCH   4   7
ENDBRANCH   3   4
TORSDOF 4
ENDMDL
MODEL 2
REMARK VINA RESULT: -5.591217923      2.598      5.328
REMARK  4 active torsions:
REMARK  status: ('A' for Active; 'I' for Inactive)
REMARK    1  A    between atoms: C2_3  and  N2_4 
REMARK    2  A    between atoms: N2_4  and  C3_7 
REMARK    3  A    between atoms: C3_7  and  N3_8 
REMARK    4  A    between atoms: C3_7  and  C4_12 
ROOT
HETATM    1  N1  UNL     1      29.335  24.606  30.131  1.00  0.00    -0.196 NA
HETATM    2  C1  UNL     1      28.656  24.636  29.196  1.00  0.00     0.086 C 
HETATM    3  C2  UNL     1      27.787  24.652  28.019  1.00  0.00     0.358 C 
ENDROOT
BRANCH   3   4
HETATM    4  N2  UNL     1      26.481  24.249  28.428  1.00  0.00    -0.029 N 
ATOM      5  H22 UNL     1      26.169  23.446  27.882  1.00  0.00     0.281 HD
ATOM      6  H21 UNL     1      26.513  23.826  29.356  1.00  0.00     0.281 HD
BRANCH   4   7
HETATM    7  C3  UNL     1      25.497  25.300  28.387  1.00  0.00     0.434 C 
BRANCH   7   8
HETATM    8  N3  UNL     1      24.212  24.865  28.902  1.00  0.00    -0.044 N 
ATOM      9  H33 UNL     1      23.716  24.290  28.220  1.00  0.00     0.277 HD
ATOM     10  H32 UNL     1      24.326  24.174  29.643  1.00  0.00     0.277 HD
ATOM     11  H31 UNL     1      23.637  25.649  29.212  1.00  0.00     0.277 HD
ENDBRANCH   7   8
BRANCH   7  12
HETATM   12  C4  UNL     1      25.404  25.771  26.986  1.00  0.00     0.110 A 
HETATM   13  N4  UNL     1      25.622  27.030  26.579  1.00  0.00    -0.350 N 
HETATM   14  C5  UNL     1      25.457  27.135  25.247  1.00  0.00     0.182 A 
ATOM     15  H4  UNL     1      25.877  27.802  27.195  1.00  0.00     0.166 HD
HETATM   16  N5  UNL     1      25.131  25.922  24.814  1.00  0.00    -0.339 N 
HETATM   17  C6  UNL     1      25.087  25.053  25.855  1.00  0.00     0.143 A 
ATOM     18  H5  UNL     1      24.941  25.681  23.841  1.00  0.00     0.167 HD
HETATM   19  N6  UNL     1      24.775  23.668  25.792  1.00  0.00    -0.080 NA
ENDBRANCH   7  12
ENDBRANCH   4   7
ENDBRANCH   3   4
TORSDOF 4
ENDMDL
MODEL 3
REMARK VINA RESULT: -5.565987056      1.575      2.100
REMARK  4 active torsions:
REMARK  status: ('A' for Active; 'I' for Inactive)
REMARK    1  A    between atoms: C2_3  and  N2_4 
REMARK    2  A    between atoms: N2_4  and  C3_7 
REMARK    3  A    between atoms: C3_7  and  N3_8 
REMARK    4  A    between atoms: C3_7  and  C4_12 
ROOT
HETATM    1  N1  UNL     1      23.461  28.727  22.897  1.00  0.00    -0.196 NA
HETATM    2  C1  UNL     1      23.355  27.644  23.289  1.00  0.00     0.086 C 
HETATM    3  C2  UNL     1      23.232  26.266  23.764  1.00  0.00     0.358 C 
ENDROOT
BRANCH   3   4
HETATM    4  N2  UNL     1      24.431  25.572  23.426  1.00  0.00    -0.029 N 
ATOM      5  H22 UNL     1      24.288  24.564  23.484  1.00  0.00     0.281 HD
ATOM      6  H21 UNL     1      24.627  25.663  22.429  1.00  0.00     0.281 HD
BRANCH   4   7
HETATM    7  C3  UNL     1      25.580  25.964  24.202  1.00  0.00     0.434 C 
BRANCH   7   8
HETATM    8  N3  UNL     1      26.792  25.300  23.758  1.00  0.00    -0.044 N 
ATOM      9  H33 UNL     1      27.048  25.591  22.815  1.00  0.00     0.277 HD
ATOM     10  H32 UNL     1      27.608  25.646  24.262  1.00  0.00     0.277 HD
ATOM     11  H31 UNL     1      26.720  24.284  23.825  1.00  0.00     0.277 HD
ENDBRANCH   7   8
BRANCH   7  12
HETATM   12  C4  UNL     1      25.279  25.677  25.624  1.00  0.00     0.110 A 
HETATM   13  N4  UNL     1      25.336  26.572  26.620  1.00  0.00    -0.350 N 
HETATM   14  C5  UNL     1      25.006  26.000  27.793  1.00  0.00     0.182 A 
ATOM     15  H4  UNL     1      25.594  27.552  26.505  1.00  0.00     0.166 HD
HETATM   16  N5  UNL     1      24.739  24.726  27.526  1.00  0.00    -0.339 N 
HETATM   17  C6  UNL     1      24.896  24.487  26.199  1.00  0.00     0.143 A 
ATOM     18  H5  UNL     1      24.457  24.031  28.217  1.00  0.00     0.167 HD
HETATM   19  N6  UNL     1      24.702  23.248  25.532  1.00  0.00    -0.080 NA
ENDBRANCH   7  12
ENDBRANCH   4   7
ENDBRANCH   3   4
TORSDOF 4
ENDMDL
MODEL 4
REMARK VINA RESULT: -5.526476481      2.828      5.113
REMARK  4 active torsions:
REMARK  status: ('A' for Active; 'I' for Inactive)
REMARK    1  A    between atoms: C2_3  and  N2_4 
REMARK    2  A    between atoms: N2_4  and  C3_7 
REMARK    3  A    between atoms: C3_7  and  N3_8 
REMARK    4  A    between atoms: C3_7  and  C4_12 
ROOT
HETATM    1  N1  UNL     1      22.070  27.501  23.191  1.00  0.00    -0.196 NA
HETATM    2  C1  UNL     1      22.945  26.821  23.518  1.00  0.00     0.086 C 
HETATM    3  C2  UNL     1      24.068  25.969  23.915  1.00  0.00     0.358 C 
ENDROOT
BRANCH   3   4
HETATM    4  N2  UNL     1      25.246  26.773  23.937  1.00  0.00    -0.029 N 
ATOM      5  H22 UNL     1      25.105  27.597  24.521  1.00  0.00     0.281 HD
ATOM      6  H21 UNL     1      25.984  26.309  24.467  1.00  0.00     0.281 HD
BRANCH   4   7
HETATM    7  C3  UNL     1      25.726  27.154  22.634  1.00  0.00     0.434 C 
BRANCH   7   8
HETATM    8  N3  UNL     1      26.539  26.117  22.025  1.00  0.00    -0.044 N 
ATOM      9  H33 UNL     1      26.687  25.340  22.668  1.00  0.00     0.277 HD
ATOM     10  H32 UNL     1      26.025  25.627  21.293  1.00  0.00     0.277 HD
ATOM     11  H31 UNL     1      27.425  26.481  21.673  1.00  0.00     0.277 HD
ENDBRANCH   7   8
BRANCH   7  12
HETATM   12  C4  UNL     1      26.470  28.426  22.785  1.00  0.00     0.110 A 
HETATM   13  N4  UNL     1      27.787  28.578  22.590  1.00  0.00    -0.350 N 
HETATM   14  C5  UNL     1      28.157  29.854  22.808  1.00  0.00     0.182 A 
ATOM     15  H4  UNL     1      28.423  27.829  22.314  1.00  0.00     0.166 HD
HETATM   16  N5  UNL     1      27.053  30.511  23.145  1.00  0.00    -0.339 N 
HETATM   17  C6  UNL     1      25.990  29.666  23.143  1.00  0.00     0.143 A 
ATOM     18  H5  UNL     1      27.010  31.504  23.371  1.00  0.00     0.167 HD
HETATM   19  N6  UNL     1      24.643  29.996  23.449  1.00  0.00    -0.080 NA
ENDBRANCH   7  12
ENDBRANCH   4   7
ENDBRANCH   3   4
TORSDOF 4
ENDMDL
MODEL 5
REMARK VINA RESULT: -5.505070054      1.920      4.845
REMARK  4 active torsions:
REMARK  status: ('A' for Active; 'I' for Inactive)
REMARK    1  A    between atoms: C2_3  and  N2_4 
REMARK    2  A    between atoms: N2_4  and  C3_7 
REMARK    3  A    between atoms: C3_7  and  N3_8 
REMARK    4  A    between atoms: C3_7  and  C4_12 
ROOT
HETATM    1  N1  UNL     1      28.565  23.690  27.639  1.00  0.00    -0.196 NA
HETATM    2  C1  UNL     1      27.697  24.242  28.165  1.00  0.00     0.086 C 
HETATM    3  C2  UNL     1      26.607  24.964  28.824  1.00  0.00     0.358 C 
ENDROOT
BRANCH   3   4
HETATM    4  N2  UNL     1      26.174  26.005  27.951  1.00  0.00    -0.029 N 
ATOM      5  H22 UNL     1      26.587  26.896  28.227  1.00  0.00     0.281 HD
ATOM      6  H21 UNL     1      26.597  25.896  27.030  1.00  0.00     0.281 HD
BRANCH   4   7
HETATM    7  C3  UNL     1      24.744  26.126  27.838  1.00  0.00     0.434 C 
BRANCH   7   8
HETATM    8  N3  UNL     1      24.047  25.068  28.547  1.00  0.00    -0.044 N 
ATOM      9  H33 UNL     1      23.063  25.033  28.282  1.00  0.00     0.277 HD
ATOM     10  H32 UNL     1      24.338  24.149  28.215  1.00  0.00     0.277 HD
ATOM     11  H31 UNL     1      24.156  25.147  29.558  1.00  0.00     0.277 HD
ENDBRANCH   7   8
BRANCH   7  12
HETATM   12  C4  UNL     1      24.408  26.143  26.395  1.00  0.00     0.110 A 
HETATM   13  N4  UNL     1      23.984  27.217  25.715  1.00  0.00    -0.350 N 
HETATM   14  C5  UNL     1      23.764  26.905  24.423  1.00  0.00     0.182 A 
ATOM     15  H4  UNL     1      23.846  28.143  26.119  1.00  0.00     0.166 HD
HETATM   16  N5  UNL     1      24.056  25.616  24.295  1.00  0.00    -0.339 N 
HETATM   17  C6  UNL     1      24.457  25.109  25.489  1.00  0.00     0.143 A 
ATOM     18  H5  UNL     1      23.989  25.085  23.427  1.00  0.00     0.167 HD
HETATM   19  N6  UNL     1      24.851  23.770  25.753  1.00  0.00    -0.080 NA
ENDBRANCH   7  12
ENDBRANCH   4   7
ENDBRANCH   3   4
TORSDOF 4
ENDMDL
