MODEL 1
REMARK VINA RESULT: -5.359137559      0.000      0.000
REMARK  4 active torsions:
REMARK  status: ('A' for Active; 'I' for Inactive)
REMARK    1  A    between atoms: N1_2  and  N2_3 
REMARK    2  A    between atoms: N1_2  and  C3_6 
REMARK    3  A    between atoms: N2_3  and  C2_4 
REMARK    4  A    between atoms: C5_12  and  N5_13 
ROOT
HETATM    1  C3  UNL     1      24.690  26.345  26.107  1.00  0.00     0.724 A 
HETATM    2  N3  UNL     1      24.552  27.669  26.434  1.00  0.00    -0.184 N 
ATOM      3  H3  UNL     1      24.653  28.383  25.711  1.00  0.00     0.185 HD
HETATM    4  C4  UNL     1      24.288  28.032  27.686  1.00  0.00     0.215 A 
HETATM    5  N4  UNL     1      24.158  27.074  28.621  1.00  0.00    -0.187 N 
ATOM      6  H4  UNL     1      23.953  27.333  29.585  1.00  0.00     0.185 HD
HETATM    7  C5  UNL     1      24.296  25.767  28.289  1.00  0.00     0.691 A 
HETATM    8  N6  UNL     1      24.567  25.395  27.025  1.00  0.00    -0.020 N 
ATOM      9  H6  UNL     1      24.673  24.410  26.779  1.00  0.00     0.203 HD
ENDROOT
BRANCH   1  10
HETATM   10  N1  UNL     1      24.934  25.953  24.721  1.00  0.00    -0.058 N 
HETATM   11  C1  UNL     1      25.520  24.661  24.449  1.00  0.00     0.213 C 
BRANCH  10  12
HETATM   12  N2  UNL     1      24.587  26.802  23.782  1.00  0.00    -0.281 NA
BRANCH  12  13
HETATM   13  C2  UNL     1      24.233  27.663  22.841  1.00  0.00     0.467 C 
HETATM   14  O1  UNL     1      23.381  28.457  22.569  1.00  0.00    -0.266 OA
ENDBRANCH  12  13
ENDBRANCH  10  12
ENDBRANCH   1  10
BRANCH   7  15
HETATM   15  N5  UNL     1      24.146  24.902  29.225  1.00  0.00    -0.234 N 
ATOM     16  H52 UNL     1      24.663  24.969  30.101  1.00  0.00     0.174 HD
ATOM     17  H51 UNL     1      23.494  24.137  29.054  1.00  0.00     0.174 HD
ENDBRANCH   7  15
TORSDOF 4
ENDMDL
MODEL 2
REMARK VINA RESULT: -5.190765515      1.460      2.367
REMARK  4 active torsions:
REMARK  status: ('A' for Active; 'I' for Inactive)
REMARK    1  A    between atoms: N1_2  and  N2_3 
REMARK    2  A    between atoms: N1_2  and  C3_6 
REMARK    3  A    between atoms: N2_3  and  C2_4 
REMARK    4  A    between atoms: C5_12  and  N5_13 
ROOT
HETATM    1  C3  UNL     1      24.942  26.759  26.421  1.00  0.00     0.724 A 
HETATM    2  N3  UNL     1      26.084  26.094  26.058  1.00  0.00    -0.184 N 
ATOM      3  H3  UNL     1      26.608  26.398  25.236  1.00  0.00     0.185 HD
HETATM    4  C4  UNL     1      26.516  25.056  26.768  1.00  0.00     0.215 A 
HETATM    5  N4  UNL     1      25.810  24.675  27.847  1.00  0.00    -0.187 N 
ATOM      6  H4  UNL     1      26.127  23.882  28.405  1.00  0.00     0.185 HD
HETATM    7  C5  UNL     1      24.680  25.337  28.199  1.00  0.00     0.691 A 
HETATM    8  N6  UNL     1      24.238  26.387  27.482  1.00  0.00    -0.020 N 
ATOM      9  H6  UNL     1      23.387  26.882  27.747  1.00  0.00     0.203 HD
ENDROOT
BRANCH   1  10
HETATM   10  N1  UNL     1      24.501  27.927  25.663  1.00  0.00    -0.058 N 
HETATM   11  C1  UNL     1      24.876  29.245  26.121  1.00  0.00     0.213 C 
BRANCH  10  12
HETATM   12  N2  UNL     1      23.790  27.713  24.579  1.00  0.00    -0.281 NA
BRANCH  12  13
HETATM   13  C2  UNL     1      23.071  27.490  23.492  1.00  0.00     0.467 C 
HETATM   14  O1  UNL     1      21.939  27.418  23.114  1.00  0.00    -0.266 OA
ENDBRANCH  12  13
ENDBRANCH  10  12
ENDBRANCH   1  10
BRANCH   7  15
HETATM   15  N5  UNL     1      24.062  24.933  29.247  1.00  0.00    -0.234 N 
ATOM     16  H52 UNL     1      23.235  24.339  29.183  1.00  0.00     0.174 HD
ATOM     17  H51 UNL     1      24.423  25.239  30.151  1.00  0.00     0.174 HD
ENDBRANCH   7  15
TORSDOF 4
ENDMDL
MODEL 3
REMARK VINA RESULT: -5.136225760      1.703      2.054
REMARK  4 active torsions:
REMARK  status: ('A' for Active; 'I' for Inactive)
REMARK    1  A    between atoms: N1_2  and  N2_3 
REMARK    2  A    between atoms: N1_2  and  C3_6 
REMARK    3  A    between atoms: N2_3  and  C2_4 
REMARK    4  A    between atoms: C5_12  and  N5_13 
ROOT
HETATM    1  C3  UNL     1      25.027  25.690  26.373  1.00  0.00     0.724 A 
HETATM    2  N3  UNL     1      24.064  25.917  27.322  1.00  0.00    -0.184 N 
ATOM      3  H3  UNL     1      23.200  26.394  27.063  1.00  0.00     0.185 HD
HETATM    4  C4  UNL     1      24.246  25.519  28.577  1.00  0.00     0.215 A 
HETATM    5  N4  UNL     1      25.393  24.891  28.894  1.00  0.00    -0.187 N 
ATOM      6  H4  UNL     1      25.550  24.576  29.852  1.00  0.00     0.185 HD
HETATM    7  C5  UNL     1      26.341  24.672  27.950  1.00  0.00     0.691 A 
HETATM    8  N6  UNL     1      26.161  25.074  26.679  1.00  0.00    -0.020 N 
ATOM      9  H6  UNL     1      26.878  24.911  25.970  1.00  0.00     0.203 HD
ENDROOT
BRANCH   1  10
HETATM   10  N1  UNL     1      24.798  26.088  24.986  1.00  0.00    -0.058 N 
HETATM   11  C1  UNL     1      25.197  25.195  23.923  1.00  0.00     0.213 C 
BRANCH  10  12
HETATM   12  N2  UNL     1      24.218  27.248  24.776  1.00  0.00    -0.281 NA
BRANCH  12  13
HETATM   13  C2  UNL     1      23.630  28.416  24.574  1.00  0.00     0.467 C 
HETATM   14  O1  UNL     1      22.630  29.018  24.828  1.00  0.00    -0.266 OA
ENDBRANCH  12  13
ENDBRANCH  10  12
ENDBRANCH   1  10
BRANCH   7  15
HETATM   15  N5  UNL     1      27.404  24.054  28.314  1.00  0.00    -0.234 N 
ATOM     16  H52 UNL     1      27.848  24.240  29.213  1.00  0.00     0.174 HD
ATOM     17  H51 UNL     1      27.797  23.375  27.663  1.00  0.00     0.174 HD
ENDBRANCH   7  15
TORSDOF 4
ENDMDL
MODEL 4
REMARK VINA RESULT: -5.133443445      1.638      1.957
REMARK  4 active torsions:
REMARK  status: ('A' for Active; 'I' for Inactive)
REMARK    1  A    between atoms: N1_2  and  N2_3 
REMARK    2  A    between atoms: N1_2  and  C3_6 
REMARK    3  A    between atoms: N2_3  and  C2_4 
REMARK    4  A    between atoms: C5_12  and  N5_13 
ROOT
HETATM    1  C3  UNL     1      25.304  25.665  26.316  1.00  0.00     0.724 A 
HETATM    2  N3  UNL     1      24.190  25.946  27.065  1.00  0.00    -0.184 N 
ATOM      3  H3  UNL     1      23.399  26.426  26.636  1.00  0.00     0.185 HD
HETATM    4  C4  UNL     1      24.134  25.598  28.347  1.00  0.00     0.215 A 
HETATM    5  N4  UNL     1      25.189  24.964  28.891  1.00  0.00    -0.187 N 
ATOM      6  H4  UNL     1      25.162  24.687  29.872  1.00  0.00     0.185 HD
HETATM    7  C5  UNL     1      26.286  24.690  28.143  1.00  0.00     0.691 A 
HETATM    8  N6  UNL     1      26.349  25.043  26.846  1.00  0.00    -0.020 N 
ATOM      9  H6  UNL     1      27.177  24.839  26.286  1.00  0.00     0.203 HD
ENDROOT
BRANCH   1  10
HETATM   10  N1  UNL     1      25.338  26.009  24.897  1.00  0.00    -0.058 N 
HETATM   11  C1  UNL     1      26.611  26.052  24.215  1.00  0.00     0.213 C 
BRANCH  10  12
HETATM   12  N2  UNL     1      24.192  26.247  24.303  1.00  0.00    -0.281 NA
BRANCH  12  13
HETATM   13  C2  UNL     1      23.039  26.484  23.697  1.00  0.00     0.467 C 
HETATM   14  O1  UNL     1      22.326  27.380  23.356  1.00  0.00    -0.266 OA
ENDBRANCH  12  13
ENDBRANCH  10  12
ENDBRANCH   1  10
BRANCH   7  15
HETATM   15  N5  UNL     1      27.251  24.071  28.717  1.00  0.00    -0.234 N 
ATOM     16  H52 UNL     1      27.996  23.627  28.179  1.00  0.00     0.174 HD
ATOM     17  H51 UNL     1      27.241  24.029  29.736  1.00  0.00     0.174 HD
ENDBRANCH   7  15
TORSDOF 4
ENDMDL
MODEL 5
REMARK VINA RESULT: -5.115055886      1.700      2.114
REMARK  4 active torsions:
REMARK  status: ('A' for Active; 'I' for Inactive)
REMARK    1  A    between atoms: N1_2  and  N2_3 
REMARK    2  A    between atoms: N1_2  and  C3_6 
REMARK    3  A    between atoms: N2_3  and  C2_4 
REMARK    4  A    between atoms: C5_12  and  N5_13 
ROOT
HETATM    1  C3  UNL     1      25.211  25.750  26.069  1.00  0.00     0.724 A 
HETATM    2  N3  UNL     1      26.494  25.289  26.219  1.00  0.00    -0.184 N 
ATOM      3  H3  UNL     1      27.147  25.345  25.437  1.00  0.00     0.185 HD
HETATM    4  C4  UNL     1      26.894  24.769  27.376  1.00  0.00     0.215 A 
HETATM    5  N4  UNL     1      26.015  24.708  28.393  1.00  0.00    -0.187 N 
ATOM      6  H4  UNL     1      26.304  24.314  29.288  1.00  0.00     0.185 HD
HETATM    7  C5  UNL     1      24.748  25.165  28.236  1.00  0.00     0.691 A 
HETATM    8  N6  UNL     1      24.339  25.689  27.066  1.00  0.00    -0.020 N 
ATOM      9  H6  UNL     1      23.384  26.030  26.950  1.00  0.00     0.203 HD
ENDROOT
BRANCH   1  10
HETATM   10  N1  UNL     1      24.795  26.363  24.810  1.00  0.00    -0.058 N 
HETATM   11  C1  UNL     1      25.042  25.661  23.572  1.00  0.00     0.213 C 
BRANCH  10  12
HETATM   12  N2  UNL     1      24.194  27.529  24.873  1.00  0.00    -0.281 NA
BRANCH  12  13
HETATM   13  C2  UNL     1      23.584  28.701  24.928  1.00  0.00     0.467 C 
HETATM   14  O1  UNL     1      22.513  29.209  24.775  1.00  0.00    -0.266 OA
ENDBRANCH  12  13
ENDBRANCH  10  12
ENDBRANCH   1  10
BRANCH   7  15
HETATM   15  N5  UNL     1      23.965  25.091  29.248  1.00  0.00    -0.234 N 
ATOM     16  H52 UNL     1      23.924  25.834  29.947  1.00  0.00     0.174 HD
ATOM     17  H51 UNL     1      23.391  24.253  29.335  1.00  0.00     0.174 HD
ENDBRANCH   7  15
TORSDOF 4
ENDMDL
