MODEL 1
REMARK VINA RESULT: -5.856794013      0.000      0.000
REMARK  4 active torsions:
REMARK  status: ('A' for Active; 'I' for Inactive)
REMARK    1  A    between atoms: N1_1  and  C1_5 
REMARK    2  A    between atoms: C3_7  and  N2_8 
REMARK    3  A    between atoms: N2_8  and  N3_9 
REMARK    4  A    between atoms: N3_9  and  C4_11 
ROOT
HETATM    1  N3  UNL     1      24.828  25.242  23.885  1.00  0.00    -0.134 N 
ATOM      2  H3  UNL     1      25.594  25.007  23.256  1.00  0.00     0.201 HD
ENDROOT
BRANCH   1   3
HETATM    3  N2  UNL     1      24.691  24.515  25.073  1.00  0.00    -0.119 NA
BRANCH   3   4
HETATM    4  C3  UNL     1      24.533  25.436  26.177  1.00  0.00     0.132 A 
HETATM    5  C1  UNL     1      25.129  24.918  27.491  1.00  0.00     0.206 A 
HETATM    6  C2  UNL     1      25.693  26.088  26.810  1.00  0.00     0.059 A 
BRANCH   5   7
HETATM    7  N1  UNL     1      24.211  25.034  28.602  1.00  0.00    -0.073 N 
ATOM      8  H13 UNL     1      24.102  26.027  28.810  1.00  0.00     0.274 HD
ATOM      9  H12 UNL     1      23.283  24.783  28.263  1.00  0.00     0.274 HD
ATOM     10  H11 UNL     1      24.358  24.549  29.487  1.00  0.00     0.274 HD
ENDBRANCH   5   7
ENDBRANCH   3   4
ENDBRANCH   1   3
BRANCH   1  11
HETATM   11  C4  UNL     1      23.947  26.288  23.520  1.00  0.00     0.719 A 
HETATM   12  N4  UNL     1      24.290  27.535  23.160  1.00  0.00    -0.116 N 
HETATM   13  N5  UNL     1      23.204  28.242  22.887  1.00  0.00     0.006 NA
ATOM     14  H4  UNL     1      25.246  27.887  23.103  1.00  0.00     0.202 HD
HETATM   15  N6  UNL     1      22.159  27.451  23.071  1.00  0.00     0.006 NA
HETATM   16  N7  UNL     1      22.603  26.260  23.457  1.00  0.00    -0.116 N 
ATOM     17  H7  UNL     1      22.018  25.453  23.673  1.00  0.00     0.202 HD
ENDBRANCH   1  11
TORSDOF 4
ENDMDL
MODEL 2
REMARK VINA RESULT: -5.852155647      0.024      1.071
REMARK  4 active torsions:
REMARK  status: ('A' for Active; 'I' for Inactive)
REMARK    1  A    between atoms: N1_1  and  C1_5 
REMARK    2  A    between atoms: C3_7  and  N2_8 
REMARK    3  A    between atoms: N2_8  and  N3_9 
REMARK    4  A    between atoms: N3_9  and  C4_11 
ROOT
HETATM    1  N3  UNL     1      24.818  25.248  23.896  1.00  0.00    -0.134 N 
ATOM      2  H3  UNL     1      25.582  25.002  23.267  1.00  0.00     0.201 HD
ENDROOT
BRANCH   1   3
HETATM    3  N2  UNL     1      24.668  24.522  25.082  1.00  0.00    -0.119 NA
BRANCH   3   4
HETATM    4  C3  UNL     1      24.522  25.444  26.187  1.00  0.00     0.132 A 
HETATM    5  C1  UNL     1      25.111  24.917  27.501  1.00  0.00     0.206 A 
HETATM    6  C2  UNL     1      25.691  26.080  26.822  1.00  0.00     0.059 A 
BRANCH   5   7
HETATM    7  N1  UNL     1      24.193  25.045  28.612  1.00  0.00    -0.073 N 
ATOM      8  H13 UNL     1      24.494  25.844  29.170  1.00  0.00     0.274 HD
ATOM      9  H12 UNL     1      23.301  25.367  28.239  1.00  0.00     0.274 HD
ATOM     10  H11 UNL     1      24.001  24.276  29.254  1.00  0.00     0.274 HD
ENDBRANCH   5   7
ENDBRANCH   3   4
ENDBRANCH   1   3
BRANCH   1  11
HETATM   11  C4  UNL     1      23.954  26.308  23.531  1.00  0.00     0.719 A 
HETATM   12  N4  UNL     1      22.612  26.269  23.483  1.00  0.00    -0.116 N 
HETATM   13  N5  UNL     1      22.140  27.445  23.099  1.00  0.00     0.006 NA
ATOM     14  H4  UNL     1      22.041  25.455  23.709  1.00  0.00     0.202 HD
HETATM   15  N6  UNL     1      23.175  28.244  22.900  1.00  0.00     0.006 NA
HETATM   16  N7  UNL     1      24.283  27.559  23.159  1.00  0.00    -0.116 N 
ATOM     17  H7  UNL     1      25.233  27.923  23.089  1.00  0.00     0.202 HD
ENDBRANCH   1  11
TORSDOF 4
ENDMDL
MODEL 3
REMARK VINA RESULT: -5.615585079      1.418      1.570
REMARK  4 active torsions:
REMARK  status: ('A' for Active; 'I' for Inactive)
REMARK    1  A    between atoms: N1_1  and  C1_5 
REMARK    2  A    between atoms: C3_7  and  N2_8 
REMARK    3  A    between atoms: N2_8  and  N3_9 
REMARK    4  A    between atoms: N3_9  and  C4_11 
ROOT
HETATM    1  N3  UNL     1      24.339  25.220  25.121  1.00  0.00    -0.134 N 
ATOM      2  H3  UNL     1      24.042  24.255  24.977  1.00  0.00     0.201 HD
ENDROOT
BRANCH   1   3
HETATM    3  N2  UNL     1      25.479  25.461  25.896  1.00  0.00    -0.119 NA
BRANCH   3   4
HETATM    4  C3  UNL     1      25.374  24.723  27.136  1.00  0.00     0.132 A 
HETATM    5  C1  UNL     1      26.335  25.220  28.222  1.00  0.00     0.206 A 
HETATM    6  C2  UNL     1      24.883  25.358  28.372  1.00  0.00     0.059 A 
BRANCH   5   7
HETATM    7  N1  UNL     1      27.080  24.144  28.839  1.00  0.00    -0.073 N 
ATOM      8  H13 UNL     1      26.409  23.443  29.151  1.00  0.00     0.274 HD
ATOM      9  H12 UNL     1      27.579  23.651  28.099  1.00  0.00     0.274 HD
ATOM     10  H11 UNL     1      27.738  24.302  29.602  1.00  0.00     0.274 HD
ENDBRANCH   5   7
ENDBRANCH   3   4
ENDBRANCH   1   3
BRANCH   1  11
HETATM   11  C4  UNL     1      23.581  26.258  24.528  1.00  0.00     0.719 A 
HETATM   12  N4  UNL     1      23.605  27.559  24.860  1.00  0.00    -0.116 N 
HETATM   13  N5  UNL     1      22.765  28.236  24.094  1.00  0.00     0.006 NA
ATOM     14  H4  UNL     1      24.185  27.965  25.594  1.00  0.00     0.202 HD
HETATM   15  N6  UNL     1      22.198  27.374  23.266  1.00  0.00     0.006 NA
HETATM   16  N7  UNL     1      22.689  26.167  23.525  1.00  0.00    -0.116 N 
ATOM     17  H7  UNL     1      22.430  25.308  23.040  1.00  0.00     0.202 HD
ENDBRANCH   1  11
TORSDOF 4
ENDMDL
MODEL 4
REMARK VINA RESULT: -5.612482234      0.951      1.008
REMARK  4 active torsions:
REMARK  status: ('A' for Active; 'I' for Inactive)
REMARK    1  A    between atoms: N1_1  and  C1_5 
REMARK    2  A    between atoms: C3_7  and  N2_8 
REMARK    3  A    between atoms: N2_8  and  N3_9 
REMARK    4  A    between atoms: N3_9  and  C4_11 
ROOT
HETATM    1  N3  UNL     1      24.871  25.257  23.986  1.00  0.00    -0.134 N 
ATOM      2  H3  UNL     1      24.849  24.362  23.498  1.00  0.00     0.201 HD
ENDROOT
BRANCH   1   3
HETATM    3  N2  UNL     1      25.786  25.427  25.030  1.00  0.00    -0.119 NA
BRANCH   3   4
HETATM    4  C3  UNL     1      25.284  24.764  26.214  1.00  0.00     0.132 A 
HETATM    5  C1  UNL     1      25.872  25.318  27.517  1.00  0.00     0.206 A 
HETATM    6  C2  UNL     1      24.448  25.472  27.200  1.00  0.00     0.059 A 
BRANCH   5   7
HETATM    7  N1  UNL     1      26.363  24.276  28.392  1.00  0.00    -0.073 N 
ATOM      8  H13 UNL     1      27.338  24.485  28.604  1.00  0.00     0.274 HD
ATOM      9  H12 UNL     1      25.914  24.398  29.299  1.00  0.00     0.274 HD
ATOM     10  H11 UNL     1      26.306  23.286  28.150  1.00  0.00     0.274 HD
ENDBRANCH   5   7
ENDBRANCH   3   4
ENDBRANCH   1   3
BRANCH   1  11
HETATM   11  C4  UNL     1      23.974  26.273  23.578  1.00  0.00     0.719 A 
HETATM   12  N4  UNL     1      24.299  27.469  23.061  1.00  0.00    -0.116 N 
HETATM   13  N5  UNL     1      23.201  28.160  22.797  1.00  0.00     0.006 NA
ATOM     14  H4  UNL     1      25.251  27.797  22.896  1.00  0.00     0.202 HD
HETATM   15  N6  UNL     1      22.167  27.411  23.142  1.00  0.00     0.006 NA
HETATM   16  N7  UNL     1      22.629  26.261  23.620  1.00  0.00    -0.116 N 
ATOM     17  H7  UNL     1      22.056  25.491  23.963  1.00  0.00     0.202 HD
ENDBRANCH   1  11
TORSDOF 4
ENDMDL
MODEL 5
REMARK VINA RESULT: -5.607995920      0.958      1.470
REMARK  4 active torsions:
REMARK  status: ('A' for Active; 'I' for Inactive)
REMARK    1  A    between atoms: N1_1  and  C1_5 
REMARK    2  A    between atoms: C3_7  and  N2_8 
REMARK    3  A    between atoms: N2_8  and  N3_9 
REMARK    4  A    between atoms: N3_9  and  C4_11 
ROOT
HETATM    1  N3  UNL     1      24.854  25.231  23.993  1.00  0.00    -0.134 N 
ATOM      2  H3  UNL     1      24.795  24.329  23.522  1.00  0.00     0.201 HD
ENDROOT
BRANCH   1   3
HETATM    3  N2  UNL     1      25.787  25.390  25.022  1.00  0.00    -0.119 NA
BRANCH   3   4
HETATM    4  C3  UNL     1      25.290  24.746  26.217  1.00  0.00     0.132 A 
HETATM    5  C1  UNL     1      25.899  25.306  27.508  1.00  0.00     0.206 A 
HETATM    6  C2  UNL     1      24.474  25.476  27.205  1.00  0.00     0.059 A 
BRANCH   5   7
HETATM    7  N1  UNL     1      26.386  24.267  28.389  1.00  0.00    -0.073 N 
ATOM      8  H13 UNL     1      26.755  24.719  29.225  1.00  0.00     0.274 HD
ATOM      9  H12 UNL     1      25.576  23.767  28.754  1.00  0.00     0.274 HD
ATOM     10  H11 UNL     1      27.068  23.571  28.088  1.00  0.00     0.274 HD
ENDBRANCH   5   7
ENDBRANCH   3   4
ENDBRANCH   1   3
BRANCH   1  11
HETATM   11  C4  UNL     1      23.986  26.269  23.576  1.00  0.00     0.719 A 
HETATM   12  N4  UNL     1      22.644  26.256  23.613  1.00  0.00    -0.116 N 
HETATM   13  N5  UNL     1      22.168  27.398  23.143  1.00  0.00     0.006 NA
ATOM     14  H4  UNL     1      22.075  25.481  23.954  1.00  0.00     0.202 HD
HETATM   15  N6  UNL     1      23.202  28.150  22.802  1.00  0.00     0.006 NA
HETATM   16  N7  UNL     1      24.312  27.470  23.062  1.00  0.00    -0.116 N 
ATOM     17  H7  UNL     1      25.262  27.804  22.898  1.00  0.00     0.202 HD
ENDBRANCH   1  11
TORSDOF 4
ENDMDL
