MODEL 1
REMARK VINA RESULT: -6.606219324      0.000      0.000
REMARK  14 active torsions:
REMARK  status: ('A' for Active; 'I' for Inactive)
REMARK    1  A    between atoms: N1_1  and  C1_4 
REMARK    2  A    between atoms: C2_7  and  N3_8 
REMARK       I    between atoms: N4_11  and  C3_12 
REMARK    3  A    between atoms: C3_12  and  C4_14 
REMARK    4  A    between atoms: C4_14  and  N5_15 
REMARK    5  A    between atoms: C5_20  and  C6_21 
REMARK    6  A    between atoms: C9_24  and  C10_25 
REMARK    7  A    between atoms: C10_25  and  O2_26 
REMARK    8  A    between atoms: C11_28  and  C12_29 
REMARK    9  A    between atoms: C12_29  and  O3_30 
REMARK   10  A    between atoms: C12_29  and  O4_32 
REMARK   11  A    between atoms: C15_38  and  N9_39 
REMARK   12  A    between atoms: N9_39  and  O5_41 
REMARK   13  A    between atoms: N10_43  and  N11_44 
REMARK   14  A    between atoms: N12_49  and  O7_50 
ROOT
HETATM    1  N5  UNL     1      39.902   1.957  18.783  1.00  0.00    -0.264 N 
HETATM    2  N6  UNL     1      38.836   2.585  18.245  1.00  0.00    -0.239 N 
ATOM      3  H6  UNL     1      38.672   2.695  17.245  1.00  0.00     0.208 HD
HETATM    4  N7  UNL     1      38.044   3.033  19.181  1.00  0.00    -0.282 N 
ATOM      5  H7  UNL     1      37.175   3.540  19.014  1.00  0.00     0.188 HD
HETATM    6  C5  UNL     1      38.530   2.736  20.378  1.00  0.00     0.107 A 
HETATM    7  C13 UNL     1      39.730   2.044  20.100  1.00  0.00     0.116 A 
HETATM    8  C14 UNL     1      40.614   1.614  21.147  1.00  0.00     0.146 A 
HETATM    9  C15 UNL     1      40.688   0.404  21.761  1.00  0.00     0.183 A 
HETATM   10  N10 UNL     1      41.671   0.542  22.717  1.00  0.00    -0.189 N 
HETATM   11  C16 UNL     1      42.155   1.794  22.663  1.00  0.00     0.374 A 
HETATM   12  O6  UNL     1      43.085   2.243  23.428  1.00  0.00    -0.242 OA
HETATM   13  N12 UNL     1      41.526   2.481  21.707  1.00  0.00    -0.165 N 
ENDROOT
BRANCH   1  14
HETATM   14  C4  UNL     1      40.884   1.317  17.929  1.00  0.00     0.256 C 
BRANCH  14  15
HETATM   15  C3  UNL     1      40.788  -0.180  17.981  1.00  0.00     0.279 C 
HETATM   16  N4  UNL     1      39.899  -0.909  17.185  1.00  0.00    -0.036 N 
HETATM   17  C2  UNL     1      39.028  -0.605  16.233  1.00  0.00     0.715 A 
HETATM   18  N13 UNL     1      39.825  -2.256  17.287  1.00  0.00    -0.108 N 
HETATM   19  N2  UNL     1      38.423  -1.728  15.746  1.00  0.00    -0.020 N 
HETATM   20  C1  UNL     1      38.939  -2.744  16.422  1.00  0.00     0.706 A 
ATOM     21  H2  UNL     1      37.718  -1.776  15.010  1.00  0.00     0.203 HD
ATOM     22  H13 UNL     1      40.373  -2.820  17.937  1.00  0.00     0.207 HD
HETATM   23  O1  UNL     1      41.564  -0.730  18.791  1.00  0.00    -0.269 OA
BRANCH  17  24
HETATM   24  N3  UNL     1      38.748   0.584  15.782  1.00  0.00    -0.232 N 
ATOM     25  H32 UNL     1      37.925   0.856  15.244  1.00  0.00     0.174 HD
ATOM     26  H31 UNL     1      39.362   1.383  15.940  1.00  0.00     0.174 HD
ENDBRANCH  17  24
BRANCH  20  27
HETATM   27  N1  UNL     1      38.678  -4.014  16.324  1.00  0.00    -0.233 N 
ATOM     28  H12 UNL     1      37.918  -4.462  16.837  1.00  0.00     0.174 HD
ATOM     29  H11 UNL     1      39.144  -4.727  15.763  1.00  0.00     0.174 HD
ENDBRANCH  20  27
ENDBRANCH  14  15
ENDBRANCH   1  14
BRANCH   6  30
HETATM   30  C6  UNL     1      38.001   3.042  21.720  1.00  0.00     0.063 A 
HETATM   31  C7  UNL     1      38.034   4.349  22.116  1.00  0.00     0.032 A 
HETATM   32  C8  UNL     1      37.520   4.694  23.352  1.00  0.00     0.014 A 
HETATM   33  C9  UNL     1      36.970   3.711  24.191  1.00  0.00    -0.007 A 
HETATM   34  C11 UNL     1      36.954   2.406  23.765  1.00  0.00     0.073 A 
HETATM   35  N8  UNL     1      37.475   2.156  22.544  1.00  0.00    -0.353 N 
ATOM     36  H8  UNL     1      37.460   1.187  22.228  1.00  0.00     0.166 HD
BRANCH  33  37
HETATM   37  C10 UNL     1      36.420   4.073  25.513  1.00  0.00     0.205 C 
BRANCH  37  38
HETATM   38  O2  UNL     1      35.365   4.977  25.273  1.00  0.00    -0.396 OA
ATOM     39  H2  UNL     1      35.051   5.258  26.125  1.00  0.00     0.209 HD
ENDBRANCH  37  38
ENDBRANCH  33  37
BRANCH  34  40
HETATM   40  C12 UNL     1      36.401   1.268  24.543  1.00  0.00     0.305 C 
BRANCH  40  41
HETATM   41  O3  UNL     1      36.282   0.135  23.796  1.00  0.00    -0.366 OA
ATOM     42  H3  UNL     1      37.045  -0.024  23.254  1.00  0.00     0.213 HD
ENDBRANCH  40  41
BRANCH  40  43
HETATM   43  O4  UNL     1      37.237   1.009  25.631  1.00  0.00    -0.366 OA
ATOM     44  H4  UNL     1      36.788   0.431  26.236  1.00  0.00     0.213 HD
ENDBRANCH  40  43
ENDBRANCH  34  40
ENDBRANCH   6  30
BRANCH   9  45
HETATM   45  N9  UNL     1      40.008  -0.837  21.613  1.00  0.00    -0.249 N 
ATOM     46  H9  UNL     1      40.453  -1.665  21.217  1.00  0.00     0.196 HD
BRANCH  45  47
HETATM   47  O5  UNL     1      38.723  -0.832  22.042  1.00  0.00    -0.288 OA
ATOM     48  H5  UNL     1      38.521  -1.493  22.694  1.00  0.00     0.244 HD
ENDBRANCH  45  47
ENDBRANCH   9  45
BRANCH  13  49
HETATM   49  O7  UNL     1      41.795   3.776  21.412  1.00  0.00    -0.278 OA
ATOM     50  H7  UNL     1      41.567   4.571  21.880  1.00  0.00     0.245 HD
ENDBRANCH  13  49
BRANCH  10  51
HETATM   51  N11 UNL     1      42.084  -0.450  23.600  1.00  0.00    -0.333 N 
ATOM     52 2H11 UNL     1      42.307  -0.313  24.586  1.00  0.00     0.177 HD
ATOM     53 1H11 UNL     1      42.203  -1.437  23.370  1.00  0.00     0.177 HD
ENDBRANCH  10  51
TORSDOF 14
ENDMDL
MODEL 2
REMARK VINA RESULT: -6.524179824      5.259      9.519
REMARK  14 active torsions:
REMARK  status: ('A' for Active; 'I' for Inactive)
REMARK    1  A    between atoms: N1_1  and  C1_4 
REMARK    2  A    between atoms: C2_7  and  N3_8 
REMARK       I    between atoms: N4_11  and  C3_12 
REMARK    3  A    between atoms: C3_12  and  C4_14 
REMARK    4  A    between atoms: C4_14  and  N5_15 
REMARK    5  A    between atoms: C5_20  and  C6_21 
REMARK    6  A    between atoms: C9_24  and  C10_25 
REMARK    7  A    between atoms: C10_25  and  O2_26 
REMARK    8  A    between atoms: C11_28  and  C12_29 
REMARK    9  A    between atoms: C12_29  and  O3_30 
REMARK   10  A    between atoms: C12_29  and  O4_32 
REMARK   11  A    between atoms: C15_38  and  N9_39 
REMARK   12  A    between atoms: N9_39  and  O5_41 
REMARK   13  A    between atoms: N10_43  and  N11_44 
REMARK   14  A    between atoms: N12_49  and  O7_50 
ROOT
HETATM    1  N5  UNL     1      40.684  -4.810  23.555  1.00  0.00    -0.264 N 
HETATM    2  N6  UNL     1      41.862  -5.060  22.946  1.00  0.00    -0.239 N 
ATOM      3  H6  UNL     1      42.720  -5.324  23.429  1.00  0.00     0.208 HD
HETATM    4  N7  UNL     1      41.751  -4.920  21.653  1.00  0.00    -0.282 N 
ATOM      5  H7  UNL     1      42.509  -5.059  20.986  1.00  0.00     0.188 HD
HETATM    6  C5  UNL     1      40.513  -4.570  21.330  1.00  0.00     0.107 A 
HETATM    7  C13 UNL     1      39.841  -4.502  22.572  1.00  0.00     0.116 A 
HETATM    8  C14 UNL     1      38.475  -4.069  22.669  1.00  0.00     0.146 A 
HETATM    9  C15 UNL     1      37.341  -4.817  22.705  1.00  0.00     0.183 A 
HETATM   10  N10 UNL     1      36.308  -3.906  22.755  1.00  0.00    -0.189 N 
HETATM   11  C16 UNL     1      36.823  -2.666  22.747  1.00  0.00     0.374 A 
HETATM   12  O6  UNL     1      36.120  -1.590  22.785  1.00  0.00    -0.242 OA
HETATM   13  N12 UNL     1      38.155  -2.730  22.695  1.00  0.00    -0.165 N 
ENDROOT
BRANCH   1  14
HETATM   14  C4  UNL     1      40.552  -4.972  24.990  1.00  0.00     0.256 C 
BRANCH  14  15
HETATM   15  C3  UNL     1      41.451  -4.040  25.749  1.00  0.00     0.279 C 
HETATM   16  N4  UNL     1      41.896  -4.309  27.047  1.00  0.00    -0.036 N 
HETATM   17  C2  UNL     1      41.761  -5.320  27.893  1.00  0.00     0.715 A 
HETATM   18  N13 UNL     1      42.680  -3.425  27.705  1.00  0.00    -0.108 N 
HETATM   19  N2  UNL     1      42.444  -5.083  29.052  1.00  0.00    -0.020 N 
HETATM   20  C1  UNL     1      43.008  -3.892  28.908  1.00  0.00     0.706 A 
ATOM     21  H2  UNL     1      42.508  -5.698  29.864  1.00  0.00     0.203 HD
ATOM     22  H13 UNL     1      42.980  -2.524  27.331  1.00  0.00     0.207 HD
HETATM   23  O1  UNL     1      41.773  -3.001  25.134  1.00  0.00    -0.269 OA
BRANCH  17  24
HETATM   24  N3  UNL     1      41.085  -6.416  27.699  1.00  0.00    -0.232 N 
ATOM     25  H32 UNL     1      40.144  -6.621  28.034  1.00  0.00     0.174 HD
ATOM     26  H31 UNL     1      41.462  -7.199  27.164  1.00  0.00     0.174 HD
ENDBRANCH  17  24
BRANCH  20  27
HETATM   27  N1  UNL     1      43.753  -3.229  29.741  1.00  0.00    -0.233 N 
ATOM     28  H12 UNL     1      44.288  -3.681  30.483  1.00  0.00     0.174 HD
ATOM     29  H11 UNL     1      43.925  -2.225  29.794  1.00  0.00     0.174 HD
ENDBRANCH  20  27
ENDBRANCH  14  15
ENDBRANCH   1  14
BRANCH   6  30
HETATM   30  C6  UNL     1      39.920  -4.288  20.011  1.00  0.00     0.063 A 
HETATM   31  C7  UNL     1      40.329  -3.148  19.378  1.00  0.00     0.032 A 
HETATM   32  C8  UNL     1      39.828  -2.854  18.124  1.00  0.00     0.014 A 
HETATM   33  C9  UNL     1      38.907  -3.717  17.508  1.00  0.00    -0.007 A 
HETATM   34  C11 UNL     1      38.513  -4.853  18.171  1.00  0.00     0.073 A 
HETATM   35  N8  UNL     1      39.052  -5.065  19.391  1.00  0.00    -0.353 N 
ATOM     36  H8  UNL     1      38.760  -5.910  19.882  1.00  0.00     0.166 HD
BRANCH  33  37
HETATM   37  C10 UNL     1      38.368  -3.408  16.168  1.00  0.00     0.205 C 
BRANCH  37  38
HETATM   38  O2  UNL     1      38.304  -2.003  16.077  1.00  0.00    -0.396 OA
ATOM     39  H2  UNL     1      37.393  -1.784  15.922  1.00  0.00     0.209 HD
ENDBRANCH  37  38
ENDBRANCH  33  37
BRANCH  34  40
HETATM   40  C12 UNL     1      37.554  -5.854  17.640  1.00  0.00     0.305 C 
BRANCH  40  41
HETATM   41  O3  UNL     1      38.173  -6.864  16.968  1.00  0.00    -0.366 OA
ATOM     42  H3  UNL     1      37.996  -7.716  17.348  1.00  0.00     0.213 HD
ENDBRANCH  40  41
BRANCH  40  43
HETATM   43  O4  UNL     1      36.824  -6.396  18.700  1.00  0.00    -0.366 OA
ATOM     44  H4  UNL     1      36.814  -7.342  18.619  1.00  0.00     0.213 HD
ENDBRANCH  40  43
ENDBRANCH  34  40
ENDBRANCH   6  30
BRANCH   9  45
HETATM   45  N9  UNL     1      37.061  -6.211  22.698  1.00  0.00    -0.249 N 
ATOM     46  H9  UNL     1      36.787  -6.722  23.537  1.00  0.00     0.196 HD
BRANCH  45  47
HETATM   47  O5  UNL     1      37.185  -6.806  21.487  1.00  0.00    -0.288 OA
ATOM     48  H5  UNL     1      36.731  -7.637  21.406  1.00  0.00     0.244 HD
ENDBRANCH  45  47
ENDBRANCH   9  45
BRANCH  13  49
HETATM   49  O7  UNL     1      38.959  -1.638  22.674  1.00  0.00    -0.278 OA
ATOM     50  H7  UNL     1      39.901  -1.573  22.566  1.00  0.00     0.245 HD
ENDBRANCH  13  49
BRANCH  10  51
HETATM   51  N11 UNL     1      34.954  -4.221  22.793  1.00  0.00    -0.333 N 
ATOM     52 2H11 UNL     1      34.201  -3.659  22.398  1.00  0.00     0.177 HD
ATOM     53 1H11 UNL     1      34.553  -5.060  23.214  1.00  0.00     0.177 HD
ENDBRANCH  10  51
TORSDOF 14
ENDMDL
MODEL 3
REMARK VINA RESULT: -6.463861148      4.231      6.477
REMARK  14 active torsions:
REMARK  status: ('A' for Active; 'I' for Inactive)
REMARK    1  A    between atoms: N1_1  and  C1_4 
REMARK    2  A    between atoms: C2_7  and  N3_8 
REMARK       I    between atoms: N4_11  and  C3_12 
REMARK    3  A    between atoms: C3_12  and  C4_14 
REMARK    4  A    between atoms: C4_14  and  N5_15 
REMARK    5  A    between atoms: C5_20  and  C6_21 
REMARK    6  A    between atoms: C9_24  and  C10_25 
REMARK    7  A    between atoms: C10_25  and  O2_26 
REMARK    8  A    between atoms: C11_28  and  C12_29 
REMARK    9  A    between atoms: C12_29  and  O3_30 
REMARK   10  A    between atoms: C12_29  and  O4_32 
REMARK   11  A    between atoms: C15_38  and  N9_39 
REMARK   12  A    between atoms: N9_39  and  O5_41 
REMARK   13  A    between atoms: N10_43  and  N11_44 
REMARK   14  A    between atoms: N12_49  and  O7_50 
ROOT
HETATM    1  N5  UNL     1      40.243  -1.298  23.875  1.00  0.00    -0.264 N 
HETATM    2  N6  UNL     1      39.057  -1.941  23.865  1.00  0.00    -0.239 N 
ATOM      3  H6  UNL     1      38.947  -2.954  23.815  1.00  0.00     0.208 HD
HETATM    4  N7  UNL     1      38.070  -1.090  23.930  1.00  0.00    -0.282 N 
ATOM      5  H7  UNL     1      37.083  -1.343  23.938  1.00  0.00     0.188 HD
HETATM    6  C5  UNL     1      38.533   0.151  23.982  1.00  0.00     0.107 A 
HETATM    7  C13 UNL     1      39.938  -0.004  23.943  1.00  0.00     0.116 A 
HETATM    8  C14 UNL     1      40.822   1.127  23.898  1.00  0.00     0.146 A 
HETATM    9  C15 UNL     1      41.458   1.756  24.920  1.00  0.00     0.183 A 
HETATM   10  N10 UNL     1      42.141   2.800  24.333  1.00  0.00    -0.189 N 
HETATM   11  C16 UNL     1      41.909   2.781  23.011  1.00  0.00     0.374 A 
HETATM   12  O6  UNL     1      42.401   3.627  22.177  1.00  0.00    -0.242 OA
HETATM   13  N12 UNL     1      41.100   1.763  22.709  1.00  0.00    -0.165 N 
ENDROOT
BRANCH   1  14
HETATM   14  C4  UNL     1      41.484  -2.048  23.879  1.00  0.00     0.256 C 
BRANCH  14  15
HETATM   15  C3  UNL     1      42.152  -2.026  25.223  1.00  0.00     0.279 C 
HETATM   16  N4  UNL     1      41.836  -2.932  26.240  1.00  0.00    -0.036 N 
HETATM   17  C2  UNL     1      41.029  -3.978  26.345  1.00  0.00     0.715 A 
HETATM   18  N13 UNL     1      42.443  -2.855  27.447  1.00  0.00    -0.108 N 
HETATM   19  N2  UNL     1      41.126  -4.549  27.583  1.00  0.00    -0.020 N 
HETATM   20  C1  UNL     1      42.015  -3.827  28.250  1.00  0.00     0.706 A 
ATOM     21  H2  UNL     1      40.617  -5.364  27.924  1.00  0.00     0.203 HD
ATOM     22  H13 UNL     1      43.134  -2.151  27.705  1.00  0.00     0.207 HD
HETATM   23  O1  UNL     1      43.016  -1.134  25.367  1.00  0.00    -0.269 OA
BRANCH  17  24
HETATM   24  N3  UNL     1      40.234  -4.446  25.426  1.00  0.00    -0.232 N 
ATOM     25  H32 UNL     1      39.240  -4.241  25.316  1.00  0.00     0.174 HD
ATOM     26  H31 UNL     1      40.557  -5.088  24.703  1.00  0.00     0.174 HD
ENDBRANCH  17  24
BRANCH  20  27
HETATM   27  N1  UNL     1      42.441  -3.971  29.469  1.00  0.00    -0.233 N 
ATOM     28  H12 UNL     1      43.427  -4.106  29.696  1.00  0.00     0.174 HD
ATOM     29  H11 UNL     1      41.913  -3.971  30.342  1.00  0.00     0.174 HD
ENDBRANCH  20  27
ENDBRANCH  14  15
ENDBRANCH   1  14
BRANCH   6  30
HETATM   30  C6  UNL     1      37.809   1.433  24.050  1.00  0.00     0.063 A 
HETATM   31  C7  UNL     1      36.895   1.576  25.055  1.00  0.00     0.032 A 
HETATM   32  C8  UNL     1      36.212   2.771  25.183  1.00  0.00     0.014 A 
HETATM   33  C9  UNL     1      36.454   3.827  24.289  1.00  0.00    -0.007 A 
HETATM   34  C11 UNL     1      37.377   3.651  23.287  1.00  0.00     0.073 A 
HETATM   35  N8  UNL     1      38.000   2.453  23.235  1.00  0.00    -0.353 N 
ATOM     36  H8  UNL     1      38.687   2.325  22.492  1.00  0.00     0.166 HD
BRANCH  33  37
HETATM   37  C10 UNL     1      35.728   5.105  24.420  1.00  0.00     0.205 C 
BRANCH  37  38
HETATM   38  O2  UNL     1      35.607   5.357  25.801  1.00  0.00    -0.396 OA
ATOM     39  H2  UNL     1      34.785   4.968  26.075  1.00  0.00     0.209 HD
ENDBRANCH  37  38
ENDBRANCH  33  37
BRANCH  34  40
HETATM   40  C12 UNL     1      37.737   4.678  22.277  1.00  0.00     0.305 C 
BRANCH  40  41
HETATM   41  O3  UNL     1      38.881   5.345  22.597  1.00  0.00    -0.366 OA
ATOM     42  H3  UNL     1      39.663   4.876  22.329  1.00  0.00     0.213 HD
ENDBRANCH  40  41
BRANCH  40  43
HETATM   43  O4  UNL     1      37.904   4.061  21.036  1.00  0.00    -0.366 OA
ATOM     44  H4  UNL     1      38.712   4.368  20.642  1.00  0.00     0.213 HD
ENDBRANCH  40  43
ENDBRANCH  34  40
ENDBRANCH   6  30
BRANCH   9  45
HETATM   45  N9  UNL     1      41.536   1.556  26.326  1.00  0.00    -0.249 N 
ATOM     46  H9  UNL     1      41.714   0.643  26.744  1.00  0.00     0.196 HD
BRANCH  45  47
HETATM   47  O5  UNL     1      41.354   2.676  27.066  1.00  0.00    -0.288 OA
ATOM     48  H5  UNL     1      42.158   3.105  27.339  1.00  0.00     0.244 HD
ENDBRANCH  45  47
ENDBRANCH   9  45
BRANCH  13  49
HETATM   49  O7  UNL     1      40.684   1.483  21.449  1.00  0.00    -0.278 OA
ATOM     50  H7  UNL     1      41.186   1.345  20.654  1.00  0.00     0.245 HD
ENDBRANCH  13  49
BRANCH  10  51
HETATM   51  N11 UNL     1      42.929   3.729  25.005  1.00  0.00    -0.333 N 
ATOM     52 2H11 UNL     1      42.740   4.728  25.077  1.00  0.00     0.177 HD
ATOM     53 1H11 UNL     1      43.787   3.518  25.515  1.00  0.00     0.177 HD
ENDBRANCH  10  51
TORSDOF 14
ENDMDL
MODEL 4
REMARK VINA RESULT: -6.388934549      5.738      8.298
REMARK  14 active torsions:
REMARK  status: ('A' for Active; 'I' for Inactive)
REMARK    1  A    between atoms: N1_1  and  C1_4 
REMARK    2  A    between atoms: C2_7  and  N3_8 
REMARK       I    between atoms: N4_11  and  C3_12 
REMARK    3  A    between atoms: C3_12  and  C4_14 
REMARK    4  A    between atoms: C4_14  and  N5_15 
REMARK    5  A    between atoms: C5_20  and  C6_21 
REMARK    6  A    between atoms: C9_24  and  C10_25 
REMARK    7  A    between atoms: C10_25  and  O2_26 
REMARK    8  A    between atoms: C11_28  and  C12_29 
REMARK    9  A    between atoms: C12_29  and  O3_30 
REMARK   10  A    between atoms: C12_29  and  O4_32 
REMARK   11  A    between atoms: C15_38  and  N9_39 
REMARK   12  A    between atoms: N9_39  and  O5_41 
REMARK   13  A    between atoms: N10_43  and  N11_44 
REMARK   14  A    between atoms: N12_49  and  O7_50 
ROOT
HETATM    1  N5  UNL     1      43.103  -4.990  23.004  1.00  0.00    -0.264 N 
HETATM    2  N6  UNL     1      42.991  -4.661  21.700  1.00  0.00    -0.239 N 
ATOM      3  H6  UNL     1      43.458  -5.150  20.937  1.00  0.00     0.208 HD
HETATM    4  N7  UNL     1      42.204  -3.631  21.550  1.00  0.00    -0.282 N 
ATOM      5  H7  UNL     1      41.968  -3.204  20.655  1.00  0.00     0.188 HD
HETATM    6  C5  UNL     1      41.754  -3.218  22.727  1.00  0.00     0.107 A 
HETATM    7  C13 UNL     1      42.348  -4.107  23.652  1.00  0.00     0.116 A 
HETATM    8  C14 UNL     1      42.175  -3.947  25.069  1.00  0.00     0.146 A 
HETATM    9  C15 UNL     1      41.274  -4.542  25.894  1.00  0.00     0.183 A 
HETATM   10  N10 UNL     1      41.514  -4.005  27.140  1.00  0.00    -0.189 N 
HETATM   11  C16 UNL     1      42.522  -3.123  27.046  1.00  0.00     0.374 A 
HETATM   12  O6  UNL     1      42.988  -2.448  28.036  1.00  0.00    -0.242 OA
HETATM   13  N12 UNL     1      42.954  -3.064  25.784  1.00  0.00    -0.165 N 
ENDROOT
BRANCH   1  14
HETATM   14  C4  UNL     1      43.876  -6.149  23.404  1.00  0.00     0.256 C 
BRANCH  14  15
HETATM   15  C3  UNL     1      43.249  -6.876  24.557  1.00  0.00     0.279 C 
HETATM   16  N4  UNL     1      43.735  -6.783  25.865  1.00  0.00    -0.036 N 
HETATM   17  C2  UNL     1      44.703  -6.099  26.457  1.00  0.00     0.715 A 
HETATM   18  N13 UNL     1      43.157  -7.481  26.868  1.00  0.00    -0.108 N 
HETATM   19  N2  UNL     1      44.733  -6.355  27.799  1.00  0.00    -0.020 N 
HETATM   20  C1  UNL     1      43.758  -7.222  28.028  1.00  0.00     0.706 A 
ATOM     21  H2  UNL     1      45.376  -5.960  28.485  1.00  0.00     0.203 HD
ATOM     22  H13 UNL     1      42.368  -8.118  26.753  1.00  0.00     0.207 HD
HETATM   23  O1  UNL     1      42.256  -7.577  24.262  1.00  0.00    -0.269 OA
BRANCH  17  24
HETATM   24  N3  UNL     1      45.539  -5.277  25.890  1.00  0.00    -0.232 N 
ATOM     25  H32 UNL     1      46.402  -5.522  25.405  1.00  0.00     0.174 HD
ATOM     26  H31 UNL     1      45.389  -4.269  25.882  1.00  0.00     0.174 HD
ENDBRANCH  17  24
BRANCH  20  27
HETATM   27  N1  UNL     1      43.392  -7.772  29.147  1.00  0.00    -0.233 N 
ATOM     28  H12 UNL     1      43.920  -7.663  30.013  1.00  0.00     0.174 HD
ATOM     29  H11 UNL     1      42.580  -8.358  29.343  1.00  0.00     0.174 HD
ENDBRANCH  20  27
ENDBRANCH  14  15
ENDBRANCH   1  14
BRANCH   6  30
HETATM   30  C6  UNL     1      40.859  -2.096  23.061  1.00  0.00     0.063 A 
HETATM   31  C7  UNL     1      41.425  -0.856  23.149  1.00  0.00     0.032 A 
HETATM   32  C8  UNL     1      40.624   0.236  23.427  1.00  0.00     0.014 A 
HETATM   33  C9  UNL     1      39.242   0.072  23.617  1.00  0.00    -0.007 A 
HETATM   34  C11 UNL     1      38.703  -1.188  23.525  1.00  0.00     0.073 A 
HETATM   35  N8  UNL     1      39.556  -2.198  23.248  1.00  0.00    -0.353 N 
ATOM     36  H8  UNL     1      39.154  -3.133  23.178  1.00  0.00     0.166 HD
BRANCH  33  37
HETATM   37  C10 UNL     1      38.381   1.233  23.914  1.00  0.00     0.205 C 
BRANCH  37  38
HETATM   38  O2  UNL     1      37.690   1.534  22.723  1.00  0.00    -0.396 OA
ATOM     39  H2  UNL     1      38.111   2.302  22.354  1.00  0.00     0.209 HD
ENDBRANCH  37  38
ENDBRANCH  33  37
BRANCH  34  40
HETATM   40  C12 UNL     1      37.263  -1.508  23.696  1.00  0.00     0.305 C 
BRANCH  40  41
HETATM   41  O3  UNL     1      36.577  -1.471  22.521  1.00  0.00    -0.366 OA
ATOM     42  H3  UNL     1      36.666  -2.274  22.022  1.00  0.00     0.213 HD
ENDBRANCH  40  41
BRANCH  40  43
HETATM   43  O4  UNL     1      37.141  -2.782  24.252  1.00  0.00    -0.366 OA
ATOM     44  H4  UNL     1      37.120  -3.426  23.554  1.00  0.00     0.213 HD
ENDBRANCH  40  43
ENDBRANCH  34  40
ENDBRANCH   6  30
BRANCH   9  45
HETATM   45  N9  UNL     1      40.243  -5.507  25.721  1.00  0.00    -0.249 N 
ATOM     46  H9  UNL     1      39.466  -5.372  25.074  1.00  0.00     0.196 HD
BRANCH  45  47
HETATM   47  O5  UNL     1      40.377  -6.619  26.483  1.00  0.00    -0.288 OA
ATOM     48  H5  UNL     1      39.728  -7.293  26.316  1.00  0.00     0.244 HD
ENDBRANCH  45  47
ENDBRANCH   9  45
BRANCH  13  49
HETATM   49  O7  UNL     1      43.966  -2.261  25.374  1.00  0.00    -0.278 OA
ATOM     50  H7  UNL     1      44.449  -1.593  25.847  1.00  0.00     0.245 HD
ENDBRANCH  13  49
BRANCH  10  51
HETATM   51  N11 UNL     1      40.815  -4.316  28.302  1.00  0.00    -0.333 N 
ATOM     52 2H11 UNL     1      40.631  -3.677  29.075  1.00  0.00     0.177 HD
ATOM     53 1H11 UNL     1      40.392  -5.220  28.514  1.00  0.00     0.177 HD
ENDBRANCH  10  51
TORSDOF 14
ENDMDL
MODEL 5
REMARK VINA RESULT: -6.381574271      4.032      6.718
REMARK  14 active torsions:
REMARK  status: ('A' for Active; 'I' for Inactive)
REMARK    1  A    between atoms: N1_1  and  C1_4 
REMARK    2  A    between atoms: C2_7  and  N3_8 
REMARK       I    between atoms: N4_11  and  C3_12 
REMARK    3  A    between atoms: C3_12  and  C4_14 
REMARK    4  A    between atoms: C4_14  and  N5_15 
REMARK    5  A    between atoms: C5_20  and  C6_21 
REMARK    6  A    between atoms: C9_24  and  C10_25 
REMARK    7  A    between atoms: C10_25  and  O2_26 
REMARK    8  A    between atoms: C11_28  and  C12_29 
REMARK    9  A    between atoms: C12_29  and  O3_30 
REMARK   10  A    between atoms: C12_29  and  O4_32 
REMARK   11  A    between atoms: C15_38  and  N9_39 
REMARK   12  A    between atoms: N9_39  and  O5_41 
REMARK   13  A    between atoms: N10_43  and  N11_44 
REMARK   14  A    between atoms: N12_49  and  O7_50 
ROOT
HETATM    1  N5  UNL     1      40.716  -1.779  24.155  1.00  0.00    -0.264 N 
HETATM    2  N6  UNL     1      39.521  -2.394  24.030  1.00  0.00    -0.239 N 
ATOM      3  H6  UNL     1      39.376  -3.399  24.110  1.00  0.00     0.208 HD
HETATM    4  N7  UNL     1      38.578  -1.524  23.792  1.00  0.00    -0.282 N 
ATOM      5  H7  UNL     1      37.593  -1.754  23.663  1.00  0.00     0.188 HD
HETATM    6  C5  UNL     1      39.081  -0.298  23.743  1.00  0.00     0.107 A 
HETATM    7  C13 UNL     1      40.463  -0.484  23.977  1.00  0.00     0.116 A 
HETATM    8  C14 UNL     1      41.392   0.609  23.923  1.00  0.00     0.146 A 
HETATM    9  C15 UNL     1      41.871   1.376  24.937  1.00  0.00     0.183 A 
HETATM   10  N10 UNL     1      42.691   2.305  24.334  1.00  0.00    -0.189 N 
HETATM   11  C16 UNL     1      42.690   2.088  23.009  1.00  0.00     0.374 A 
HETATM   12  O6  UNL     1      43.356   2.787  22.160  1.00  0.00    -0.242 OA
HETATM   13  N12 UNL     1      41.900   1.050  22.721  1.00  0.00    -0.165 N 
ENDROOT
BRANCH   1  14
HETATM   14  C4  UNL     1      41.902  -2.543  24.490  1.00  0.00     0.256 C 
BRANCH  14  15
HETATM   15  C3  UNL     1      42.261  -2.421  25.942  1.00  0.00     0.279 C 
HETATM   16  N4  UNL     1      41.854  -3.352  26.903  1.00  0.00    -0.036 N 
HETATM   17  C2  UNL     1      41.184  -4.495  26.874  1.00  0.00     0.715 A 
HETATM   18  N13 UNL     1      42.176  -3.185  28.206  1.00  0.00    -0.108 N 
HETATM   19  N2  UNL     1      41.087  -5.037  28.124  1.00  0.00    -0.020 N 
HETATM   20  C1  UNL     1      41.714  -4.198  28.936  1.00  0.00     0.706 A 
ATOM     21  H2  UNL     1      40.627  -5.910  28.381  1.00  0.00     0.203 HD
ATOM     22  H13 UNL     1      42.700  -2.393  28.578  1.00  0.00     0.207 HD
HETATM   23  O1  UNL     1      42.953  -1.421  26.232  1.00  0.00    -0.269 OA
BRANCH  17  24
HETATM   24  N3  UNL     1      40.668  -5.072  25.827  1.00  0.00    -0.232 N 
ATOM     25  H32 UNL     1      40.150  -5.950  25.806  1.00  0.00     0.174 HD
ATOM     26  H31 UNL     1      40.743  -4.669  24.893  1.00  0.00     0.174 HD
ENDBRANCH  17  24
BRANCH  20  27
HETATM   27  N1  UNL     1      41.887  -4.274  30.222  1.00  0.00    -0.233 N 
ATOM     28  H12 UNL     1      41.305  -3.765  30.888  1.00  0.00     0.174 HD
ATOM     29  H11 UNL     1      42.575  -4.812  30.750  1.00  0.00     0.174 HD
ENDBRANCH  20  27
ENDBRANCH  14  15
ENDBRANCH   1  14
BRANCH   6  30
HETATM   30  C6  UNL     1      38.415   0.993  23.491  1.00  0.00     0.063 A 
HETATM   31  C7  UNL     1      38.655   1.590  22.286  1.00  0.00     0.032 A 
HETATM   32  C8  UNL     1      38.028   2.785  21.987  1.00  0.00     0.014 A 
HETATM   33  C9  UNL     1      37.155   3.380  22.912  1.00  0.00    -0.007 A 
HETATM   34  C11 UNL     1      36.937   2.756  24.116  1.00  0.00     0.073 A 
HETATM   35  N8  UNL     1      37.587   1.591  24.327  1.00  0.00    -0.353 N 
ATOM     36  H8  UNL     1      37.423   1.128  25.221  1.00  0.00     0.166 HD
BRANCH  33  37
HETATM   37  C10 UNL     1      36.484   4.656  22.599  1.00  0.00     0.205 C 
BRANCH  37  38
HETATM   38  O2  UNL     1      37.308   5.325  21.671  1.00  0.00    -0.396 OA
ATOM     39  H2  UNL     1      37.056   6.241  21.698  1.00  0.00     0.209 HD
ENDBRANCH  37  38
ENDBRANCH  33  37
BRANCH  34  40
HETATM   40  C12 UNL     1      36.038   3.266  25.183  1.00  0.00     0.305 C 
BRANCH  40  41
HETATM   41  O3  UNL     1      35.250   2.289  25.711  1.00  0.00    -0.366 OA
ATOM     42  H3  UNL     1      35.706   1.763  26.357  1.00  0.00     0.213 HD
ENDBRANCH  40  41
BRANCH  40  43
HETATM   43  O4  UNL     1      36.811   3.825  26.202  1.00  0.00    -0.366 OA
ATOM     44  H4  UNL     1      36.560   4.734  26.320  1.00  0.00     0.213 HD
ENDBRANCH  40  43
ENDBRANCH  34  40
ENDBRANCH   6  30
BRANCH   9  45
HETATM   45  N9  UNL     1      41.696   1.392  26.349  1.00  0.00    -0.249 N 
ATOM     46  H9  UNL     1      41.770   0.551  26.923  1.00  0.00     0.196 HD
BRANCH  45  47
HETATM   47  O5  UNL     1      41.423   2.612  26.870  1.00  0.00    -0.288 OA
ATOM     48  H5  UNL     1      41.510   2.667  27.815  1.00  0.00     0.244 HD
ENDBRANCH  45  47
ENDBRANCH   9  45
BRANCH  13  49
HETATM   49  O7  UNL     1      41.695   0.589  21.463  1.00  0.00    -0.278 OA
ATOM     50  H7  UNL     1      40.957   0.714  20.877  1.00  0.00     0.245 HD
ENDBRANCH  13  49
BRANCH  10  51
HETATM   51  N11 UNL     1      43.393   3.309  24.991  1.00  0.00    -0.333 N 
ATOM     52 2H11 UNL     1      44.207   3.172  25.590  1.00  0.00     0.177 HD
ATOM     53 1H11 UNL     1      43.184   4.307  24.942  1.00  0.00     0.177 HD
ENDBRANCH  10  51
TORSDOF 14
ENDMDL
