MODEL 1
REMARK VINA RESULT: -7.514991583      0.000      0.000
REMARK  14 active torsions:
REMARK  status: ('A' for Active; 'I' for Inactive)
REMARK    1  A    between atoms: N1_1  and  C1_4 
REMARK    2  A    between atoms: C3_9  and  N4_10 
REMARK    3  A    between atoms: C5_12  and  C6_13 
REMARK       I    between atoms: C6_13  and  N5_15 
REMARK    4  A    between atoms: N5_15  and  C7_17 
REMARK    5  A    between atoms: C7_17  and  O2_18 
REMARK    6  A    between atoms: C7_17  and  C8_20 
REMARK    7  A    between atoms: C8_20  and  N6_21 
REMARK    8  A    between atoms: C10_23  and  C11_24 
REMARK    9  A    between atoms: C11_24  and  O3_25 
REMARK   10  A    between atoms: C11_24  and  C12_27 
REMARK   11  A    between atoms: C13_30  and  N8_31 
REMARK   12  A    between atoms: N8_31  and  C14_33 
REMARK   13  A    between atoms: C14_33  and  O4_34 
REMARK   14  A    between atoms: N9_36  and  O5_38 
ROOT
HETATM    1  C7  UNL     1      37.929  -7.426  17.853  1.00  0.00     0.240 C 
ENDROOT
BRANCH   1   2
HETATM    2  N5  UNL     1      37.682  -6.449  18.869  1.00  0.00    -0.328 N 
HETATM    3  C6  UNL     1      38.129  -6.585  20.215  1.00  0.00     0.273 C 
HETATM    4  O1  UNL     1      38.768  -7.607  20.529  1.00  0.00    -0.266 OA
ATOM      5  H5  UNL     1      37.158  -5.612  18.616  1.00  0.00     0.165 HD
BRANCH   3   6
HETATM    6  C5  UNL     1      37.857  -5.565  21.218  1.00  0.00     0.134 A 
HETATM    7  C4  UNL     1      38.574  -4.404  21.418  1.00  0.00     0.155 A 
HETATM    8  N4  UNL     1      38.007  -3.709  22.450  1.00  0.00    -0.244 N 
HETATM    9  N14 UNL     1      36.984  -4.435  22.851  1.00  0.00    -0.235 N 
HETATM   10  N13 UNL     1      36.873  -5.543  22.135  1.00  0.00    -0.279 N 
ATOM     11  H14 UNL     1      36.357  -4.177  23.614  1.00  0.00     0.209 HD
ATOM     12  H13 UNL     1      36.160  -6.262  22.258  1.00  0.00     0.189 HD
BRANCH   8  13
HETATM   13  C3  UNL     1      38.432  -2.462  22.974  1.00  0.00     0.142 A 
HETATM   14  C2  UNL     1      37.478  -1.459  23.119  1.00  0.00     0.164 A 
HETATM   15  N2  UNL     1      37.795  -0.253  23.604  1.00  0.00    -0.177 N 
HETATM   16  N3  UNL     1      36.130  -1.720  22.739  1.00  0.00    -0.080 NA
HETATM   17  C1  UNL     1      39.072   0.035  23.977  1.00  0.00     0.678 A 
ATOM     18  H2  UNL     1      37.071   0.459  23.696  1.00  0.00     0.185 HD
HETATM   19  N16 UNL     1      40.008  -0.923  23.844  1.00  0.00    -0.175 N 
HETATM   20  C15 UNL     1      39.703  -2.161  23.350  1.00  0.00     0.147 A 
ATOM     21  H16 UNL     1      40.969  -0.720  24.117  1.00  0.00     0.186 HD
HETATM   22  N15 UNL     1      40.633  -3.034  23.242  1.00  0.00    -0.383 N 
ATOM     23 2H15 UNL     1      40.406  -3.957  22.874  1.00  0.00     0.157 HD
ATOM     24 1H15 UNL     1      41.587  -2.808  23.525  1.00  0.00     0.157 HD
BRANCH  17  25
HETATM   25  N1  UNL     1      39.360   1.211  24.446  1.00  0.00    -0.234 N 
ATOM     26  H12 UNL     1      39.332   1.412  25.446  1.00  0.00     0.174 HD
ATOM     27  H11 UNL     1      39.622   1.962  23.808  1.00  0.00     0.174 HD
ENDBRANCH  17  25
ENDBRANCH   8  13
ENDBRANCH   3   6
ENDBRANCH   1   2
BRANCH   1  28
HETATM   28  O2  UNL     1      39.216  -7.247  17.352  1.00  0.00    -0.375 OA
ATOM     29  H2  UNL     1      39.552  -8.083  17.052  1.00  0.00     0.212 HD
ENDBRANCH   1  28
BRANCH   1  30
HETATM   30  C8  UNL     1      36.977  -7.166  16.676  1.00  0.00     0.203 C 
BRANCH  30  31
HETATM   31  N6  UNL     1      37.360  -5.960  15.955  1.00  0.00    -0.283 N 
HETATM   32  C9  UNL     1      36.728  -4.778  16.006  1.00  0.00     0.141 A 
HETATM   33  C10 UNL     1      37.379  -3.898  15.199  1.00  0.00     0.081 A 
HETATM   34  N11 UNL     1      38.423  -4.594  14.661  1.00  0.00    -0.286 N 
HETATM   35  N12 UNL     1      38.374  -5.802  15.133  1.00  0.00    -0.240 N 
ATOM     36  H11 UNL     1      39.116  -4.231  14.008  1.00  0.00     0.188 HD
ATOM     37  H12 UNL     1      39.039  -6.537  14.897  1.00  0.00     0.208 HD
BRANCH  33  38
HETATM   38  C11 UNL     1      37.101  -2.472  14.907  1.00  0.00     0.248 C 
BRANCH  38  39
HETATM   39  O3  UNL     1      37.151  -2.354  13.487  1.00  0.00    -0.381 OA
ATOM     40  H3  UNL     1      36.262  -2.158  13.215  1.00  0.00     0.211 HD
ENDBRANCH  38  39
BRANCH  38  41
HETATM   41  C12 UNL     1      38.128  -1.574  15.488  1.00  0.00     0.197 A 
HETATM   42  N7  UNL     1      37.995  -0.212  15.632  1.00  0.00    -0.167 N 
HETATM   43  C13 UNL     1      39.091   0.308  16.186  1.00  0.00     0.707 A 
ATOM     44  H7  UNL     1      37.173   0.325  15.353  1.00  0.00     0.186 HD
HETATM   45  N10 UNL     1      39.915  -0.752  16.387  1.00  0.00    -0.089 N 
HETATM   46  O6  UNL     1      39.310  -1.822  15.965  1.00  0.00    -0.206 OA
ATOM     47  H10 UNL     1      40.847  -0.715  16.799  1.00  0.00     0.213 HD
BRANCH  43  48
HETATM   48  N8  UNL     1      39.387   1.659  16.517  1.00  0.00    -0.151 N 
ATOM     49  H8  UNL     1      39.094   2.403  15.883  1.00  0.00     0.188 HD
BRANCH  48  50
HETATM   50  C14 UNL     1      40.080   1.998  17.705  1.00  0.00     0.255 C 
HETATM   51  N9  UNL     1      39.458   2.503  18.695  1.00  0.00    -0.232 N 
ATOM     52  H9  UNL     1      39.975   2.742  19.542  1.00  0.00     0.198 HD
BRANCH  50  53
HETATM   53  O4  UNL     1      41.463   1.782  17.802  1.00  0.00    -0.331 OA
ATOM     54  H4  UNL     1      41.975   2.247  18.454  1.00  0.00     0.221 HD
ENDBRANCH  50  53
BRANCH  51  55
HETATM   55  O5  UNL     1      38.115   2.730  18.644  1.00  0.00    -0.287 OA
ATOM     56  H5  UNL     1      37.493   2.012  18.658  1.00  0.00     0.244 HD
ENDBRANCH  51  55
ENDBRANCH  48  50
ENDBRANCH  43  48
ENDBRANCH  38  41
ENDBRANCH  33  38
ENDBRANCH  30  31
ENDBRANCH   1  30
TORSDOF 14
ENDMDL
MODEL 2
REMARK VINA RESULT: -7.437506883      2.322      3.704
REMARK  14 active torsions:
REMARK  status: ('A' for Active; 'I' for Inactive)
REMARK    1  A    between atoms: N1_1  and  C1_4 
REMARK    2  A    between atoms: C3_9  and  N4_10 
REMARK    3  A    between atoms: C5_12  and  C6_13 
REMARK       I    between atoms: C6_13  and  N5_15 
REMARK    4  A    between atoms: N5_15  and  C7_17 
REMARK    5  A    between atoms: C7_17  and  O2_18 
REMARK    6  A    between atoms: C7_17  and  C8_20 
REMARK    7  A    between atoms: C8_20  and  N6_21 
REMARK    8  A    between atoms: C10_23  and  C11_24 
REMARK    9  A    between atoms: C11_24  and  O3_25 
REMARK   10  A    between atoms: C11_24  and  C12_27 
REMARK   11  A    between atoms: C13_30  and  N8_31 
REMARK   12  A    between atoms: N8_31  and  C14_33 
REMARK   13  A    between atoms: C14_33  and  O4_34 
REMARK   14  A    between atoms: N9_36  and  O5_38 
ROOT
HETATM    1  C7  UNL     1      37.259  -5.403  21.248  1.00  0.00     0.240 C 
ENDROOT
BRANCH   1   2
HETATM    2  N5  UNL     1      37.796  -4.163  21.717  1.00  0.00    -0.328 N 
HETATM    3  C6  UNL     1      37.194  -3.385  22.748  1.00  0.00     0.273 C 
HETATM    4  O1  UNL     1      36.143  -3.802  23.270  1.00  0.00    -0.266 OA
ATOM      5  H5  UNL     1      38.656  -3.817  21.291  1.00  0.00     0.165 HD
BRANCH   3   6
HETATM    6  C5  UNL     1      37.775  -2.128  23.197  1.00  0.00     0.134 A 
HETATM    7  C4  UNL     1      37.120  -0.920  23.313  1.00  0.00     0.155 A 
HETATM    8  N4  UNL     1      38.003   0.019  23.767  1.00  0.00    -0.244 N 
HETATM    9  N14 UNL     1      39.150  -0.612  23.919  1.00  0.00    -0.235 N 
HETATM   10  N13 UNL     1      39.040  -1.889  23.586  1.00  0.00    -0.279 N 
ATOM     11  H14 UNL     1      40.010  -0.174  24.249  1.00  0.00     0.209 HD
ATOM     12  H13 UNL     1      39.791  -2.579  23.618  1.00  0.00     0.189 HD
BRANCH   8  13
HETATM   13  C3  UNL     1      37.737   1.387  24.028  1.00  0.00     0.142 A 
HETATM   14  C2  UNL     1      38.025   2.308  23.026  1.00  0.00     0.164 A 
HETATM   15  N2  UNL     1      37.804   3.617  23.190  1.00  0.00    -0.177 N 
HETATM   16  N3  UNL     1      38.570   1.847  21.793  1.00  0.00    -0.080 NA
HETATM   17  C1  UNL     1      37.285   4.096  24.354  1.00  0.00     0.678 A 
ATOM     18  H2  UNL     1      38.028   4.264  22.435  1.00  0.00     0.185 HD
HETATM   19  N16 UNL     1      37.000   3.220  25.334  1.00  0.00    -0.175 N 
HETATM   20  C15 UNL     1      37.218   1.879  25.185  1.00  0.00     0.147 A 
ATOM     21  H16 UNL     1      36.613   3.565  26.212  1.00  0.00     0.186 HD
HETATM   22  N15 UNL     1      36.931   1.090  26.152  1.00  0.00    -0.383 N 
ATOM     23 2H15 UNL     1      37.094   0.089  26.040  1.00  0.00     0.157 HD
ATOM     24 1H15 UNL     1      36.542   1.459  27.019  1.00  0.00     0.157 HD
BRANCH  17  25
HETATM   25  N1  UNL     1      37.078   5.370  24.495  1.00  0.00    -0.234 N 
ATOM     26  H12 UNL     1      36.263   5.731  24.992  1.00  0.00     0.174 HD
ATOM     27  H11 UNL     1      37.741   6.039  24.102  1.00  0.00     0.174 HD
ENDBRANCH  17  25
ENDBRANCH   8  13
ENDBRANCH   3   6
ENDBRANCH   1   2
BRANCH   1  28
HETATM   28  O2  UNL     1      37.098  -6.267  22.327  1.00  0.00    -0.375 OA
ATOM     29  H2  UNL     1      36.174  -6.464  22.433  1.00  0.00     0.212 HD
ENDBRANCH   1  28
BRANCH   1  30
HETATM   30  C8  UNL     1      38.289  -6.068  20.323  1.00  0.00     0.203 C 
BRANCH  30  31
HETATM   31  N6  UNL     1      37.985  -5.794  18.925  1.00  0.00    -0.283 N 
HETATM   32  C9  UNL     1      38.481  -4.784  18.195  1.00  0.00     0.141 A 
HETATM   33  C10 UNL     1      37.965  -4.857  16.939  1.00  0.00     0.081 A 
HETATM   34  N11 UNL     1      37.142  -5.946  16.942  1.00  0.00    -0.286 N 
HETATM   35  N12 UNL     1      37.184  -6.467  18.129  1.00  0.00    -0.240 N 
ATOM     36  H11 UNL     1      36.593  -6.289  16.153  1.00  0.00     0.188 HD
ATOM     37  H12 UNL     1      36.661  -7.296  18.411  1.00  0.00     0.208 HD
BRANCH  33  38
HETATM   38  C11 UNL     1      38.192  -3.997  15.754  1.00  0.00     0.248 C 
BRANCH  38  39
HETATM   39  O3  UNL     1      38.627  -4.877  14.719  1.00  0.00    -0.381 OA
ATOM     40  H3  UNL     1      37.979  -4.798  14.028  1.00  0.00     0.211 HD
ENDBRANCH  38  39
BRANCH  38  41
HETATM   41  C12 UNL     1      39.256  -2.991  15.991  1.00  0.00     0.197 A 
HETATM   42  N7  UNL     1      39.039  -1.697  16.407  1.00  0.00    -0.167 N 
HETATM   43  C13 UNL     1      40.197  -1.046  16.528  1.00  0.00     0.707 A 
ATOM     44  H7  UNL     1      38.122  -1.292  16.597  1.00  0.00     0.186 HD
HETATM   45  N10 UNL     1      41.144  -1.954  16.179  1.00  0.00    -0.089 N 
HETATM   46  O6  UNL     1      40.546  -3.068  15.875  1.00  0.00    -0.206 OA
ATOM     47  H10 UNL     1      42.150  -1.790  16.158  1.00  0.00     0.213 HD
BRANCH  43  48
HETATM   48  N8  UNL     1      40.447   0.296  16.927  1.00  0.00    -0.151 N 
ATOM     49  H8  UNL     1      41.363   0.540  17.304  1.00  0.00     0.188 HD
BRANCH  48  50
HETATM   50  C14 UNL     1      39.456   1.301  16.815  1.00  0.00     0.255 C 
HETATM   51  N9  UNL     1      39.246   2.113  17.773  1.00  0.00    -0.232 N 
ATOM     52  H9  UNL     1      38.527   2.830  17.674  1.00  0.00     0.198 HD
BRANCH  50  53
HETATM   53  O4  UNL     1      38.692   1.413  15.643  1.00  0.00    -0.331 OA
ATOM     54  H4  UNL     1      37.754   1.556  15.695  1.00  0.00     0.221 HD
ENDBRANCH  50  53
BRANCH  51  55
HETATM   55  O5  UNL     1      39.964   2.042  18.929  1.00  0.00    -0.287 OA
ATOM     56  H5  UNL     1      40.319   2.823  19.338  1.00  0.00     0.244 HD
ENDBRANCH  51  55
ENDBRANCH  48  50
ENDBRANCH  43  48
ENDBRANCH  38  41
ENDBRANCH  33  38
ENDBRANCH  30  31
ENDBRANCH   1  30
TORSDOF 14
ENDMDL
MODEL 3
REMARK VINA RESULT: -7.280298047      2.316      3.829
REMARK  14 active torsions:
REMARK  status: ('A' for Active; 'I' for Inactive)
REMARK    1  A    between atoms: N1_1  and  C1_4 
REMARK    2  A    between atoms: C3_9  and  N4_10 
REMARK    3  A    between atoms: C5_12  and  C6_13 
REMARK       I    between atoms: C6_13  and  N5_15 
REMARK    4  A    between atoms: N5_15  and  C7_17 
REMARK    5  A    between atoms: C7_17  and  O2_18 
REMARK    6  A    between atoms: C7_17  and  C8_20 
REMARK    7  A    between atoms: C8_20  and  N6_21 
REMARK    8  A    between atoms: C10_23  and  C11_24 
REMARK    9  A    between atoms: C11_24  and  O3_25 
REMARK   10  A    between atoms: C11_24  and  C12_27 
REMARK   11  A    between atoms: C13_30  and  N8_31 
REMARK   12  A    between atoms: N8_31  and  C14_33 
REMARK   13  A    between atoms: C14_33  and  O4_34 
REMARK   14  A    between atoms: N9_36  and  O5_38 
ROOT
HETATM    1  C7  UNL     1      36.961  -5.608  21.522  1.00  0.00     0.240 C 
ENDROOT
BRANCH   1   2
HETATM    2  N5  UNL     1      37.549  -4.353  21.877  1.00  0.00    -0.328 N 
HETATM    3  C6  UNL     1      37.033  -3.505  22.899  1.00  0.00     0.273 C 
HETATM    4  O1  UNL     1      36.015  -3.871  23.518  1.00  0.00    -0.266 OA
ATOM      5  H5  UNL     1      38.381  -4.050  21.372  1.00  0.00     0.165 HD
BRANCH   3   6
HETATM    6  C5  UNL     1      37.664  -2.235  23.231  1.00  0.00     0.134 A 
HETATM    7  C4  UNL     1      37.112  -0.982  23.069  1.00  0.00     0.155 A 
HETATM    8  N4  UNL     1      38.011  -0.046  23.497  1.00  0.00    -0.244 N 
HETATM    9  N14 UNL     1      39.067  -0.722  23.901  1.00  0.00    -0.235 N 
HETATM   10  N13 UNL     1      38.885  -2.026  23.753  1.00  0.00    -0.279 N 
ATOM     11  H14 UNL     1      39.913  -0.298  24.280  1.00  0.00     0.209 HD
ATOM     12  H13 UNL     1      39.560  -2.752  23.995  1.00  0.00     0.189 HD
BRANCH   8  13
HETATM   13  C3  UNL     1      37.839   1.361  23.507  1.00  0.00     0.142 A 
HETATM   14  C2  UNL     1      37.412   1.956  24.691  1.00  0.00     0.164 A 
HETATM   15  N2  UNL     1      37.224   3.276  24.786  1.00  0.00    -0.177 N 
HETATM   16  N3  UNL     1      37.166   1.137  25.831  1.00  0.00    -0.080 NA
HETATM   17  C1  UNL     1      37.447   4.091  23.718  1.00  0.00     0.678 A 
ATOM     18  H2  UNL     1      36.909   3.678  25.669  1.00  0.00     0.185 HD
HETATM   19  N16 UNL     1      37.860   3.534  22.566  1.00  0.00    -0.175 N 
HETATM   20  C15 UNL     1      38.058   2.187  22.449  1.00  0.00     0.147 A 
ATOM     21  H16 UNL     1      38.029   4.133  21.757  1.00  0.00     0.186 HD
HETATM   22  N15 UNL     1      38.450   1.710  21.327  1.00  0.00    -0.383 N 
ATOM     23 2H15 UNL     1      38.598   0.704  21.241  1.00  0.00     0.157 HD
ATOM     24 1H15 UNL     1      38.614   2.329  20.534  1.00  0.00     0.157 HD
BRANCH  17  25
HETATM   25  N1  UNL     1      37.259   5.371  23.830  1.00  0.00    -0.234 N 
ATOM     26  H12 UNL     1      37.927   5.972  24.314  1.00  0.00     0.174 HD
ATOM     27  H11 UNL     1      36.425   5.799  23.428  1.00  0.00     0.174 HD
ENDBRANCH  17  25
ENDBRANCH   8  13
ENDBRANCH   3   6
ENDBRANCH   1   2
BRANCH   1  28
HETATM   28  O2  UNL     1      36.710  -6.339  22.680  1.00  0.00    -0.375 OA
ATOM     29  H2  UNL     1      35.771  -6.443  22.785  1.00  0.00     0.212 HD
ENDBRANCH   1  28
BRANCH   1  30
HETATM   30  C8  UNL     1      37.986  -6.425  20.721  1.00  0.00     0.203 C 
BRANCH  30  31
HETATM   31  N6  UNL     1      37.871  -6.148  19.295  1.00  0.00    -0.283 N 
HETATM   32  C9  UNL     1      38.805  -5.565  18.529  1.00  0.00     0.141 A 
HETATM   33  C10 UNL     1      38.333  -5.477  17.256  1.00  0.00     0.081 A 
HETATM   34  N11 UNL     1      37.084  -6.026  17.287  1.00  0.00    -0.286 N 
HETATM   35  N12 UNL     1      36.853  -6.408  18.506  1.00  0.00    -0.240 N 
ATOM     36  H11 UNL     1      36.447  -6.120  16.496  1.00  0.00     0.188 HD
ATOM     37  H12 UNL     1      35.989  -6.854  18.812  1.00  0.00     0.208 HD
BRANCH  33  38
HETATM   38  C11 UNL     1      38.964  -4.930  16.032  1.00  0.00     0.248 C 
BRANCH  38  39
HETATM   39  O3  UNL     1      40.347  -5.262  16.132  1.00  0.00    -0.381 OA
ATOM     40  H3  UNL     1      40.645  -5.388  15.239  1.00  0.00     0.211 HD
ENDBRANCH  38  39
BRANCH  38  41
HETATM   41  C12 UNL     1      38.842  -3.454  15.953  1.00  0.00     0.197 A 
HETATM   42  N7  UNL     1      39.742  -2.559  16.484  1.00  0.00    -0.167 N 
HETATM   43  C13 UNL     1      39.350  -1.306  16.246  1.00  0.00     0.707 A 
ATOM     44  H7  UNL     1      40.591  -2.817  16.988  1.00  0.00     0.186 HD
HETATM   45  N10 UNL     1      38.186  -1.432  15.558  1.00  0.00    -0.089 N 
HETATM   46  O6  UNL     1      37.934  -2.699  15.414  1.00  0.00    -0.206 OA
ATOM     47  H10 UNL     1      37.610  -0.664  15.214  1.00  0.00     0.213 HD
BRANCH  43  48
HETATM   48  N8  UNL     1      39.968  -0.077  16.607  1.00  0.00    -0.151 N 
ATOM     49  H8  UNL     1      40.940  -0.081  16.917  1.00  0.00     0.188 HD
BRANCH  48  50
HETATM   50  C14 UNL     1      39.268   1.152  16.545  1.00  0.00     0.255 C 
HETATM   51  N9  UNL     1      39.302   1.966  17.524  1.00  0.00    -0.232 N 
ATOM     52  H9  UNL     1      38.790   2.846  17.461  1.00  0.00     0.198 HD
BRANCH  50  53
HETATM   53  O4  UNL     1      38.527   1.487  15.402  1.00  0.00    -0.331 OA
ATOM     54  H4  UNL     1      37.848   2.150  15.448  1.00  0.00     0.221 HD
ENDBRANCH  50  53
BRANCH  51  55
HETATM   55  O5  UNL     1      40.009   1.682  18.654  1.00  0.00    -0.287 OA
ATOM     56  H5  UNL     1      40.236   2.362  19.277  1.00  0.00     0.244 HD
ENDBRANCH  51  55
ENDBRANCH  48  50
ENDBRANCH  43  48
ENDBRANCH  38  41
ENDBRANCH  33  38
ENDBRANCH  30  31
ENDBRANCH   1  30
TORSDOF 14
ENDMDL
MODEL 4
REMARK VINA RESULT: -7.263953311      2.411      5.146
REMARK  14 active torsions:
REMARK  status: ('A' for Active; 'I' for Inactive)
REMARK    1  A    between atoms: N1_1  and  C1_4 
REMARK    2  A    between atoms: C3_9  and  N4_10 
REMARK    3  A    between atoms: C5_12  and  C6_13 
REMARK       I    between atoms: C6_13  and  N5_15 
REMARK    4  A    between atoms: N5_15  and  C7_17 
REMARK    5  A    between atoms: C7_17  and  O2_18 
REMARK    6  A    between atoms: C7_17  and  C8_20 
REMARK    7  A    between atoms: C8_20  and  N6_21 
REMARK    8  A    between atoms: C10_23  and  C11_24 
REMARK    9  A    between atoms: C11_24  and  O3_25 
REMARK   10  A    between atoms: C11_24  and  C12_27 
REMARK   11  A    between atoms: C13_30  and  N8_31 
REMARK   12  A    between atoms: N8_31  and  C14_33 
REMARK   13  A    between atoms: C14_33  and  O4_34 
REMARK   14  A    between atoms: N9_36  and  O5_38 
ROOT
HETATM    1  C7  UNL     1      38.543  -5.523  22.968  1.00  0.00     0.240 C 
ENDROOT
BRANCH   1   2
HETATM    2  N5  UNL     1      38.579  -4.094  23.001  1.00  0.00    -0.328 N 
HETATM    3  C6  UNL     1      37.431  -3.283  23.236  1.00  0.00     0.273 C 
HETATM    4  O1  UNL     1      36.335  -3.845  23.421  1.00  0.00    -0.266 OA
ATOM      5  H5  UNL     1      39.475  -3.630  22.848  1.00  0.00     0.165 HD
BRANCH   3   6
HETATM    6  C5  UNL     1      37.513  -1.829  23.263  1.00  0.00     0.134 A 
HETATM    7  C4  UNL     1      38.572  -1.079  23.728  1.00  0.00     0.155 A 
HETATM    8  N4  UNL     1      38.270   0.246  23.584  1.00  0.00    -0.244 N 
HETATM    9  N14 UNL     1      37.067   0.283  23.048  1.00  0.00    -0.235 N 
HETATM   10  N13 UNL     1      36.595  -0.938  22.848  1.00  0.00    -0.279 N 
ATOM     11  H14 UNL     1      36.565   1.140  22.817  1.00  0.00     0.209 HD
ATOM     12  H13 UNL     1      35.686  -1.166  22.445  1.00  0.00     0.189 HD
BRANCH   8  13
HETATM   13  C3  UNL     1      39.087   1.351  23.934  1.00  0.00     0.142 A 
HETATM   14  C2  UNL     1      38.696   2.132  25.018  1.00  0.00     0.164 A 
HETATM   15  N2  UNL     1      39.409   3.192  25.413  1.00  0.00    -0.177 N 
HETATM   16  N3  UNL     1      37.505   1.795  25.724  1.00  0.00    -0.080 NA
HETATM   17  C1  UNL     1      40.552   3.545  24.764  1.00  0.00     0.678 A 
ATOM     18  H2  UNL     1      39.093   3.742  26.211  1.00  0.00     0.185 HD
HETATM   19  N16 UNL     1      40.945   2.803  23.713  1.00  0.00    -0.175 N 
HETATM   20  C15 UNL     1      40.230   1.715  23.295  1.00  0.00     0.147 A 
ATOM     21  H16 UNL     1      41.798   3.057  23.216  1.00  0.00     0.186 HD
HETATM   22  N15 UNL     1      40.649   1.045  22.287  1.00  0.00    -0.383 N 
ATOM     23 2H15 UNL     1      40.115   0.234  21.975  1.00  0.00     0.157 HD
ATOM     24 1H15 UNL     1      41.507   1.318  21.808  1.00  0.00     0.157 HD
BRANCH  17  25
HETATM   25  N1  UNL     1      41.231   4.578  25.163  1.00  0.00    -0.234 N 
ATOM     26  H12 UNL     1      40.992   5.079  26.019  1.00  0.00     0.174 HD
ATOM     27  H11 UNL     1      42.025   4.907  24.615  1.00  0.00     0.174 HD
ENDBRANCH  17  25
ENDBRANCH   8  13
ENDBRANCH   3   6
ENDBRANCH   1   2
BRANCH   1  28
HETATM   28  O2  UNL     1      39.153  -6.022  24.116  1.00  0.00    -0.375 OA
ATOM     29  H2  UNL     1      39.386  -6.932  23.975  1.00  0.00     0.212 HD
ENDBRANCH   1  28
BRANCH   1  30
HETATM   30  C8  UNL     1      39.397  -6.012  21.789  1.00  0.00     0.203 C 
BRANCH  30  31
HETATM   31  N6  UNL     1      38.555  -6.469  20.692  1.00  0.00    -0.283 N 
HETATM   32  C9  UNL     1      38.976  -6.811  19.465  1.00  0.00     0.141 A 
HETATM   33  C10 UNL     1      37.900  -7.183  18.721  1.00  0.00     0.081 A 
HETATM   34  N11 UNL     1      36.819  -7.051  19.544  1.00  0.00    -0.286 N 
HETATM   35  N12 UNL     1      37.250  -6.629  20.693  1.00  0.00    -0.240 N 
ATOM     36  H11 UNL     1      35.849  -7.249  19.300  1.00  0.00     0.188 HD
ATOM     37  H12 UNL     1      36.651  -6.445  21.497  1.00  0.00     0.208 HD
BRANCH  33  38
HETATM   38  C11 UNL     1      37.817  -7.653  17.318  1.00  0.00     0.248 C 
BRANCH  38  39
HETATM   39  O3  UNL     1      38.930  -8.526  17.139  1.00  0.00    -0.381 OA
ATOM     40  H3  UNL     1      39.047  -8.602  16.199  1.00  0.00     0.211 HD
ENDBRANCH  38  39
BRANCH  38  41
HETATM   41  C12 UNL     1      37.937  -6.537  16.349  1.00  0.00     0.197 A 
HETATM   42  N7  UNL     1      37.716  -5.210  16.641  1.00  0.00    -0.167 N 
HETATM   43  C13 UNL     1      37.905  -4.456  15.558  1.00  0.00     0.707 A 
ATOM     44  H7  UNL     1      37.445  -4.854  17.559  1.00  0.00     0.186 HD
HETATM   45  N10 UNL     1      38.249  -5.332  14.580  1.00  0.00    -0.089 N 
HETATM   46  O6  UNL     1      38.253  -6.528  15.089  1.00  0.00    -0.206 OA
ATOM     47  H10 UNL     1      38.466  -5.093  13.612  1.00  0.00     0.213 HD
BRANCH  43  48
HETATM   48  N8  UNL     1      37.789  -3.047  15.401  1.00  0.00    -0.151 N 
ATOM     49  H8  UNL     1      38.316  -2.432  16.022  1.00  0.00     0.188 HD
BRANCH  48  50
HETATM   50  C14 UNL     1      36.960  -2.476  14.405  1.00  0.00     0.255 C 
HETATM   51  N9  UNL     1      36.794  -1.215  14.346  1.00  0.00    -0.232 N 
ATOM     52  H9  UNL     1      36.192  -0.823  13.622  1.00  0.00     0.198 HD
BRANCH  50  53
HETATM   53  O4  UNL     1      36.312  -3.297  13.470  1.00  0.00    -0.331 OA
ATOM     54  H4  UNL     1      35.807  -2.912  12.763  1.00  0.00     0.221 HD
ENDBRANCH  50  53
BRANCH  51  55
HETATM   55  O5  UNL     1      37.404  -0.380  15.233  1.00  0.00    -0.287 OA
ATOM     56  H5  UNL     1      37.727  -0.698  16.068  1.00  0.00     0.244 HD
ENDBRANCH  51  55
ENDBRANCH  48  50
ENDBRANCH  43  48
ENDBRANCH  38  41
ENDBRANCH  33  38
ENDBRANCH  30  31
ENDBRANCH   1  30
TORSDOF 14
ENDMDL
MODEL 5
REMARK VINA RESULT: -7.230652238      2.608      6.870
REMARK  14 active torsions:
REMARK  status: ('A' for Active; 'I' for Inactive)
REMARK    1  A    between atoms: N1_1  and  C1_4 
REMARK    2  A    between atoms: C3_9  and  N4_10 
REMARK    3  A    between atoms: C5_12  and  C6_13 
REMARK       I    between atoms: C6_13  and  N5_15 
REMARK    4  A    between atoms: N5_15  and  C7_17 
REMARK    5  A    between atoms: C7_17  and  O2_18 
REMARK    6  A    between atoms: C7_17  and  C8_20 
REMARK    7  A    between atoms: C8_20  and  N6_21 
REMARK    8  A    between atoms: C10_23  and  C11_24 
REMARK    9  A    between atoms: C11_24  and  O3_25 
REMARK   10  A    between atoms: C11_24  and  C12_27 
REMARK   11  A    between atoms: C13_30  and  N8_31 
REMARK   12  A    between atoms: N8_31  and  C14_33 
REMARK   13  A    between atoms: C14_33  and  O4_34 
REMARK   14  A    between atoms: N9_36  and  O5_38 
ROOT
HETATM    1  C7  UNL     1      39.288  -4.424  17.416  1.00  0.00     0.240 C 
ENDROOT
BRANCH   1   2
HETATM    2  N5  UNL     1      39.449  -3.004  17.456  1.00  0.00    -0.328 N 
HETATM    3  C6  UNL     1      39.106  -2.143  16.374  1.00  0.00     0.273 C 
HETATM    4  O1  UNL     1      38.641  -2.649  15.335  1.00  0.00    -0.266 OA
ATOM      5  H5  UNL     1      39.830  -2.585  18.304  1.00  0.00     0.165 HD
BRANCH   3   6
HETATM    6  C5  UNL     1      39.285  -0.700  16.457  1.00  0.00     0.134 A 
HETATM    7  C4  UNL     1      40.200  -0.034  17.245  1.00  0.00     0.155 A 
HETATM    8  N4  UNL     1      40.059   1.311  17.043  1.00  0.00    -0.244 N 
HETATM    9  N14 UNL     1      39.090   1.441  16.161  1.00  0.00    -0.235 N 
HETATM   10  N13 UNL     1      38.613   0.260  15.797  1.00  0.00    -0.279 N 
ATOM     11  H14 UNL     1      38.751   2.334  15.804  1.00  0.00     0.209 HD
ATOM     12  H13 UNL     1      37.860   0.104  15.127  1.00  0.00     0.189 HD
BRANCH   8  13
HETATM   13  C3  UNL     1      40.808   2.348  17.654  1.00  0.00     0.142 A 
HETATM   14  C2  UNL     1      40.215   3.050  18.700  1.00  0.00     0.164 A 
HETATM   15  N2  UNL     1      40.852   4.043  19.329  1.00  0.00    -0.177 N 
HETATM   16  N3  UNL     1      38.896   2.702  19.110  1.00  0.00    -0.080 NA
HETATM   17  C1  UNL     1      42.113   4.404  18.965  1.00  0.00     0.678 A 
ATOM     18  H2  UNL     1      40.387   4.536  20.091  1.00  0.00     0.185 HD
HETATM   19  N16 UNL     1      42.702   3.738  17.956  1.00  0.00    -0.175 N 
HETATM   20  C15 UNL     1      42.067   2.720  17.301  1.00  0.00     0.147 A 
ATOM     21  H16 UNL     1      43.645   4.000  17.672  1.00  0.00     0.186 HD
HETATM   22  N15 UNL     1      42.674   2.121  16.346  1.00  0.00    -0.383 N 
ATOM     23 2H15 UNL     1      42.201   1.361  15.857  1.00  0.00     0.157 HD
ATOM     24 1H15 UNL     1      43.619   2.399  16.081  1.00  0.00     0.157 HD
BRANCH  17  25
HETATM   25  N1  UNL     1      42.714   5.372  19.589  1.00  0.00    -0.234 N 
ATOM     26  H12 UNL     1      43.217   6.104  19.087  1.00  0.00     0.174 HD
ATOM     27  H11 UNL     1      42.690   5.412  20.608  1.00  0.00     0.174 HD
ENDBRANCH  17  25
ENDBRANCH   8  13
ENDBRANCH   3   6
ENDBRANCH   1   2
BRANCH   1  28
HETATM   28  O2  UNL     1      37.931  -4.731  17.484  1.00  0.00    -0.375 OA
ATOM     29  H2  UNL     1      37.510  -4.461  16.676  1.00  0.00     0.212 HD
ENDBRANCH   1  28
BRANCH   1  30
HETATM   30  C8  UNL     1      39.921  -5.029  18.677  1.00  0.00     0.203 C 
BRANCH  30  31
HETATM   31  N6  UNL     1      38.921  -5.230  19.716  1.00  0.00    -0.283 N 
HETATM   32  C9  UNL     1      38.769  -4.480  20.818  1.00  0.00     0.141 A 
HETATM   33  C10 UNL     1      37.733  -4.977  21.546  1.00  0.00     0.081 A 
HETATM   34  N11 UNL     1      37.270  -6.052  20.842  1.00  0.00    -0.286 N 
HETATM   35  N12 UNL     1      37.997  -6.163  19.773  1.00  0.00    -0.240 N 
ATOM     36  H11 UNL     1      36.493  -6.656  21.108  1.00  0.00     0.188 HD
ATOM     37  H12 UNL     1      37.868  -6.885  19.065  1.00  0.00     0.208 HD
BRANCH  33  38
HETATM   38  C11 UNL     1      37.152  -4.519  22.829  1.00  0.00     0.248 C 
BRANCH  38  39
HETATM   39  O3  UNL     1      35.813  -5.011  22.842  1.00  0.00    -0.381 OA
ATOM     40  H3  UNL     1      35.858  -5.863  23.262  1.00  0.00     0.211 HD
ENDBRANCH  38  39
BRANCH  38  41
HETATM   41  C12 UNL     1      37.107  -3.039  22.924  1.00  0.00     0.197 A 
HETATM   42  N7  UNL     1      38.107  -2.251  23.447  1.00  0.00    -0.167 N 
HETATM   43  C13 UNL     1      37.764  -0.964  23.389  1.00  0.00     0.707 A 
ATOM     44  H7  UNL     1      38.986  -2.603  23.826  1.00  0.00     0.186 HD
HETATM   45  N10 UNL     1      36.531  -0.957  22.821  1.00  0.00    -0.089 N 
HETATM   46  O6  UNL     1      36.194  -2.187  22.569  1.00  0.00    -0.206 OA
ATOM     47  H10 UNL     1      35.968  -0.130  22.625  1.00  0.00     0.213 HD
BRANCH  43  48
HETATM   48  N8  UNL     1      38.485   0.187  23.810  1.00  0.00    -0.151 N 
ATOM     49  H8  UNL     1      39.227   0.084  24.503  1.00  0.00     0.188 HD
BRANCH  48  50
HETATM   50  C14 UNL     1      38.199   1.474  23.292  1.00  0.00     0.255 C 
HETATM   51  N9  UNL     1      38.109   2.479  24.069  1.00  0.00    -0.232 N 
ATOM     52  H9  UNL     1      37.901   3.398  23.677  1.00  0.00     0.198 HD
BRANCH  50  53
HETATM   53  O4  UNL     1      38.011   1.655  21.914  1.00  0.00    -0.331 OA
ATOM     54  H4  UNL     1      38.154   2.507  21.519  1.00  0.00     0.221 HD
ENDBRANCH  50  53
BRANCH  51  55
HETATM   55  O5  UNL     1      38.284   2.350  25.415  1.00  0.00    -0.287 OA
ATOM     56  H5  UNL     1      38.315   1.495  25.828  1.00  0.00     0.244 HD
ENDBRANCH  51  55
ENDBRANCH  48  50
ENDBRANCH  43  48
ENDBRANCH  38  41
ENDBRANCH  33  38
ENDBRANCH  30  31
ENDBRANCH   1  30
TORSDOF 14
ENDMDL
