MODEL 1
REMARK VINA RESULT: -7.668334024      0.000      0.000
REMARK  13 active torsions:
REMARK  status: ('A' for Active; 'I' for Inactive)
REMARK    1  A    between atoms: O1_2  and  C2_3 
REMARK    2  A    between atoms: C2_3  and  C3_5 
REMARK    3  A    between atoms: C5_10  and  C6_11 
REMARK    4  A    between atoms: C6_11  and  O3_12 
REMARK    5  A    between atoms: C6_11  and  N2_14 
REMARK       I    between atoms: N2_14  and  C7_16 
REMARK    6  A    between atoms: C7_16  and  C8_18 
REMARK    7  A    between atoms: C8_18  and  N3_19 
REMARK    8  A    between atoms: C8_18  and  C11_24 
REMARK    9  A    between atoms: N3_19  and  O5_20 
REMARK   10  A    between atoms: O5_20  and  C9_21 
REMARK   11  A    between atoms: C12_27  and  C13_28 
REMARK   12  A    between atoms: C14_31  and  C15_32 
REMARK   13  A    between atoms: N7_33  and  O7_35 
ROOT
HETATM    1  C8  UNL     1      38.758  -3.739  22.520  1.00  0.00     0.244 C 
ENDROOT
BRANCH   1   2
HETATM    2  C7  UNL     1      39.965  -4.083  23.311  1.00  0.00     0.245 C 
HETATM    3  N2  UNL     1      40.030  -4.008  24.723  1.00  0.00    -0.330 N 
ATOM      4  H2  UNL     1      39.210  -3.702  25.246  1.00  0.00     0.165 HD
HETATM    5  O4  UNL     1      40.980  -4.461  22.684  1.00  0.00    -0.271 OA
BRANCH   3   6
HETATM    6  C6  UNL     1      41.230  -4.354  25.433  1.00  0.00     0.279 C 
BRANCH   6   7
HETATM    7  C5  UNL     1      41.233  -3.891  26.869  1.00  0.00     0.431 C 
HETATM    8  N1  UNL     1      41.101  -4.973  27.800  1.00  0.00    -0.039 N 
HETATM    9  C4  UNL     1      42.213  -4.878  28.728  1.00  0.00     0.278 C 
ATOM     10  H12 UNL     1      41.035  -5.885  27.347  1.00  0.00     0.279 HD
ATOM     11  H11 UNL     1      40.193  -4.991  28.265  1.00  0.00     0.279 HD
HETATM   12  C3  UNL     1      43.272  -4.212  27.897  1.00  0.00     0.312 C 
HETATM   13  N9  UNL     1      42.524  -3.269  27.119  1.00  0.00    -0.027 N 
ATOM     14  H92 UNL     1      42.455  -2.347  27.551  1.00  0.00     0.281 HD
ATOM     15  H91 UNL     1      43.004  -2.970  26.270  1.00  0.00     0.281 HD
BRANCH  12  16
HETATM   16  C2  UNL     1      44.319  -3.559  28.727  1.00  0.00     0.291 C 
HETATM   17  O2  UNL     1      44.131  -2.487  29.327  1.00  0.00    -0.263 OA
BRANCH  16  18
HETATM   18  O1  UNL     1      45.555  -4.174  28.834  1.00  0.00    -0.325 OA
HETATM   19  C1  UNL     1      45.780  -5.321  29.653  1.00  0.00     0.213 C 
ENDBRANCH  16  18
ENDBRANCH  12  16
ENDBRANCH   6   7
BRANCH   6  20
HETATM   20  O3  UNL     1      41.465  -5.738  25.427  1.00  0.00    -0.373 OA
ATOM     21  H3  UNL     1      40.646  -6.173  25.637  1.00  0.00     0.212 HD
ENDBRANCH   6  20
ENDBRANCH   3   6
ENDBRANCH   1   2
BRANCH   1  22
HETATM   22  N3  UNL     1      38.098  -4.884  21.982  1.00  0.00    -0.073 NA
BRANCH  22  23
HETATM   23  O5  UNL     1      37.868  -5.866  22.927  1.00  0.00    -0.206 OA
BRANCH  23  24
HETATM   24  C9  UNL     1      36.974  -6.904  22.713  1.00  0.00     0.273 C 
HETATM   25  C10 UNL     1      37.191  -8.020  21.786  1.00  0.00     0.127 C 
HETATM   26  O6  UNL     1      35.900  -6.862  23.378  1.00  0.00    -0.264 OA
ENDBRANCH  23  24
ENDBRANCH  22  23
ENDBRANCH   1  22
BRANCH   1  27
HETATM   27  C11 UNL     1      37.798  -3.047  23.466  1.00  0.00     0.263 C 
HETATM   28  N4  UNL     1      36.517  -2.798  22.872  1.00  0.00    -0.111 NA
HETATM   29  N5  UNL     1      36.230  -1.439  23.076  1.00  0.00    -0.107 NA
HETATM   30  C12 UNL     1      37.243  -0.950  23.975  1.00  0.00     0.285 C 
HETATM   31  O8  UNL     1      38.321  -1.825  23.880  1.00  0.00    -0.338 OA
BRANCH  30  32
HETATM   32  C13 UNL     1      37.643   0.462  23.594  1.00  0.00     0.088 A 
HETATM   33  N6  UNL     1      37.957   0.798  22.387  1.00  0.00    -0.347 N 
HETATM   34  C14 UNL     1      38.297   2.051  22.120  1.00  0.00     0.093 A 
ATOM     35  H6  UNL     1      37.943   0.102  21.641  1.00  0.00     0.166 HD
HETATM   36  S1  UNL     1      38.169   2.801  23.645  1.00  0.00    -0.054 SA
HETATM   37  C16 UNL     1      37.675   1.435  24.559  1.00  0.00     0.115 A 
HETATM   38  N8  UNL     1      37.371   1.316  25.967  1.00  0.00    -0.092 NA
BRANCH  34  39
HETATM   39  C15 UNL     1      38.689   2.637  20.818  1.00  0.00     0.151 C 
HETATM   40  N7  UNL     1      37.886   2.528  19.837  1.00  0.00    -0.278 N 
ATOM     41  H7  UNL     1      36.998   2.045  19.967  1.00  0.00     0.193 HD
BRANCH  40  42
HETATM   42  O7  UNL     1      38.192   3.045  18.620  1.00  0.00    -0.290 OA
ATOM     43  H7  UNL     1      37.533   3.126  17.941  1.00  0.00     0.244 HD
ENDBRANCH  40  42
ENDBRANCH  34  39
ENDBRANCH  30  32
ENDBRANCH   1  27
TORSDOF 13
ENDMDL
MODEL 2
REMARK VINA RESULT: -7.451117468      1.424      1.612
REMARK  13 active torsions:
REMARK  status: ('A' for Active; 'I' for Inactive)
REMARK    1  A    between atoms: O1_2  and  C2_3 
REMARK    2  A    between atoms: C2_3  and  C3_5 
REMARK    3  A    between atoms: C5_10  and  C6_11 
REMARK    4  A    between atoms: C6_11  and  O3_12 
REMARK    5  A    between atoms: C6_11  and  N2_14 
REMARK       I    between atoms: N2_14  and  C7_16 
REMARK    6  A    between atoms: C7_16  and  C8_18 
REMARK    7  A    between atoms: C8_18  and  N3_19 
REMARK    8  A    between atoms: C8_18  and  C11_24 
REMARK    9  A    between atoms: N3_19  and  O5_20 
REMARK   10  A    between atoms: O5_20  and  C9_21 
REMARK   11  A    between atoms: C12_27  and  C13_28 
REMARK   12  A    between atoms: C14_31  and  C15_32 
REMARK   13  A    between atoms: N7_33  and  O7_35 
ROOT
HETATM    1  C8  UNL     1      39.391  -3.666  22.873  1.00  0.00     0.244 C 
ENDROOT
BRANCH   1   2
HETATM    2  C7  UNL     1      40.242  -4.295  23.912  1.00  0.00     0.245 C 
HETATM    3  N2  UNL     1      40.332  -3.831  25.246  1.00  0.00    -0.330 N 
ATOM      4  H2  UNL     1      39.787  -3.016  25.529  1.00  0.00     0.165 HD
HETATM    5  O4  UNL     1      40.917  -5.296  23.580  1.00  0.00    -0.271 OA
BRANCH   3   6
HETATM    6  C6  UNL     1      41.176  -4.483  26.208  1.00  0.00     0.279 C 
BRANCH   6   7
HETATM    7  C5  UNL     1      41.324  -3.715  27.497  1.00  0.00     0.431 C 
HETATM    8  N1  UNL     1      40.966  -4.489  28.648  1.00  0.00    -0.039 N 
HETATM    9  C4  UNL     1      42.092  -4.445  29.562  1.00  0.00     0.278 C 
ATOM     10  H12 UNL     1      40.676  -5.440  28.416  1.00  0.00     0.279 HD
ATOM     11  H11 UNL     1      40.091  -4.186  29.077  1.00  0.00     0.279 HD
HETATM   12  C3  UNL     1      43.256  -4.257  28.633  1.00  0.00     0.312 C 
HETATM   13  N9  UNL     1      42.731  -3.371  27.635  1.00  0.00    -0.027 N 
ATOM     14  H92 UNL     1      42.891  -2.385  27.841  1.00  0.00     0.281 HD
ATOM     15  H91 UNL     1      43.246  -3.398  26.755  1.00  0.00     0.281 HD
BRANCH  12  16
HETATM   16  C2  UNL     1      44.448  -3.693  29.321  1.00  0.00     0.291 C 
HETATM   17  O2  UNL     1      44.448  -2.572  29.858  1.00  0.00    -0.263 OA
BRANCH  16  18
HETATM   18  O1  UNL     1      45.606  -4.452  29.364  1.00  0.00    -0.325 OA
HETATM   19  C1  UNL     1      45.611  -5.866  29.165  1.00  0.00     0.213 C 
ENDBRANCH  16  18
ENDBRANCH  12  16
ENDBRANCH   6   7
BRANCH   6  20
HETATM   20  O3  UNL     1      40.715  -5.771  26.525  1.00  0.00    -0.373 OA
ATOM     21  H3  UNL     1      40.106  -6.037  25.845  1.00  0.00     0.212 HD
ENDBRANCH   6  20
ENDBRANCH   3   6
ENDBRANCH   1   2
BRANCH   1  22
HETATM   22  N3  UNL     1      38.923  -4.594  21.897  1.00  0.00    -0.073 NA
BRANCH  22  23
HETATM   23  O5  UNL     1      39.207  -4.204  20.603  1.00  0.00    -0.206 OA
BRANCH  23  24
HETATM   24  C9  UNL     1      38.775  -4.924  19.499  1.00  0.00     0.273 C 
HETATM   25  C10 UNL     1      38.292  -6.309  19.539  1.00  0.00     0.127 C 
HETATM   26  O6  UNL     1      38.808  -4.321  18.389  1.00  0.00    -0.264 OA
ENDBRANCH  23  24
ENDBRANCH  22  23
ENDBRANCH   1  22
BRANCH   1  27
HETATM   27  C11 UNL     1      38.185  -3.089  23.587  1.00  0.00     0.263 C 
HETATM   28  N4  UNL     1      37.033  -2.991  22.738  1.00  0.00    -0.111 NA
HETATM   29  N5  UNL     1      36.558  -1.675  22.846  1.00  0.00    -0.107 NA
HETATM   30  C12 UNL     1      37.304  -1.070  23.920  1.00  0.00     0.285 C 
HETATM   31  O8  UNL     1      38.470  -1.814  24.067  1.00  0.00    -0.338 OA
BRANCH  30  32
HETATM   32  C13 UNL     1      37.610   0.379  23.594  1.00  0.00     0.088 A 
HETATM   33  N6  UNL     1      37.921   0.776  22.404  1.00  0.00    -0.347 N 
HETATM   34  C14 UNL     1      38.177   2.058  22.185  1.00  0.00     0.093 A 
ATOM     35  H6  UNL     1      37.970   0.106  21.636  1.00  0.00     0.166 HD
HETATM   36  S1  UNL     1      37.970   2.745  23.731  1.00  0.00    -0.054 SA
HETATM   37  C16 UNL     1      37.557   1.318  24.590  1.00  0.00     0.115 A 
HETATM   38  N8  UNL     1      37.237   1.131  25.987  1.00  0.00    -0.092 NA
BRANCH  34  39
HETATM   39  C15 UNL     1      38.550   2.714  20.912  1.00  0.00     0.151 C 
HETATM   40  N7  UNL     1      37.863   2.456  19.872  1.00  0.00    -0.278 N 
ATOM     41  H7  UNL     1      37.077   1.809  19.938  1.00  0.00     0.193 HD
BRANCH  40  42
HETATM   42  O7  UNL     1      38.159   3.027  18.677  1.00  0.00    -0.290 OA
ATOM     43  H7  UNL     1      37.776   2.703  17.870  1.00  0.00     0.244 HD
ENDBRANCH  40  42
ENDBRANCH  34  39
ENDBRANCH  30  32
ENDBRANCH   1  27
TORSDOF 13
ENDMDL
MODEL 3
REMARK VINA RESULT: -7.440108494      4.173      7.297
REMARK  13 active torsions:
REMARK  status: ('A' for Active; 'I' for Inactive)
REMARK    1  A    between atoms: O1_2  and  C2_3 
REMARK    2  A    between atoms: C2_3  and  C3_5 
REMARK    3  A    between atoms: C5_10  and  C6_11 
REMARK    4  A    between atoms: C6_11  and  O3_12 
REMARK    5  A    between atoms: C6_11  and  N2_14 
REMARK       I    between atoms: N2_14  and  C7_16 
REMARK    6  A    between atoms: C7_16  and  C8_18 
REMARK    7  A    between atoms: C8_18  and  N3_19 
REMARK    8  A    between atoms: C8_18  and  C11_24 
REMARK    9  A    between atoms: N3_19  and  O5_20 
REMARK   10  A    between atoms: O5_20  and  C9_21 
REMARK   11  A    between atoms: C12_27  and  C13_28 
REMARK   12  A    between atoms: C14_31  and  C15_32 
REMARK   13  A    between atoms: N7_33  and  O7_35 
ROOT
HETATM    1  C8  UNL     1      38.836  -3.845  22.628  1.00  0.00     0.244 C 
ENDROOT
BRANCH   1   2
HETATM    2  C7  UNL     1      38.315  -5.203  22.342  1.00  0.00     0.245 C 
HETATM    3  N2  UNL     1      38.460  -5.858  21.096  1.00  0.00    -0.330 N 
ATOM      4  H2  UNL     1      38.950  -5.384  20.336  1.00  0.00     0.165 HD
HETATM    5  O4  UNL     1      37.712  -5.798  23.264  1.00  0.00    -0.271 OA
BRANCH   3   6
HETATM    6  C6  UNL     1      37.932  -7.176  20.879  1.00  0.00     0.279 C 
BRANCH   6   7
HETATM    7  C5  UNL     1      38.321  -7.768  19.548  1.00  0.00     0.431 C 
HETATM    8  N1  UNL     1      37.409  -8.780  19.102  1.00  0.00    -0.039 N 
HETATM    9  C4  UNL     1      36.968  -8.405  17.772  1.00  0.00     0.278 C 
ATOM     10  H12 UNL     1      36.636  -8.935  19.751  1.00  0.00     0.279 HD
ATOM     11  H11 UNL     1      37.804  -9.720  19.143  1.00  0.00     0.279 HD
HETATM   12  C3  UNL     1      37.083  -6.908  17.802  1.00  0.00     0.312 C 
HETATM   13  N9  UNL     1      38.276  -6.693  18.568  1.00  0.00    -0.027 N 
ATOM     14  H92 UNL     1      39.120  -6.626  17.999  1.00  0.00     0.281 HD
ATOM     15  H91 UNL     1      38.332  -5.763  18.981  1.00  0.00     0.281 HD
BRANCH  12  16
HETATM   16  C2  UNL     1      37.170  -6.317  16.440  1.00  0.00     0.291 C 
HETATM   17  O2  UNL     1      37.757  -6.877  15.499  1.00  0.00    -0.263 OA
BRANCH  16  18
HETATM   18  O1  UNL     1      36.569  -5.089  16.215  1.00  0.00    -0.325 OA
HETATM   19  C1  UNL     1      37.303  -3.930  15.822  1.00  0.00     0.213 C 
ENDBRANCH  16  18
ENDBRANCH  12  16
ENDBRANCH   6   7
BRANCH   6  20
HETATM   20  O3  UNL     1      38.330  -8.074  21.882  1.00  0.00    -0.373 OA
ATOM     21  H3  UNL     1      38.580  -7.565  22.645  1.00  0.00     0.212 HD
ENDBRANCH   6  20
ENDBRANCH   3   6
ENDBRANCH   1   2
BRANCH   1  22
HETATM   22  N3  UNL     1      39.041  -3.066  21.451  1.00  0.00    -0.073 NA
BRANCH  22  23
HETATM   23  O5  UNL     1      40.203  -3.399  20.780  1.00  0.00    -0.206 OA
BRANCH  23  24
HETATM   24  C9  UNL     1      40.268  -3.458  19.396  1.00  0.00     0.273 C 
HETATM   25  C10 UNL     1      41.411  -3.012  18.591  1.00  0.00     0.127 C 
HETATM   26  O6  UNL     1      39.257  -3.937  18.809  1.00  0.00    -0.264 OA
ENDBRANCH  23  24
ENDBRANCH  22  23
ENDBRANCH   1  22
BRANCH   1  27
HETATM   27  C11 UNL     1      37.794  -3.145  23.476  1.00  0.00     0.263 C 
HETATM   28  N4  UNL     1      36.571  -2.906  22.767  1.00  0.00    -0.111 NA
HETATM   29  N5  UNL     1      36.264  -1.546  22.929  1.00  0.00    -0.107 NA
HETATM   30  C12 UNL     1      37.192  -1.045  23.910  1.00  0.00     0.285 C 
HETATM   31  O8  UNL     1      38.275  -1.917  23.921  1.00  0.00    -0.338 OA
BRANCH  30  32
HETATM   32  C13 UNL     1      37.621   0.365  23.550  1.00  0.00     0.088 A 
HETATM   33  N6  UNL     1      37.941   0.713  22.348  1.00  0.00    -0.347 N 
HETATM   34  C14 UNL     1      38.307   1.962  22.100  1.00  0.00     0.093 A 
ATOM     35  H6  UNL     1      37.912   0.028  21.592  1.00  0.00     0.166 HD
HETATM   36  S1  UNL     1      38.197   2.690  23.637  1.00  0.00    -0.054 SA
HETATM   37  C16 UNL     1      37.675   1.321  24.530  1.00  0.00     0.115 A 
HETATM   38  N8  UNL     1      37.370   1.187  25.936  1.00  0.00    -0.092 NA
BRANCH  34  39
HETATM   39  C15 UNL     1      38.710   2.560  20.807  1.00  0.00     0.151 C 
HETATM   40  N7  UNL     1      37.886   2.524  19.838  1.00  0.00    -0.278 N 
ATOM     41  H7  UNL     1      36.974   2.089  19.972  1.00  0.00     0.193 HD
BRANCH  40  42
HETATM   42  O7  UNL     1      38.201   3.055  18.630  1.00  0.00    -0.290 OA
ATOM     43  H7  UNL     1      38.167   3.993  18.482  1.00  0.00     0.244 HD
ENDBRANCH  40  42
ENDBRANCH  34  39
ENDBRANCH  30  32
ENDBRANCH   1  27
TORSDOF 13
ENDMDL
MODEL 4
REMARK VINA RESULT: -7.225767123      4.196      7.521
REMARK  13 active torsions:
REMARK  status: ('A' for Active; 'I' for Inactive)
REMARK    1  A    between atoms: O1_2  and  C2_3 
REMARK    2  A    between atoms: C2_3  and  C3_5 
REMARK    3  A    between atoms: C5_10  and  C6_11 
REMARK    4  A    between atoms: C6_11  and  O3_12 
REMARK    5  A    between atoms: C6_11  and  N2_14 
REMARK       I    between atoms: N2_14  and  C7_16 
REMARK    6  A    between atoms: C7_16  and  C8_18 
REMARK    7  A    between atoms: C8_18  and  N3_19 
REMARK    8  A    between atoms: C8_18  and  C11_24 
REMARK    9  A    between atoms: N3_19  and  O5_20 
REMARK   10  A    between atoms: O5_20  and  C9_21 
REMARK   11  A    between atoms: C12_27  and  C13_28 
REMARK   12  A    between atoms: C14_31  and  C15_32 
REMARK   13  A    between atoms: N7_33  and  O7_35 
ROOT
HETATM    1  C8  UNL     1      39.045  -3.802  22.459  1.00  0.00     0.244 C 
ENDROOT
BRANCH   1   2
HETATM    2  C7  UNL     1      38.447  -4.952  21.739  1.00  0.00     0.245 C 
HETATM    3  N2  UNL     1      38.414  -5.069  20.329  1.00  0.00    -0.330 N 
ATOM      4  H2  UNL     1      38.821  -4.330  19.756  1.00  0.00     0.165 HD
HETATM    5  O4  UNL     1      37.944  -5.868  22.428  1.00  0.00    -0.271 OA
BRANCH   3   6
HETATM    6  C6  UNL     1      37.819  -6.210  19.689  1.00  0.00     0.279 C 
BRANCH   6   7
HETATM    7  C5  UNL     1      38.307  -6.430  18.279  1.00  0.00     0.431 C 
HETATM    8  N1  UNL     1      37.250  -6.777  17.375  1.00  0.00    -0.039 N 
HETATM    9  C4  UNL     1      37.305  -5.838  16.270  1.00  0.00     0.278 C 
ATOM     10  H12 UNL     1      36.335  -6.813  17.824  1.00  0.00     0.279 HD
ATOM     11  H11 UNL     1      37.286  -7.751  17.074  1.00  0.00     0.279 HD
HETATM   12  C3  UNL     1      37.901  -4.618  16.911  1.00  0.00     0.312 C 
HETATM   13  N9  UNL     1      38.867  -5.170  17.816  1.00  0.00    -0.027 N 
ATOM     14  H92 UNL     1      39.799  -5.264  17.410  1.00  0.00     0.281 HD
ATOM     15  H91 UNL     1      39.125  -4.536  18.571  1.00  0.00     0.281 HD
BRANCH  12  16
HETATM   16  C2  UNL     1      38.515  -3.696  15.918  1.00  0.00     0.291 C 
HETATM   17  O2  UNL     1      39.420  -4.049  15.142  1.00  0.00    -0.263 OA
BRANCH  16  18
HETATM   18  O1  UNL     1      38.057  -2.391  15.859  1.00  0.00    -0.325 OA
HETATM   19  C1  UNL     1      37.030  -1.972  14.961  1.00  0.00     0.213 C 
ENDBRANCH  16  18
ENDBRANCH  12  16
ENDBRANCH   6   7
BRANCH   6  20
HETATM   20  O3  UNL     1      38.040  -7.393  20.411  1.00  0.00    -0.373 OA
ATOM     21  H3  UNL     1      38.029  -7.176  21.336  1.00  0.00     0.212 HD
ENDBRANCH   6  20
ENDBRANCH   3   6
ENDBRANCH   1   2
BRANCH   1  22
HETATM   22  N3  UNL     1      39.529  -2.786  21.583  1.00  0.00    -0.073 NA
BRANCH  22  23
HETATM   23  O5  UNL     1      40.729  -3.117  20.984  1.00  0.00    -0.206 OA
BRANCH  23  24
HETATM   24  C9  UNL     1      41.049  -2.720  19.694  1.00  0.00     0.273 C 
HETATM   25  C10 UNL     1      42.378  -2.275  19.259  1.00  0.00     0.127 C 
HETATM   26  O6  UNL     1      40.108  -2.752  18.850  1.00  0.00    -0.264 OA
ENDBRANCH  23  24
ENDBRANCH  22  23
ENDBRANCH   1  22
BRANCH   1  27
HETATM   27  C11 UNL     1      37.948  -3.200  23.312  1.00  0.00     0.263 C 
HETATM   28  N4  UNL     1      36.727  -3.001  22.587  1.00  0.00    -0.111 NA
HETATM   29  N5  UNL     1      36.338  -1.670  22.799  1.00  0.00    -0.107 NA
HETATM   30  C12 UNL     1      37.216  -1.158  23.820  1.00  0.00     0.285 C 
HETATM   31  O8  UNL     1      38.347  -1.967  23.819  1.00  0.00    -0.338 OA
BRANCH  30  32
HETATM   32  C13 UNL     1      37.569   0.288  23.530  1.00  0.00     0.088 A 
HETATM   33  N6  UNL     1      37.908   0.702  22.353  1.00  0.00    -0.347 N 
HETATM   34  C14 UNL     1      38.205   1.980  22.166  1.00  0.00     0.093 A 
ATOM     35  H6  UNL     1      37.946   0.048  21.571  1.00  0.00     0.166 HD
HETATM   36  S1  UNL     1      37.998   2.639  23.724  1.00  0.00    -0.054 SA
HETATM   37  C16 UNL     1      37.532   1.206  24.545  1.00  0.00     0.115 A 
HETATM   38  N8  UNL     1      37.188   0.998  25.934  1.00  0.00    -0.092 NA
BRANCH  34  39
HETATM   39  C15 UNL     1      38.613   2.652  20.912  1.00  0.00     0.151 C 
HETATM   40  N7  UNL     1      37.877   2.516  19.882  1.00  0.00    -0.278 N 
ATOM     41  H7  UNL     1      37.029   1.953  19.943  1.00  0.00     0.193 HD
BRANCH  40  42
HETATM   42  O7  UNL     1      38.202   3.108  18.705  1.00  0.00    -0.290 OA
ATOM     43  H7  UNL     1      37.558   3.216  18.015  1.00  0.00     0.244 HD
ENDBRANCH  40  42
ENDBRANCH  34  39
ENDBRANCH  30  32
ENDBRANCH   1  27
TORSDOF 13
ENDMDL
MODEL 5
REMARK VINA RESULT: -7.097829198      4.120      7.332
REMARK  13 active torsions:
REMARK  status: ('A' for Active; 'I' for Inactive)
REMARK    1  A    between atoms: O1_2  and  C2_3 
REMARK    2  A    between atoms: C2_3  and  C3_5 
REMARK    3  A    between atoms: C5_10  and  C6_11 
REMARK    4  A    between atoms: C6_11  and  O3_12 
REMARK    5  A    between atoms: C6_11  and  N2_14 
REMARK       I    between atoms: N2_14  and  C7_16 
REMARK    6  A    between atoms: C7_16  and  C8_18 
REMARK    7  A    between atoms: C8_18  and  N3_19 
REMARK    8  A    between atoms: C8_18  and  C11_24 
REMARK    9  A    between atoms: N3_19  and  O5_20 
REMARK   10  A    between atoms: O5_20  and  C9_21 
REMARK   11  A    between atoms: C12_27  and  C13_28 
REMARK   12  A    between atoms: C14_31  and  C15_32 
REMARK   13  A    between atoms: N7_33  and  O7_35 
ROOT
HETATM    1  C8  UNL     1      38.878  -3.789  22.714  1.00  0.00     0.244 C 
ENDROOT
BRANCH   1   2
HETATM    2  C7  UNL     1      38.381  -5.154  22.417  1.00  0.00     0.245 C 
HETATM    3  N2  UNL     1      38.554  -5.802  21.170  1.00  0.00    -0.330 N 
ATOM      4  H2  UNL     1      39.047  -5.319  20.420  1.00  0.00     0.165 HD
HETATM    5  O4  UNL     1      37.775  -5.761  23.328  1.00  0.00    -0.271 OA
BRANCH   3   6
HETATM    6  C6  UNL     1      38.049  -7.128  20.943  1.00  0.00     0.279 C 
BRANCH   6   7
HETATM    7  C5  UNL     1      38.362  -7.662  19.567  1.00  0.00     0.431 C 
HETATM    8  N1  UNL     1      37.316  -8.488  19.042  1.00  0.00    -0.039 N 
HETATM    9  C4  UNL     1      36.950  -7.946  17.746  1.00  0.00     0.278 C 
ATOM     10  H12 UNL     1      36.521  -8.579  19.676  1.00  0.00     0.279 HD
ATOM     11  H11 UNL     1      37.567  -9.476  19.005  1.00  0.00     0.279 HD
HETATM   12  C3  UNL     1      37.284  -6.490  17.899  1.00  0.00     0.312 C 
HETATM   13  N9  UNL     1      38.487  -6.516  18.679  1.00  0.00    -0.027 N 
ATOM     14  H92 UNL     1      39.338  -6.529  18.116  1.00  0.00     0.281 HD
ATOM     15  H91 UNL     1      38.675  -5.640  19.166  1.00  0.00     0.281 HD
BRANCH  12  16
HETATM   16  C2  UNL     1      37.472  -5.810  16.589  1.00  0.00     0.291 C 
HETATM   17  O2  UNL     1      37.522  -6.426  15.511  1.00  0.00    -0.263 OA
BRANCH  16  18
HETATM   18  O1  UNL     1      37.595  -4.430  16.574  1.00  0.00    -0.325 OA
HETATM   19  C1  UNL     1      37.181  -3.629  15.468  1.00  0.00     0.213 C 
ENDBRANCH  16  18
ENDBRANCH  12  16
ENDBRANCH   6   7
BRANCH   6  20
HETATM   20  O3  UNL     1      38.541  -8.047  21.883  1.00  0.00    -0.373 OA
ATOM     21  H3  UNL     1      37.796  -8.446  22.317  1.00  0.00     0.212 HD
ENDBRANCH   6  20
ENDBRANCH   3   6
ENDBRANCH   1   2
BRANCH   1  22
HETATM   22  N3  UNL     1      39.129  -3.018  21.540  1.00  0.00    -0.073 NA
BRANCH  22  23
HETATM   23  O5  UNL     1      40.423  -2.538  21.478  1.00  0.00    -0.206 OA
BRANCH  23  24
HETATM   24  C9  UNL     1      40.707  -1.193  21.294  1.00  0.00     0.273 C 
HETATM   25  C10 UNL     1      40.921  -0.552  19.991  1.00  0.00     0.127 C 
HETATM   26  O6  UNL     1      40.781  -0.490  22.341  1.00  0.00    -0.264 OA
ENDBRANCH  23  24
ENDBRANCH  22  23
ENDBRANCH   1  22
BRANCH   1  27
HETATM   27  C11 UNL     1      37.792  -3.091  23.508  1.00  0.00     0.263 C 
HETATM   28  N4  UNL     1      36.601  -2.867  22.742  1.00  0.00    -0.111 NA
HETATM   29  N5  UNL     1      36.277  -1.508  22.880  1.00  0.00    -0.107 NA
HETATM   30  C12 UNL     1      37.155  -0.993  23.898  1.00  0.00     0.285 C 
HETATM   31  O8  UNL     1      38.243  -1.856  23.966  1.00  0.00    -0.338 OA
BRANCH  30  32
HETATM   32  C13 UNL     1      37.590   0.418  23.549  1.00  0.00     0.088 A 
HETATM   33  N6  UNL     1      37.913   0.772  22.349  1.00  0.00    -0.347 N 
HETATM   34  C14 UNL     1      38.284   2.022  22.110  1.00  0.00     0.093 A 
ATOM     35  H6  UNL     1      37.884   0.093  21.588  1.00  0.00     0.166 HD
HETATM   36  S1  UNL     1      38.173   2.741  23.651  1.00  0.00    -0.054 SA
HETATM   37  C16 UNL     1      37.645   1.368  24.534  1.00  0.00     0.115 A 
HETATM   38  N8  UNL     1      37.336   1.226  25.939  1.00  0.00    -0.092 NA
BRANCH  34  39
HETATM   39  C15 UNL     1      38.692   2.626  20.821  1.00  0.00     0.151 C 
HETATM   40  N7  UNL     1      37.889   2.557  19.837  1.00  0.00    -0.278 N 
ATOM     41  H7  UNL     1      36.989   2.092  19.956  1.00  0.00     0.193 HD
BRANCH  40  42
HETATM   42  O7  UNL     1      38.209   3.093  18.632  1.00  0.00    -0.290 OA
ATOM     43  H7  UNL     1      37.586   3.622  18.148  1.00  0.00     0.244 HD
ENDBRANCH  40  42
ENDBRANCH  34  39
ENDBRANCH  30  32
ENDBRANCH   1  27
TORSDOF 13
ENDMDL
