MODEL 1
REMARK VINA RESULT: -6.714309032      0.000      0.000
REMARK  11 active torsions:
REMARK  status: ('A' for Active; 'I' for Inactive)
REMARK    1  A    between atoms: C2_2  and  O1_3 
REMARK    2  A    between atoms: C2_2  and  C4_7 
REMARK       I    between atoms: C4_7  and  N2_9 
REMARK    3  A    between atoms: N2_9  and  N3_11 
REMARK    4  A    between atoms: N3_11  and  N4_13 
REMARK    5  A    between atoms: N4_13  and  C5_15 
REMARK    6  A    between atoms: C6_16  and  C7_17 
REMARK    7  A    between atoms: C7_17  and  O3_18 
REMARK    8  A    between atoms: C7_17  and  N5_20 
REMARK    9  A    between atoms: N5_20  and  N6_22 
REMARK       I    between atoms: N6_22  and  C8_24 
REMARK       I    between atoms: C8_24  and  N7_25 
REMARK       I    between atoms: C8_24  and  N12_35 
REMARK   10  A    between atoms: N7_25  and  N8_27 
REMARK   11  A    between atoms: C11_41  and  N15_42 
ROOT
HETATM    1  C1  UNL     1      36.924  -8.699  19.488  1.00  0.00     0.073 C 
HETATM    2  C2  UNL     1      37.951  -7.802  18.794  1.00  0.00     0.225 C 
HETATM    3  C3  UNL     1      37.616  -7.703  17.384  1.00  0.00     0.107 C 
HETATM    4  N1  UNL     1      37.330  -7.618  16.267  1.00  0.00    -0.193 NA
ENDROOT
BRANCH   2   5
HETATM    5  O1  UNL     1      39.194  -8.415  18.964  1.00  0.00    -0.368 OA
ATOM      6  H1  UNL     1      39.832  -7.715  19.048  1.00  0.00     0.212 HD
ENDBRANCH   2   5
BRANCH   2   7
HETATM    7  C4  UNL     1      37.898  -6.478  19.464  1.00  0.00     0.286 C 
HETATM    8  O2  UNL     1      38.249  -5.483  18.781  1.00  0.00    -0.267 OA
HETATM    9  N2  UNL     1      37.483  -6.292  20.793  1.00  0.00    -0.252 N 
ATOM     10  H2  UNL     1      37.195  -7.094  21.354  1.00  0.00     0.191 HD
BRANCH   9  11
HETATM   11  N3  UNL     1      37.462  -5.013  21.347  1.00  0.00    -0.239 N 
ATOM     12  H3  UNL     1      36.865  -4.283  20.957  1.00  0.00     0.208 HD
BRANCH  11  13
HETATM   13  N4  UNL     1      38.201  -4.784  22.344  1.00  0.00    -0.281 N 
ATOM     14  H4  UNL     1      38.360  -5.527  23.024  1.00  0.00     0.188 HD
BRANCH  13  15
HETATM   15  C5  UNL     1      38.822  -3.517  22.549  1.00  0.00     0.120 A 
HETATM   16  C6  UNL     1      39.895  -2.964  21.879  1.00  0.00     0.106 A 
HETATM   17  N18 UNL     1      40.095  -1.768  22.438  1.00  0.00    -0.297 N 
HETATM   18  N19 UNL     1      39.208  -1.559  23.409  1.00  0.00    -0.285 N 
ATOM     19  H18 UNL     1      40.822  -1.109  22.162  1.00  0.00     0.187 HD
HETATM   20  C14 UNL     1      38.386  -2.621  23.522  1.00  0.00     0.161 A 
ATOM     21  H19 UNL     1      39.159  -0.718  23.984  1.00  0.00     0.188 HD
HETATM   22  N20 UNL     1      37.301  -2.803  24.437  1.00  0.00    -0.079 NA
BRANCH  16  23
HETATM   23  C7  UNL     1      40.601  -3.653  20.778  1.00  0.00     0.288 C 
BRANCH  23  24
HETATM   24  O3  UNL     1      40.548  -5.056  20.935  1.00  0.00    -0.370 OA
ATOM     25  H3  UNL     1      39.769  -5.418  20.529  1.00  0.00     0.212 HD
ENDBRANCH  23  24
BRANCH  23  26
HETATM   26  N5  UNL     1      39.963  -3.387  19.492  1.00  0.00    -0.288 N 
ATOM     27  H5  UNL     1      39.210  -3.975  19.132  1.00  0.00     0.184 HD
BRANCH  26  28
HETATM   28  N6  UNL     1      40.439  -2.281  18.780  1.00  0.00    -0.131 N 
HETATM   29  C8  UNL     1      40.444  -2.209  17.504  1.00  0.00     0.737 C 
HETATM   30  N7  UNL     1      40.951  -1.038  16.890  1.00  0.00    -0.105 N 
HETATM   31  N12 UNL     1      39.945  -3.296  16.738  1.00  0.00    -0.050 N 
ATOM     32  H7  UNL     1      41.647  -1.141  16.153  1.00  0.00     0.208 HD
HETATM   33  N13 UNL     1      40.364  -4.519  16.590  1.00  0.00    -0.219 N 
HETATM   34  C13 UNL     1      38.825  -3.178  15.965  1.00  0.00     0.180 A 
HETATM   35  N14 UNL     1      39.572  -5.208  15.757  1.00  0.00    -0.278 N 
ATOM     36  H13 UNL     1      41.189  -4.903  17.049  1.00  0.00     0.209 HD
HETATM   37  C10 UNL     1      38.591  -4.396  15.343  1.00  0.00     0.140 A 
ATOM     38  H14 UNL     1      39.695  -6.183  15.486  1.00  0.00     0.189 HD
HETATM   39  C11 UNL     1      37.488  -4.474  14.510  1.00  0.00     0.132 A 
HETATM   40  N16 UNL     1      36.684  -3.416  14.316  1.00  0.00    -0.337 N 
HETATM   41  C12 UNL     1      36.923  -2.248  14.922  1.00  0.00     0.183 A 
ATOM     42  H16 UNL     1      35.877  -3.504  13.696  1.00  0.00     0.168 HD
HETATM   43  N17 UNL     1      37.992  -2.153  15.737  1.00  0.00    -0.335 N 
ATOM     44  H17 UNL     1      38.174  -1.263  16.200  1.00  0.00     0.168 HD
ATOM     45  H6  UNL     1      40.803  -1.488  19.308  1.00  0.00     0.205 HD
BRANCH  30  46
HETATM   46  N8  UNL     1      40.547   0.249  17.243  1.00  0.00    -0.161 N 
HETATM   47  C9  UNL     1      41.219   1.127  18.036  1.00  0.00     0.246 A 
HETATM   48  N9  UNL     1      40.515   2.272  18.148  1.00  0.00    -0.277 N 
HETATM   49  N10 UNL     1      39.427   2.094  17.431  1.00  0.00    -0.226 N 
ATOM     50  H9  UNL     1      40.772   3.104  18.680  1.00  0.00     0.189 HD
HETATM   51  N11 UNL     1      39.443   0.877  16.885  1.00  0.00    -0.205 N 
ATOM     52  H10 UNL     1      38.684   2.782  17.310  1.00  0.00     0.210 HD
ATOM     53  H11 UNL     1      38.715   0.491  16.284  1.00  0.00     0.212 HD
ENDBRANCH  30  46
BRANCH  39  54
HETATM   54  N15 UNL     1      37.256  -5.601  13.923  1.00  0.00    -0.383 N 
ATOM     55 2H15 UNL     1      36.382  -6.104  14.076  1.00  0.00     0.157 HD
ATOM     56 1H15 UNL     1      37.977  -5.970  13.303  1.00  0.00     0.157 HD
ENDBRANCH  39  54
ENDBRANCH  26  28
ENDBRANCH  23  26
ENDBRANCH  16  23
ENDBRANCH  13  15
ENDBRANCH  11  13
ENDBRANCH   9  11
ENDBRANCH   2   7
TORSDOF 11
ENDMDL
MODEL 2
REMARK VINA RESULT: -6.641252222      2.737      5.335
REMARK  11 active torsions:
REMARK  status: ('A' for Active; 'I' for Inactive)
REMARK    1  A    between atoms: C2_2  and  O1_3 
REMARK    2  A    between atoms: C2_2  and  C4_7 
REMARK       I    between atoms: C4_7  and  N2_9 
REMARK    3  A    between atoms: N2_9  and  N3_11 
REMARK    4  A    between atoms: N3_11  and  N4_13 
REMARK    5  A    between atoms: N4_13  and  C5_15 
REMARK    6  A    between atoms: C6_16  and  C7_17 
REMARK    7  A    between atoms: C7_17  and  O3_18 
REMARK    8  A    between atoms: C7_17  and  N5_20 
REMARK    9  A    between atoms: N5_20  and  N6_22 
REMARK       I    between atoms: N6_22  and  C8_24 
REMARK       I    between atoms: C8_24  and  N7_25 
REMARK       I    between atoms: C8_24  and  N12_35 
REMARK   10  A    between atoms: N7_25  and  N8_27 
REMARK   11  A    between atoms: C11_41  and  N15_42 
ROOT
HETATM    1  C1  UNL     1      38.099   2.937  24.027  1.00  0.00     0.073 C 
HETATM    2  C2  UNL     1      37.708   1.718  24.866  1.00  0.00     0.225 C 
HETATM    3  C3  UNL     1      36.364   1.912  25.384  1.00  0.00     0.107 C 
HETATM    4  N1  UNL     1      35.289   2.070  25.776  1.00  0.00    -0.193 NA
ENDROOT
BRANCH   2   5
HETATM    5  O1  UNL     1      38.633   1.640  25.909  1.00  0.00    -0.368 OA
ATOM      6  H1  UNL     1      38.168   1.885  26.701  1.00  0.00     0.212 HD
ENDBRANCH   2   5
BRANCH   2   7
HETATM    7  C4  UNL     1      37.787   0.532  23.976  1.00  0.00     0.286 C 
HETATM    8  O2  UNL     1      38.927   0.215  23.555  1.00  0.00    -0.267 OA
HETATM    9  N2  UNL     1      36.672  -0.232  23.594  1.00  0.00    -0.252 N 
ATOM     10  H2  UNL     1      35.742   0.019  23.933  1.00  0.00     0.191 HD
BRANCH   9  11
HETATM   11  N3  UNL     1      36.832  -1.332  22.754  1.00  0.00    -0.239 N 
ATOM     12  H3  UNL     1      36.312  -1.404  21.880  1.00  0.00     0.208 HD
BRANCH  11  13
HETATM   13  N4  UNL     1      37.638  -2.237  23.106  1.00  0.00    -0.281 N 
ATOM     14  H4  UNL     1      38.258  -2.067  23.899  1.00  0.00     0.188 HD
BRANCH  13  15
HETATM   15  C5  UNL     1      37.711  -3.490  22.429  1.00  0.00     0.120 A 
HETATM   16  C6  UNL     1      38.699  -3.958  21.585  1.00  0.00     0.106 A 
HETATM   17  N18 UNL     1      38.307  -5.179  21.212  1.00  0.00    -0.297 N 
HETATM   18  N19 UNL     1      37.141  -5.483  21.777  1.00  0.00    -0.285 N 
ATOM     19  H18 UNL     1      38.827  -5.792  20.584  1.00  0.00     0.187 HD
HETATM   20  C14 UNL     1      36.721  -4.463  22.551  1.00  0.00     0.161 A 
ATOM     21  H19 UNL     1      36.639  -6.360  21.644  1.00  0.00     0.188 HD
HETATM   22  N20 UNL     1      35.524  -4.380  23.330  1.00  0.00    -0.079 NA
BRANCH  16  23
HETATM   23  C7  UNL     1      39.903  -3.174  21.239  1.00  0.00     0.288 C 
BRANCH  23  24
HETATM   24  O3  UNL     1      41.015  -3.578  22.008  1.00  0.00    -0.370 OA
ATOM     25  H3  UNL     1      41.804  -3.122  21.739  1.00  0.00     0.212 HD
ENDBRANCH  23  24
BRANCH  23  26
HETATM   26  N5  UNL     1      40.296  -3.396  19.850  1.00  0.00    -0.288 N 
ATOM     27  H5  UNL     1      40.295  -4.327  19.433  1.00  0.00     0.184 HD
BRANCH  26  28
HETATM   28  N6  UNL     1      40.674  -2.262  19.123  1.00  0.00    -0.131 N 
HETATM   29  C8  UNL     1      40.690  -2.212  17.846  1.00  0.00     0.737 C 
HETATM   30  N7  UNL     1      41.091  -1.009  17.217  1.00  0.00    -0.105 N 
HETATM   31  N12 UNL     1      40.310  -3.356  17.094  1.00  0.00    -0.050 N 
ATOM     32  H7  UNL     1      41.805  -1.057  16.490  1.00  0.00     0.208 HD
HETATM   33  N13 UNL     1      40.847  -4.535  16.976  1.00  0.00    -0.219 N 
HETATM   34  C13 UNL     1      39.196  -3.361  16.306  1.00  0.00     0.180 A 
HETATM   35  N14 UNL     1      40.138  -5.312  16.146  1.00  0.00    -0.278 N 
ATOM     36  H13 UNL     1      41.699  -4.829  17.452  1.00  0.00     0.209 HD
HETATM   37  C10 UNL     1      39.089  -4.606  15.704  1.00  0.00     0.140 A 
ATOM     38  H14 UNL     1      40.358  -6.276  15.895  1.00  0.00     0.189 HD
HETATM   39  C11 UNL     1      38.011  -4.805  14.858  1.00  0.00     0.132 A 
HETATM   40  N16 UNL     1      37.111  -3.834  14.634  1.00  0.00    -0.337 N 
HETATM   41  C12 UNL     1      37.228  -2.638  15.221  1.00  0.00     0.183 A 
ATOM     42  H16 UNL     1      36.326  -4.011  14.006  1.00  0.00     0.168 HD
HETATM   43  N17 UNL     1      38.271  -2.425  16.047  1.00  0.00    -0.335 N 
ATOM     44  H17 UNL     1      38.360  -1.514  16.495  1.00  0.00     0.168 HD
ATOM     45  H6  UNL     1      40.952  -1.428  19.641  1.00  0.00     0.205 HD
BRANCH  30  46
HETATM   46  N8  UNL     1      40.560   0.239  17.539  1.00  0.00    -0.161 N 
HETATM   47  C9  UNL     1      39.642   0.945  16.825  1.00  0.00     0.246 A 
HETATM   48  N9  UNL     1      39.372   2.109  17.452  1.00  0.00    -0.277 N 
HETATM   49  N10 UNL     1      40.117   2.111  18.536  1.00  0.00    -0.226 N 
ATOM     50  H9  UNL     1      38.725   2.836  17.148  1.00  0.00     0.189 HD
HETATM   51  N11 UNL     1      40.834   0.987  18.591  1.00  0.00    -0.205 N 
ATOM     52  H10 UNL     1      40.143   2.859  19.228  1.00  0.00     0.210 HD
ATOM     53  H11 UNL     1      41.492   0.744  19.331  1.00  0.00     0.212 HD
ENDBRANCH  30  46
BRANCH  39  54
HETATM   54  N15 UNL     1      37.897  -5.960  14.290  1.00  0.00    -0.383 N 
ATOM     55 2H15 UNL     1      36.981  -6.354  14.078  1.00  0.00     0.157 HD
ATOM     56 1H15 UNL     1      38.755  -6.462  14.062  1.00  0.00     0.157 HD
ENDBRANCH  39  54
ENDBRANCH  26  28
ENDBRANCH  23  26
ENDBRANCH  16  23
ENDBRANCH  13  15
ENDBRANCH  11  13
ENDBRANCH   9  11
ENDBRANCH   2   7
TORSDOF 11
ENDMDL
MODEL 3
REMARK VINA RESULT: -6.584206618      3.876      6.998
REMARK  11 active torsions:
REMARK  status: ('A' for Active; 'I' for Inactive)
REMARK    1  A    between atoms: C2_2  and  O1_3 
REMARK    2  A    between atoms: C2_2  and  C4_7 
REMARK       I    between atoms: C4_7  and  N2_9 
REMARK    3  A    between atoms: N2_9  and  N3_11 
REMARK    4  A    between atoms: N3_11  and  N4_13 
REMARK    5  A    between atoms: N4_13  and  C5_15 
REMARK    6  A    between atoms: C6_16  and  C7_17 
REMARK    7  A    between atoms: C7_17  and  O3_18 
REMARK    8  A    between atoms: C7_17  and  N5_20 
REMARK    9  A    between atoms: N5_20  and  N6_22 
REMARK       I    between atoms: N6_22  and  C8_24 
REMARK       I    between atoms: C8_24  and  N7_25 
REMARK       I    between atoms: C8_24  and  N12_35 
REMARK   10  A    between atoms: N7_25  and  N8_27 
REMARK   11  A    between atoms: C11_41  and  N15_42 
ROOT
HETATM    1  C1  UNL     1      37.695   3.161  23.971  1.00  0.00     0.073 C 
HETATM    2  C2  UNL     1      37.496   1.974  24.917  1.00  0.00     0.225 C 
HETATM    3  C3  UNL     1      36.154   2.032  25.472  1.00  0.00     0.107 C 
HETATM    4  N1  UNL     1      35.079   2.080  25.894  1.00  0.00    -0.193 NA
ENDROOT
BRANCH   2   5
HETATM    5  O1  UNL     1      38.453   2.105  25.925  1.00  0.00    -0.368 OA
ATOM      6  H1  UNL     1      38.413   1.308  26.441  1.00  0.00     0.212 HD
ENDBRANCH   2   5
BRANCH   2   7
HETATM    7  C4  UNL     1      37.705   0.740  24.120  1.00  0.00     0.286 C 
HETATM    8  O2  UNL     1      38.894   0.426  23.865  1.00  0.00    -0.267 OA
HETATM    9  N2  UNL     1      36.660  -0.073  23.651  1.00  0.00    -0.252 N 
ATOM     10  H2  UNL     1      35.691   0.174  23.855  1.00  0.00     0.191 HD
BRANCH   9  11
HETATM   11  N3  UNL     1      36.944  -1.218  22.908  1.00  0.00    -0.239 N 
ATOM     12  H3  UNL     1      36.636  -1.303  21.939  1.00  0.00     0.208 HD
BRANCH  11  13
HETATM   13  N4  UNL     1      37.592  -2.145  23.466  1.00  0.00    -0.281 N 
ATOM     14  H4  UNL     1      38.027  -1.969  24.372  1.00  0.00     0.188 HD
BRANCH  13  15
HETATM   15  C5  UNL     1      37.735  -3.433  22.871  1.00  0.00     0.120 A 
HETATM   16  C6  UNL     1      38.889  -4.066  22.455  1.00  0.00     0.106 A 
HETATM   17  N18 UNL     1      38.498  -5.248  21.970  1.00  0.00    -0.297 N 
HETATM   18  N19 UNL     1      37.177  -5.372  22.065  1.00  0.00    -0.285 N 
ATOM     19  H18 UNL     1      39.123  -5.955  21.581  1.00  0.00     0.187 HD
HETATM   20  C14 UNL     1      36.646  -4.266  22.623  1.00  0.00     0.161 A 
ATOM     21  H19 UNL     1      36.643  -6.185  21.759  1.00  0.00     0.188 HD
HETATM   22  N20 UNL     1      35.270  -3.991  22.902  1.00  0.00    -0.079 NA
BRANCH  16  23
HETATM   23  C7  UNL     1      40.231  -3.459  22.575  1.00  0.00     0.288 C 
BRANCH  23  24
HETATM   24  O3  UNL     1      41.230  -4.326  22.080  1.00  0.00    -0.370 OA
ATOM     25  H3  UNL     1      42.042  -3.859  21.918  1.00  0.00     0.212 HD
ENDBRANCH  23  24
BRANCH  23  26
HETATM   26  N5  UNL     1      40.338  -2.249  21.765  1.00  0.00    -0.288 N 
ATOM     27  H5  UNL     1      39.879  -2.166  20.857  1.00  0.00     0.184 HD
BRANCH  26  28
HETATM   28  N6  UNL     1      41.103  -1.208  22.301  1.00  0.00    -0.131 N 
HETATM   29  C8  UNL     1      41.540  -0.223  21.615  1.00  0.00     0.737 C 
HETATM   30  N7  UNL     1      42.306   0.774  22.265  1.00  0.00    -0.105 N 
HETATM   31  N12 UNL     1      41.248  -0.151  20.226  1.00  0.00    -0.050 N 
ATOM     32  H7  UNL     1      43.199   1.043  21.854  1.00  0.00     0.208 HD
HETATM   33  N13 UNL     1      41.602  -0.903  19.225  1.00  0.00    -0.219 N 
HETATM   34  C13 UNL     1      40.462   0.837  19.706  1.00  0.00     0.180 A 
HETATM   35  N14 UNL     1      41.087  -0.454  18.073  1.00  0.00    -0.278 N 
ATOM     36  H13 UNL     1      42.197  -1.727  19.306  1.00  0.00     0.209 HD
HETATM   37  C10 UNL     1      40.362   0.641  18.336  1.00  0.00     0.140 A 
ATOM     38  H14 UNL     1      41.222  -0.874  17.153  1.00  0.00     0.189 HD
HETATM   39  C11 UNL     1      39.598   1.552  17.626  1.00  0.00     0.132 A 
HETATM   40  N16 UNL     1      38.984   2.576  18.240  1.00  0.00    -0.337 N 
HETATM   41  C12 UNL     1      39.091   2.752  19.561  1.00  0.00     0.183 A 
ATOM     42  H16 UNL     1      38.426   3.231  17.690  1.00  0.00     0.168 HD
HETATM   43  N17 UNL     1      39.830   1.875  20.269  1.00  0.00    -0.335 N 
ATOM     44  H17 UNL     1      39.911   2.008  21.277  1.00  0.00     0.168 HD
ATOM     45  H6  UNL     1      41.326  -1.238  23.297  1.00  0.00     0.205 HD
BRANCH  30  46
HETATM   46  N8  UNL     1      41.902   1.407  23.440  1.00  0.00    -0.161 N 
HETATM   47  C9  UNL     1      41.557   2.716  23.585  1.00  0.00     0.246 A 
HETATM   48  N9  UNL     1      41.224   2.960  24.869  1.00  0.00    -0.277 N 
HETATM   49  N10 UNL     1      41.364   1.814  25.499  1.00  0.00    -0.226 N 
ATOM     50  H9  UNL     1      40.925   3.850  25.269  1.00  0.00     0.189 HD
HETATM   51  N11 UNL     1      41.773   0.877  24.641  1.00  0.00    -0.205 N 
ATOM     52  H10 UNL     1      41.187   1.664  26.492  1.00  0.00     0.210 HD
ATOM     53  H11 UNL     1      41.957  -0.098  24.877  1.00  0.00     0.212 HD
ENDBRANCH  30  46
BRANCH  39  54
HETATM   54  N15 UNL     1      39.494   1.384  16.349  1.00  0.00    -0.383 N 
ATOM     55 2H15 UNL     1      40.022   0.654  15.871  1.00  0.00     0.157 HD
ATOM     56 1H15 UNL     1      38.867   2.005  15.838  1.00  0.00     0.157 HD
ENDBRANCH  39  54
ENDBRANCH  26  28
ENDBRANCH  23  26
ENDBRANCH  16  23
ENDBRANCH  13  15
ENDBRANCH  11  13
ENDBRANCH   9  11
ENDBRANCH   2   7
TORSDOF 11
ENDMDL
MODEL 4
REMARK VINA RESULT: -6.581736698      2.913      6.128
REMARK  11 active torsions:
REMARK  status: ('A' for Active; 'I' for Inactive)
REMARK    1  A    between atoms: C2_2  and  O1_3 
REMARK    2  A    between atoms: C2_2  and  C4_7 
REMARK       I    between atoms: C4_7  and  N2_9 
REMARK    3  A    between atoms: N2_9  and  N3_11 
REMARK    4  A    between atoms: N3_11  and  N4_13 
REMARK    5  A    between atoms: N4_13  and  C5_15 
REMARK    6  A    between atoms: C6_16  and  C7_17 
REMARK    7  A    between atoms: C7_17  and  O3_18 
REMARK    8  A    between atoms: C7_17  and  N5_20 
REMARK    9  A    between atoms: N5_20  and  N6_22 
REMARK       I    between atoms: N6_22  and  C8_24 
REMARK       I    between atoms: C8_24  and  N7_25 
REMARK       I    between atoms: C8_24  and  N12_35 
REMARK   10  A    between atoms: N7_25  and  N8_27 
REMARK   11  A    between atoms: C11_41  and  N15_42 
ROOT
HETATM    1  C1  UNL     1      39.482  -3.529  22.191  1.00  0.00     0.073 C 
HETATM    2  C2  UNL     1      38.224  -4.398  22.253  1.00  0.00     0.225 C 
HETATM    3  C3  UNL     1      37.073  -3.547  22.502  1.00  0.00     0.107 C 
HETATM    4  N1  UNL     1      36.163  -2.857  22.683  1.00  0.00    -0.193 NA
ENDROOT
BRANCH   2   5
HETATM    5  O1  UNL     1      38.412  -5.294  23.307  1.00  0.00    -0.368 OA
ATOM      6  H1  UNL     1      37.721  -5.121  23.937  1.00  0.00     0.212 HD
ENDBRANCH   2   5
BRANCH   2   7
HETATM    7  C4  UNL     1      38.114  -5.102  20.950  1.00  0.00     0.286 C 
HETATM    8  O2  UNL     1      38.797  -4.645  20.001  1.00  0.00    -0.267 OA
HETATM    9  N2  UNL     1      37.301  -6.227  20.738  1.00  0.00    -0.252 N 
ATOM     10  H2  UNL     1      36.743  -6.605  21.504  1.00  0.00     0.191 HD
BRANCH   9  11
HETATM   11  N3  UNL     1      37.254  -6.829  19.482  1.00  0.00    -0.239 N 
ATOM     12  H3  UNL     1      37.568  -6.330  18.650  1.00  0.00     0.208 HD
BRANCH  11  13
HETATM   13  N4  UNL     1      36.812  -8.009  19.402  1.00  0.00    -0.281 N 
ATOM     14  H4  UNL     1      35.811  -8.154  19.269  1.00  0.00     0.188 HD
BRANCH  13  15
HETATM   15  C5  UNL     1      37.669  -9.145  19.493  1.00  0.00     0.120 A 
HETATM   16  C6  UNL     1      37.887 -10.136  18.557  1.00  0.00     0.106 A 
HETATM   17  N18 UNL     1      38.771 -10.970  19.112  1.00  0.00    -0.297 N 
HETATM   18  N19 UNL     1      39.103 -10.546  20.328  1.00  0.00    -0.285 N 
ATOM     19  H18 UNL     1      39.138 -11.811  18.667  1.00  0.00     0.187 HD
HETATM   20  C14 UNL     1      38.445  -9.407  20.620  1.00  0.00     0.161 A 
ATOM     21  H19 UNL     1      39.761 -11.016  20.951  1.00  0.00     0.188 HD
HETATM   22  N20 UNL     1      38.514  -8.629  21.818  1.00  0.00    -0.079 NA
BRANCH  16  23
HETATM   23  C7  UNL     1      37.219 -10.163  17.238  1.00  0.00     0.288 C 
BRANCH  23  24
HETATM   24  O3  UNL     1      35.871  -9.754  17.339  1.00  0.00    -0.370 OA
ATOM     25  H3  UNL     1      35.685  -9.034  16.749  1.00  0.00     0.212 HD
ENDBRANCH  23  24
BRANCH  23  26
HETATM   26  N5  UNL     1      37.838  -9.218  16.313  1.00  0.00    -0.288 N 
ATOM     27  H5  UNL     1      37.366  -8.910  15.462  1.00  0.00     0.184 HD
BRANCH  26  28
HETATM   28  N6  UNL     1      39.113  -8.757  16.657  1.00  0.00    -0.131 N 
HETATM   29  C8  UNL     1      39.633  -7.691  16.183  1.00  0.00     0.737 C 
HETATM   30  N7  UNL     1      40.933  -7.322  16.604  1.00  0.00    -0.105 N 
HETATM   31  N12 UNL     1      38.901  -6.907  15.252  1.00  0.00    -0.050 N 
ATOM     32  H7  UNL     1      41.628  -7.099  15.891  1.00  0.00     0.208 HD
HETATM   33  N13 UNL     1      38.495  -7.153  14.040  1.00  0.00    -0.219 N 
HETATM   34  C13 UNL     1      38.479  -5.643  15.548  1.00  0.00     0.180 A 
HETATM   35  N14 UNL     1      37.828  -6.110  13.528  1.00  0.00    -0.278 N 
ATOM     36  H13 UNL     1      38.663  -8.027  13.543  1.00  0.00     0.209 HD
HETATM   37  C10 UNL     1      37.797  -5.139  14.450  1.00  0.00     0.140 A 
ATOM     38  H14 UNL     1      37.414  -6.063  12.598  1.00  0.00     0.189 HD
HETATM   39  C11 UNL     1      37.289  -3.855  14.562  1.00  0.00     0.132 A 
HETATM   40  N16 UNL     1      37.452  -3.135  15.684  1.00  0.00    -0.337 N 
HETATM   41  C12 UNL     1      38.113  -3.636  16.733  1.00  0.00     0.183 A 
ATOM     42  H16 UNL     1      37.066  -2.192  15.736  1.00  0.00     0.168 HD
HETATM   43  N17 UNL     1      38.614  -4.883  16.644  1.00  0.00    -0.335 N 
ATOM     44  H17 UNL     1      39.117  -5.265  17.445  1.00  0.00     0.168 HD
ATOM     45  H6  UNL     1      39.659  -9.303  17.324  1.00  0.00     0.205 HD
BRANCH  30  46
HETATM   46  N8  UNL     1      41.314  -7.247  17.943  1.00  0.00    -0.161 N 
HETATM   47  C9  UNL     1      42.427  -7.789  18.506  1.00  0.00     0.246 A 
HETATM   48  N9  UNL     1      42.454  -7.507  19.826  1.00  0.00    -0.277 N 
HETATM   49  N10 UNL     1      41.370  -6.802  20.063  1.00  0.00    -0.226 N 
ATOM     50  H9  UNL     1      43.168  -7.785  20.500  1.00  0.00     0.189 HD
HETATM   51  N11 UNL     1      40.681  -6.644  18.931  1.00  0.00    -0.205 N 
ATOM     52  H10 UNL     1      41.098  -6.432  20.973  1.00  0.00     0.210 HD
ATOM     53  H11 UNL     1      39.801  -6.136  18.844  1.00  0.00     0.212 HD
ENDBRANCH  30  46
BRANCH  39  54
HETATM   54  N15 UNL     1      36.652  -3.371  13.548  1.00  0.00    -0.383 N 
ATOM     55 2H15 UNL     1      37.056  -2.627  12.979  1.00  0.00     0.157 HD
ATOM     56 1H15 UNL     1      35.732  -3.759  13.337  1.00  0.00     0.157 HD
ENDBRANCH  39  54
ENDBRANCH  26  28
ENDBRANCH  23  26
ENDBRANCH  16  23
ENDBRANCH  13  15
ENDBRANCH  11  13
ENDBRANCH   9  11
ENDBRANCH   2   7
TORSDOF 11
ENDMDL
MODEL 5
REMARK VINA RESULT: -6.456668431      2.758      6.899
REMARK  11 active torsions:
REMARK  status: ('A' for Active; 'I' for Inactive)
REMARK    1  A    between atoms: C2_2  and  O1_3 
REMARK    2  A    between atoms: C2_2  and  C4_7 
REMARK       I    between atoms: C4_7  and  N2_9 
REMARK    3  A    between atoms: N2_9  and  N3_11 
REMARK    4  A    between atoms: N3_11  and  N4_13 
REMARK    5  A    between atoms: N4_13  and  C5_15 
REMARK    6  A    between atoms: C6_16  and  C7_17 
REMARK    7  A    between atoms: C7_17  and  O3_18 
REMARK    8  A    between atoms: C7_17  and  N5_20 
REMARK    9  A    between atoms: N5_20  and  N6_22 
REMARK       I    between atoms: N6_22  and  C8_24 
REMARK       I    between atoms: C8_24  and  N7_25 
REMARK       I    between atoms: C8_24  and  N12_35 
REMARK   10  A    between atoms: N7_25  and  N8_27 
REMARK   11  A    between atoms: C11_41  and  N15_42 
ROOT
HETATM    1  C1  UNL     1      36.778  -4.795  15.453  1.00  0.00     0.073 C 
HETATM    2  C2  UNL     1      38.004  -3.890  15.597  1.00  0.00     0.225 C 
HETATM    3  C3  UNL     1      37.593  -2.507  15.420  1.00  0.00     0.107 C 
HETATM    4  N1  UNL     1      37.252  -1.410  15.293  1.00  0.00    -0.193 NA
ENDROOT
BRANCH   2   5
HETATM    5  O1  UNL     1      38.899  -4.271  14.596  1.00  0.00    -0.368 OA
ATOM      6  H1  UNL     1      38.472  -4.957  14.097  1.00  0.00     0.212 HD
ENDBRANCH   2   5
BRANCH   2   7
HETATM    7  C4  UNL     1      38.565  -4.126  16.951  1.00  0.00     0.286 C 
HETATM    8  O2  UNL     1      39.160  -3.162  17.493  1.00  0.00    -0.267 OA
HETATM    9  N2  UNL     1      38.460  -5.347  17.638  1.00  0.00    -0.252 N 
ATOM     10  H2  UNL     1      37.977  -6.135  17.205  1.00  0.00     0.191 HD
BRANCH   9  11
HETATM   11  N3  UNL     1      39.015  -5.485  18.908  1.00  0.00    -0.239 N 
ATOM     12  H3  UNL     1      39.885  -6.000  19.047  1.00  0.00     0.208 HD
BRANCH  11  13
HETATM   13  N4  UNL     1      38.413  -4.955  19.882  1.00  0.00    -0.281 N 
ATOM     14  H4  UNL     1      38.353  -3.938  19.933  1.00  0.00     0.188 HD
BRANCH  13  15
HETATM   15  C5  UNL     1      37.813  -5.734  20.915  1.00  0.00     0.120 A 
HETATM   16  C6  UNL     1      37.294  -5.310  22.123  1.00  0.00     0.106 A 
HETATM   17  N18 UNL     1      36.850  -6.413  22.732  1.00  0.00    -0.297 N 
HETATM   18  N19 UNL     1      37.067  -7.481  21.969  1.00  0.00    -0.285 N 
ATOM     19  H18 UNL     1      36.408  -6.434  23.651  1.00  0.00     0.187 HD
HETATM   20  C14 UNL     1      37.666  -7.116  20.819  1.00  0.00     0.161 A 
ATOM     21  H19 UNL     1      36.817  -8.438  22.219  1.00  0.00     0.188 HD
HETATM   22  N20 UNL     1      38.072  -7.951  19.730  1.00  0.00    -0.079 NA
BRANCH  16  23
HETATM   23  C7  UNL     1      37.287  -3.894  22.547  1.00  0.00     0.288 C 
BRANCH  23  24
HETATM   24  O3  UNL     1      36.392  -3.686  23.618  1.00  0.00    -0.370 OA
ATOM     25  H3  UNL     1      36.020  -4.506  23.920  1.00  0.00     0.212 HD
ENDBRANCH  23  24
BRANCH  23  26
HETATM   26  N5  UNL     1      38.595  -3.489  23.055  1.00  0.00    -0.288 N 
ATOM     27  H5  UNL     1      38.878  -3.671  24.018  1.00  0.00     0.184 HD
BRANCH  26  28
HETATM   28  N6  UNL     1      39.438  -2.837  22.149  1.00  0.00    -0.131 N 
HETATM   29  C8  UNL     1      39.461  -1.569  21.989  1.00  0.00     0.737 C 
HETATM   30  N7  UNL     1      40.358  -1.019  21.041  1.00  0.00    -0.105 N 
HETATM   31  N12 UNL     1      38.593  -0.749  22.758  1.00  0.00    -0.050 N 
ATOM     32  H7  UNL     1      39.991  -0.360  20.354  1.00  0.00     0.208 HD
HETATM   33  N13 UNL     1      37.296  -0.642  22.784  1.00  0.00    -0.219 N 
HETATM   34  C13 UNL     1      39.070   0.139  23.678  1.00  0.00     0.180 A 
HETATM   35  N14 UNL     1      36.901   0.274  23.678  1.00  0.00    -0.278 N 
ATOM     36  H13 UNL     1      36.662  -1.185  22.199  1.00  0.00     0.209 HD
HETATM   37  C10 UNL     1      37.992   0.788  24.262  1.00  0.00     0.140 A 
ATOM     38  H14 UNL     1      35.936   0.535  23.880  1.00  0.00     0.189 HD
HETATM   39  C11 UNL     1      38.278   1.736  25.231  1.00  0.00     0.132 A 
HETATM   40  N16 UNL     1      39.543   2.010  25.585  1.00  0.00    -0.337 N 
HETATM   41  C12 UNL     1      40.572   1.377  25.013  1.00  0.00     0.183 A 
ATOM     42  H16 UNL     1      39.723   2.714  26.303  1.00  0.00     0.168 HD
HETATM   43  N17 UNL     1      40.314   0.452  24.069  1.00  0.00    -0.335 N 
ATOM     44  H17 UNL     1      41.098  -0.033  23.632  1.00  0.00     0.168 HD
ATOM     45  H6  UNL     1      40.071  -3.405  21.585  1.00  0.00     0.205 HD
BRANCH  30  46
HETATM   46  N8  UNL     1      41.716  -1.331  20.999  1.00  0.00    -0.161 N 
HETATM   47  C9  UNL     1      42.394  -1.879  19.955  1.00  0.00     0.246 A 
HETATM   48  N9  UNL     1      43.693  -2.035  20.287  1.00  0.00    -0.277 N 
HETATM   49  N10 UNL     1      43.803  -1.587  21.518  1.00  0.00    -0.226 N 
ATOM     50  H9  UNL     1      44.435  -2.421  19.703  1.00  0.00     0.189 HD
HETATM   51  N11 UNL     1      42.614  -1.163  21.950  1.00  0.00    -0.205 N 
ATOM     52  H10 UNL     1      44.666  -1.567  22.060  1.00  0.00     0.210 HD
ATOM     53  H11 UNL     1      42.428  -0.770  22.872  1.00  0.00     0.212 HD
ENDBRANCH  30  46
BRANCH  39  54
HETATM   54  N15 UNL     1      37.284   2.349  25.784  1.00  0.00    -0.383 N 
ATOM     55 2H15 UNL     1      36.693   1.880  26.470  1.00  0.00     0.157 HD
ATOM     56 1H15 UNL     1      37.112   3.316  25.511  1.00  0.00     0.157 HD
ENDBRANCH  39  54
ENDBRANCH  26  28
ENDBRANCH  23  26
ENDBRANCH  16  23
ENDBRANCH  13  15
ENDBRANCH  11  13
ENDBRANCH   9  11
ENDBRANCH   2   7
TORSDOF 11
ENDMDL
