MODEL 1
REMARK VINA RESULT: -6.823434344      0.000      0.000
REMARK  14 active torsions:
REMARK  status: ('A' for Active; 'I' for Inactive)
REMARK    1  A    between atoms: C2_2  and  C3_3 
REMARK    2  A    between atoms: C3_3  and  N1_4 
REMARK    3  A    between atoms: N1_4  and  C4_5 
REMARK    4  A    between atoms: N1_4  and  C9_25 
REMARK    5  A    between atoms: C4_5  and  C5_6 
REMARK    6  A    between atoms: C5_6  and  N2_7 
REMARK    7  A    between atoms: N2_7  and  O1_8 
REMARK    8  A    between atoms: N2_7  and  C6_10 
REMARK    9  A    between atoms: N4_13  and  N5_14 
REMARK   10  A    between atoms: C13_33  and  O4_34 
REMARK       I    between atoms: N11_36  and  C14_37 
REMARK       I    between atoms: C14_37  and  N14_43 
REMARK   11  A    between atoms: N12_38  and  N13_40 
REMARK   12  A    between atoms: N14_43  and  C15_45 
REMARK   13  A    between atoms: C15_45  and  N15_46 
REMARK   14  A    between atoms: C15_45  and  O5_50 
ROOT
HETATM    1  C9  UNL     1      38.925  -2.232  23.143  1.00  0.00     0.166 A 
HETATM    2  N10 UNL     1      37.994  -2.539  24.052  1.00  0.00    -0.240 N 
ATOM      3  H10 UNL     1      37.864  -3.457  24.474  1.00  0.00     0.196 HD
HETATM    4  O2  UNL     1      37.273  -1.472  24.317  1.00  0.00    -0.213 OA
HETATM    5  C10 UNL     1      37.680  -0.449  23.619  1.00  0.00     0.223 A 
HETATM    6  C11 UNL     1      38.759  -0.919  22.844  1.00  0.00     0.170 A 
HETATM    7  O3  UNL     1      39.491  -0.151  21.956  1.00  0.00    -0.339 OA
HETATM    8  C12 UNL     1      39.062   0.984  21.250  1.00  0.00     0.232 C 
HETATM    9  C13 UNL     1      38.799   2.187  22.125  1.00  0.00     0.283 C 
HETATM   10  N11 UNL     1      37.755   1.986  23.059  1.00  0.00    -0.089 N 
HETATM   11  C14 UNL     1      37.156   3.231  23.536  1.00  0.00     0.715 C 
HETATM   12  N12 UNL     1      36.470   3.931  22.772  1.00  0.00    -0.137 N 
ATOM     13  H12 UNL     1      36.392   3.538  21.833  1.00  0.00     0.205 HD
HETATM   14  N14 UNL     1      37.375   3.628  24.881  1.00  0.00    -0.172 N 
ATOM     15  H14 UNL     1      38.274   4.045  25.121  1.00  0.00     0.182 HD
HETATM   16  N16 UNL     1      37.148   0.866  23.636  1.00  0.00    -0.257 N 
ATOM     17  H16 UNL     1      36.254   1.005  24.105  1.00  0.00     0.190 HD
ENDROOT
BRANCH   1  18
HETATM   18  N1  UNL     1      39.903  -3.174  22.566  1.00  0.00    -0.342 N 
BRANCH  18  19
HETATM   19  C3  UNL     1      39.518  -3.696  21.308  1.00  0.00     0.129 C 
BRANCH  19  20
HETATM   20  C2  UNL     1      39.143  -5.121  21.189  1.00  0.00     0.016 C 
HETATM   21  C1  UNL     1      37.634  -5.311  21.500  1.00  0.00     0.006 C 
ENDBRANCH  19  20
ENDBRANCH  18  19
BRANCH  18  22
HETATM   22  C4  UNL     1      41.089  -3.347  23.318  1.00  0.00     0.088 C 
BRANCH  22  23
HETATM   23  C5  UNL     1      41.308  -4.482  24.223  1.00  0.00     0.202 C 
BRANCH  23  24
HETATM   24  N2  UNL     1      41.030  -4.359  25.605  1.00  0.00    -0.235 N 
BRANCH  24  25
HETATM   25  O1  UNL     1      39.854  -3.825  26.019  1.00  0.00    -0.285 OA
ATOM     26  H1  UNL     1      39.320  -4.284  26.657  1.00  0.00     0.245 HD
ENDBRANCH  24  25
BRANCH  24  27
HETATM   27  C6  UNL     1      41.947  -4.707  26.634  1.00  0.00     0.187 A 
HETATM   28  N3  UNL     1      41.946  -5.927  27.052  1.00  0.00    -0.245 N 
HETATM   29  N4  UNL     1      42.735  -6.540  28.051  1.00  0.00    -0.134 N 
ATOM     30  H3  UNL     1      41.274  -6.541  26.592  1.00  0.00     0.192 HD
HETATM   31  N6  UNL     1      43.815  -5.965  28.718  1.00  0.00    -0.237 N 
HETATM   32  C7  UNL     1      44.290  -4.760  28.719  1.00  0.00     0.211 A 
ATOM     33  H6  UNL     1      44.326  -6.614  29.317  1.00  0.00     0.193 HD
HETATM   34  N7  UNL     1      45.441  -4.523  29.540  1.00  0.00    -0.062 NA
HETATM   35  N8  UNL     1      43.773  -3.666  27.980  1.00  0.00    -0.315 N 
HETATM   36  C8  UNL     1      42.793  -3.630  27.104  1.00  0.00     0.166 A 
ATOM     37  H8  UNL     1      44.230  -2.772  28.155  1.00  0.00     0.170 HD
HETATM   38  N9  UNL     1      42.504  -2.366  26.520  1.00  0.00    -0.078 NA
BRANCH  29  39
HETATM   39  N5  UNL     1      42.364  -7.855  28.374  1.00  0.00    -0.309 N 
ATOM     40  H52 UNL     1      41.424  -8.173  28.137  1.00  0.00     0.180 HD
ATOM     41  H51 UNL     1      43.089  -8.405  28.836  1.00  0.00     0.180 HD
ENDBRANCH  29  39
ENDBRANCH  24  27
ENDBRANCH  23  24
ENDBRANCH  22  23
ENDBRANCH  18  22
ENDBRANCH   1  18
BRANCH   9  42
HETATM   42  O4  UNL     1      39.969   2.655  22.737  1.00  0.00    -0.372 OA
ATOM     43  H4  UNL     1      39.894   3.564  23.000  1.00  0.00     0.212 HD
ENDBRANCH   9  42
BRANCH  12  44
HETATM   44  N13 UNL     1      35.808   5.093  22.911  1.00  0.00    -0.331 N 
ATOM     45 2H13 UNL     1      34.797   4.958  22.869  1.00  0.00     0.177 HD
ATOM     46 1H13 UNL     1      36.097   6.062  23.048  1.00  0.00     0.177 HD
ENDBRANCH  12  44
BRANCH  14  47
HETATM   47  C15 UNL     1      36.401   3.472  25.920  1.00  0.00     0.438 C 
BRANCH  47  48
HETATM   48  N15 UNL     1      36.050   4.782  26.487  1.00  0.00    -0.034 N 
ATOM     49 3H15 UNL     1      36.694   5.513  26.186  1.00  0.00     0.279 HD
ATOM     50 2H15 UNL     1      35.194   5.158  26.078  1.00  0.00     0.279 HD
ATOM     51 1H15 UNL     1      35.991   4.722  27.504  1.00  0.00     0.279 HD
ENDBRANCH  47  48
BRANCH  47  52
HETATM   52  O5  UNL     1      35.198   2.943  25.441  1.00  0.00    -0.354 OA
ATOM     53  H5  UNL     1      34.452   3.487  25.664  1.00  0.00     0.213 HD
ENDBRANCH  47  52
ENDBRANCH  14  47
TORSDOF 14
ENDMDL
MODEL 2
REMARK VINA RESULT: -6.789576788      3.502      7.031
REMARK  14 active torsions:
REMARK  status: ('A' for Active; 'I' for Inactive)
REMARK    1  A    between atoms: C2_2  and  C3_3 
REMARK    2  A    between atoms: C3_3  and  N1_4 
REMARK    3  A    between atoms: N1_4  and  C4_5 
REMARK    4  A    between atoms: N1_4  and  C9_25 
REMARK    5  A    between atoms: C4_5  and  C5_6 
REMARK    6  A    between atoms: C5_6  and  N2_7 
REMARK    7  A    between atoms: N2_7  and  O1_8 
REMARK    8  A    between atoms: N2_7  and  C6_10 
REMARK    9  A    between atoms: N4_13  and  N5_14 
REMARK   10  A    between atoms: C13_33  and  O4_34 
REMARK       I    between atoms: N11_36  and  C14_37 
REMARK       I    between atoms: C14_37  and  N14_43 
REMARK   11  A    between atoms: N12_38  and  N13_40 
REMARK   12  A    between atoms: N14_43  and  C15_45 
REMARK   13  A    between atoms: C15_45  and  N15_46 
REMARK   14  A    between atoms: C15_45  and  O5_50 
ROOT
HETATM    1  C9  UNL     1      38.916  -2.257  23.150  1.00  0.00     0.166 A 
HETATM    2  N10 UNL     1      37.979  -2.562  24.054  1.00  0.00    -0.240 N 
ATOM      3  H10 UNL     1      37.844  -3.480  24.475  1.00  0.00     0.196 HD
HETATM    4  O2  UNL     1      37.259  -1.493  24.314  1.00  0.00    -0.213 OA
HETATM    5  C10 UNL     1      37.674  -0.472  23.619  1.00  0.00     0.223 A 
HETATM    6  C11 UNL     1      38.755  -0.944  22.851  1.00  0.00     0.170 A 
HETATM    7  O3  UNL     1      39.495  -0.178  21.966  1.00  0.00    -0.339 OA
HETATM    8  C12 UNL     1      39.072   0.958  21.258  1.00  0.00     0.232 C 
HETATM    9  C13 UNL     1      38.808   2.162  22.131  1.00  0.00     0.283 C 
HETATM   10  N11 UNL     1      37.758   1.963  23.059  1.00  0.00    -0.089 N 
HETATM   11  C14 UNL     1      37.160   3.211  23.533  1.00  0.00     0.715 C 
HETATM   12  N12 UNL     1      36.480   3.912  22.765  1.00  0.00    -0.137 N 
ATOM     13  H12 UNL     1      36.407   3.519  21.826  1.00  0.00     0.205 HD
HETATM   14  N14 UNL     1      37.373   3.606  24.880  1.00  0.00    -0.172 N 
ATOM     15  H14 UNL     1      38.272   4.021  25.124  1.00  0.00     0.182 HD
HETATM   16  N16 UNL     1      37.145   0.845  23.633  1.00  0.00    -0.257 N 
ATOM     17  H16 UNL     1      36.249   0.987  24.097  1.00  0.00     0.190 HD
ENDROOT
BRANCH   1  18
HETATM   18  N1  UNL     1      39.895  -3.202  22.579  1.00  0.00    -0.342 N 
BRANCH  18  19
HETATM   19  C3  UNL     1      40.585  -3.965  23.552  1.00  0.00     0.129 C 
BRANCH  19  20
HETATM   20  C2  UNL     1      41.376  -3.279  24.595  1.00  0.00     0.016 C 
HETATM   21  C1  UNL     1      41.020  -3.837  25.999  1.00  0.00     0.006 C 
ENDBRANCH  19  20
ENDBRANCH  18  19
BRANCH  18  22
HETATM   22  C4  UNL     1      39.936  -3.246  21.165  1.00  0.00     0.088 C 
BRANCH  22  23
HETATM   23  C5  UNL     1      39.827  -4.492  20.396  1.00  0.00     0.202 C 
BRANCH  23  24
HETATM   24  N2  UNL     1      40.210  -4.527  19.034  1.00  0.00    -0.235 N 
BRANCH  24  25
HETATM   25  O1  UNL     1      41.494  -4.797  18.693  1.00  0.00    -0.285 OA
ATOM     26  H1  UNL     1      41.780  -4.698  17.793  1.00  0.00     0.245 HD
ENDBRANCH  24  25
BRANCH  24  27
HETATM   27  C6  UNL     1      39.334  -4.228  17.955  1.00  0.00     0.187 A 
HETATM   28  N3  UNL     1      38.429  -5.097  17.658  1.00  0.00    -0.245 N 
HETATM   29  N4  UNL     1      37.442  -5.063  16.647  1.00  0.00    -0.134 N 
ATOM     30  H3  UNL     1      38.425  -5.934  18.240  1.00  0.00     0.192 HD
HETATM   31  N6  UNL     1      37.142  -3.982  15.821  1.00  0.00    -0.237 N 
HETATM   32  C7  UNL     1      37.717  -2.832  15.657  1.00  0.00     0.211 A 
ATOM     33  H6  UNL     1      36.317  -4.120  15.238  1.00  0.00     0.193 HD
HETATM   34  N7  UNL     1      37.118  -1.944  14.704  1.00  0.00    -0.062 NA
HETATM   35  N8  UNL     1      38.877  -2.382  16.337  1.00  0.00    -0.315 N 
HETATM   36  C8  UNL     1      39.564  -2.956  17.301  1.00  0.00     0.166 A 
ATOM     37  H8  UNL     1      39.233  -1.477  16.032  1.00  0.00     0.170 HD
HETATM   38  N9  UNL     1      40.696  -2.248  17.788  1.00  0.00    -0.078 NA
BRANCH  29  39
HETATM   39  N5  UNL     1      36.715  -6.254  16.490  1.00  0.00    -0.309 N 
ATOM     40  H52 UNL     1      37.201  -7.086  16.153  1.00  0.00     0.180 HD
ATOM     41  H51 UNL     1      35.726  -6.190  16.734  1.00  0.00     0.180 HD
ENDBRANCH  29  39
ENDBRANCH  24  27
ENDBRANCH  23  24
ENDBRANCH  22  23
ENDBRANCH  18  22
ENDBRANCH   1  18
BRANCH   9  42
HETATM   42  O4  UNL     1      39.976   2.626  22.750  1.00  0.00    -0.372 OA
ATOM     43  H4  UNL     1      40.128   2.201  23.585  1.00  0.00     0.212 HD
ENDBRANCH   9  42
BRANCH  12  44
HETATM   44  N13 UNL     1      35.821   5.076  22.901  1.00  0.00    -0.331 N 
ATOM     45 2H13 UNL     1      34.863   4.931  23.223  1.00  0.00     0.177 HD
ATOM     46 1H13 UNL     1      36.071   6.054  22.753  1.00  0.00     0.177 HD
ENDBRANCH  12  44
BRANCH  14  47
HETATM   47  C15 UNL     1      36.392   3.454  25.913  1.00  0.00     0.438 C 
BRANCH  47  48
HETATM   48  N15 UNL     1      36.043   4.764  26.479  1.00  0.00    -0.034 N 
ATOM     49 3H15 UNL     1      36.107   4.769  27.497  1.00  0.00     0.279 HD
ATOM     50 2H15 UNL     1      36.755   5.467  26.280  1.00  0.00     0.279 HD
ATOM     51 1H15 UNL     1      35.121   5.054  26.154  1.00  0.00     0.279 HD
ENDBRANCH  47  48
BRANCH  47  52
HETATM   52  O5  UNL     1      35.190   2.928  25.427  1.00  0.00    -0.354 OA
ATOM     53  H5  UNL     1      34.801   2.307  26.031  1.00  0.00     0.213 HD
ENDBRANCH  47  52
ENDBRANCH  14  47
TORSDOF 14
ENDMDL
MODEL 3
REMARK VINA RESULT: -6.697760678      1.266      1.779
REMARK  14 active torsions:
REMARK  status: ('A' for Active; 'I' for Inactive)
REMARK    1  A    between atoms: C2_2  and  C3_3 
REMARK    2  A    between atoms: C3_3  and  N1_4 
REMARK    3  A    between atoms: N1_4  and  C4_5 
REMARK    4  A    between atoms: N1_4  and  C9_25 
REMARK    5  A    between atoms: C4_5  and  C5_6 
REMARK    6  A    between atoms: C5_6  and  N2_7 
REMARK    7  A    between atoms: N2_7  and  O1_8 
REMARK    8  A    between atoms: N2_7  and  C6_10 
REMARK    9  A    between atoms: N4_13  and  N5_14 
REMARK   10  A    between atoms: C13_33  and  O4_34 
REMARK       I    between atoms: N11_36  and  C14_37 
REMARK       I    between atoms: C14_37  and  N14_43 
REMARK   11  A    between atoms: N12_38  and  N13_40 
REMARK   12  A    between atoms: N14_43  and  C15_45 
REMARK   13  A    between atoms: C15_45  and  N15_46 
REMARK   14  A    between atoms: C15_45  and  O5_50 
ROOT
HETATM    1  C9  UNL     1      39.128  -2.223  23.360  1.00  0.00     0.166 A 
HETATM    2  N10 UNL     1      38.095  -2.515  24.156  1.00  0.00    -0.240 N 
ATOM      3  H10 UNL     1      37.911  -3.428  24.572  1.00  0.00     0.196 HD
HETATM    4  O2  UNL     1      37.352  -1.443  24.320  1.00  0.00    -0.213 OA
HETATM    5  C10 UNL     1      37.845  -0.430  23.663  1.00  0.00     0.223 A 
HETATM    6  C11 UNL     1      39.005  -0.914  23.028  1.00  0.00     0.170 A 
HETATM    7  O3  UNL     1      39.842  -0.160  22.223  1.00  0.00    -0.339 OA
HETATM    8  C12 UNL     1      39.504   0.966  21.457  1.00  0.00     0.232 C 
HETATM    9  C13 UNL     1      39.146   2.182  22.278  1.00  0.00     0.283 C 
HETATM   10  N11 UNL     1      37.997   1.997  23.084  1.00  0.00    -0.089 N 
HETATM   11  C14 UNL     1      37.353   3.251  23.471  1.00  0.00     0.715 C 
HETATM   12  N12 UNL     1      36.765   3.942  22.622  1.00  0.00    -0.137 N 
ATOM     13  H12 UNL     1      36.798   3.537  21.686  1.00  0.00     0.205 HD
HETATM   14  N14 UNL     1      37.413   3.664  24.828  1.00  0.00    -0.172 N 
ATOM     15  H14 UNL     1      38.279   4.082  25.167  1.00  0.00     0.182 HD
HETATM   16  N16 UNL     1      37.321   0.887  23.599  1.00  0.00    -0.257 N 
ATOM     17  H16 UNL     1      36.378   1.035  23.958  1.00  0.00     0.190 HD
ENDROOT
BRANCH   1  18
HETATM   18  N1  UNL     1      40.163  -3.176  22.916  1.00  0.00    -0.342 N 
BRANCH  18  19
HETATM   19  C3  UNL     1      39.794  -3.926  21.773  1.00  0.00     0.129 C 
BRANCH  19  20
HETATM   20  C2  UNL     1      40.183  -3.451  20.427  1.00  0.00     0.016 C 
HETATM   21  C1  UNL     1      39.748  -4.475  19.346  1.00  0.00     0.006 C 
ENDBRANCH  19  20
ENDBRANCH  18  19
BRANCH  18  22
HETATM   22  C4  UNL     1      41.372  -3.138  23.649  1.00  0.00     0.088 C 
BRANCH  22  23
HETATM   23  C5  UNL     1      41.427  -3.211  25.115  1.00  0.00     0.202 C 
BRANCH  23  24
HETATM   24  N2  UNL     1      40.853  -4.310  25.798  1.00  0.00    -0.235 N 
BRANCH  24  25
HETATM   25  O1  UNL     1      39.602  -4.730  25.485  1.00  0.00    -0.285 OA
ATOM     26  H1  UNL     1      39.466  -5.325  24.757  1.00  0.00     0.245 HD
ENDBRANCH  24  25
BRANCH  24  27
HETATM   27  C6  UNL     1      41.485  -4.995  26.871  1.00  0.00     0.187 A 
HETATM   28  N3  UNL     1      41.381  -4.487  28.051  1.00  0.00    -0.245 N 
HETATM   29  N4  UNL     1      41.904  -4.946  29.281  1.00  0.00    -0.134 N 
ATOM     30  H3  UNL     1      40.841  -3.623  28.105  1.00  0.00     0.192 HD
HETATM   31  N6  UNL     1      42.546  -6.163  29.503  1.00  0.00    -0.237 N 
HETATM   32  C7  UNL     1      42.939  -7.094  28.693  1.00  0.00     0.211 A 
ATOM     33  H6  UNL     1      42.742  -6.356  30.485  1.00  0.00     0.193 HD
HETATM   34  N7  UNL     1      43.574  -8.235  29.284  1.00  0.00    -0.062 NA
HETATM   35  N8  UNL     1      42.794  -7.080  27.283  1.00  0.00    -0.315 N 
HETATM   36  C8  UNL     1      42.187  -6.208  26.507  1.00  0.00     0.166 A 
ATOM     37  H8  UNL     1      43.225  -7.865  26.796  1.00  0.00     0.170 HD
HETATM   38  N9  UNL     1      42.209  -6.471  25.111  1.00  0.00    -0.078 NA
BRANCH  29  39
HETATM   39  N5  UNL     1      41.741  -4.062  30.360  1.00  0.00    -0.309 N 
ATOM     40  H52 UNL     1      42.156  -4.305  31.261  1.00  0.00     0.180 HD
ATOM     41  H51 UNL     1      41.204  -3.220  30.150  1.00  0.00     0.180 HD
ENDBRANCH  29  39
ENDBRANCH  24  27
ENDBRANCH  23  24
ENDBRANCH  22  23
ENDBRANCH  18  22
ENDBRANCH   1  18
BRANCH   9  42
HETATM   42  O4  UNL     1      40.238   2.653  23.019  1.00  0.00    -0.372 OA
ATOM     43  H4  UNL     1      40.000   3.386  23.574  1.00  0.00     0.212 HD
ENDBRANCH   9  42
BRANCH  12  44
HETATM   44  N13 UNL     1      36.097   5.108  22.667  1.00  0.00    -0.331 N 
ATOM     45 2H13 UNL     1      35.109   4.968  22.880  1.00  0.00     0.177 HD
ATOM     46 1H13 UNL     1      36.365   6.084  22.536  1.00  0.00     0.177 HD
ENDBRANCH  12  44
BRANCH  14  47
HETATM   47  C15 UNL     1      36.321   3.526  25.745  1.00  0.00     0.438 C 
BRANCH  47  48
HETATM   48  N15 UNL     1      36.166   4.754  26.538  1.00  0.00    -0.034 N 
ATOM     49 3H15 UNL     1      35.474   4.644  27.279  1.00  0.00     0.279 HD
ATOM     50 2H15 UNL     1      36.983   4.937  27.121  1.00  0.00     0.279 HD
ATOM     51 1H15 UNL     1      35.949   5.542  25.928  1.00  0.00     0.279 HD
ENDBRANCH  47  48
BRANCH  47  52
HETATM   52  O5  UNL     1      35.098   3.352  25.089  1.00  0.00    -0.354 OA
ATOM     53  H5  UNL     1      34.719   4.177  24.812  1.00  0.00     0.213 HD
ENDBRANCH  47  52
ENDBRANCH  14  47
TORSDOF 14
ENDMDL
MODEL 4
REMARK VINA RESULT: -6.652375005      3.565      7.236
REMARK  14 active torsions:
REMARK  status: ('A' for Active; 'I' for Inactive)
REMARK    1  A    between atoms: C2_2  and  C3_3 
REMARK    2  A    between atoms: C3_3  and  N1_4 
REMARK    3  A    between atoms: N1_4  and  C4_5 
REMARK    4  A    between atoms: N1_4  and  C9_25 
REMARK    5  A    between atoms: C4_5  and  C5_6 
REMARK    6  A    between atoms: C5_6  and  N2_7 
REMARK    7  A    between atoms: N2_7  and  O1_8 
REMARK    8  A    between atoms: N2_7  and  C6_10 
REMARK    9  A    between atoms: N4_13  and  N5_14 
REMARK   10  A    between atoms: C13_33  and  O4_34 
REMARK       I    between atoms: N11_36  and  C14_37 
REMARK       I    between atoms: C14_37  and  N14_43 
REMARK   11  A    between atoms: N12_38  and  N13_40 
REMARK   12  A    between atoms: N14_43  and  C15_45 
REMARK   13  A    between atoms: C15_45  and  N15_46 
REMARK   14  A    between atoms: C15_45  and  O5_50 
ROOT
HETATM    1  C9  UNL     1      38.877  -2.436  23.148  1.00  0.00     0.166 A 
HETATM    2  N10 UNL     1      37.923  -2.721  24.041  1.00  0.00    -0.240 N 
ATOM      3  H10 UNL     1      37.762  -3.637  24.458  1.00  0.00     0.196 HD
HETATM    4  O2  UNL     1      37.226  -1.636  24.296  1.00  0.00    -0.213 OA
HETATM    5  C10 UNL     1      37.671  -0.623  23.608  1.00  0.00     0.223 A 
HETATM    6  C11 UNL     1      38.750  -1.118  22.851  1.00  0.00     0.170 A 
HETATM    7  O3  UNL     1      39.517  -0.368  21.977  1.00  0.00    -0.339 OA
HETATM    8  C12 UNL     1      39.129   0.780  21.267  1.00  0.00     0.232 C 
HETATM    9  C13 UNL     1      38.883   1.987  22.140  1.00  0.00     0.283 C 
HETATM   10  N11 UNL     1      37.818   1.811  23.056  1.00  0.00    -0.089 N 
HETATM   11  C14 UNL     1      37.244   3.071  23.527  1.00  0.00     0.715 C 
HETATM   12  N12 UNL     1      36.589   3.790  22.753  1.00  0.00    -0.137 N 
ATOM     13  H12 UNL     1      36.518   3.401  21.812  1.00  0.00     0.205 HD
HETATM   14  N14 UNL     1      37.451   3.458  24.877  1.00  0.00    -0.172 N 
ATOM     15  H14 UNL     1      38.357   3.851  25.133  1.00  0.00     0.182 HD
HETATM   16  N16 UNL     1      37.173   0.706  23.620  1.00  0.00    -0.257 N 
ATOM     17  H16 UNL     1      36.275   0.867  24.075  1.00  0.00     0.190 HD
ENDROOT
BRANCH   1  18
HETATM   18  N1  UNL     1      39.840  -3.402  22.585  1.00  0.00    -0.342 N 
BRANCH  18  19
HETATM   19  C3  UNL     1      40.733  -3.940  23.544  1.00  0.00     0.129 C 
BRANCH  19  20
HETATM   20  C2  UNL     1      41.530  -3.031  24.395  1.00  0.00     0.016 C 
HETATM   21  C1  UNL     1      41.329  -3.379  25.894  1.00  0.00     0.006 C 
ENDBRANCH  19  20
ENDBRANCH  18  19
BRANCH  18  22
HETATM   22  C4  UNL     1      39.674  -3.686  21.210  1.00  0.00     0.088 C 
BRANCH  22  23
HETATM   23  C5  UNL     1      38.882  -4.818  20.713  1.00  0.00     0.202 C 
BRANCH  23  24
HETATM   24  N2  UNL     1      39.174  -5.398  19.455  1.00  0.00    -0.235 N 
BRANCH  24  25
HETATM   25  O1  UNL     1      40.076  -6.406  19.362  1.00  0.00    -0.285 OA
ATOM     26  H1  UNL     1      39.842  -7.283  19.641  1.00  0.00     0.245 HD
ENDBRANCH  24  25
BRANCH  24  27
HETATM   27  C6  UNL     1      38.621  -4.947  18.226  1.00  0.00     0.187 A 
HETATM   28  N3  UNL     1      39.058  -3.835  17.743  1.00  0.00    -0.245 N 
HETATM   29  N4  UNL     1      38.690  -3.158  16.558  1.00  0.00    -0.134 N 
ATOM     30  H3  UNL     1      39.778  -3.375  18.299  1.00  0.00     0.192 HD
HETATM   31  N6  UNL     1      37.846  -3.640  15.560  1.00  0.00    -0.237 N 
HETATM   32  C7  UNL     1      37.107  -4.701  15.489  1.00  0.00     0.211 A 
ATOM     33  H6  UNL     1      37.802  -3.047  14.731  1.00  0.00     0.193 HD
HETATM   34  N7  UNL     1      36.357  -4.884  14.281  1.00  0.00    -0.062 NA
HETATM   35  N8  UNL     1      36.980  -5.691  16.497  1.00  0.00    -0.315 N 
HETATM   36  C8  UNL     1      37.608  -5.806  17.647  1.00  0.00     0.166 A 
ATOM     37  H8  UNL     1      36.300  -6.424  16.300  1.00  0.00     0.170 HD
HETATM   38  N9  UNL     1      37.263  -6.924  18.454  1.00  0.00    -0.078 NA
BRANCH  29  39
HETATM   39  N5  UNL     1      39.249  -1.878  16.410  1.00  0.00    -0.309 N 
ATOM     40  H52 UNL     1      39.114  -1.194  17.155  1.00  0.00     0.180 HD
ATOM     41  H51 UNL     1      39.761  -1.731  15.540  1.00  0.00     0.180 HD
ENDBRANCH  29  39
ENDBRANCH  24  27
ENDBRANCH  23  24
ENDBRANCH  22  23
ENDBRANCH  18  22
ENDBRANCH   1  18
BRANCH   9  42
HETATM   42  O4  UNL     1      40.055   2.422  22.773  1.00  0.00    -0.372 OA
ATOM     43  H4  UNL     1      39.961   3.297  23.131  1.00  0.00     0.212 HD
ENDBRANCH   9  42
BRANCH  12  44
HETATM   44  N13 UNL     1      35.955   4.968  22.885  1.00  0.00    -0.331 N 
ATOM     45 2H13 UNL     1      35.002   4.846  23.227  1.00  0.00     0.177 HD
ATOM     46 1H13 UNL     1      36.222   5.938  22.718  1.00  0.00     0.177 HD
ENDBRANCH  12  44
BRANCH  14  47
HETATM   47  C15 UNL     1      36.456   3.325  25.899  1.00  0.00     0.438 C 
BRANCH  47  48
HETATM   48  N15 UNL     1      36.132   4.642  26.466  1.00  0.00    -0.034 N 
ATOM     49 3H15 UNL     1      36.764   4.896  27.225  1.00  0.00     0.279 HD
ATOM     50 2H15 UNL     1      36.358   5.400  25.823  1.00  0.00     0.279 HD
ATOM     51 1H15 UNL     1      35.155   4.670  26.758  1.00  0.00     0.279 HD
ENDBRANCH  47  48
BRANCH  47  52
HETATM   52  O5  UNL     1      35.247   2.831  25.398  1.00  0.00    -0.354 OA
ATOM     53  H5  UNL     1      35.043   1.968  25.738  1.00  0.00     0.213 HD
ENDBRANCH  47  52
ENDBRANCH  14  47
TORSDOF 14
ENDMDL
MODEL 5
REMARK VINA RESULT: -6.641215091      1.495      1.569
REMARK  14 active torsions:
REMARK  status: ('A' for Active; 'I' for Inactive)
REMARK    1  A    between atoms: C2_2  and  C3_3 
REMARK    2  A    between atoms: C3_3  and  N1_4 
REMARK    3  A    between atoms: N1_4  and  C4_5 
REMARK    4  A    between atoms: N1_4  and  C9_25 
REMARK    5  A    between atoms: C4_5  and  C5_6 
REMARK    6  A    between atoms: C5_6  and  N2_7 
REMARK    7  A    between atoms: N2_7  and  O1_8 
REMARK    8  A    between atoms: N2_7  and  C6_10 
REMARK    9  A    between atoms: N4_13  and  N5_14 
REMARK   10  A    between atoms: C13_33  and  O4_34 
REMARK       I    between atoms: N11_36  and  C14_37 
REMARK       I    between atoms: C14_37  and  N14_43 
REMARK   11  A    between atoms: N12_38  and  N13_40 
REMARK   12  A    between atoms: N14_43  and  C15_45 
REMARK   13  A    between atoms: C15_45  and  N15_46 
REMARK   14  A    between atoms: C15_45  and  O5_50 
ROOT
HETATM    1  C9  UNL     1      38.031  -2.856  22.719  1.00  0.00     0.166 A 
HETATM    2  N10 UNL     1      36.724  -2.828  22.999  1.00  0.00    -0.240 N 
ATOM      3  H10 UNL     1      36.113  -3.643  23.037  1.00  0.00     0.196 HD
HETATM    4  O2  UNL     1      36.350  -1.587  23.218  1.00  0.00    -0.213 OA
HETATM    5  C10 UNL     1      37.358  -0.769  23.097  1.00  0.00     0.223 A 
HETATM    6  C11 UNL     1      38.468  -1.573  22.772  1.00  0.00     0.170 A 
HETATM    7  O3  UNL     1      39.751  -1.103  22.557  1.00  0.00    -0.339 OA
HETATM    8  C12 UNL     1      40.131   0.167  22.096  1.00  0.00     0.232 C 
HETATM    9  C13 UNL     1      39.852   1.284  23.073  1.00  0.00     0.283 C 
HETATM   10  N11 UNL     1      38.475   1.452  23.356  1.00  0.00    -0.089 N 
HETATM   11  C14 UNL     1      38.146   2.784  23.861  1.00  0.00     0.715 C 
HETATM   12  N12 UNL     1      38.214   3.774  23.113  1.00  0.00    -0.137 N 
ATOM     13  H12 UNL     1      38.512   3.538  22.165  1.00  0.00     0.205 HD
HETATM   14  N14 UNL     1      37.753   2.927  25.218  1.00  0.00    -0.172 N 
ATOM     15  H14 UNL     1      38.478   2.906  25.935  1.00  0.00     0.182 HD
HETATM   16  N16 UNL     1      37.341   0.641  23.259  1.00  0.00    -0.257 N 
ATOM     17  H16 UNL     1      36.430   1.097  23.309  1.00  0.00     0.190 HD
ENDROOT
BRANCH   1  18
HETATM   18  N1  UNL     1      38.810  -4.063  22.383  1.00  0.00    -0.342 N 
BRANCH  18  19
HETATM   19  C3  UNL     1      38.189  -4.891  21.417  1.00  0.00     0.129 C 
BRANCH  19  20
HETATM   20  C2  UNL     1      38.151  -6.355  21.620  1.00  0.00     0.016 C 
HETATM   21  C1  UNL     1      37.000  -6.737  22.587  1.00  0.00     0.006 C 
ENDBRANCH  19  20
ENDBRANCH  18  19
BRANCH  18  22
HETATM   22  C4  UNL     1      40.071  -4.163  23.017  1.00  0.00     0.088 C 
BRANCH  22  23
HETATM   23  C5  UNL     1      40.230  -4.346  24.465  1.00  0.00     0.202 C 
BRANCH  23  24
HETATM   24  N2  UNL     1      40.838  -3.337  25.250  1.00  0.00    -0.235 N 
BRANCH  24  25
HETATM   25  O1  UNL     1      40.695  -2.031  24.913  1.00  0.00    -0.285 OA
ATOM     26  H1  UNL     1      41.397  -1.575  24.465  1.00  0.00     0.245 HD
ENDBRANCH  24  25
BRANCH  24  27
HETATM   27  C6  UNL     1      41.670  -3.598  26.372  1.00  0.00     0.187 A 
HETATM   28  N3  UNL     1      41.109  -4.037  27.447  1.00  0.00    -0.245 N 
HETATM   29  N4  UNL     1      41.683  -4.371  28.694  1.00  0.00    -0.134 N 
ATOM     30  H3  UNL     1      40.098  -4.160  27.388  1.00  0.00     0.192 HD
HETATM   31  N6  UNL     1      43.044  -4.432  28.987  1.00  0.00    -0.237 N 
HETATM   32  C7  UNL     1      44.093  -4.099  28.303  1.00  0.00     0.211 A 
ATOM     33  H6  UNL     1      43.254  -4.809  29.911  1.00  0.00     0.193 HD
HETATM   34  N7  UNL     1      45.364  -4.308  28.930  1.00  0.00    -0.062 NA
HETATM   35  N8  UNL     1      44.087  -3.551  26.995  1.00  0.00    -0.315 N 
HETATM   36  C8  UNL     1      43.081  -3.336  26.176  1.00  0.00     0.166 A 
ATOM     37  H8  UNL     1      45.003  -3.282  26.635  1.00  0.00     0.170 HD
HETATM   38  N9  UNL     1      43.396  -2.768  24.911  1.00  0.00    -0.078 NA
BRANCH  29  39
HETATM   39  N5  UNL     1      40.760  -4.665  29.711  1.00  0.00    -0.309 N 
ATOM     40  H52 UNL     1      40.745  -5.607  30.104  1.00  0.00     0.180 HD
ATOM     41  H51 UNL     1      40.160  -3.886  29.985  1.00  0.00     0.180 HD
ENDBRANCH  29  39
ENDBRANCH  24  27
ENDBRANCH  23  24
ENDBRANCH  22  23
ENDBRANCH  18  22
ENDBRANCH   1  18
BRANCH   9  42
HETATM   42  O4  UNL     1      40.617   1.160  24.241  1.00  0.00    -0.372 OA
ATOM     43  H4  UNL     1      40.761   2.000  24.661  1.00  0.00     0.212 HD
ENDBRANCH   9  42
BRANCH  12  44
HETATM   44  N13 UNL     1      37.982   5.088  23.278  1.00  0.00    -0.331 N 
ATOM     45 2H13 UNL     1      37.053   5.351  22.948  1.00  0.00     0.177 HD
ATOM     46 1H13 UNL     1      38.528   5.862  23.658  1.00  0.00     0.177 HD
ENDBRANCH  12  44
BRANCH  14  47
HETATM   47  C15 UNL     1      36.392   3.098  25.633  1.00  0.00     0.438 C 
BRANCH  47  48
HETATM   48  N15 UNL     1      36.234   4.378  26.338  1.00  0.00    -0.034 N 
ATOM     49 3H15 UNL     1      35.706   4.273  27.204  1.00  0.00     0.279 HD
ATOM     50 2H15 UNL     1      37.114   4.705  26.737  1.00  0.00     0.279 HD
ATOM     51 1H15 UNL     1      35.816   5.072  25.719  1.00  0.00     0.279 HD
ENDBRANCH  47  48
BRANCH  47  52
HETATM   52  O5  UNL     1      35.513   3.162  24.547  1.00  0.00    -0.354 OA
ATOM     53  H5  UNL     1      34.885   3.869  24.636  1.00  0.00     0.213 HD
ENDBRANCH  47  52
ENDBRANCH  14  47
TORSDOF 14
ENDMDL
