MODEL 1
REMARK VINA RESULT: -5.785132857      0.000      0.000
REMARK  13 active torsions:
REMARK  status: ('A' for Active; 'I' for Inactive)
REMARK    1  A    between atoms: N1_1  and  N2_4 
REMARK    2  A    between atoms: N2_4  and  C1_6 
REMARK    3  A    between atoms: C1_6  and  O1_7 
REMARK    4  A    between atoms: C1_6  and  C2_9 
REMARK    5  A    between atoms: N6_16  and  C3_17 
REMARK    6  A    between atoms: C4_18  and  C5_19 
REMARK    7  A    between atoms: C5_19  and  O2_20 
REMARK    8  A    between atoms: C5_19  and  N7_22 
REMARK    9  A    between atoms: N7_22  and  C6_24 
REMARK   10  A    between atoms: C6_24  and  C7_25 
REMARK   11  A    between atoms: C9_30  and  C10_31 
REMARK   12  A    between atoms: N8_34  and  N9_35 
REMARK       I    between atoms: N9_35  and  C11_37 
REMARK   13  A    between atoms: N11_42  and  N12_43 
ROOT
HETATM    1  C3  UNL     1      38.945   2.116  23.057  1.00  0.00     0.185 A 
HETATM    2  C4  UNL     1      40.158   2.195  23.828  1.00  0.00     0.135 A 
HETATM    3  N8  UNL     1      40.786   3.336  23.573  1.00  0.00    -0.196 N 
HETATM    4  C12 UNL     1      39.980   3.997  22.650  1.00  0.00     0.368 A 
HETATM    5  O6  UNL     1      40.174   5.108  22.130  1.00  0.00    -0.243 OA
HETATM    6  N11 UNL     1      38.906   3.239  22.375  1.00  0.00    -0.190 N 
ENDROOT
BRANCH   1   7
HETATM    7  N6  UNL     1      38.042   1.040  23.143  1.00  0.00    -0.202 N 
HETATM    8  C2  UNL     1      37.117   0.870  24.073  1.00  0.00     0.173 A 
HETATM    9  N3  UNL     1      36.485  -0.324  23.808  1.00  0.00    -0.268 N 
HETATM   10  N4  UNL     1      37.037  -0.841  22.731  1.00  0.00    -0.226 N 
ATOM     11  H3  UNL     1      35.724  -0.736  24.350  1.00  0.00     0.190 HD
HETATM   12  N5  UNL     1      37.968  -0.028  22.330  1.00  0.00    -0.218 N 
ATOM     13  H4  UNL     1      36.779  -1.723  22.288  1.00  0.00     0.210 HD
ATOM     14  H5  UNL     1      38.559  -0.179  21.513  1.00  0.00     0.210 HD
BRANCH   8  15
HETATM   15  C1  UNL     1      36.744   1.696  25.206  1.00  0.00     0.304 C 
BRANCH  15  16
HETATM   16  N2  UNL     1      36.315   3.013  24.882  1.00  0.00    -0.307 N 
ATOM     17  H2  UNL     1      36.378   3.367  23.927  1.00  0.00     0.183 HD
BRANCH  16  18
HETATM   18  N1  UNL     1      35.812   3.797  25.899  1.00  0.00    -0.347 N 
ATOM     19  H12 UNL     1      35.480   3.365  26.762  1.00  0.00     0.176 HD
ATOM     20  H11 UNL     1      35.786   4.806  25.756  1.00  0.00     0.176 HD
ENDBRANCH  16  18
ENDBRANCH  15  16
BRANCH  15  21
HETATM   21  O1  UNL     1      37.642   1.645  26.278  1.00  0.00    -0.368 OA
ATOM     22  H1  UNL     1      37.457   0.949  26.899  1.00  0.00     0.212 HD
ENDBRANCH  15  21
ENDBRANCH   8  15
ENDBRANCH   1   7
BRANCH   2  23
HETATM   23  C5  UNL     1      40.476   1.087  24.731  1.00  0.00     0.271 C 
BRANCH  23  24
HETATM   24  O2  UNL     1      40.768   1.608  26.038  1.00  0.00    -0.371 OA
ATOM     25  H2  UNL     1      40.000   1.520  26.590  1.00  0.00     0.212 HD
ENDBRANCH  23  24
BRANCH  23  26
HETATM   26  N7  UNL     1      41.532   0.208  24.463  1.00  0.00    -0.388 N 
ATOM     27  H7  UNL     1      42.438   0.570  24.164  1.00  0.00     0.156 HD
BRANCH  26  28
HETATM   28  C6  UNL     1      41.332  -1.200  24.611  1.00  0.00     0.165 C 
BRANCH  28  29
HETATM   29  C7  UNL     1      40.845  -1.760  23.242  1.00  0.00     0.026 A 
HETATM   30  S1  UNL     1      41.573  -1.185  21.813  1.00  0.00    -0.053 SA
HETATM   31  S2  UNL     1      40.637  -2.549  20.566  1.00  0.00    -0.040 SA
HETATM   32  C8  UNL     1      39.789  -3.292  21.825  1.00  0.00     0.096 A 
HETATM   33  S3  UNL     1      38.782  -4.601  21.493  1.00  0.00    -0.070 SA
HETATM   34  C9  UNL     1      39.990  -2.801  23.090  1.00  0.00     0.084 A 
BRANCH  34  35
HETATM   35  C10 UNL     1      39.278  -3.384  24.277  1.00  0.00     0.212 C 
HETATM   36  O3  UNL     1      39.750  -4.336  24.929  1.00  0.00    -0.644 OA
HETATM   37  O4  UNL     1      38.059  -2.832  24.656  1.00  0.00    -0.644 OA
ENDBRANCH  34  35
ENDBRANCH  28  29
ENDBRANCH  26  28
ENDBRANCH  23  26
ENDBRANCH   2  23
BRANCH   6  38
HETATM   38  N12 UNL     1      37.873   3.588  21.483  1.00  0.00    -0.333 N 
ATOM     39 2H12 UNL     1      36.983   4.010  21.750  1.00  0.00     0.177 HD
ATOM     40 1H12 UNL     1      37.915   3.449  20.474  1.00  0.00     0.177 HD
ENDBRANCH   6  38
BRANCH   3  41
HETATM   41  N9  UNL     1      41.998   3.889  23.927  1.00  0.00    -0.243 N 
HETATM   42  C11 UNL     1      43.135   3.621  24.590  1.00  0.00     0.347 C 
HETATM   43  N10 UNL     1      44.235   4.600  24.708  1.00  0.00    -0.038 NA
HETATM   44  O5  UNL     1      43.509   2.583  25.220  1.00  0.00    -0.249 OA
ATOM     45  H9  UNL     1      42.050   4.836  23.554  1.00  0.00     0.192 HD
ENDBRANCH   3  41
TORSDOF 13
ENDMDL
MODEL 2
REMARK VINA RESULT: -5.696789746      8.090     10.589
REMARK  13 active torsions:
REMARK  status: ('A' for Active; 'I' for Inactive)
REMARK    1  A    between atoms: N1_1  and  N2_4 
REMARK    2  A    between atoms: N2_4  and  C1_6 
REMARK    3  A    between atoms: C1_6  and  O1_7 
REMARK    4  A    between atoms: C1_6  and  C2_9 
REMARK    5  A    between atoms: N6_16  and  C3_17 
REMARK    6  A    between atoms: C4_18  and  C5_19 
REMARK    7  A    between atoms: C5_19  and  O2_20 
REMARK    8  A    between atoms: C5_19  and  N7_22 
REMARK    9  A    between atoms: N7_22  and  C6_24 
REMARK   10  A    between atoms: C6_24  and  C7_25 
REMARK   11  A    between atoms: C9_30  and  C10_31 
REMARK   12  A    between atoms: N8_34  and  N9_35 
REMARK       I    between atoms: N9_35  and  C11_37 
REMARK   13  A    between atoms: N11_42  and  N12_43 
ROOT
HETATM    1  C3  UNL     1      38.773  -5.834  17.230  1.00  0.00     0.185 A 
HETATM    2  C4  UNL     1      38.023  -6.476  18.278  1.00  0.00     0.135 A 
HETATM    3  N8  UNL     1      38.242  -5.863  19.435  1.00  0.00    -0.196 N 
HETATM    4  C12 UNL     1      39.121  -4.826  19.136  1.00  0.00     0.368 A 
HETATM    5  O6  UNL     1      39.597  -3.985  19.917  1.00  0.00    -0.243 OA
HETATM    6  N11 UNL     1      39.406  -4.849  17.824  1.00  0.00    -0.190 N 
ENDROOT
BRANCH   1   7
HETATM    7  N6  UNL     1      38.715  -6.233  15.881  1.00  0.00    -0.202 N 
HETATM    8  C2  UNL     1      38.135  -5.569  14.896  1.00  0.00     0.173 A 
HETATM    9  N3  UNL     1      38.275  -6.326  13.754  1.00  0.00    -0.268 N 
HETATM   10  N4  UNL     1      38.934  -7.419  14.075  1.00  0.00    -0.226 N 
ATOM     11  H3  UNL     1      37.928  -6.084  12.825  1.00  0.00     0.190 HD
HETATM   12  N5  UNL     1      39.199  -7.367  15.345  1.00  0.00    -0.218 N 
ATOM     13  H4  UNL     1      39.191  -8.174  13.439  1.00  0.00     0.210 HD
ATOM     14  H5  UNL     1      39.704  -8.086  15.864  1.00  0.00     0.210 HD
BRANCH   8  15
HETATM   15  C1  UNL     1      37.446  -4.292  14.885  1.00  0.00     0.304 C 
BRANCH  15  16
HETATM   16  N2  UNL     1      36.579  -4.081  13.777  1.00  0.00    -0.307 N 
ATOM     17  H2  UNL     1      35.958  -4.820  13.448  1.00  0.00     0.183 HD
BRANCH  16  18
HETATM   18  N1  UNL     1      36.604  -2.846  13.163  1.00  0.00    -0.347 N 
ATOM     19  H12 UNL     1      36.521  -2.778  12.148  1.00  0.00     0.176 HD
ATOM     20  H11 UNL     1      36.707  -2.021  13.753  1.00  0.00     0.176 HD
ENDBRANCH  16  18
ENDBRANCH  15  16
BRANCH  15  21
HETATM   21  O1  UNL     1      38.262  -3.193  15.177  1.00  0.00    -0.368 OA
ATOM     22  H1  UNL     1      37.857  -2.561  15.761  1.00  0.00     0.212 HD
ENDBRANCH  15  21
ENDBRANCH   8  15
ENDBRANCH   1   7
BRANCH   2  23
HETATM   23  C5  UNL     1      37.174  -7.615  17.922  1.00  0.00     0.271 C 
BRANCH  23  24
HETATM   24  O2  UNL     1      36.236  -7.857  18.984  1.00  0.00    -0.371 OA
ATOM     25  H2  UNL     1      35.467  -7.314  18.853  1.00  0.00     0.212 HD
ENDBRANCH  23  24
BRANCH  23  26
HETATM   26  N7  UNL     1      37.721  -8.874  17.647  1.00  0.00    -0.388 N 
ATOM     27  H7  UNL     1      37.256  -9.504  16.993  1.00  0.00     0.156 HD
BRANCH  26  28
HETATM   28  C6  UNL     1      38.936  -9.270  18.290  1.00  0.00     0.165 C 
BRANCH  28  29
HETATM   29  C7  UNL     1      38.670 -10.618  19.023  1.00  0.00     0.026 A 
HETATM   30  S1  UNL     1      38.876 -12.075  18.165  1.00  0.00    -0.053 SA
HETATM   31  S2  UNL     1      38.638 -13.300  19.819  1.00  0.00    -0.040 SA
HETATM   32  C8  UNL     1      38.397 -12.010  20.883  1.00  0.00     0.096 A 
HETATM   33  S3  UNL     1      38.154 -12.315  22.522  1.00  0.00    -0.070 SA
HETATM   34  C9  UNL     1      38.441 -10.745  20.354  1.00  0.00     0.084 A 
BRANCH  34  35
HETATM   35  C10 UNL     1      38.229  -9.531  21.211  1.00  0.00     0.212 C 
HETATM   36  O3  UNL     1      39.180  -8.910  21.725  1.00  0.00    -0.644 OA
HETATM   37  O4  UNL     1      36.928  -9.089  21.426  1.00  0.00    -0.644 OA
ENDBRANCH  34  35
ENDBRANCH  28  29
ENDBRANCH  26  28
ENDBRANCH  23  26
ENDBRANCH   2  23
BRANCH   6  38
HETATM   38  N12 UNL     1      40.263  -3.945  17.163  1.00  0.00    -0.333 N 
ATOM     39 2H12 UNL     1      41.222  -3.736  17.439  1.00  0.00     0.177 HD
ATOM     40 1H12 UNL     1      40.001  -3.406  16.338  1.00  0.00     0.177 HD
ENDBRANCH   6  38
BRANCH   3  41
HETATM   41  N9  UNL     1      37.888  -6.091  20.747  1.00  0.00    -0.243 N 
HETATM   42  C11 UNL     1      37.406  -5.478  21.840  1.00  0.00     0.347 C 
HETATM   43  N10 UNL     1      37.177  -6.189  23.115  1.00  0.00    -0.038 NA
HETATM   44  O5  UNL     1      37.070  -4.268  22.039  1.00  0.00    -0.249 OA
ATOM     45  H9  UNL     1      38.052  -7.073  20.966  1.00  0.00     0.192 HD
ENDBRANCH   3  41
TORSDOF 13
ENDMDL
MODEL 3
REMARK VINA RESULT: -5.602626809      5.331      8.651
REMARK  13 active torsions:
REMARK  status: ('A' for Active; 'I' for Inactive)
REMARK    1  A    between atoms: N1_1  and  N2_4 
REMARK    2  A    between atoms: N2_4  and  C1_6 
REMARK    3  A    between atoms: C1_6  and  O1_7 
REMARK    4  A    between atoms: C1_6  and  C2_9 
REMARK    5  A    between atoms: N6_16  and  C3_17 
REMARK    6  A    between atoms: C4_18  and  C5_19 
REMARK    7  A    between atoms: C5_19  and  O2_20 
REMARK    8  A    between atoms: C5_19  and  N7_22 
REMARK    9  A    between atoms: N7_22  and  C6_24 
REMARK   10  A    between atoms: C6_24  and  C7_25 
REMARK   11  A    between atoms: C9_30  and  C10_31 
REMARK   12  A    between atoms: N8_34  and  N9_35 
REMARK       I    between atoms: N9_35  and  C11_37 
REMARK   13  A    between atoms: N11_42  and  N12_43 
ROOT
HETATM    1  C3  UNL     1      39.205  -5.146  18.014  1.00  0.00     0.185 A 
HETATM    2  C4  UNL     1      39.045  -5.095  19.444  1.00  0.00     0.135 A 
HETATM    3  N8  UNL     1      38.048  -5.886  19.819  1.00  0.00    -0.196 N 
HETATM    4  C12 UNL     1      37.569  -6.452  18.641  1.00  0.00     0.368 A 
HETATM    5  O6  UNL     1      36.637  -7.262  18.512  1.00  0.00    -0.243 OA
HETATM    6  N11 UNL     1      38.282  -5.986  17.603  1.00  0.00    -0.190 N 
ENDROOT
BRANCH   1   7
HETATM    7  N6  UNL     1      40.209  -4.444  17.322  1.00  0.00    -0.202 N 
HETATM    8  C2  UNL     1      40.054  -3.304  16.669  1.00  0.00     0.173 A 
HETATM    9  N3  UNL     1      41.270  -2.987  16.105  1.00  0.00    -0.268 N 
HETATM   10  N4  UNL     1      42.124  -3.934  16.432  1.00  0.00    -0.226 N 
ATOM     11  H3  UNL     1      41.473  -2.165  15.536  1.00  0.00     0.190 HD
HETATM   12  N5  UNL     1      41.493  -4.807  17.159  1.00  0.00    -0.218 N 
ATOM     13  H4  UNL     1      43.106  -3.976  16.162  1.00  0.00     0.210 HD
ATOM     14  H5  UNL     1      41.913  -5.649  17.552  1.00  0.00     0.210 HD
BRANCH   8  15
HETATM   15  C1  UNL     1      38.889  -2.457  16.495  1.00  0.00     0.304 C 
BRANCH  15  16
HETATM   16  N2  UNL     1      37.849  -3.013  15.700  1.00  0.00    -0.307 N 
ATOM     17  H2  UNL     1      37.689  -4.020  15.673  1.00  0.00     0.183 HD
BRANCH  16  18
HETATM   18  N1  UNL     1      37.065  -2.147  14.966  1.00  0.00    -0.347 N 
ATOM     19  H12 UNL     1      37.122  -1.142  15.130  1.00  0.00     0.176 HD
ATOM     20  H11 UNL     1      36.438  -2.546  14.268  1.00  0.00     0.176 HD
ENDBRANCH  16  18
ENDBRANCH  15  16
BRANCH  15  21
HETATM   21  O1  UNL     1      39.185  -1.125  16.184  1.00  0.00    -0.368 OA
ATOM     22  H1  UNL     1      40.109  -0.965  16.031  1.00  0.00     0.212 HD
ENDBRANCH  15  21
ENDBRANCH   8  15
ENDBRANCH   1   7
BRANCH   2  23
HETATM   23  C5  UNL     1      39.964  -4.252  20.212  1.00  0.00     0.271 C 
BRANCH  23  24
HETATM   24  O2  UNL     1      40.786  -5.085  21.048  1.00  0.00    -0.371 OA
ATOM     25  H2  UNL     1      41.681  -4.770  21.021  1.00  0.00     0.212 HD
ENDBRANCH  23  24
BRANCH  23  26
HETATM   26  N7  UNL     1      39.492  -3.254  21.071  1.00  0.00    -0.388 N 
ATOM     27  H7  UNL     1      38.709  -2.663  20.791  1.00  0.00     0.156 HD
BRANCH  26  28
HETATM   28  C6  UNL     1      40.114  -3.069  22.346  1.00  0.00     0.165 C 
BRANCH  28  29
HETATM   29  C7  UNL     1      39.790  -1.624  22.830  1.00  0.00     0.026 A 
HETATM   30  S1  UNL     1      40.942  -0.396  22.579  1.00  0.00    -0.053 SA
HETATM   31  S2  UNL     1      39.702   1.149  23.189  1.00  0.00    -0.040 SA
HETATM   32  C8  UNL     1      38.400   0.124  23.521  1.00  0.00     0.096 A 
HETATM   33  S3  UNL     1      36.945   0.776  24.068  1.00  0.00    -0.070 SA
HETATM   34  C9  UNL     1      38.583  -1.216  23.297  1.00  0.00     0.084 A 
BRANCH  34  35
HETATM   35  C10 UNL     1      37.493  -2.212  23.569  1.00  0.00     0.212 C 
HETATM   36  O3  UNL     1      37.358  -2.756  24.682  1.00  0.00    -0.644 OA
HETATM   37  O4  UNL     1      36.608  -2.524  22.543  1.00  0.00    -0.644 OA
ENDBRANCH  34  35
ENDBRANCH  28  29
ENDBRANCH  26  28
ENDBRANCH  23  26
ENDBRANCH   2  23
BRANCH   6  38
HETATM   38  N12 UNL     1      38.080  -6.342  16.254  1.00  0.00    -0.333 N 
ATOM     39 2H12 UNL     1      38.257  -5.736  15.453  1.00  0.00     0.177 HD
ATOM     40 1H12 UNL     1      37.732  -7.250  15.947  1.00  0.00     0.177 HD
ENDBRANCH   6  38
BRANCH   3  41
HETATM   41  N9  UNL     1      37.397  -6.148  21.006  1.00  0.00    -0.243 N 
HETATM   42  C11 UNL     1      37.526  -6.029  22.337  1.00  0.00     0.347 C 
HETATM   43  N10 UNL     1      36.485  -6.487  23.281  1.00  0.00    -0.038 NA
HETATM   44  O5  UNL     1      38.470  -5.557  23.046  1.00  0.00    -0.249 OA
ATOM     45  H9  UNL     1      36.500  -6.587  20.800  1.00  0.00     0.192 HD
ENDBRANCH   3  41
TORSDOF 13
ENDMDL
MODEL 4
REMARK VINA RESULT: -5.579251681      2.521      2.963
REMARK  13 active torsions:
REMARK  status: ('A' for Active; 'I' for Inactive)
REMARK    1  A    between atoms: N1_1  and  N2_4 
REMARK    2  A    between atoms: N2_4  and  C1_6 
REMARK    3  A    between atoms: C1_6  and  O1_7 
REMARK    4  A    between atoms: C1_6  and  C2_9 
REMARK    5  A    between atoms: N6_16  and  C3_17 
REMARK    6  A    between atoms: C4_18  and  C5_19 
REMARK    7  A    between atoms: C5_19  and  O2_20 
REMARK    8  A    between atoms: C5_19  and  N7_22 
REMARK    9  A    between atoms: N7_22  and  C6_24 
REMARK   10  A    between atoms: C6_24  and  C7_25 
REMARK   11  A    between atoms: C9_30  and  C10_31 
REMARK   12  A    between atoms: N8_34  and  N9_35 
REMARK       I    between atoms: N9_35  and  C11_37 
REMARK   13  A    between atoms: N11_42  and  N12_43 
ROOT
HETATM    1  C3  UNL     1      39.089   1.952  21.424  1.00  0.00     0.185 A 
HETATM    2  C4  UNL     1      40.447   1.634  21.779  1.00  0.00     0.135 A 
HETATM    3  N8  UNL     1      41.243   1.798  20.730  1.00  0.00    -0.196 N 
HETATM    4  C12 UNL     1      40.407   2.226  19.703  1.00  0.00     0.368 A 
HETATM    5  O6  UNL     1      40.721   2.507  18.535  1.00  0.00    -0.243 OA
HETATM    6  N11 UNL     1      39.146   2.302  20.159  1.00  0.00    -0.190 N 
ENDROOT
BRANCH   1   7
HETATM    7  N6  UNL     1      38.020   1.913  22.338  1.00  0.00    -0.202 N 
HETATM    8  C2  UNL     1      37.416   2.959  22.877  1.00  0.00     0.173 A 
HETATM    9  N3  UNL     1      36.458   2.478  23.742  1.00  0.00    -0.268 N 
HETATM   10  N4  UNL     1      36.504   1.163  23.701  1.00  0.00    -0.226 N 
ATOM     11  H3  UNL     1      35.826   3.041  24.312  1.00  0.00     0.190 HD
HETATM   12  N5  UNL     1      37.436   0.821  22.863  1.00  0.00    -0.218 N 
ATOM     13  H4  UNL     1      35.912   0.526  24.233  1.00  0.00     0.210 HD
ATOM     14  H5  UNL     1      37.689  -0.139  22.636  1.00  0.00     0.210 HD
BRANCH   8  15
HETATM   15  C1  UNL     1      37.628   4.382  22.689  1.00  0.00     0.304 C 
BRANCH  15  16
HETATM   16  N2  UNL     1      38.473   5.001  23.651  1.00  0.00    -0.307 N 
ATOM     17  H2  UNL     1      38.090   5.621  24.365  1.00  0.00     0.183 HD
BRANCH  16  18
HETATM   18  N1  UNL     1      39.825   4.738  23.589  1.00  0.00    -0.347 N 
ATOM     19  H12 UNL     1      40.414   4.889  24.408  1.00  0.00     0.176 HD
ATOM     20  H11 UNL     1      40.204   4.393  22.707  1.00  0.00     0.176 HD
ENDBRANCH  16  18
ENDBRANCH  15  16
BRANCH  15  21
HETATM   21  O1  UNL     1      36.464   5.108  22.411  1.00  0.00    -0.368 OA
ATOM     22  H1  UNL     1      35.671   4.584  22.441  1.00  0.00     0.212 HD
ENDBRANCH  15  21
ENDBRANCH   8  15
ENDBRANCH   1   7
BRANCH   2  23
HETATM   23  C5  UNL     1      40.723   1.230  23.160  1.00  0.00     0.271 C 
BRANCH  23  24
HETATM   24  O2  UNL     1      41.819   2.007  23.672  1.00  0.00    -0.371 OA
ATOM     25  H2  UNL     1      42.583   1.873  23.123  1.00  0.00     0.212 HD
ENDBRANCH  23  24
BRANCH  23  26
HETATM   26  N7  UNL     1      41.055  -0.092  23.480  1.00  0.00    -0.388 N 
ATOM     27  H7  UNL     1      42.009  -0.429  23.347  1.00  0.00     0.156 HD
BRANCH  26  28
HETATM   28  C6  UNL     1      40.047  -0.966  23.994  1.00  0.00     0.165 C 
BRANCH  28  29
HETATM   29  C7  UNL     1      39.891  -2.153  22.998  1.00  0.00     0.026 A 
HETATM   30  S1  UNL     1      41.260  -2.693  22.141  1.00  0.00    -0.053 SA
HETATM   31  S2  UNL     1      40.329  -4.357  21.332  1.00  0.00    -0.040 SA
HETATM   32  C8  UNL     1      38.846  -4.031  22.075  1.00  0.00     0.096 A 
HETATM   33  S3  UNL     1      37.551  -5.085  21.849  1.00  0.00    -0.070 SA
HETATM   34  C9  UNL     1      38.776  -2.914  22.868  1.00  0.00     0.084 A 
BRANCH  34  35
HETATM   35  C10 UNL     1      37.503  -2.530  23.565  1.00  0.00     0.212 C 
HETATM   36  O3  UNL     1      37.306  -2.782  24.770  1.00  0.00    -0.644 OA
HETATM   37  O4  UNL     1      36.522  -1.865  22.837  1.00  0.00    -0.644 OA
ENDBRANCH  34  35
ENDBRANCH  28  29
ENDBRANCH  26  28
ENDBRANCH  23  26
ENDBRANCH   2  23
BRANCH   6  38
HETATM   38  N12 UNL     1      38.030   2.703  19.397  1.00  0.00    -0.333 N 
ATOM     39 2H12 UNL     1      37.079   2.799  19.754  1.00  0.00     0.177 HD
ATOM     40 1H12 UNL     1      38.066   2.935  18.405  1.00  0.00     0.177 HD
ENDBRANCH   6  38
BRANCH   3  41
HETATM   41  N9  UNL     1      42.572   1.553  20.460  1.00  0.00    -0.243 N 
HETATM   42  C11 UNL     1      43.665   0.954  20.959  1.00  0.00     0.347 C 
HETATM   43  N10 UNL     1      44.965   0.956  20.255  1.00  0.00    -0.038 NA
HETATM   44  O5  UNL     1      43.846   0.315  22.043  1.00  0.00    -0.249 OA
ATOM     45  H9  UNL     1      42.810   1.977  19.563  1.00  0.00     0.192 HD
ENDBRANCH   3  41
TORSDOF 13
ENDMDL
MODEL 5
REMARK VINA RESULT: -5.545936461      1.169      1.192
REMARK  13 active torsions:
REMARK  status: ('A' for Active; 'I' for Inactive)
REMARK    1  A    between atoms: N1_1  and  N2_4 
REMARK    2  A    between atoms: N2_4  and  C1_6 
REMARK    3  A    between atoms: C1_6  and  O1_7 
REMARK    4  A    between atoms: C1_6  and  C2_9 
REMARK    5  A    between atoms: N6_16  and  C3_17 
REMARK    6  A    between atoms: C4_18  and  C5_19 
REMARK    7  A    between atoms: C5_19  and  O2_20 
REMARK    8  A    between atoms: C5_19  and  N7_22 
REMARK    9  A    between atoms: N7_22  and  C6_24 
REMARK   10  A    between atoms: C6_24  and  C7_25 
REMARK   11  A    between atoms: C9_30  and  C10_31 
REMARK   12  A    between atoms: N8_34  and  N9_35 
REMARK       I    between atoms: N9_35  and  C11_37 
REMARK   13  A    between atoms: N11_42  and  N12_43 
ROOT
HETATM    1  C3  UNL     1      39.051   2.334  22.626  1.00  0.00     0.185 A 
HETATM    2  C4  UNL     1      40.370   2.268  23.200  1.00  0.00     0.135 A 
HETATM    3  N8  UNL     1      41.178   3.121  22.582  1.00  0.00    -0.196 N 
HETATM    4  C12 UNL     1      40.385   3.741  21.619  1.00  0.00     0.368 A 
HETATM    5  O6  UNL     1      40.723   4.617  20.807  1.00  0.00    -0.243 OA
HETATM    6  N11 UNL     1      39.139   3.244  21.683  1.00  0.00    -0.190 N 
ENDROOT
BRANCH   1   7
HETATM    7  N6  UNL     1      37.964   1.575  23.098  1.00  0.00    -0.202 N 
HETATM    8  C2  UNL     1      36.938   2.033  23.796  1.00  0.00     0.173 A 
HETATM    9  N3  UNL     1      36.128   0.957  24.086  1.00  0.00    -0.268 N 
HETATM   10  N4  UNL     1      36.678  -0.115  23.557  1.00  0.00    -0.226 N 
ATOM     11  H3  UNL     1      35.256   0.987  24.617  1.00  0.00     0.190 HD
HETATM   12  N5  UNL     1      37.776   0.250  22.965  1.00  0.00    -0.218 N 
ATOM     13  H4  UNL     1      36.308  -1.064  23.603  1.00  0.00     0.210 HD
ATOM     14  H5  UNL     1      38.406  -0.379  22.470  1.00  0.00     0.210 HD
BRANCH   8  15
HETATM   15  C1  UNL     1      36.613   3.374  24.242  1.00  0.00     0.304 C 
BRANCH  15  16
HETATM   16  N2  UNL     1      35.831   3.446  25.427  1.00  0.00    -0.307 N 
ATOM     17  H2  UNL     1      35.078   2.781  25.602  1.00  0.00     0.183 HD
BRANCH  16  18
HETATM   18  N1  UNL     1      36.122   4.444  26.334  1.00  0.00    -0.347 N 
ATOM     19  H12 UNL     1      35.370   5.004  26.738  1.00  0.00     0.176 HD
ATOM     20  H11 UNL     1      37.100   4.597  26.579  1.00  0.00     0.176 HD
ENDBRANCH  16  18
ENDBRANCH  15  16
BRANCH  15  21
HETATM   21  O1  UNL     1      36.174   4.231  23.226  1.00  0.00    -0.368 OA
ATOM     22  H1  UNL     1      36.733   4.229  22.456  1.00  0.00     0.212 HD
ENDBRANCH  15  21
ENDBRANCH   8  15
ENDBRANCH   1   7
BRANCH   2  23
HETATM   23  C5  UNL     1      40.593   1.349  24.318  1.00  0.00     0.271 C 
BRANCH  23  24
HETATM   24  O2  UNL     1      41.074   2.090  25.452  1.00  0.00    -0.371 OA
ATOM     25  H2  UNL     1      41.414   1.484  26.100  1.00  0.00     0.212 HD
ENDBRANCH  23  24
BRANCH  23  26
HETATM   26  N7  UNL     1      41.475   0.268  24.208  1.00  0.00    -0.388 N 
ATOM     27  H7  UNL     1      42.448   0.424  23.943  1.00  0.00     0.156 HD
BRANCH  26  28
HETATM   28  C6  UNL     1      41.003  -1.056  24.469  1.00  0.00     0.165 C 
BRANCH  28  29
HETATM   29  C7  UNL     1      40.623  -1.705  23.105  1.00  0.00     0.026 A 
HETATM   30  S1  UNL     1      41.428  -1.188  21.697  1.00  0.00    -0.053 SA
HETATM   31  S2  UNL     1      40.613  -2.647  20.471  1.00  0.00    -0.040 SA
HETATM   32  C8  UNL     1      39.704  -3.344  21.713  1.00  0.00     0.096 A 
HETATM   33  S3  UNL     1      38.756  -4.699  21.392  1.00  0.00    -0.070 SA
HETATM   34  C9  UNL     1      39.807  -2.779  22.959  1.00  0.00     0.084 A 
BRANCH  34  35
HETATM   35  C10 UNL     1      39.034  -3.316  24.128  1.00  0.00     0.212 C 
HETATM   36  O3  UNL     1      39.435  -4.290  24.795  1.00  0.00    -0.644 OA
HETATM   37  O4  UNL     1      37.837  -2.696  24.473  1.00  0.00    -0.644 OA
ENDBRANCH  34  35
ENDBRANCH  28  29
ENDBRANCH  26  28
ENDBRANCH  23  26
ENDBRANCH   2  23
BRANCH   6  38
HETATM   38  N12 UNL     1      38.065   3.637  20.859  1.00  0.00    -0.333 N 
ATOM     39 2H12 UNL     1      38.071   4.438  20.228  1.00  0.00     0.177 HD
ATOM     40 1H12 UNL     1      37.169   3.153  20.817  1.00  0.00     0.177 HD
ENDBRANCH   6  38
BRANCH   3  41
HETATM   41  N9  UNL     1      42.525   3.407  22.631  1.00  0.00    -0.243 N 
HETATM   42  C11 UNL     1      43.654   3.093  23.286  1.00  0.00     0.347 C 
HETATM   43  N10 UNL     1      44.959   3.707  22.960  1.00  0.00    -0.038 NA
HETATM   44  O5  UNL     1      43.867   2.290  24.248  1.00  0.00    -0.249 OA
ATOM     45  H9  UNL     1      42.741   4.104  21.919  1.00  0.00     0.192 HD
ENDBRANCH   3  41
TORSDOF 13
ENDMDL
