MODEL 1
REMARK VINA RESULT: -7.496841981      0.000      0.000
REMARK  11 active torsions:
REMARK  status: ('A' for Active; 'I' for Inactive)
REMARK    1  A    between atoms: O1_2  and  C2_3 
REMARK    2  A    between atoms: C2_3  and  C3_5 
REMARK    3  A    between atoms: C3_5  and  O3_6 
REMARK    4  A    between atoms: O3_6  and  C4_7 
REMARK    5  A    between atoms: C4_7  and  N1_8 
REMARK    6  A    between atoms: N1_8  and  C5_9 
REMARK    7  A    between atoms: N1_8  and  C15_41 
REMARK    8  A    between atoms: C5_9  and  C6_10 
REMARK    9  A    between atoms: C12_23  and  N5_24 
REMARK   10  A    between atoms: C13_30  and  N10_31 
REMARK   11  A    between atoms: C17_47  and  N16_48 
ROOT
HETATM    1  C6  UNL     1      39.768  -4.328  21.595  1.00  0.00     0.044 A 
HETATM    2  C7  UNL     1      41.039  -3.825  21.772  1.00  0.00     0.116 A 
HETATM    3  N2  UNL     1      41.280  -2.659  22.398  1.00  0.00    -0.347 N 
ATOM      4  H2  UNL     1      42.234  -2.316  22.513  1.00  0.00     0.167 HD
HETATM    5  C8  UNL     1      40.230  -1.952  22.868  1.00  0.00     0.149 A 
HETATM    6  C9  UNL     1      38.933  -2.448  22.694  1.00  0.00     0.105 A 
HETATM    7  N3  UNL     1      38.708  -3.599  22.078  1.00  0.00    -0.352 N 
ATOM      8  H3  UNL     1      37.754  -3.942  21.964  1.00  0.00     0.166 HD
HETATM    9  C10 UNL     1      37.620  -1.900  23.068  1.00  0.00     0.059 C 
HETATM   10  N4  UNL     1      36.653  -2.774  22.880  1.00  0.00    -0.397 N 
ATOM     11  H41 UNL     1      35.743  -2.394  23.139  1.00  0.00     0.156 HD
ATOM     12  H42 UNL     1      37.006  -3.660  22.519  1.00  0.00     0.156 HD
HETATM   13  C11 UNL     1      37.116  -0.634  23.585  1.00  0.00     0.066 C 
HETATM   14  C12 UNL     1      37.667   0.442  24.123  1.00  0.00     0.097 C 
HETATM   15  C14 UNL     1      39.063   0.804  24.426  1.00  0.00     0.159 C 
HETATM   16  N11 UNL     1      39.147   1.991  25.176  1.00  0.00    -0.079 NA
HETATM   17  N12 UNL     1      40.224   0.301  24.159  1.00  0.00    -0.284 N 
ATOM     18  H12 UNL     1      40.969   0.870  24.562  1.00  0.00     0.188 HD
HETATM   19  N13 UNL     1      40.747  -0.789  23.481  1.00  0.00    -0.282 N 
ATOM     20  H13 UNL     1      41.763  -0.739  23.406  1.00  0.00     0.188 HD
ENDROOT
BRANCH   1  21
HETATM   21  C5  UNL     1      39.528  -5.598  20.895  1.00  0.00     0.201 C 
BRANCH  21  22
HETATM   22  N1  UNL     1      39.303  -5.533  19.478  1.00  0.00    -0.190 N 
BRANCH  22  23
HETATM   23  C4  UNL     1      39.996  -4.505  18.670  1.00  0.00     0.312 C 
BRANCH  23  24
HETATM   24  O3  UNL     1      39.114  -3.578  18.161  1.00  0.00    -0.362 OA
BRANCH  24  25
HETATM   25  C3  UNL     1      39.517  -2.947  17.000  1.00  0.00     0.281 C 
BRANCH  25  26
HETATM   26  C2  UNL     1      38.366  -2.710  16.073  1.00  0.00     0.282 C 
HETATM   27  O2  UNL     1      38.006  -1.545  15.787  1.00  0.00    -0.263 OA
BRANCH  26  28
HETATM   28  O1  UNL     1      37.665  -3.765  15.509  1.00  0.00    -0.325 OA
HETATM   29  C1  UNL     1      36.937  -3.731  14.304  1.00  0.00     0.213 C 
ENDBRANCH  26  28
ENDBRANCH  25  26
ENDBRANCH  24  25
ENDBRANCH  23  24
ENDBRANCH  22  23
BRANCH  22  30
HETATM   30  C15 UNL     1      38.435  -6.398  18.777  1.00  0.00     0.697 A 
HETATM   31  N14 UNL     1      37.671  -7.315  19.390  1.00  0.00    -0.187 N 
HETATM   32  C16 UNL     1      36.890  -8.107  18.653  1.00  0.00     0.215 A 
ATOM     33  H14 UNL     1      37.686  -7.405  20.405  1.00  0.00     0.185 HD
HETATM   34  N15 UNL     1      36.858  -7.997  17.311  1.00  0.00    -0.187 N 
HETATM   35  C17 UNL     1      37.608  -7.090  16.659  1.00  0.00     0.691 A 
ATOM     36  H15 UNL     1      36.250  -8.617  16.776  1.00  0.00     0.185 HD
HETATM   37  N17 UNL     1      38.390  -6.303  17.438  1.00  0.00    -0.022 N 
ATOM     38  H17 UNL     1      38.975  -5.602  16.983  1.00  0.00     0.203 HD
BRANCH  35  39
HETATM   39  N16 UNL     1      37.597  -6.964  15.383  1.00  0.00    -0.234 N 
ATOM     40 2H16 UNL     1      38.460  -6.985  14.842  1.00  0.00     0.174 HD
ATOM     41 1H16 UNL     1      36.739  -6.841  14.845  1.00  0.00     0.174 HD
ENDBRANCH  35  39
ENDBRANCH  22  30
ENDBRANCH  21  22
ENDBRANCH   1  21
BRANCH  14  42
HETATM   42  N5  UNL     1      36.765   1.485  24.500  1.00  0.00    -0.226 N 
HETATM   43  N6  UNL     1      36.254   1.400  25.810  1.00  0.00    -0.005 NA
HETATM   44  N7  UNL     1      35.178   2.274  25.897  1.00  0.00     0.005 NA
HETATM   45  N8  UNL     1      35.589   3.591  25.661  1.00  0.00    -0.013 NA
HETATM   46  N9  UNL     1      36.217   3.760  24.453  1.00  0.00    -0.275 N 
HETATM   47  C13 UNL     1      36.365   2.559  23.661  1.00  0.00     0.419 C 
ATOM     48  H9  UNL     1      36.555   4.669  24.136  1.00  0.00     0.181 HD
BRANCH  47  49
HETATM   49  N10 UNL     1      37.304   2.861  22.588  1.00  0.00    -0.038 N 
ATOM     50 3H10 UNL     1      38.243   2.551  22.838  1.00  0.00     0.279 HD
ATOM     51 2H10 UNL     1      37.132   2.259  21.783  1.00  0.00     0.279 HD
ATOM     52 1H10 UNL     1      37.315   3.840  22.305  1.00  0.00     0.279 HD
ENDBRANCH  47  49
ENDBRANCH  14  42
TORSDOF 11
ENDMDL
MODEL 2
REMARK VINA RESULT: -7.433973176      3.541      4.633
REMARK  11 active torsions:
REMARK  status: ('A' for Active; 'I' for Inactive)
REMARK    1  A    between atoms: O1_2  and  C2_3 
REMARK    2  A    between atoms: C2_3  and  C3_5 
REMARK    3  A    between atoms: C3_5  and  O3_6 
REMARK    4  A    between atoms: O3_6  and  C4_7 
REMARK    5  A    between atoms: C4_7  and  N1_8 
REMARK    6  A    between atoms: N1_8  and  C5_9 
REMARK    7  A    between atoms: N1_8  and  C15_41 
REMARK    8  A    between atoms: C5_9  and  C6_10 
REMARK    9  A    between atoms: C12_23  and  N5_24 
REMARK   10  A    between atoms: C13_30  and  N10_31 
REMARK   11  A    between atoms: C17_47  and  N16_48 
ROOT
HETATM    1  C6  UNL     1      40.681  -3.271  21.082  1.00  0.00     0.044 A 
HETATM    2  C7  UNL     1      41.778  -2.448  20.939  1.00  0.00     0.116 A 
HETATM    3  N2  UNL     1      41.821  -1.199  21.435  1.00  0.00    -0.347 N 
ATOM      4  H2  UNL     1      42.650  -0.617  21.313  1.00  0.00     0.167 HD
HETATM    5  C8  UNL     1      40.742  -0.733  22.100  1.00  0.00     0.149 A 
HETATM    6  C9  UNL     1      39.620  -1.555  22.252  1.00  0.00     0.105 A 
HETATM    7  N3  UNL     1      39.590  -2.784  21.761  1.00  0.00    -0.352 N 
ATOM      8  H3  UNL     1      38.761  -3.367  21.885  1.00  0.00     0.166 HD
HETATM    9  C10 UNL     1      38.316  -1.318  22.891  1.00  0.00     0.059 C 
HETATM   10  N4  UNL     1      37.603  -2.423  22.972  1.00  0.00    -0.397 N 
ATOM     11  H41 UNL     1      36.699  -2.259  23.414  1.00  0.00     0.156 HD
ATOM     12  H42 UNL     1      38.098  -3.225  22.582  1.00  0.00     0.156 HD
HETATM   13  C11 UNL     1      37.608  -0.173  23.448  1.00  0.00     0.066 C 
HETATM   14  C12 UNL     1      37.949   1.058  23.793  1.00  0.00     0.097 C 
HETATM   15  C14 UNL     1      39.228   1.790  23.749  1.00  0.00     0.159 C 
HETATM   16  N11 UNL     1      39.143   3.034  24.403  1.00  0.00    -0.079 NA
HETATM   17  N12 UNL     1      40.399   1.571  23.248  1.00  0.00    -0.284 N 
ATOM     18  H12 UNL     1      41.030   2.348  23.442  1.00  0.00     0.188 HD
HETATM   19  N13 UNL     1      41.043   0.581  22.522  1.00  0.00    -0.282 N 
ATOM     20  H13 UNL     1      41.969   0.877  22.213  1.00  0.00     0.188 HD
ENDROOT
BRANCH   1  21
HETATM   21  C5  UNL     1      40.652  -4.627  20.518  1.00  0.00     0.201 C 
BRANCH  21  22
HETATM   22  N1  UNL     1      40.505  -5.717  21.442  1.00  0.00    -0.190 N 
BRANCH  22  23
HETATM   23  C4  UNL     1      41.645  -6.118  22.296  1.00  0.00     0.312 C 
BRANCH  23  24
HETATM   24  O3  UNL     1      41.332  -6.035  23.634  1.00  0.00    -0.362 OA
BRANCH  24  25
HETATM   25  C3  UNL     1      41.649  -4.837  24.246  1.00  0.00     0.281 C 
BRANCH  25  26
HETATM   26  C2  UNL     1      40.469  -4.255  24.960  1.00  0.00     0.282 C 
HETATM   27  O2  UNL     1      39.316  -4.367  24.486  1.00  0.00    -0.263 OA
BRANCH  26  28
HETATM   28  O1  UNL     1      40.616  -3.574  26.159  1.00  0.00    -0.325 OA
HETATM   29  C1  UNL     1      41.478  -3.925  27.216  1.00  0.00     0.213 C 
ENDBRANCH  26  28
ENDBRANCH  25  26
ENDBRANCH  24  25
ENDBRANCH  23  24
ENDBRANCH  22  23
BRANCH  22  30
HETATM   30  C15 UNL     1      39.318  -6.467  21.594  1.00  0.00     0.697 A 
HETATM   31  N14 UNL     1      39.211  -7.747  21.207  1.00  0.00    -0.187 N 
HETATM   32  C16 UNL     1      38.048  -8.380  21.370  1.00  0.00     0.215 A 
ATOM     33  H14 UNL     1      40.009  -8.230  20.794  1.00  0.00     0.185 HD
HETATM   34  N15 UNL     1      36.988  -7.755  21.916  1.00  0.00    -0.187 N 
HETATM   35  C17 UNL     1      37.054  -6.473  22.319  1.00  0.00     0.691 A 
ATOM     36  H15 UNL     1      36.113  -8.267  22.028  1.00  0.00     0.185 HD
HETATM   37  N17 UNL     1      38.250  -5.860  22.138  1.00  0.00    -0.022 N 
ATOM     38  H17 UNL     1      38.343  -4.887  22.429  1.00  0.00     0.203 HD
BRANCH  35  39
HETATM   39  N16 UNL     1      36.061  -5.855  22.842  1.00  0.00    -0.234 N 
ATOM     40 2H16 UNL     1      35.794  -4.922  22.529  1.00  0.00     0.174 HD
ATOM     41 1H16 UNL     1      35.488  -6.253  23.586  1.00  0.00     0.174 HD
ENDBRANCH  35  39
ENDBRANCH  22  30
ENDBRANCH  21  22
ENDBRANCH   1  21
BRANCH  14  42
HETATM   42  N5  UNL     1      36.899   1.875  24.317  1.00  0.00    -0.226 N 
HETATM   43  N6  UNL     1      36.633   1.713  25.690  1.00  0.00    -0.005 NA
HETATM   44  N7  UNL     1      35.409   2.316  25.954  1.00  0.00     0.005 NA
HETATM   45  N8  UNL     1      35.460   3.685  25.665  1.00  0.00    -0.013 NA
HETATM   46  N9  UNL     1      35.834   3.959  24.374  1.00  0.00    -0.275 N 
HETATM   47  C13 UNL     1      36.133   2.801  23.560  1.00  0.00     0.419 C 
ATOM     48  H9  UNL     1      35.898   4.911  24.014  1.00  0.00     0.181 HD
BRANCH  47  49
HETATM   49  N10 UNL     1      36.797   3.281  22.353  1.00  0.00    -0.038 N 
ATOM     50 3H10 UNL     1      37.779   3.479  22.542  1.00  0.00     0.279 HD
ATOM     51 2H10 UNL     1      36.898   2.524  21.678  1.00  0.00     0.279 HD
ATOM     52 1H10 UNL     1      36.346   4.087  21.921  1.00  0.00     0.279 HD
ENDBRANCH  47  49
ENDBRANCH  14  42
TORSDOF 11
ENDMDL
MODEL 3
REMARK VINA RESULT: -7.426237595      0.935      1.627
REMARK  11 active torsions:
REMARK  status: ('A' for Active; 'I' for Inactive)
REMARK    1  A    between atoms: O1_2  and  C2_3 
REMARK    2  A    between atoms: C2_3  and  C3_5 
REMARK    3  A    between atoms: C3_5  and  O3_6 
REMARK    4  A    between atoms: O3_6  and  C4_7 
REMARK    5  A    between atoms: C4_7  and  N1_8 
REMARK    6  A    between atoms: N1_8  and  C5_9 
REMARK    7  A    between atoms: N1_8  and  C15_41 
REMARK    8  A    between atoms: C5_9  and  C6_10 
REMARK    9  A    between atoms: C12_23  and  N5_24 
REMARK   10  A    between atoms: C13_30  and  N10_31 
REMARK   11  A    between atoms: C17_47  and  N16_48 
ROOT
HETATM    1  C6  UNL     1      40.184  -4.083  21.791  1.00  0.00     0.044 A 
HETATM    2  C7  UNL     1      41.400  -3.435  21.764  1.00  0.00     0.116 A 
HETATM    3  N2  UNL     1      41.567  -2.180  22.221  1.00  0.00    -0.347 N 
ATOM      4  H2  UNL     1      42.482  -1.730  22.188  1.00  0.00     0.167 HD
HETATM    5  C8  UNL     1      40.495  -1.531  22.724  1.00  0.00     0.149 A 
HETATM    6  C9  UNL     1      39.253  -2.175  22.757  1.00  0.00     0.105 A 
HETATM    7  N3  UNL     1      39.101  -3.411  22.306  1.00  0.00    -0.352 N 
ATOM      8  H3  UNL     1      38.186  -3.861  22.340  1.00  0.00     0.166 HD
HETATM    9  C10 UNL     1      37.930  -1.721  23.213  1.00  0.00     0.059 C 
HETATM   10  N4  UNL     1      37.057  -2.706  23.236  1.00  0.00    -0.397 N 
ATOM     11  H41 UNL     1      36.139  -2.391  23.552  1.00  0.00     0.156 HD
ATOM     12  H42 UNL     1      37.471  -3.589  22.940  1.00  0.00     0.156 HD
HETATM   13  C11 UNL     1      37.338  -0.458  23.635  1.00  0.00     0.066 C 
HETATM   14  C12 UNL     1      37.813   0.727  23.982  1.00  0.00     0.097 C 
HETATM   15  C14 UNL     1      39.182   1.265  24.080  1.00  0.00     0.159 C 
HETATM   16  N11 UNL     1      39.202   2.540  24.676  1.00  0.00    -0.079 NA
HETATM   17  N12 UNL     1      40.360   0.854  23.742  1.00  0.00    -0.284 N 
ATOM     18  H12 UNL     1      41.070   1.542  23.991  1.00  0.00     0.188 HD
HETATM   19  N13 UNL     1      40.934  -0.254  23.138  1.00  0.00    -0.282 N 
ATOM     20  H13 UNL     1      41.925  -0.110  22.943  1.00  0.00     0.188 HD
ENDROOT
BRANCH   1  21
HETATM   21  C5  UNL     1      40.023  -5.449  21.273  1.00  0.00     0.201 C 
BRANCH  21  22
HETATM   22  N1  UNL     1      39.416  -5.590  19.979  1.00  0.00    -0.190 N 
BRANCH  22  23
HETATM   23  C4  UNL     1      39.848  -4.719  18.863  1.00  0.00     0.312 C 
BRANCH  23  24
HETATM   24  O3  UNL     1      38.781  -4.073  18.280  1.00  0.00    -0.362 OA
BRANCH  24  25
HETATM   25  C3  UNL     1      39.033  -3.504  17.046  1.00  0.00     0.281 C 
BRANCH  25  26
HETATM   26  C2  UNL     1      37.879  -3.687  16.109  1.00  0.00     0.282 C 
HETATM   27  O2  UNL     1      37.075  -4.634  16.264  1.00  0.00    -0.263 OA
BRANCH  26  28
HETATM   28  O1  UNL     1      37.669  -2.821  15.047  1.00  0.00    -0.325 OA
HETATM   29  C1  UNL     1      36.810  -3.038  13.953  1.00  0.00     0.213 C 
ENDBRANCH  26  28
ENDBRANCH  25  26
ENDBRANCH  24  25
ENDBRANCH  23  24
ENDBRANCH  22  23
BRANCH  22  30
HETATM   30  C15 UNL     1      38.397  -6.523  19.684  1.00  0.00     0.697 A 
HETATM   31  N14 UNL     1      37.984  -6.777  18.433  1.00  0.00    -0.187 N 
HETATM   32  C16 UNL     1      37.002  -7.660  18.240  1.00  0.00     0.215 A 
ATOM     33  H14 UNL     1      38.414  -6.302  17.640  1.00  0.00     0.185 HD
HETATM   34  N15 UNL     1      36.428  -8.297  19.278  1.00  0.00    -0.187 N 
HETATM   35  C17 UNL     1      36.815  -8.072  20.547  1.00  0.00     0.691 A 
ATOM     36  H15 UNL     1      35.680  -8.967  19.098  1.00  0.00     0.185 HD
HETATM   37  N17 UNL     1      37.812  -7.168  20.707  1.00  0.00    -0.022 N 
ATOM     38  H17 UNL     1      38.135  -6.967  21.653  1.00  0.00     0.203 HD
BRANCH  35  39
HETATM   39  N16 UNL     1      36.284  -8.664  21.552  1.00  0.00    -0.234 N 
ATOM     40 2H16 UNL     1      35.911  -8.136  22.341  1.00  0.00     0.174 HD
ATOM     41 1H16 UNL     1      36.204  -9.679  21.620  1.00  0.00     0.174 HD
ENDBRANCH  35  39
ENDBRANCH  22  30
ENDBRANCH  21  22
ENDBRANCH   1  21
BRANCH  14  42
HETATM   42  N5  UNL     1      36.839   1.712  24.337  1.00  0.00    -0.226 N 
HETATM   43  N6  UNL     1      36.441   1.709  25.688  1.00  0.00    -0.005 NA
HETATM   44  N7  UNL     1      35.290   2.481  25.787  1.00  0.00     0.005 NA
HETATM   45  N8  UNL     1      35.543   3.801  25.396  1.00  0.00    -0.013 NA
HETATM   46  N9  UNL     1      36.057   3.908  24.129  1.00  0.00    -0.275 N 
HETATM   47  C13 UNL     1      36.268   2.653  23.440  1.00  0.00     0.419 C 
ATOM     48  H9  UNL     1      36.275   4.808  23.701  1.00  0.00     0.181 HD
BRANCH  47  49
HETATM   49  N10 UNL     1      37.086   2.935  22.267  1.00  0.00    -0.038 N 
ATOM     50 3H10 UNL     1      37.405   3.904  22.280  1.00  0.00     0.279 HD
ATOM     51 2H10 UNL     1      37.984   2.456  22.336  1.00  0.00     0.279 HD
ATOM     52 1H10 UNL     1      36.634   2.719  21.379  1.00  0.00     0.279 HD
ENDBRANCH  47  49
ENDBRANCH  14  42
TORSDOF 11
ENDMDL
MODEL 4
REMARK VINA RESULT: -7.222996407      1.633      2.453
REMARK  11 active torsions:
REMARK  status: ('A' for Active; 'I' for Inactive)
REMARK    1  A    between atoms: O1_2  and  C2_3 
REMARK    2  A    between atoms: C2_3  and  C3_5 
REMARK    3  A    between atoms: C3_5  and  O3_6 
REMARK    4  A    between atoms: O3_6  and  C4_7 
REMARK    5  A    between atoms: C4_7  and  N1_8 
REMARK    6  A    between atoms: N1_8  and  C5_9 
REMARK    7  A    between atoms: N1_8  and  C15_41 
REMARK    8  A    between atoms: C5_9  and  C6_10 
REMARK    9  A    between atoms: C12_23  and  N5_24 
REMARK   10  A    between atoms: C13_30  and  N10_31 
REMARK   11  A    between atoms: C17_47  and  N16_48 
ROOT
HETATM    1  C6  UNL     1      40.430  -4.235  22.058  1.00  0.00     0.044 A 
HETATM    2  C7  UNL     1      41.641  -3.585  22.160  1.00  0.00     0.116 A 
HETATM    3  N2  UNL     1      41.764  -2.349  22.676  1.00  0.00    -0.347 N 
ATOM      4  H2  UNL     1      42.677  -1.898  22.739  1.00  0.00     0.167 HD
HETATM    5  C8  UNL     1      40.651  -1.721  23.111  1.00  0.00     0.149 A 
HETATM    6  C9  UNL     1      39.413  -2.366  23.013  1.00  0.00     0.105 A 
HETATM    7  N3  UNL     1      39.305  -3.583  22.503  1.00  0.00    -0.352 N 
ATOM      8  H3  UNL     1      38.392  -4.035  22.443  1.00  0.00     0.166 HD
HETATM    9  C10 UNL     1      38.054  -1.930  23.371  1.00  0.00     0.059 C 
HETATM   10  N4  UNL     1      37.186  -2.916  23.282  1.00  0.00    -0.397 N 
ATOM     11  H41 UNL     1      36.244  -2.614  23.530  1.00  0.00     0.156 HD
ATOM     12  H42 UNL     1      37.627  -3.787  22.989  1.00  0.00     0.156 HD
HETATM   13  C11 UNL     1      37.424  -0.685  23.789  1.00  0.00     0.066 C 
HETATM   14  C12 UNL     1      37.863   0.487  24.219  1.00  0.00     0.097 C 
HETATM   15  C14 UNL     1      39.216   1.021  24.455  1.00  0.00     0.159 C 
HETATM   16  N11 UNL     1      39.181   2.272  25.098  1.00  0.00    -0.079 NA
HETATM   17  N12 UNL     1      40.420   0.624  24.203  1.00  0.00    -0.284 N 
ATOM     18  H12 UNL     1      41.105   1.302  24.538  1.00  0.00     0.188 HD
HETATM   19  N13 UNL     1      41.048  -0.460  23.609  1.00  0.00    -0.282 N 
ATOM     20  H13 UNL     1      42.052  -0.308  23.505  1.00  0.00     0.188 HD
ENDROOT
BRANCH   1  21
HETATM   21  C5  UNL     1      40.319  -5.580  21.476  1.00  0.00     0.201 C 
BRANCH  21  22
HETATM   22  N1  UNL     1      39.121  -5.879  20.743  1.00  0.00    -0.190 N 
BRANCH  22  23
HETATM   23  C4  UNL     1      38.839  -5.174  19.473  1.00  0.00     0.312 C 
BRANCH  23  24
HETATM   24  O3  UNL     1      37.766  -5.726  18.812  1.00  0.00    -0.362 OA
BRANCH  24  25
HETATM   25  C3  UNL     1      37.998  -6.087  17.498  1.00  0.00     0.281 C 
BRANCH  25  26
HETATM   26  C2  UNL     1      37.363  -5.125  16.542  1.00  0.00     0.282 C 
HETATM   27  O2  UNL     1      36.361  -5.459  15.871  1.00  0.00    -0.263 OA
BRANCH  26  28
HETATM   28  O1  UNL     1      37.865  -3.844  16.368  1.00  0.00    -0.325 OA
HETATM   29  C1  UNL     1      37.378  -2.873  15.472  1.00  0.00     0.213 C 
ENDBRANCH  26  28
ENDBRANCH  25  26
ENDBRANCH  24  25
ENDBRANCH  23  24
ENDBRANCH  22  23
BRANCH  22  30
HETATM   30  C15 UNL     1      38.155  -6.820  21.162  1.00  0.00     0.697 A 
HETATM   31  N14 UNL     1      38.113  -8.077  20.696  1.00  0.00    -0.187 N 
HETATM   32  C16 UNL     1      37.157  -8.900  21.129  1.00  0.00     0.215 A 
ATOM     33  H14 UNL     1      38.805  -8.400  20.019  1.00  0.00     0.185 HD
HETATM   34  N15 UNL     1      36.239  -8.487  22.024  1.00  0.00    -0.187 N 
HETATM   35  C17 UNL     1      36.247  -7.236  22.517  1.00  0.00     0.691 A 
ATOM     36  H15 UNL     1      35.521  -9.140  22.337  1.00  0.00     0.185 HD
HETATM   37  N17 UNL     1      37.231  -6.426  22.055  1.00  0.00    -0.022 N 
ATOM     38  H17 UNL     1      37.273  -5.468  22.403  1.00  0.00     0.203 HD
BRANCH  35  39
HETATM   39  N16 UNL     1      35.386  -6.817  23.369  1.00  0.00    -0.234 N 
ATOM     40 2H16 UNL     1      35.660  -6.560  24.317  1.00  0.00     0.174 HD
ATOM     41 1H16 UNL     1      34.394  -6.717  23.152  1.00  0.00     0.174 HD
ENDBRANCH  35  39
ENDBRANCH  22  30
ENDBRANCH  21  22
ENDBRANCH   1  21
BRANCH  14  42
HETATM   42  N5  UNL     1      36.859   1.457  24.528  1.00  0.00    -0.226 N 
HETATM   43  N6  UNL     1      36.350   1.405  25.840  1.00  0.00    -0.005 NA
HETATM   44  N7  UNL     1      35.191   2.171  25.870  1.00  0.00     0.005 NA
HETATM   45  N8  UNL     1      35.470   3.505  25.549  1.00  0.00    -0.013 NA
HETATM   46  N9  UNL     1      36.086   3.658  24.333  1.00  0.00    -0.275 N 
HETATM   47  C13 UNL     1      36.359   2.429  23.621  1.00  0.00     0.419 C 
ATOM     48  H9  UNL     1      36.335   4.573  23.958  1.00  0.00     0.181 HD
BRANCH  47  49
HETATM   49  N10 UNL     1      37.271   2.754  22.531  1.00  0.00    -0.038 N 
ATOM     50 3H10 UNL     1      37.677   3.679  22.669  1.00  0.00     0.279 HD
ATOM     51 2H10 UNL     1      38.114   2.183  22.589  1.00  0.00     0.279 HD
ATOM     52 1H10 UNL     1      36.856   2.681  21.602  1.00  0.00     0.279 HD
ENDBRANCH  47  49
ENDBRANCH  14  42
TORSDOF 11
ENDMDL
MODEL 5
REMARK VINA RESULT: -7.142397218      1.077      1.859
REMARK  11 active torsions:
REMARK  status: ('A' for Active; 'I' for Inactive)
REMARK    1  A    between atoms: O1_2  and  C2_3 
REMARK    2  A    between atoms: C2_3  and  C3_5 
REMARK    3  A    between atoms: C3_5  and  O3_6 
REMARK    4  A    between atoms: O3_6  and  C4_7 
REMARK    5  A    between atoms: C4_7  and  N1_8 
REMARK    6  A    between atoms: N1_8  and  C5_9 
REMARK    7  A    between atoms: N1_8  and  C15_41 
REMARK    8  A    between atoms: C5_9  and  C6_10 
REMARK    9  A    between atoms: C12_23  and  N5_24 
REMARK   10  A    between atoms: C13_30  and  N10_31 
REMARK   11  A    between atoms: C17_47  and  N16_48 
ROOT
HETATM    1  C6  UNL     1      40.162  -3.991  21.604  1.00  0.00     0.044 A 
HETATM    2  C7  UNL     1      41.348  -3.305  21.457  1.00  0.00     0.116 A 
HETATM    3  N2  UNL     1      41.509  -2.033  21.866  1.00  0.00    -0.347 N 
ATOM      4  H2  UNL     1      42.402  -1.555  21.743  1.00  0.00     0.167 HD
HETATM    5  C8  UNL     1      40.462  -1.405  22.443  1.00  0.00     0.149 A 
HETATM    6  C9  UNL     1      39.250  -2.088  22.598  1.00  0.00     0.105 A 
HETATM    7  N3  UNL     1      39.104  -3.340  22.193  1.00  0.00    -0.352 N 
ATOM      8  H3  UNL     1      38.212  -3.819  22.318  1.00  0.00     0.166 HD
HETATM    9  C10 UNL     1      37.956  -1.665  23.154  1.00  0.00     0.059 C 
HETATM   10  N4  UNL     1      37.122  -2.677  23.278  1.00  0.00    -0.397 N 
ATOM     11  H41 UNL     1      36.225  -2.383  23.663  1.00  0.00     0.156 HD
ATOM     12  H42 UNL     1      37.541  -3.554  22.970  1.00  0.00     0.156 HD
HETATM   13  C11 UNL     1      37.358  -0.411  23.594  1.00  0.00     0.066 C 
HETATM   14  C12 UNL     1      37.819   0.799  23.869  1.00  0.00     0.097 C 
HETATM   15  C14 UNL     1      39.172   1.383  23.836  1.00  0.00     0.159 C 
HETATM   16  N11 UNL     1      39.199   2.675  24.395  1.00  0.00    -0.079 NA
HETATM   17  N12 UNL     1      40.331   1.002  23.408  1.00  0.00    -0.284 N 
ATOM     18  H12 UNL     1      41.036   1.719  23.578  1.00  0.00     0.188 HD
HETATM   19  N13 UNL     1      40.890  -0.103  22.786  1.00  0.00    -0.282 N 
ATOM     20  H13 UNL     1      41.855   0.067  22.502  1.00  0.00     0.188 HD
ENDROOT
BRANCH   1  21
HETATM   21  C5  UNL     1      40.005  -5.375  21.137  1.00  0.00     0.201 C 
BRANCH  21  22
HETATM   22  N1  UNL     1      39.315  -5.571  19.893  1.00  0.00    -0.190 N 
BRANCH  22  23
HETATM   23  C4  UNL     1      39.598  -4.681  18.745  1.00  0.00     0.312 C 
BRANCH  23  24
HETATM   24  O3  UNL     1      38.440  -4.225  18.157  1.00  0.00    -0.362 OA
BRANCH  24  25
HETATM   25  C3  UNL     1      38.448  -4.190  16.776  1.00  0.00     0.281 C 
BRANCH  25  26
HETATM   26  C2  UNL     1      38.641  -2.797  16.260  1.00  0.00     0.282 C 
HETATM   27  O2  UNL     1      37.668  -2.129  15.846  1.00  0.00    -0.263 OA
BRANCH  26  28
HETATM   28  O1  UNL     1      39.897  -2.211  16.223  1.00  0.00    -0.325 OA
HETATM   29  C1  UNL     1      40.345  -1.149  17.034  1.00  0.00     0.213 C 
ENDBRANCH  26  28
ENDBRANCH  25  26
ENDBRANCH  24  25
ENDBRANCH  23  24
ENDBRANCH  22  23
BRANCH  22  30
HETATM   30  C15 UNL     1      38.347  -6.577  19.678  1.00  0.00     0.697 A 
HETATM   31  N14 UNL     1      38.003  -7.007  18.454  1.00  0.00    -0.187 N 
HETATM   32  C16 UNL     1      37.066  -7.949  18.336  1.00  0.00     0.215 A 
ATOM     33  H14 UNL     1      38.452  -6.617  17.625  1.00  0.00     0.185 HD
HETATM   34  N15 UNL     1      36.467  -8.473  19.422  1.00  0.00    -0.187 N 
HETATM   35  C17 UNL     1      36.785  -8.072  20.666  1.00  0.00     0.691 A 
ATOM     36  H15 UNL     1      35.755  -9.192  19.298  1.00  0.00     0.185 HD
HETATM   37  N17 UNL     1      37.739  -7.112  20.750  1.00  0.00    -0.022 N 
ATOM     38  H17 UNL     1      38.009  -6.779  21.675  1.00  0.00     0.203 HD
BRANCH  35  39
HETATM   39  N16 UNL     1      36.231  -8.553  21.716  1.00  0.00    -0.234 N 
ATOM     40 2H16 UNL     1      35.732  -9.442  21.692  1.00  0.00     0.174 HD
ATOM     41 1H16 UNL     1      36.256  -8.084  22.622  1.00  0.00     0.174 HD
ENDBRANCH  35  39
ENDBRANCH  22  30
ENDBRANCH  21  22
ENDBRANCH   1  21
BRANCH  14  42
HETATM   42  N5  UNL     1      36.846   1.761  24.282  1.00  0.00    -0.226 N 
HETATM   43  N6  UNL     1      36.510   1.734  25.649  1.00  0.00    -0.005 NA
HETATM   44  N7  UNL     1      35.351   2.483  25.811  1.00  0.00     0.005 NA
HETATM   45  N8  UNL     1      35.563   3.812  25.427  1.00  0.00    -0.013 NA
HETATM   46  N9  UNL     1      36.016   3.945  24.139  1.00  0.00    -0.275 N 
HETATM   47  C13 UNL     1      36.217   2.703  23.425  1.00  0.00     0.419 C 
ATOM     48  H9  UNL     1      36.198   4.854  23.714  1.00  0.00     0.181 HD
BRANCH  47  49
HETATM   49  N10 UNL     1      36.976   3.015  22.220  1.00  0.00    -0.038 N 
ATOM     50 3H10 UNL     1      37.945   2.715  22.321  1.00  0.00     0.279 HD
ATOM     51 2H10 UNL     1      36.687   2.411  21.450  1.00  0.00     0.279 HD
ATOM     52 1H10 UNL     1      36.932   3.994  21.939  1.00  0.00     0.279 HD
ENDBRANCH  47  49
ENDBRANCH  14  42
TORSDOF 11
ENDMDL
