MODEL 1
REMARK VINA RESULT: -7.234453656      0.000      0.000
REMARK  12 active torsions:
REMARK  status: ('A' for Active; 'I' for Inactive)
REMARK    1  A    between atoms: O1_2  and  C2_3 
REMARK    2  A    between atoms: C3_4  and  O2_5 
REMARK    3  A    between atoms: C4_7  and  O3_8 
REMARK    4  A    between atoms: O3_8  and  C5_9 
REMARK    5  A    between atoms: C11_16  and  N1_17 
REMARK       I    between atoms: N1_17  and  C12_19 
REMARK    6  A    between atoms: C14_22  and  O6_23 
REMARK    7  A    between atoms: C15_25  and  O7_26 
REMARK    8  A    between atoms: O7_26  and  C16_27 
REMARK    9  A    between atoms: C17_28  and  N2_29 
REMARK   10  A    between atoms: C19_34  and  O8_35 
REMARK   11  A    between atoms: C20_37  and  C21_38 
REMARK   12  A    between atoms: C21_38  and  O9_39 
ROOT
HETATM    1  C2  UNL     1      -0.115  60.190  22.129  1.00  0.00     0.183 C 
HETATM    2  C3  UNL     1      -1.466  59.518  21.893  1.00  0.00     0.180 C 
HETATM    3  C4  UNL     1      -1.886  59.991  20.522  1.00  0.00     0.178 C 
HETATM    4  C11 UNL     1      -0.820  59.581  19.566  1.00  0.00     0.147 C 
HETATM    5  C14 UNL     1       0.255  58.694  20.160  1.00  0.00     0.175 C 
HETATM    6  C15 UNL     1       0.886  59.335  21.376  1.00  0.00     0.184 C 
ENDROOT
BRANCH   6   7
HETATM    7  O7  UNL     1       1.499  58.485  22.221  1.00  0.00    -0.373 OA
BRANCH   7   8
HETATM    8  C16 UNL     1       0.806  57.429  22.710  1.00  0.00     0.161 C 
HETATM    9  C17 UNL     1       1.155  57.074  24.166  1.00  0.00     0.215 C 
HETATM   10  C18 UNL     1       1.352  55.597  24.233  1.00  0.00     0.067 C 
HETATM   11  C19 UNL     1       0.811  55.092  22.927  1.00  0.00     0.129 C 
HETATM   12  C20 UNL     1       1.261  56.178  21.965  1.00  0.00     0.069 C 
BRANCH   9  13
HETATM   13  N2  UNL     1       0.073  57.424  25.065  1.00  0.00    -0.072 N 
ATOM     14  H23 UNL     1      -0.202  58.400  24.959  1.00  0.00     0.274 HD
ATOM     15  H22 UNL     1      -0.804  56.983  24.787  1.00  0.00     0.274 HD
ATOM     16  H21 UNL     1       0.312  57.207  26.033  1.00  0.00     0.274 HD
ENDBRANCH   9  13
BRANCH  11  17
HETATM   17  O8  UNL     1       1.370  53.860  22.603  1.00  0.00    -0.395 OA
ATOM     18  H8  UNL     1       1.540  53.800  21.670  1.00  0.00     0.210 HD
ENDBRANCH  11  17
BRANCH  12  19
HETATM   19  C21 UNL     1       2.752  56.197  21.895  1.00  0.00     0.173 C 
BRANCH  19  20
HETATM   20  O9  UNL     1       3.235  56.460  20.617  1.00  0.00    -0.400 OA
ATOM     21  H9  UNL     1       3.029  55.773  19.994  1.00  0.00     0.209 HD
ENDBRANCH  19  20
ENDBRANCH  12  19
ENDBRANCH   7   8
ENDBRANCH   6   7
BRANCH   1  22
HETATM   22  O1  UNL     1       0.148  60.357  23.459  1.00  0.00    -0.385 OA
HETATM   23  C1  UNL     1      -0.253  61.609  23.944  1.00  0.00     0.202 C 
ENDBRANCH   1  22
BRANCH   5  24
HETATM   24  O6  UNL     1       1.242  58.580  19.184  1.00  0.00    -0.391 OA
ATOM     25  H6  UNL     1       1.957  58.103  19.588  1.00  0.00     0.210 HD
ENDBRANCH   5  24
BRANCH   2  26
HETATM   26  O2  UNL     1      -2.380  59.863  22.878  1.00  0.00    -0.390 OA
ATOM     27  H2  UNL     1      -3.270  59.839  22.547  1.00  0.00     0.210 HD
ENDBRANCH   2  26
BRANCH   4  28
HETATM   28  N1  UNL     1      -0.233  60.706  18.862  1.00  0.00    -0.352 N 
HETATM   29  C12 UNL     1      -0.617  61.040  17.521  1.00  0.00     0.214 C 
HETATM   30  C13 UNL     1      -0.038  62.175  16.786  1.00  0.00     0.117 C 
HETATM   31  O5  UNL     1      -1.480  60.331  16.972  1.00  0.00    -0.274 OA
ATOM     32  H1  UNL     1       0.470  61.274  19.333  1.00  0.00     0.163 HD
ENDBRANCH   4  28
BRANCH   3  33
HETATM   33  O3  UNL     1      -3.156  59.559  20.179  1.00  0.00    -0.374 OA
BRANCH  33  34
HETATM   34  C5  UNL     1      -4.025  60.573  19.829  1.00  0.00     0.146 C 
HETATM   35  C6  UNL     1      -5.168  60.727  20.810  1.00  0.00     0.036 C 
HETATM   36  C7  UNL     1      -6.113  61.779  20.296  1.00  0.00     0.034 C 
HETATM   37  C8  UNL     1      -6.469  61.585  18.845  1.00  0.00     0.117 C 
HETATM   38  C9  UNL     1      -7.622  60.600  18.683  1.00  0.00     0.039 C 
HETATM   39  O4  UNL     1      -5.397  61.244  18.059  1.00  0.00    -0.384 OA
HETATM   40  C10 UNL     1      -4.667  60.164  18.500  1.00  0.00     0.200 C 
ENDBRANCH  33  34
ENDBRANCH   3  33
TORSDOF 12
ENDMDL
MODEL 2
REMARK VINA RESULT: -6.708079824      2.678      5.469
REMARK  12 active torsions:
REMARK  status: ('A' for Active; 'I' for Inactive)
REMARK    1  A    between atoms: O1_2  and  C2_3 
REMARK    2  A    between atoms: C3_4  and  O2_5 
REMARK    3  A    between atoms: C4_7  and  O3_8 
REMARK    4  A    between atoms: O3_8  and  C5_9 
REMARK    5  A    between atoms: C11_16  and  N1_17 
REMARK       I    between atoms: N1_17  and  C12_19 
REMARK    6  A    between atoms: C14_22  and  O6_23 
REMARK    7  A    between atoms: C15_25  and  O7_26 
REMARK    8  A    between atoms: O7_26  and  C16_27 
REMARK    9  A    between atoms: C17_28  and  N2_29 
REMARK   10  A    between atoms: C19_34  and  O8_35 
REMARK   11  A    between atoms: C20_37  and  C21_38 
REMARK   12  A    between atoms: C21_38  and  O9_39 
ROOT
HETATM    1  C2  UNL     1      -3.086  59.532  18.045  1.00  0.00     0.183 C 
HETATM    2  C3  UNL     1      -3.755  60.700  17.324  1.00  0.00     0.180 C 
HETATM    3  C4  UNL     1      -5.209  60.302  17.234  1.00  0.00     0.178 C 
HETATM    4  C11 UNL     1      -5.693  60.079  18.624  1.00  0.00     0.147 C 
HETATM    5  C14 UNL     1      -4.706  60.461  19.708  1.00  0.00     0.175 C 
HETATM    6  C15 UNL     1      -3.381  59.757  19.516  1.00  0.00     0.184 C 
ENDROOT
BRANCH   6   7
HETATM    7  O7  UNL     1      -2.328  60.341  20.117  1.00  0.00    -0.373 OA
BRANCH   7   8
HETATM    8  C16 UNL     1      -1.861  59.823  21.278  1.00  0.00     0.161 C 
HETATM    9  C17 UNL     1      -1.591  60.875  22.367  1.00  0.00     0.215 C 
HETATM   10  C18 UNL     1      -0.250  60.582  22.952  1.00  0.00     0.067 C 
HETATM   11  C19 UNL     1       0.086  59.212  22.438  1.00  0.00     0.129 C 
HETATM   12  C20 UNL     1      -0.462  59.270  21.022  1.00  0.00     0.069 C 
BRANCH   9  13
HETATM   13  N2  UNL     1      -2.573  60.794  23.431  1.00  0.00    -0.072 N 
ATOM     14  H23 UNL     1      -3.473  60.461  23.086  1.00  0.00     0.274 HD
ATOM     15  H22 UNL     1      -2.362  60.033  24.078  1.00  0.00     0.274 HD
ATOM     16  H21 UNL     1      -2.665  61.685  23.918  1.00  0.00     0.274 HD
ENDBRANCH   9  13
BRANCH  11  17
HETATM   17  O8  UNL     1       1.462  59.005  22.443  1.00  0.00    -0.395 OA
ATOM     18  H8  UNL     1       1.800  58.959  21.557  1.00  0.00     0.210 HD
ENDBRANCH  11  17
BRANCH  12  19
HETATM   19  C21 UNL     1       0.298  60.283  20.233  1.00  0.00     0.173 C 
BRANCH  19  20
HETATM   20  O9  UNL     1       1.298  59.721  19.444  1.00  0.00    -0.400 OA
ATOM     21  H9  UNL     1       1.028  59.585  18.544  1.00  0.00     0.209 HD
ENDBRANCH  19  20
ENDBRANCH  12  19
ENDBRANCH   7   8
ENDBRANCH   6   7
BRANCH   1  22
HETATM   22  O1  UNL     1      -1.761  59.426  17.728  1.00  0.00    -0.385 OA
HETATM   23  C1  UNL     1      -1.353  58.102  17.516  1.00  0.00     0.202 C 
ENDBRANCH   1  22
BRANCH   5  24
HETATM   24  O6  UNL     1      -5.254  60.007  20.905  1.00  0.00    -0.391 OA
ATOM     25  H6  UNL     1      -4.712  60.370  21.595  1.00  0.00     0.210 HD
ENDBRANCH   5  24
BRANCH   2  26
HETATM   26  O2  UNL     1      -3.185  60.916  16.078  1.00  0.00    -0.390 OA
ATOM     27  H2  UNL     1      -2.323  61.310  16.156  1.00  0.00     0.210 HD
ENDBRANCH   2  26
BRANCH   4  28
HETATM   28  N1  UNL     1      -6.200  58.735  18.834  1.00  0.00    -0.352 N 
HETATM   29  C12 UNL     1      -7.502  58.496  19.385  1.00  0.00     0.214 C 
HETATM   30  C13 UNL     1      -8.037  57.145  19.607  1.00  0.00     0.117 C 
HETATM   31  O5  UNL     1      -8.196  59.487  19.680  1.00  0.00    -0.274 OA
ATOM     32  H1  UNL     1      -5.614  57.939  18.583  1.00  0.00     0.163 HD
ENDBRANCH   4  28
BRANCH   3  33
HETATM   33  O3  UNL     1      -5.962  61.208  16.506  1.00  0.00    -0.374 OA
BRANCH  33  34
HETATM   34  C5  UNL     1      -7.117  61.621  17.137  1.00  0.00     0.146 C 
HETATM   35  C6  UNL     1      -8.367  61.059  16.493  1.00  0.00     0.036 C 
HETATM   36  C7  UNL     1      -9.573  61.643  17.179  1.00  0.00     0.034 C 
HETATM   37  C8  UNL     1      -9.489  63.139  17.335  1.00  0.00     0.117 C 
HETATM   38  C9  UNL     1      -9.970  63.855  16.077  1.00  0.00     0.039 C 
HETATM   39  O4  UNL     1      -8.250  63.580  17.726  1.00  0.00    -0.384 OA
HETATM   40  C10 UNL     1      -7.200  63.140  16.954  1.00  0.00     0.200 C 
ENDBRANCH  33  34
ENDBRANCH   3  33
TORSDOF 12
ENDMDL
MODEL 3
REMARK VINA RESULT: -6.419503926      2.107      2.849
REMARK  12 active torsions:
REMARK  status: ('A' for Active; 'I' for Inactive)
REMARK    1  A    between atoms: O1_2  and  C2_3 
REMARK    2  A    between atoms: C3_4  and  O2_5 
REMARK    3  A    between atoms: C4_7  and  O3_8 
REMARK    4  A    between atoms: O3_8  and  C5_9 
REMARK    5  A    between atoms: C11_16  and  N1_17 
REMARK       I    between atoms: N1_17  and  C12_19 
REMARK    6  A    between atoms: C14_22  and  O6_23 
REMARK    7  A    between atoms: C15_25  and  O7_26 
REMARK    8  A    between atoms: O7_26  and  C16_27 
REMARK    9  A    between atoms: C17_28  and  N2_29 
REMARK   10  A    between atoms: C19_34  and  O8_35 
REMARK   11  A    between atoms: C20_37  and  C21_38 
REMARK   12  A    between atoms: C21_38  and  O9_39 
ROOT
HETATM    1  C2  UNL     1      -2.438  60.454  21.195  1.00  0.00     0.183 C 
HETATM    2  C3  UNL     1      -3.723  59.789  20.706  1.00  0.00     0.180 C 
HETATM    3  C4  UNL     1      -3.935  60.355  19.322  1.00  0.00     0.178 C 
HETATM    4  C11 UNL     1      -2.726  60.023  18.518  1.00  0.00     0.147 C 
HETATM    5  C14 UNL     1      -1.738  59.105  19.209  1.00  0.00     0.175 C 
HETATM    6  C15 UNL     1      -1.316  59.663  20.550  1.00  0.00     0.184 C 
ENDROOT
BRANCH   6   7
HETATM    7  O7  UNL     1      -0.825  58.760  21.419  1.00  0.00    -0.373 OA
BRANCH   7   8
HETATM    8  C16 UNL     1       0.510  58.527  21.443  1.00  0.00     0.161 C 
HETATM    9  C17 UNL     1       0.911  57.141  20.909  1.00  0.00     0.215 C 
HETATM   10  C18 UNL     1       1.883  56.552  21.876  1.00  0.00     0.067 C 
HETATM   11  C19 UNL     1       2.269  57.703  22.760  1.00  0.00     0.129 C 
HETATM   12  C20 UNL     1       0.949  58.441  22.902  1.00  0.00     0.069 C 
BRANCH   9  13
HETATM   13  N2  UNL     1       1.567  57.245  19.620  1.00  0.00    -0.072 N 
ATOM     14  H23 UNL     1       1.026  57.813  18.969  1.00  0.00     0.274 HD
ATOM     15  H22 UNL     1       2.407  57.822  19.673  1.00  0.00     0.274 HD
ATOM     16  H21 UNL     1       1.769  56.323  19.234  1.00  0.00     0.274 HD
ENDBRANCH   9  13
BRANCH  11  17
HETATM   17  O8  UNL     1       2.733  57.248  23.990  1.00  0.00    -0.395 OA
ATOM     18  H8  UNL     1       3.574  56.816  23.895  1.00  0.00     0.210 HD
ENDBRANCH  11  17
BRANCH  12  19
HETATM   19  C21 UNL     1      -0.030  57.580  23.629  1.00  0.00     0.173 C 
BRANCH  19  20
HETATM   20  O9  UNL     1       0.076  57.684  25.013  1.00  0.00    -0.400 OA
ATOM     21  H9  UNL     1      -0.487  58.355  25.379  1.00  0.00     0.209 HD
ENDBRANCH  19  20
ENDBRANCH  12  19
ENDBRANCH   7   8
ENDBRANCH   6   7
BRANCH   1  22
HETATM   22  O1  UNL     1      -2.387  60.527  22.558  1.00  0.00    -0.385 OA
HETATM   23  C1  UNL     1      -3.179  61.559  23.081  1.00  0.00     0.202 C 
ENDBRANCH   1  22
BRANCH   5  24
HETATM   24  O6  UNL     1      -0.611  59.069  18.393  1.00  0.00    -0.391 OA
ATOM     25  H6  UNL     1       0.096  59.443  18.906  1.00  0.00     0.210 HD
ENDBRANCH   5  24
BRANCH   2  26
HETATM   26  O2  UNL     1      -4.785  60.055  21.558  1.00  0.00    -0.390 OA
ATOM     27  H2  UNL     1      -5.614  60.036  21.094  1.00  0.00     0.210 HD
ENDBRANCH   2  26
BRANCH   4  28
HETATM   28  N1  UNL     1      -2.059  61.201  17.993  1.00  0.00    -0.352 N 
HETATM   29  C12 UNL     1      -2.221  61.615  16.630  1.00  0.00     0.214 C 
HETATM   30  C13 UNL     1      -1.556  62.803  16.074  1.00  0.00     0.117 C 
HETATM   31  O5  UNL     1      -2.960  60.929  15.900  1.00  0.00    -0.274 OA
ATOM     32  H1  UNL     1      -1.460  61.748  18.610  1.00  0.00     0.163 HD
ENDBRANCH   4  28
BRANCH   3  33
HETATM   33  O3  UNL     1      -5.128  59.938  18.756  1.00  0.00    -0.374 OA
BRANCH  33  34
HETATM   34  C5  UNL     1      -5.899  60.961  18.241  1.00  0.00     0.146 C 
HETATM   35  C6  UNL     1      -6.966  61.430  19.206  1.00  0.00     0.036 C 
HETATM   36  C7  UNL     1      -7.818  62.467  18.524  1.00  0.00     0.034 C 
HETATM   37  C8  UNL     1      -8.267  62.042  17.150  1.00  0.00     0.117 C 
HETATM   38  C9  UNL     1      -9.527  61.185  17.219  1.00  0.00     0.039 C 
HETATM   39  O4  UNL     1      -7.280  61.435  16.415  1.00  0.00    -0.384 OA
HETATM   40  C10 UNL     1      -6.649  60.382  17.037  1.00  0.00     0.200 C 
ENDBRANCH  33  34
ENDBRANCH   3  33
TORSDOF 12
ENDMDL
MODEL 4
REMARK VINA RESULT: -6.336940012      2.341      5.147
REMARK  12 active torsions:
REMARK  status: ('A' for Active; 'I' for Inactive)
REMARK    1  A    between atoms: O1_2  and  C2_3 
REMARK    2  A    between atoms: C3_4  and  O2_5 
REMARK    3  A    between atoms: C4_7  and  O3_8 
REMARK    4  A    between atoms: O3_8  and  C5_9 
REMARK    5  A    between atoms: C11_16  and  N1_17 
REMARK       I    between atoms: N1_17  and  C12_19 
REMARK    6  A    between atoms: C14_22  and  O6_23 
REMARK    7  A    between atoms: C15_25  and  O7_26 
REMARK    8  A    between atoms: O7_26  and  C16_27 
REMARK    9  A    between atoms: C17_28  and  N2_29 
REMARK   10  A    between atoms: C19_34  and  O8_35 
REMARK   11  A    between atoms: C20_37  and  C21_38 
REMARK   12  A    between atoms: C21_38  and  O9_39 
ROOT
HETATM    1  C2  UNL     1       0.724  58.056  18.278  1.00  0.00     0.183 C 
HETATM    2  C3  UNL     1       1.336  59.389  17.850  1.00  0.00     0.180 C 
HETATM    3  C4  UNL     1       0.169  60.181  17.311  1.00  0.00     0.178 C 
HETATM    4  C11 UNL     1      -0.836  60.289  18.405  1.00  0.00     0.147 C 
HETATM    5  C14 UNL     1      -0.371  59.759  19.746  1.00  0.00     0.175 C 
HETATM    6  C15 UNL     1       0.103  58.327  19.636  1.00  0.00     0.184 C 
ENDROOT
BRANCH   6   7
HETATM    7  O7  UNL     1       0.931  57.919  20.615  1.00  0.00    -0.373 OA
BRANCH   7   8
HETATM    8  C16 UNL     1       0.411  57.307  21.706  1.00  0.00     0.161 C 
HETATM    9  C17 UNL     1       0.565  58.113  23.007  1.00  0.00     0.215 C 
HETATM   10  C18 UNL     1       1.066  57.178  24.057  1.00  0.00     0.067 C 
HETATM   11  C19 UNL     1       0.888  55.815  23.453  1.00  0.00     0.129 C 
HETATM   12  C20 UNL     1       1.253  56.070  22.001  1.00  0.00     0.069 C 
BRANCH   9  13
HETATM   13  N2  UNL     1      -0.709  58.645  23.449  1.00  0.00    -0.072 N 
ATOM     14  H23 UNL     1      -1.482  58.275  22.897  1.00  0.00     0.274 HD
ATOM     15  H22 UNL     1      -0.974  58.272  24.361  1.00  0.00     0.274 HD
ATOM     16  H21 UNL     1      -0.703  59.665  23.449  1.00  0.00     0.274 HD
ENDBRANCH   9  13
BRANCH  11  17
HETATM   17  O8  UNL     1       1.751  54.897  24.042  1.00  0.00    -0.395 OA
ATOM     18  H8  UNL     1       2.168  55.269  24.810  1.00  0.00     0.210 HD
ENDBRANCH  11  17
BRANCH  12  19
HETATM   19  C21 UNL     1       2.691  56.456  21.907  1.00  0.00     0.173 C 
BRANCH  19  20
HETATM   20  O9  UNL     1       3.180  56.426  20.604  1.00  0.00    -0.400 OA
ATOM     21  H9  UNL     1       3.988  56.913  20.499  1.00  0.00     0.209 HD
ENDBRANCH  19  20
ENDBRANCH  12  19
ENDBRANCH   7   8
ENDBRANCH   6   7
BRANCH   1  22
HETATM   22  O1  UNL     1       1.637  57.041  18.250  1.00  0.00    -0.385 OA
HETATM   23  C1  UNL     1       1.086  55.819  17.840  1.00  0.00     0.202 C 
ENDBRANCH   1  22
BRANCH   5  24
HETATM   24  O6  UNL     1      -1.492  59.770  20.572  1.00  0.00    -0.391 OA
ATOM     25  H6  UNL     1      -1.184  60.040  21.429  1.00  0.00     0.210 HD
ENDBRANCH   5  24
BRANCH   2  26
HETATM   26  O2  UNL     1       2.335  59.204  16.906  1.00  0.00    -0.390 OA
ATOM     27  H2  UNL     1       3.198  59.252  17.302  1.00  0.00     0.210 HD
ENDBRANCH   2  26
BRANCH   4  28
HETATM   28  N1  UNL     1      -2.124  59.727  18.043  1.00  0.00    -0.352 N 
HETATM   29  C12 UNL     1      -3.120  60.500  17.359  1.00  0.00     0.214 C 
HETATM   30  C13 UNL     1      -4.431  59.953  16.981  1.00  0.00     0.117 C 
HETATM   31  O5  UNL     1      -2.845  61.681  17.079  1.00  0.00    -0.274 OA
ATOM     32  H1  UNL     1      -2.326  58.756  18.280  1.00  0.00     0.163 HD
ENDBRANCH   4  28
BRANCH   3  33
HETATM   33  O3  UNL     1       0.558  61.396  16.772  1.00  0.00    -0.374 OA
BRANCH  33  34
HETATM   34  C5  UNL     1       0.200  61.571  15.450  1.00  0.00     0.146 C 
HETATM   35  C6  UNL     1      -0.359  60.310  14.825  1.00  0.00     0.036 C 
HETATM   36  C7  UNL     1      -0.623  60.565  13.366  1.00  0.00     0.034 C 
HETATM   37  C8  UNL     1       0.538  61.226  12.669  1.00  0.00     0.117 C 
HETATM   38  C9  UNL     1       1.567  60.198  12.210  1.00  0.00     0.039 C 
HETATM   39  O4  UNL     1       1.118  62.230  13.404  1.00  0.00    -0.384 OA
HETATM   40  C10 UNL     1       1.489  61.882  14.682  1.00  0.00     0.200 C 
ENDBRANCH  33  34
ENDBRANCH   3  33
TORSDOF 12
ENDMDL
MODEL 5
REMARK VINA RESULT: -6.258034084      2.076      2.799
REMARK  12 active torsions:
REMARK  status: ('A' for Active; 'I' for Inactive)
REMARK    1  A    between atoms: O1_2  and  C2_3 
REMARK    2  A    between atoms: C3_4  and  O2_5 
REMARK    3  A    between atoms: C4_7  and  O3_8 
REMARK    4  A    between atoms: O3_8  and  C5_9 
REMARK    5  A    between atoms: C11_16  and  N1_17 
REMARK       I    between atoms: N1_17  and  C12_19 
REMARK    6  A    between atoms: C14_22  and  O6_23 
REMARK    7  A    between atoms: C15_25  and  O7_26 
REMARK    8  A    between atoms: O7_26  and  C16_27 
REMARK    9  A    between atoms: C17_28  and  N2_29 
REMARK   10  A    between atoms: C19_34  and  O8_35 
REMARK   11  A    between atoms: C20_37  and  C21_38 
REMARK   12  A    between atoms: C21_38  and  O9_39 
ROOT
HETATM    1  C2  UNL     1      -1.725  60.343  21.347  1.00  0.00     0.183 C 
HETATM    2  C3  UNL     1      -3.198  60.077  21.044  1.00  0.00     0.180 C 
HETATM    3  C4  UNL     1      -3.428  60.728  19.702  1.00  0.00     0.178 C 
HETATM    4  C11 UNL     1      -2.480  60.102  18.738  1.00  0.00     0.147 C 
HETATM    5  C14 UNL     1      -1.704  58.923  19.289  1.00  0.00     0.175 C 
HETATM    6  C15 UNL     1      -0.966  59.295  20.555  1.00  0.00     0.184 C 
ENDROOT
BRANCH   6   7
HETATM    7  O7  UNL     1      -0.633  58.262  21.351  1.00  0.00    -0.373 OA
BRANCH   7   8
HETATM    8  C16 UNL     1       0.657  57.851  21.393  1.00  0.00     0.161 C 
HETATM    9  C17 UNL     1       0.845  56.353  21.096  1.00  0.00     0.215 C 
HETATM   10  C18 UNL     1       1.766  55.802  22.133  1.00  0.00     0.067 C 
HETATM   11  C19 UNL     1       2.339  57.018  22.803  1.00  0.00     0.129 C 
HETATM   12  C20 UNL     1       1.138  57.947  22.838  1.00  0.00     0.069 C 
BRANCH   9  13
HETATM   13  N2  UNL     1       1.458  56.148  19.798  1.00  0.00    -0.072 N 
ATOM     14  H23 UNL     1       1.691  55.168  19.644  1.00  0.00     0.274 HD
ATOM     15  H22 UNL     1       0.784  56.270  19.042  1.00  0.00     0.274 HD
ATOM     16  H21 UNL     1       2.272  56.750  19.675  1.00  0.00     0.274 HD
ENDBRANCH   9  13
BRANCH  11  17
HETATM   17  O8  UNL     1       2.786  56.713  24.084  1.00  0.00    -0.395 OA
ATOM     18  H8  UNL     1       3.120  57.489  24.519  1.00  0.00     0.210 HD
ENDBRANCH  11  17
BRANCH  12  19
HETATM   19  C21 UNL     1       0.081  57.365  23.717  1.00  0.00     0.173 C 
BRANCH  19  20
HETATM   20  O9  UNL     1       0.181  57.784  25.040  1.00  0.00    -0.400 OA
ATOM     21  H9  UNL     1      -0.353  57.271  25.634  1.00  0.00     0.209 HD
ENDBRANCH  19  20
ENDBRANCH  12  19
ENDBRANCH   7   8
ENDBRANCH   6   7
BRANCH   1  22
HETATM   22  O1  UNL     1      -1.472  60.351  22.689  1.00  0.00    -0.385 OA
HETATM   23  C1  UNL     1      -0.368  61.144  23.033  1.00  0.00     0.202 C 
ENDBRANCH   1  22
BRANCH   5  24
HETATM   24  O6  UNL     1      -0.752  58.605  18.323  1.00  0.00    -0.391 OA
ATOM     25  H6  UNL     1      -0.502  59.428  17.921  1.00  0.00     0.210 HD
ENDBRANCH   5  24
BRANCH   2  26
HETATM   26  O2  UNL     1      -4.018  60.597  22.035  1.00  0.00    -0.390 OA
ATOM     27  H2  UNL     1      -4.360  61.449  21.789  1.00  0.00     0.210 HD
ENDBRANCH   2  26
BRANCH   4  28
HETATM   28  N1  UNL     1      -1.589  61.067  18.120  1.00  0.00    -0.352 N 
HETATM   29  C12 UNL     1      -1.739  61.465  16.751  1.00  0.00     0.214 C 
HETATM   30  C13 UNL     1      -0.849  62.439  16.102  1.00  0.00     0.117 C 
HETATM   31  O5  UNL     1      -2.669  60.955  16.099  1.00  0.00    -0.274 OA
ATOM     32  H1  UNL     1      -0.836  61.473  18.675  1.00  0.00     0.163 HD
ENDBRANCH   4  28
BRANCH   3  33
HETATM   33  O3  UNL     1      -4.755  60.678  19.310  1.00  0.00    -0.374 OA
BRANCH  33  34
HETATM   34  C5  UNL     1      -5.382  59.478  19.579  1.00  0.00     0.146 C 
HETATM   35  C6  UNL     1      -5.779  58.732  18.323  1.00  0.00     0.036 C 
HETATM   36  C7  UNL     1      -6.542  57.494  18.712  1.00  0.00     0.034 C 
HETATM   37  C8  UNL     1      -7.624  57.769  19.724  1.00  0.00     0.117 C 
HETATM   38  C9  UNL     1      -8.908  58.239  19.048  1.00  0.00     0.039 C 
HETATM   39  O4  UNL     1      -7.234  58.626  20.723  1.00  0.00    -0.384 OA
HETATM   40  C10 UNL     1      -6.693  59.817  20.296  1.00  0.00     0.200 C 
ENDBRANCH  33  34
ENDBRANCH   3  33
TORSDOF 12
ENDMDL
