MODEL 1
REMARK VINA RESULT: -6.509797899      0.000      0.000
REMARK  13 active torsions:
REMARK  status: ('A' for Active; 'I' for Inactive)
REMARK    1  A    between atoms: C2_2  and  C3_3 
REMARK    2  A    between atoms: C4_5  and  C5_6 
REMARK    3  A    between atoms: C6_7  and  O2_8 
REMARK    4  A    between atoms: C7_10  and  O3_11 
REMARK    5  A    between atoms: C8_13  and  O4_14 
REMARK    6  A    between atoms: O4_14  and  C9_15 
REMARK    7  A    between atoms: C11_17  and  C12_18 
REMARK    8  A    between atoms: C12_18  and  O5_19 
REMARK    9  A    between atoms: C12_18  and  O6_21 
REMARK   10  A    between atoms: C15_23  and  O7_24 
REMARK   11  A    between atoms: C16_26  and  O8_27 
REMARK   12  A    between atoms: C17_29  and  O9_30 
REMARK   13  A    between atoms: C18_32  and  O10_34 
ROOT
HETATM    1  C5  UNL     1      -6.252  59.527  18.725  1.00  0.00     0.083 C 
HETATM    2  C6  UNL     1      -5.800  58.590  17.641  1.00  0.00     0.159 C 
HETATM    3  C7  UNL     1      -4.387  58.943  17.386  1.00  0.00     0.179 C 
HETATM    4  C8  UNL     1      -3.845  59.668  18.609  1.00  0.00     0.187 C 
HETATM    5  C18 UNL     1      -5.107  60.421  19.066  1.00  0.00     0.091 C 
HETATM    6  C19 UNL     1      -5.028  60.647  20.563  1.00  0.00     0.049 C 
ENDROOT
BRANCH   4   7
HETATM    7  O4  UNL     1      -2.861  60.493  18.151  1.00  0.00    -0.372 OA
BRANCH   7   8
HETATM    8  C9  UNL     1      -1.644  60.433  18.825  1.00  0.00     0.154 C 
HETATM    9  C10 UNL     1      -1.679  59.439  19.934  1.00  0.00     0.047 C 
HETATM   10  C11 UNL     1      -0.465  58.657  20.207  1.00  0.00     0.075 C 
HETATM   11  C15 UNL     1       0.523  58.531  19.105  1.00  0.00     0.158 C 
HETATM   12  C16 UNL     1       0.732  59.782  18.296  1.00  0.00     0.178 C 
HETATM   13  C17 UNL     1      -0.618  60.177  17.768  1.00  0.00     0.178 C 
BRANCH  10  14
HETATM   14  C12 UNL     1       0.197  59.029  21.534  1.00  0.00     0.265 C 
BRANCH  14  15
HETATM   15  O5  UNL     1       0.029  60.331  21.903  1.00  0.00    -0.366 OA
HETATM   16  C13 UNL     1      -0.173  60.563  23.241  1.00  0.00     0.204 C 
ENDBRANCH  14  15
BRANCH  14  17
HETATM   17  O6  UNL     1      -0.272  58.157  22.519  1.00  0.00    -0.366 OA
HETATM   18  C14 UNL     1       0.624  57.116  22.775  1.00  0.00     0.204 C 
ENDBRANCH  14  17
ENDBRANCH  10  14
BRANCH  11  19
HETATM   19  O7  UNL     1       1.695  57.947  19.548  1.00  0.00    -0.392 OA
ATOM     20  H7  UNL     1       2.261  57.716  18.820  1.00  0.00     0.210 HD
ENDBRANCH  11  19
BRANCH  12  21
HETATM   21  O8  UNL     1       1.501  59.400  17.175  1.00  0.00    -0.390 OA
ATOM     22  H8  UNL     1       1.219  59.958  16.459  1.00  0.00     0.210 HD
ENDBRANCH  12  21
BRANCH  13  23
HETATM   23  O9  UNL     1      -1.087  59.127  16.957  1.00  0.00    -0.390 OA
ATOM     24  H9  UNL     1      -0.426  58.446  16.953  1.00  0.00     0.210 HD
ENDBRANCH  13  23
ENDBRANCH   7   8
ENDBRANCH   4   7
BRANCH   3  25
HETATM   25  O3  UNL     1      -3.667  57.787  17.111  1.00  0.00    -0.390 OA
ATOM     26  H3  UNL     1      -2.972  57.988  16.495  1.00  0.00     0.210 HD
ENDBRANCH   3  25
BRANCH   5  27
HETATM   27  O10 UNL     1      -5.117  61.651  18.480  1.00  0.00    -0.387 OA
ATOM     28  H10 UNL     1      -4.330  62.171  18.593  1.00  0.00     0.210 HD
ENDBRANCH   5  27
BRANCH   2  29
HETATM   29  O2  UNL     1      -5.872  57.247  18.006  1.00  0.00    -0.392 OA
ATOM     30  H2  UNL     1      -5.140  56.961  18.540  1.00  0.00     0.210 HD
ENDBRANCH   2  29
BRANCH   1  31
HETATM   31  C4  UNL     1      -7.553  60.177  18.451  1.00  0.00     0.132 C 
HETATM   32  O1  UNL     1      -8.511  59.619  19.296  1.00  0.00    -0.376 OA
HETATM   33  C3  UNL     1      -9.719  59.595  18.652  1.00  0.00     0.147 C 
HETATM   34  C21 UNL     1      -9.584  60.332  17.342  1.00  0.00     0.017 C 
HETATM   35  C20 UNL     1      -8.080  60.142  17.081  1.00  0.00     0.039 C 
HETATM   36  C22 UNL     1      -9.959  61.776  17.463  1.00  0.00     0.013 C 
BRANCH  33  37
HETATM   37  C2  UNL     1     -10.217  58.228  18.338  1.00  0.00    -0.005 C 
HETATM   38  C1  UNL     1     -10.360  57.287  19.262  1.00  0.00     0.009 C 
ENDBRANCH  33  37
ENDBRANCH   1  31
TORSDOF 13
ENDMDL
MODEL 2
REMARK VINA RESULT: -6.297821424      1.641      3.011
REMARK  13 active torsions:
REMARK  status: ('A' for Active; 'I' for Inactive)
REMARK    1  A    between atoms: C2_2  and  C3_3 
REMARK    2  A    between atoms: C4_5  and  C5_6 
REMARK    3  A    between atoms: C6_7  and  O2_8 
REMARK    4  A    between atoms: C7_10  and  O3_11 
REMARK    5  A    between atoms: C8_13  and  O4_14 
REMARK    6  A    between atoms: O4_14  and  C9_15 
REMARK    7  A    between atoms: C11_17  and  C12_18 
REMARK    8  A    between atoms: C12_18  and  O5_19 
REMARK    9  A    between atoms: C12_18  and  O6_21 
REMARK   10  A    between atoms: C15_23  and  O7_24 
REMARK   11  A    between atoms: C16_26  and  O8_27 
REMARK   12  A    between atoms: C17_29  and  O9_30 
REMARK   13  A    between atoms: C18_32  and  O10_34 
ROOT
HETATM    1  C5  UNL     1      -6.192  60.829  18.545  1.00  0.00     0.083 C 
HETATM    2  C6  UNL     1      -6.275  60.969  20.038  1.00  0.00     0.159 C 
HETATM    3  C7  UNL     1      -4.969  60.498  20.546  1.00  0.00     0.179 C 
HETATM    4  C8  UNL     1      -3.954  60.585  19.416  1.00  0.00     0.187 C 
HETATM    5  C18 UNL     1      -4.854  60.260  18.210  1.00  0.00     0.091 C 
HETATM    6  C19 UNL     1      -4.279  60.926  16.976  1.00  0.00     0.049 C 
ENDROOT
BRANCH   4   7
HETATM    7  O4  UNL     1      -3.024  59.621  19.671  1.00  0.00    -0.372 OA
BRANCH   7   8
HETATM    8  C9  UNL     1      -1.960  59.994  20.489  1.00  0.00     0.154 C 
HETATM    9  C10 UNL     1      -1.807  59.071  21.647  1.00  0.00     0.047 C 
HETATM   10  C11 UNL     1      -0.450  58.757  22.114  1.00  0.00     0.075 C 
HETATM   11  C15 UNL     1       0.662  58.955  21.149  1.00  0.00     0.158 C 
HETATM   12  C16 UNL     1       0.545  60.185  20.291  1.00  0.00     0.178 C 
HETATM   13  C17 UNL     1      -0.776  60.083  19.580  1.00  0.00     0.178 C 
BRANCH  10  14
HETATM   14  C12 UNL     1      -0.137  59.360  23.483  1.00  0.00     0.265 C 
BRANCH  14  15
HETATM   15  O5  UNL     1       0.772  58.657  24.216  1.00  0.00    -0.366 OA
HETATM   16  C13 UNL     1       0.468  57.341  24.464  1.00  0.00     0.204 C 
ENDBRANCH  14  15
BRANCH  14  17
HETATM   17  O6  UNL     1       0.272  60.682  23.299  1.00  0.00    -0.366 OA
HETATM   18  C14 UNL     1      -0.349  61.559  24.192  1.00  0.00     0.204 C 
ENDBRANCH  14  17
ENDBRANCH  10  14
BRANCH  11  19
HETATM   19  O7  UNL     1       1.891  58.816  21.765  1.00  0.00    -0.392 OA
ATOM     20  H7  UNL     1       1.937  58.008  22.263  1.00  0.00     0.210 HD
ENDBRANCH  11  19
BRANCH  12  21
HETATM   21  O8  UNL     1       1.540  60.067  19.296  1.00  0.00    -0.390 OA
ATOM     22  H8  UNL     1       1.674  60.942  18.952  1.00  0.00     0.210 HD
ENDBRANCH  12  21
BRANCH  13  23
HETATM   23  O9  UNL     1      -0.751  58.920  18.789  1.00  0.00    -0.390 OA
ATOM     24  H9  UNL     1      -0.750  59.189  17.878  1.00  0.00     0.210 HD
ENDBRANCH  13  23
ENDBRANCH   7   8
ENDBRANCH   4   7
BRANCH   3  25
HETATM   25  O3  UNL     1      -4.594  61.272  21.637  1.00  0.00    -0.390 OA
ATOM     26  H3  UNL     1      -4.780  60.797  22.439  1.00  0.00     0.210 HD
ENDBRANCH   3  25
BRANCH   5  27
HETATM   27  O10 UNL     1      -4.817  58.916  17.989  1.00  0.00    -0.387 OA
ATOM     28  H10 UNL     1      -4.183  58.619  17.347  1.00  0.00     0.210 HD
ENDBRANCH   5  27
BRANCH   2  29
HETATM   29  O2  UNL     1      -6.477  62.282  20.460  1.00  0.00    -0.392 OA
ATOM     30  H2  UNL     1      -5.770  62.869  20.220  1.00  0.00     0.210 HD
ENDBRANCH   2  29
BRANCH   1  31
HETATM   31  C4  UNL     1      -7.371  60.173  17.938  1.00  0.00     0.132 C 
HETATM   32  O1  UNL     1      -7.918  61.038  16.990  1.00  0.00    -0.376 OA
HETATM   33  C3  UNL     1      -9.277  60.868  16.958  1.00  0.00     0.147 C 
HETATM   34  C21 UNL     1      -9.639  59.697  17.839  1.00  0.00     0.017 C 
HETATM   35  C20 UNL     1      -8.455  59.722  18.820  1.00  0.00     0.039 C 
HETATM   36  C22 UNL     1      -9.712  58.414  17.072  1.00  0.00     0.013 C 
BRANCH  33  37
HETATM   37  C2  UNL     1     -10.049  62.042  17.447  1.00  0.00    -0.005 C 
HETATM   38  C1  UNL     1      -9.473  63.181  17.805  1.00  0.00     0.009 C 
ENDBRANCH  33  37
ENDBRANCH   1  31
TORSDOF 13
ENDMDL
MODEL 3
REMARK VINA RESULT: -6.065101985      0.977      1.115
REMARK  13 active torsions:
REMARK  status: ('A' for Active; 'I' for Inactive)
REMARK    1  A    between atoms: C2_2  and  C3_3 
REMARK    2  A    between atoms: C4_5  and  C5_6 
REMARK    3  A    between atoms: C6_7  and  O2_8 
REMARK    4  A    between atoms: C7_10  and  O3_11 
REMARK    5  A    between atoms: C8_13  and  O4_14 
REMARK    6  A    between atoms: O4_14  and  C9_15 
REMARK    7  A    between atoms: C11_17  and  C12_18 
REMARK    8  A    between atoms: C12_18  and  O5_19 
REMARK    9  A    between atoms: C12_18  and  O6_21 
REMARK   10  A    between atoms: C15_23  and  O7_24 
REMARK   11  A    between atoms: C16_26  and  O8_27 
REMARK   12  A    between atoms: C17_29  and  O9_30 
REMARK   13  A    between atoms: C18_32  and  O10_34 
ROOT
HETATM    1  C5  UNL     1      -6.242  59.357  18.705  1.00  0.00     0.083 C 
HETATM    2  C6  UNL     1      -5.949  58.338  17.641  1.00  0.00     0.159 C 
HETATM    3  C7  UNL     1      -4.574  58.634  17.187  1.00  0.00     0.179 C 
HETATM    4  C8  UNL     1      -3.867  59.424  18.279  1.00  0.00     0.187 C 
HETATM    5  C18 UNL     1      -5.047  60.239  18.838  1.00  0.00     0.091 C 
HETATM    6  C19 UNL     1      -4.774  60.562  20.294  1.00  0.00     0.049 C 
ENDROOT
BRANCH   4   7
HETATM    7  O4  UNL     1      -2.933  60.189  17.645  1.00  0.00    -0.372 OA
BRANCH   7   8
HETATM    8  C9  UNL     1      -1.816  60.544  18.397  1.00  0.00     0.154 C 
HETATM    9  C10 UNL     1      -1.198  59.361  19.056  1.00  0.00     0.047 C 
HETATM   10  C11 UNL     1       0.266  59.313  19.175  1.00  0.00     0.075 C 
HETATM   11  C15 UNL     1       1.050  60.153  18.234  1.00  0.00     0.158 C 
HETATM   12  C16 UNL     1       0.469  61.515  17.965  1.00  0.00     0.178 C 
HETATM   13  C17 UNL     1      -0.926  61.289  17.454  1.00  0.00     0.178 C 
BRANCH  10  14
HETATM   14  C12 UNL     1       0.750  59.459  20.617  1.00  0.00     0.265 C 
BRANCH  14  15
HETATM   15  O5  UNL     1       0.132  60.447  21.324  1.00  0.00    -0.366 OA
HETATM   16  C13 UNL     1      -0.236  60.136  22.609  1.00  0.00     0.204 C 
ENDBRANCH  14  15
BRANCH  14  17
HETATM   17  O6  UNL     1       0.620  58.222  21.252  1.00  0.00    -0.366 OA
HETATM   18  C14 UNL     1       1.180  57.182  20.505  1.00  0.00     0.204 C 
ENDBRANCH  14  17
ENDBRANCH  10  14
BRANCH  11  19
HETATM   19  O7  UNL     1       2.389  60.172  18.575  1.00  0.00    -0.392 OA
ATOM     20  H7  UNL     1       2.635  61.008  18.954  1.00  0.00     0.210 HD
ENDBRANCH  11  19
BRANCH  12  21
HETATM   21  O8  UNL     1       1.205  62.050  16.886  1.00  0.00    -0.390 OA
ATOM     22  H8  UNL     1       0.588  62.155  16.171  1.00  0.00     0.210 HD
ENDBRANCH  12  21
BRANCH  13  23
HETATM   23  O9  UNL     1      -0.833  60.540  16.267  1.00  0.00    -0.390 OA
ATOM     24  H9  UNL     1      -0.981  59.628  16.486  1.00  0.00     0.210 HD
ENDBRANCH  13  23
ENDBRANCH   7   8
ENDBRANCH   4   7
BRANCH   3  25
HETATM   25  O3  UNL     1      -3.916  57.443  16.904  1.00  0.00    -0.390 OA
ATOM     26  H3  UNL     1      -4.536  56.820  16.544  1.00  0.00     0.210 HD
ENDBRANCH   3  25
BRANCH   5  27
HETATM   27  O10 UNL     1      -5.108  61.427  18.174  1.00  0.00    -0.387 OA
ATOM     28  H10 UNL     1      -5.749  62.050  18.496  1.00  0.00     0.210 HD
ENDBRANCH   5  27
BRANCH   2  29
HETATM   29  O2  UNL     1      -5.999  57.025  18.103  1.00  0.00    -0.392 OA
ATOM     30  H2  UNL     1      -5.167  56.709  18.435  1.00  0.00     0.210 HD
ENDBRANCH   2  29
BRANCH   1  31
HETATM   31  C4  UNL     1      -7.555  60.023  18.552  1.00  0.00     0.132 C 
HETATM   32  O1  UNL     1      -8.467  59.399  19.403  1.00  0.00    -0.376 OA
HETATM   33  C3  UNL     1      -9.708  59.422  18.824  1.00  0.00     0.147 C 
HETATM   34  C21 UNL     1      -9.643  60.257  17.569  1.00  0.00     0.017 C 
HETATM   35  C20 UNL     1      -8.155  60.091  17.213  1.00  0.00     0.039 C 
HETATM   36  C22 UNL     1     -10.008  61.686  17.820  1.00  0.00     0.013 C 
BRANCH  33  37
HETATM   37  C2  UNL     1     -10.224  58.081  18.435  1.00  0.00    -0.005 C 
HETATM   38  C1  UNL     1     -10.558  57.155  19.324  1.00  0.00     0.009 C 
ENDBRANCH  33  37
ENDBRANCH   1  31
TORSDOF 13
ENDMDL
MODEL 4
REMARK VINA RESULT: -5.872359680      4.767      7.681
REMARK  13 active torsions:
REMARK  status: ('A' for Active; 'I' for Inactive)
REMARK    1  A    between atoms: C2_2  and  C3_3 
REMARK    2  A    between atoms: C4_5  and  C5_6 
REMARK    3  A    between atoms: C6_7  and  O2_8 
REMARK    4  A    between atoms: C7_10  and  O3_11 
REMARK    5  A    between atoms: C8_13  and  O4_14 
REMARK    6  A    between atoms: O4_14  and  C9_15 
REMARK    7  A    between atoms: C11_17  and  C12_18 
REMARK    8  A    between atoms: C12_18  and  O5_19 
REMARK    9  A    between atoms: C12_18  and  O6_21 
REMARK   10  A    between atoms: C15_23  and  O7_24 
REMARK   11  A    between atoms: C16_26  and  O8_27 
REMARK   12  A    between atoms: C17_29  and  O9_30 
REMARK   13  A    between atoms: C18_32  and  O10_34 
ROOT
HETATM    1  C5  UNL     1      -6.457  60.343  18.552  1.00  0.00     0.083 C 
HETATM    2  C6  UNL     1      -6.680  60.310  20.037  1.00  0.00     0.159 C 
HETATM    3  C7  UNL     1      -7.496  59.101  20.281  1.00  0.00     0.179 C 
HETATM    4  C8  UNL     1      -7.320  58.156  19.101  1.00  0.00     0.187 C 
HETATM    5  C18 UNL     1      -7.161  59.171  17.955  1.00  0.00     0.091 C 
HETATM    6  C19 UNL     1      -6.327  58.543  16.856  1.00  0.00     0.049 C 
ENDROOT
BRANCH   4   7
HETATM    7  O4  UNL     1      -8.472  57.431  19.025  1.00  0.00    -0.372 OA
BRANCH   7   8
HETATM    8  C9  UNL     1      -8.365  56.166  18.454  1.00  0.00     0.154 C 
HETATM    9  C10 UNL     1      -8.161  55.112  19.485  1.00  0.00     0.047 C 
HETATM   10  C11 UNL     1      -8.793  53.801  19.278  1.00  0.00     0.075 C 
HETATM   11  C15 UNL     1      -9.959  53.749  18.360  1.00  0.00     0.158 C 
HETATM   12  C16 UNL     1      -9.836  54.606  17.130  1.00  0.00     0.178 C 
HETATM   13  C17 UNL     1      -9.590  56.008  17.611  1.00  0.00     0.178 C 
BRANCH  10  14
HETATM   14  C12 UNL     1      -7.783  52.692  18.989  1.00  0.00     0.265 C 
BRANCH  14  15
HETATM   15  O5  UNL     1      -6.543  53.134  18.635  1.00  0.00    -0.366 OA
HETATM   16  C13 UNL     1      -6.267  53.159  17.290  1.00  0.00     0.204 C 
ENDBRANCH  14  15
BRANCH  14  17
HETATM   17  O6  UNL     1      -7.723  51.850  20.102  1.00  0.00    -0.366 OA
HETATM   18  C14 UNL     1      -6.666  50.939  20.021  1.00  0.00     0.204 C 
ENDBRANCH  14  17
ENDBRANCH  10  14
BRANCH  11  19
HETATM   19  O7  UNL     1     -10.334  52.444  18.099  1.00  0.00    -0.392 OA
ATOM     20  H7  UNL     1      -9.756  51.827  18.533  1.00  0.00     0.210 HD
ENDBRANCH  11  19
BRANCH  12  21
HETATM   21  O8  UNL     1     -11.112  54.612  16.525  1.00  0.00    -0.390 OA
ATOM     22  H8  UNL     1     -11.683  55.086  17.118  1.00  0.00     0.210 HD
ENDBRANCH  12  21
BRANCH  13  23
HETATM   23  O9  UNL     1     -10.698  56.398  18.385  1.00  0.00    -0.390 OA
ATOM     24  H9  UNL     1     -10.834  57.328  18.250  1.00  0.00     0.210 HD
ENDBRANCH  13  23
ENDBRANCH   7   8
ENDBRANCH   4   7
BRANCH   3  25
HETATM   25  O3  UNL     1      -7.102  58.514  21.476  1.00  0.00    -0.390 OA
ATOM     26  H3  UNL     1      -7.402  59.047  22.203  1.00  0.00     0.210 HD
ENDBRANCH   3  25
BRANCH   5  27
HETATM   27  O10 UNL     1      -8.391  59.423  17.424  1.00  0.00    -0.387 OA
ATOM     28  H10 UNL     1      -8.960  58.670  17.320  1.00  0.00     0.210 HD
ENDBRANCH   5  27
BRANCH   2  29
HETATM   29  O2  UNL     1      -5.501  60.213  20.772  1.00  0.00    -0.392 OA
ATOM     30  H2  UNL     1      -4.840  60.844  20.510  1.00  0.00     0.210 HD
ENDBRANCH   2  29
BRANCH   1  31
HETATM   31  C4  UNL     1      -6.711  61.664  17.937  1.00  0.00     0.132 C 
HETATM   32  O1  UNL     1      -7.832  62.226  18.547  1.00  0.00    -0.376 OA
HETATM   33  C3  UNL     1      -8.514  62.978  17.628  1.00  0.00     0.147 C 
HETATM   34  C21 UNL     1      -7.703  63.043  16.357  1.00  0.00     0.017 C 
HETATM   35  C20 UNL     1      -6.902  61.735  16.482  1.00  0.00     0.039 C 
HETATM   36  C22 UNL     1      -6.816  64.247  16.312  1.00  0.00     0.013 C 
BRANCH  33  37
HETATM   37  C2  UNL     1      -9.852  62.434  17.268  1.00  0.00    -0.005 C 
HETATM   38  C1  UNL     1     -10.534  62.848  16.209  1.00  0.00     0.009 C 
ENDBRANCH  33  37
ENDBRANCH   1  31
TORSDOF 13
ENDMDL
MODEL 5
REMARK VINA RESULT: -5.798118697      4.334      7.874
REMARK  13 active torsions:
REMARK  status: ('A' for Active; 'I' for Inactive)
REMARK    1  A    between atoms: C2_2  and  C3_3 
REMARK    2  A    between atoms: C4_5  and  C5_6 
REMARK    3  A    between atoms: C6_7  and  O2_8 
REMARK    4  A    between atoms: C7_10  and  O3_11 
REMARK    5  A    between atoms: C8_13  and  O4_14 
REMARK    6  A    between atoms: O4_14  and  C9_15 
REMARK    7  A    between atoms: C11_17  and  C12_18 
REMARK    8  A    between atoms: C12_18  and  O5_19 
REMARK    9  A    between atoms: C12_18  and  O6_21 
REMARK   10  A    between atoms: C15_23  and  O7_24 
REMARK   11  A    between atoms: C16_26  and  O8_27 
REMARK   12  A    between atoms: C17_29  and  O9_30 
REMARK   13  A    between atoms: C18_32  and  O10_34 
ROOT
HETATM    1  C5  UNL     1      -8.593  54.804  18.645  1.00  0.00     0.083 C 
HETATM    2  C6  UNL     1      -9.910  55.150  19.280  1.00  0.00     0.159 C 
HETATM    3  C7  UNL     1      -9.855  56.608  19.518  1.00  0.00     0.179 C 
HETATM    4  C8  UNL     1      -8.808  57.208  18.591  1.00  0.00     0.187 C 
HETATM    5  C18 UNL     1      -7.788  56.056  18.545  1.00  0.00     0.091 C 
HETATM    6  C19 UNL     1      -7.043  56.113  17.226  1.00  0.00     0.049 C 
ENDROOT
BRANCH   4   7
HETATM    7  O4  UNL     1      -8.338  58.320  19.225  1.00  0.00    -0.372 OA
BRANCH   7   8
HETATM    8  C9  UNL     1      -7.893  59.353  18.405  1.00  0.00     0.154 C 
HETATM    9  C10 UNL     1      -8.736  60.571  18.549  1.00  0.00     0.047 C 
HETATM   10  C11 UNL     1      -8.082  61.885  18.476  1.00  0.00     0.075 C 
HETATM   11  C15 UNL     1      -6.624  61.933  18.758  1.00  0.00     0.158 C 
HETATM   12  C16 UNL     1      -5.832  60.787  18.192  1.00  0.00     0.178 C 
HETATM   13  C17 UNL     1      -6.447  59.531  18.743  1.00  0.00     0.178 C 
BRANCH  10  14
HETATM   14  C12 UNL     1      -8.450  62.664  17.214  1.00  0.00     0.265 C 
BRANCH  14  15
HETATM   15  O5  UNL     1      -8.479  64.018  17.373  1.00  0.00    -0.366 OA
HETATM   16  C13 UNL     1      -9.536  64.676  16.794  1.00  0.00     0.204 C 
ENDBRANCH  14  15
BRANCH  14  17
HETATM   17  O6  UNL     1      -7.572  62.291  16.195  1.00  0.00    -0.366 OA
HETATM   18  C14 UNL     1      -8.208  61.560  15.188  1.00  0.00     0.204 C 
ENDBRANCH  14  17
ENDBRANCH  10  14
BRANCH  11  19
HETATM   19  O7  UNL     1      -6.098  63.177  18.465  1.00  0.00    -0.392 OA
ATOM     20  H7  UNL     1      -6.053  63.722  19.242  1.00  0.00     0.210 HD
ENDBRANCH  11  19
BRANCH  12  21
HETATM   21  O8  UNL     1      -4.544  60.880  18.761  1.00  0.00    -0.390 OA
ATOM     22  H8  UNL     1      -4.164  60.011  18.701  1.00  0.00     0.210 HD
ENDBRANCH  12  21
BRANCH  13  23
HETATM   23  O9  UNL     1      -6.334  59.575  20.144  1.00  0.00    -0.390 OA
ATOM     24  H9  UNL     1      -6.889  58.892  20.502  1.00  0.00     0.210 HD
ENDBRANCH  13  23
ENDBRANCH   7   8
ENDBRANCH   4   7
BRANCH   3  25
HETATM   25  O3  UNL     1     -11.112  57.157  19.300  1.00  0.00    -0.390 OA
ATOM     26  H3  UNL     1     -11.559  56.661  18.624  1.00  0.00     0.210 HD
ENDBRANCH   3  25
BRANCH   5  27
HETATM   27  O10 UNL     1      -6.866  56.250  19.529  1.00  0.00    -0.387 OA
ATOM     28  H10 UNL     1      -7.118  55.956  20.397  1.00  0.00     0.210 HD
ENDBRANCH   5  27
BRANCH   2  29
HETATM   29  O2  UNL     1     -11.007  54.866  18.469  1.00  0.00    -0.392 OA
ATOM     30  H2  UNL     1     -11.304  55.612  17.961  1.00  0.00     0.210 HD
ENDBRANCH   2  29
BRANCH   1  31
HETATM   31  C4  UNL     1      -7.930  53.625  19.245  1.00  0.00     0.132 C 
HETATM   32  O1  UNL     1      -6.604  53.958  19.519  1.00  0.00    -0.376 OA
HETATM   33  C3  UNL     1      -5.819  52.846  19.358  1.00  0.00     0.147 C 
HETATM   34  C21 UNL     1      -6.712  51.656  19.108  1.00  0.00     0.017 C 
HETATM   35  C20 UNL     1      -7.936  52.360  18.498  1.00  0.00     0.039 C 
HETATM   36  C22 UNL     1      -7.049  50.926  20.370  1.00  0.00     0.013 C 
BRANCH  33  37
HETATM   37  C2  UNL     1      -4.870  52.932  18.215  1.00  0.00    -0.005 C 
HETATM   38  C1  UNL     1      -4.396  54.085  17.760  1.00  0.00     0.009 C 
ENDBRANCH  33  37
ENDBRANCH   1  31
TORSDOF 13
ENDMDL
