MODEL 1
REMARK VINA RESULT: -7.257313586      0.000      0.000
REMARK  12 active torsions:
REMARK  status: ('A' for Active; 'I' for Inactive)
REMARK    1  A    between atoms: C2_2  and  C3_3 
REMARK    2  A    between atoms: C3_3  and  C4_4 
REMARK    3  A    between atoms: C4_4  and  C5_5 
REMARK    4  A    between atoms: C5_5  and  C6_6 
REMARK    5  A    between atoms: C11_13  and  N2_14 
REMARK    6  A    between atoms: N2_14  and  C12_16 
REMARK    7  A    between atoms: C13_18  and  C14_19 
REMARK    8  A    between atoms: C14_19  and  O3_20 
REMARK    9  A    between atoms: C15_22  and  O4_23 
REMARK   10  A    between atoms: C16_25  and  O5_26 
REMARK   11  A    between atoms: C17_28  and  O6_29 
REMARK   12  A    between atoms: C21_36  and  O9_37 
ROOT
HETATM    1  C6  UNL     1       0.049  59.654  22.346  1.00  0.00     0.177 C 
HETATM    2  O1  UNL     1      -0.457  59.146  21.183  1.00  0.00    -0.295 OA
HETATM    3  N1  UNL     1       0.369  59.260  20.154  1.00  0.00    -0.186 NA
HETATM    4  C7  UNL     1      -0.348  60.117  19.184  1.00  0.00     0.121 C 
HETATM    5  C8  UNL     1       0.498  60.074  17.959  1.00  0.00     0.019 C 
HETATM    6  C9  UNL     1       1.155  58.681  18.119  1.00  0.00     0.029 C 
HETATM    7  C10 UNL     1       0.513  58.070  19.314  1.00  0.00     0.134 C 
HETATM    8  C11 UNL     1       1.176  56.944  19.923  1.00  0.00     0.036 C 
HETATM    9  C18 UNL     1       0.764  56.780  21.429  1.00  0.00     0.202 C 
HETATM   10  O7  UNL     1       1.201  55.501  21.758  1.00  0.00    -0.353 OA
HETATM   11  C19 UNL     1       2.181  55.628  22.714  1.00  0.00     0.339 C 
HETATM   12  O8  UNL     1       2.116  56.867  23.286  1.00  0.00    -0.356 OA
HETATM   13  C20 UNL     1       1.460  57.691  22.342  1.00  0.00     0.190 C 
HETATM   14  C21 UNL     1       0.490  58.503  23.221  1.00  0.00     0.180 C 
ENDROOT
BRANCH   8  15
HETATM   15  N2  UNL     1       2.407  56.372  19.736  1.00  0.00    -0.365 N 
ATOM     16  H2  UNL     1       3.079  56.627  20.459  1.00  0.00     0.162 HD
BRANCH  15  17
HETATM   17  C12 UNL     1       2.932  55.534  18.788  1.00  0.00     0.253 C 
HETATM   18  O2  UNL     1       2.033  55.447  17.659  1.00  0.00    -0.354 OA
HETATM   19  C13 UNL     1       2.035  54.168  17.161  1.00  0.00     0.179 C 
HETATM   20  C15 UNL     1       3.380  53.886  16.508  1.00  0.00     0.180 C 
HETATM   21  C16 UNL     1       4.514  54.360  17.315  1.00  0.00     0.182 C 
HETATM   22  C17 UNL     1       4.267  55.607  18.178  1.00  0.00     0.198 C 
BRANCH  19  23
HETATM   23  C14 UNL     1       0.922  54.038  16.154  1.00  0.00     0.198 C 
BRANCH  23  24
HETATM   24  O3  UNL     1       0.688  52.732  15.765  1.00  0.00    -0.398 OA
ATOM     25  H3  UNL     1      -0.236  52.526  15.682  1.00  0.00     0.209 HD
ENDBRANCH  23  24
ENDBRANCH  19  23
BRANCH  20  26
HETATM   26  O4  UNL     1       3.464  52.476  16.423  1.00  0.00    -0.390 OA
ATOM     27  H4  UNL     1       3.717  52.294  15.526  1.00  0.00     0.210 HD
ENDBRANCH  20  26
BRANCH  21  28
HETATM   28  O5  UNL     1       5.572  54.647  16.413  1.00  0.00    -0.390 OA
ATOM     29  H5  UNL     1       6.345  54.820  16.937  1.00  0.00     0.210 HD
ENDBRANCH  21  28
BRANCH  22  30
HETATM   30  O6  UNL     1       5.307  55.534  19.142  1.00  0.00    -0.389 OA
ATOM     31  H6  UNL     1       5.578  56.392  19.448  1.00  0.00     0.210 HD
ENDBRANCH  22  30
ENDBRANCH  15  17
ENDBRANCH   8  15
BRANCH  14  32
HETATM   32  O9  UNL     1      -0.541  57.706  23.648  1.00  0.00    -0.390 OA
ATOM     33  H9  UNL     1      -0.792  57.854  24.552  1.00  0.00     0.210 HD
ENDBRANCH  14  32
BRANCH   1  34
HETATM   34  C5  UNL     1      -0.739  60.679  23.062  1.00  0.00     0.036 C 
BRANCH  34  35
HETATM   35  C4  UNL     1      -2.181  60.791  22.765  1.00  0.00     0.003 C 
BRANCH  35  36
HETATM   36  C3  UNL     1      -2.846  61.671  23.796  1.00  0.00    -0.000 C 
BRANCH  36  37
HETATM   37  C2  UNL     1      -2.001  62.059  24.953  1.00  0.00    -0.005 C 
HETATM   38  C1  UNL     1      -2.769  63.140  25.729  1.00  0.00     0.005 C 
ENDBRANCH  36  37
ENDBRANCH  35  36
ENDBRANCH  34  35
ENDBRANCH   1  34
TORSDOF 12
ENDMDL
MODEL 2
REMARK VINA RESULT: -7.251260299      2.515      8.382
REMARK  12 active torsions:
REMARK  status: ('A' for Active; 'I' for Inactive)
REMARK    1  A    between atoms: C2_2  and  C3_3 
REMARK    2  A    between atoms: C3_3  and  C4_4 
REMARK    3  A    between atoms: C4_4  and  C5_5 
REMARK    4  A    between atoms: C5_5  and  C6_6 
REMARK    5  A    between atoms: C11_13  and  N2_14 
REMARK    6  A    between atoms: N2_14  and  C12_16 
REMARK    7  A    between atoms: C13_18  and  C14_19 
REMARK    8  A    between atoms: C14_19  and  O3_20 
REMARK    9  A    between atoms: C15_22  and  O4_23 
REMARK   10  A    between atoms: C16_25  and  O5_26 
REMARK   11  A    between atoms: C17_28  and  O6_29 
REMARK   12  A    between atoms: C21_36  and  O9_37 
ROOT
HETATM    1  C6  UNL     1       1.313  56.469  19.273  1.00  0.00     0.177 C 
HETATM    2  O1  UNL     1       1.253  57.828  19.156  1.00  0.00    -0.295 OA
HETATM    3  N1  UNL     1       0.021  58.310  19.236  1.00  0.00    -0.186 NA
HETATM    4  C7  UNL     1      -0.216  58.964  17.929  1.00  0.00     0.121 C 
HETATM    5  C8  UNL     1      -1.516  59.670  18.101  1.00  0.00     0.019 C 
HETATM    6  C9  UNL     1      -1.490  59.941  19.626  1.00  0.00     0.029 C 
HETATM    7  C10 UNL     1      -0.152  59.486  20.091  1.00  0.00     0.134 C 
HETATM    8  C11 UNL     1       0.022  59.267  21.505  1.00  0.00     0.036 C 
HETATM    9  C18 UNL     1       1.201  58.272  21.792  1.00  0.00     0.202 C 
HETATM   10  O7  UNL     1       1.451  58.433  23.151  1.00  0.00    -0.353 OA
HETATM   11  C19 UNL     1       1.155  57.243  23.774  1.00  0.00     0.339 C 
HETATM   12  O8  UNL     1       1.108  56.234  22.854  1.00  0.00    -0.356 OA
HETATM   13  C20 UNL     1       0.848  56.860  21.612  1.00  0.00     0.190 C 
HETATM   14  C21 UNL     1       1.810  56.127  20.658  1.00  0.00     0.180 C 
ENDROOT
BRANCH   8  15
HETATM   15  N2  UNL     1      -0.853  59.234  22.560  1.00  0.00    -0.365 N 
ATOM     16  H2  UNL     1      -0.971  58.300  22.951  1.00  0.00     0.162 HD
BRANCH  15  17
HETATM   17  C12 UNL     1      -1.605  60.183  23.202  1.00  0.00     0.253 C 
HETATM   18  O2  UNL     1      -0.746  61.236  23.695  1.00  0.00    -0.354 OA
HETATM   19  C13 UNL     1      -1.206  61.680  24.910  1.00  0.00     0.179 C 
HETATM   20  C15 UNL     1      -2.520  62.419  24.710  1.00  0.00     0.180 C 
HETATM   21  C16 UNL     1      -3.431  61.720  23.792  1.00  0.00     0.182 C 
HETATM   22  C17 UNL     1      -2.777  60.894  22.674  1.00  0.00     0.198 C 
BRANCH  19  23
HETATM   23  C14 UNL     1      -0.173  62.594  25.516  1.00  0.00     0.198 C 
BRANCH  23  24
HETATM   24  O3  UNL     1      -0.068  62.465  26.888  1.00  0.00    -0.398 OA
ATOM     25  H3  UNL     1       0.810  62.624  27.213  1.00  0.00     0.209 HD
ENDBRANCH  23  24
ENDBRANCH  19  23
BRANCH  20  26
HETATM   26  O4  UNL     1      -3.128  62.451  25.988  1.00  0.00    -0.390 OA
ATOM     27  H4  UNL     1      -4.062  62.415  25.822  1.00  0.00     0.210 HD
ENDBRANCH  20  26
BRANCH  21  28
HETATM   28  O5  UNL     1      -4.252  62.711  23.191  1.00  0.00    -0.390 OA
ATOM     29  H5  UNL     1      -4.083  62.681  22.257  1.00  0.00     0.210 HD
ENDBRANCH  21  28
BRANCH  22  30
HETATM   30  O6  UNL     1      -3.818  60.009  22.286  1.00  0.00    -0.389 OA
ATOM     31  H6  UNL     1      -4.090  60.143  21.387  1.00  0.00     0.210 HD
ENDBRANCH  22  30
ENDBRANCH  15  17
ENDBRANCH   8  15
BRANCH  14  32
HETATM   32  O9  UNL     1       3.102  56.522  20.896  1.00  0.00    -0.390 OA
ATOM     33  H9  UNL     1       3.252  56.834  21.781  1.00  0.00     0.210 HD
ENDBRANCH  14  32
BRANCH   1  34
HETATM   34  C5  UNL     1       1.977  55.704  18.196  1.00  0.00     0.036 C 
BRANCH  34  35
HETATM   35  C4  UNL     1       1.299  55.599  16.888  1.00  0.00     0.003 C 
BRANCH  35  36
HETATM   36  C3  UNL     1      -0.170  55.318  17.098  1.00  0.00    -0.000 C 
BRANCH  36  37
HETATM   37  C2  UNL     1      -1.087  55.901  16.087  1.00  0.00    -0.005 C 
HETATM   38  C1  UNL     1      -2.421  56.179  16.797  1.00  0.00     0.005 C 
ENDBRANCH  36  37
ENDBRANCH  35  36
ENDBRANCH  34  35
ENDBRANCH   1  34
TORSDOF 12
ENDMDL
MODEL 3
REMARK VINA RESULT: -7.057942652      1.394      3.014
REMARK  12 active torsions:
REMARK  status: ('A' for Active; 'I' for Inactive)
REMARK    1  A    between atoms: C2_2  and  C3_3 
REMARK    2  A    between atoms: C3_3  and  C4_4 
REMARK    3  A    between atoms: C4_4  and  C5_5 
REMARK    4  A    between atoms: C5_5  and  C6_6 
REMARK    5  A    between atoms: C11_13  and  N2_14 
REMARK    6  A    between atoms: N2_14  and  C12_16 
REMARK    7  A    between atoms: C13_18  and  C14_19 
REMARK    8  A    between atoms: C14_19  and  O3_20 
REMARK    9  A    between atoms: C15_22  and  O4_23 
REMARK   10  A    between atoms: C16_25  and  O5_26 
REMARK   11  A    between atoms: C17_28  and  O6_29 
REMARK   12  A    between atoms: C21_36  and  O9_37 
ROOT
HETATM    1  C6  UNL     1      -0.890  59.224  21.615  1.00  0.00     0.177 C 
HETATM    2  O1  UNL     1       0.350  58.737  21.914  1.00  0.00    -0.295 OA
HETATM    3  N1  UNL     1       0.386  57.417  22.026  1.00  0.00    -0.186 NA
HETATM    4  C7  UNL     1       0.801  57.166  23.425  1.00  0.00     0.121 C 
HETATM    5  C8  UNL     1       1.031  55.695  23.482  1.00  0.00     0.019 C 
HETATM    6  C9  UNL     1       1.427  55.415  22.012  1.00  0.00     0.029 C 
HETATM    7  C10 UNL     1       1.501  56.748  21.354  1.00  0.00     0.134 C 
HETATM    8  C11 UNL     1       1.480  56.782  19.913  1.00  0.00     0.036 C 
HETATM    9  C18 UNL     1       0.979  58.169  19.378  1.00  0.00     0.202 C 
HETATM   10  O7  UNL     1       1.334  58.157  18.033  1.00  0.00    -0.353 OA
HETATM   11  C19 UNL     1       0.175  58.184  17.294  1.00  0.00     0.339 C 
HETATM   12  O8  UNL     1      -0.865  58.602  18.075  1.00  0.00    -0.356 OA
HETATM   13  C20 UNL     1      -0.478  58.330  19.408  1.00  0.00     0.190 C 
HETATM   14  C21 UNL     1      -0.918  59.604  20.153  1.00  0.00     0.180 C 
ENDROOT
BRANCH   8  15
HETATM   15  N2  UNL     1       1.242  55.826  18.960  1.00  0.00    -0.365 N 
ATOM     16  H2  UNL     1       0.249  55.644  18.818  1.00  0.00     0.162 HD
BRANCH  15  17
HETATM   17  C12 UNL     1       2.047  55.061  18.158  1.00  0.00     0.253 C 
HETATM   18  O2  UNL     1       1.366  54.769  16.917  1.00  0.00    -0.354 OA
HETATM   19  C13 UNL     1       1.669  53.493  16.509  1.00  0.00     0.179 C 
HETATM   20  C15 UNL     1       3.128  53.436  16.083  1.00  0.00     0.180 C 
HETATM   21  C16 UNL     1       4.021  54.140  17.015  1.00  0.00     0.182 C 
HETATM   22  C17 UNL     1       3.427  55.353  17.748  1.00  0.00     0.198 C 
BRANCH  19  23
HETATM   23  C14 UNL     1       0.768  53.124  15.360  1.00  0.00     0.198 C 
BRANCH  23  24
HETATM   24  O3  UNL     1       0.563  51.762  15.244  1.00  0.00    -0.398 OA
ATOM     25  H3  UNL     1      -0.342  51.532  15.069  1.00  0.00     0.209 HD
ENDBRANCH  23  24
ENDBRANCH  19  23
BRANCH  20  26
HETATM   26  O4  UNL     1       3.469  52.063  16.105  1.00  0.00    -0.390 OA
ATOM     27  H4  UNL     1       3.321  51.755  15.219  1.00  0.00     0.210 HD
ENDBRANCH  20  26
BRANCH  21  28
HETATM   28  O5  UNL     1       5.141  54.580  16.262  1.00  0.00    -0.390 OA
ATOM     29  H5  UNL     1       5.654  53.809  16.052  1.00  0.00     0.210 HD
ENDBRANCH  21  28
BRANCH  22  30
HETATM   30  O6  UNL     1       4.300  55.509  18.857  1.00  0.00    -0.389 OA
ATOM     31  H6  UNL     1       4.846  54.745  18.998  1.00  0.00     0.210 HD
ENDBRANCH  22  30
ENDBRANCH  15  17
ENDBRANCH   8  15
BRANCH  14  32
HETATM   32  O9  UNL     1      -0.085  60.647  19.836  1.00  0.00    -0.390 OA
ATOM     33  H9  UNL     1      -0.057  60.848  18.908  1.00  0.00     0.210 HD
ENDBRANCH  14  32
BRANCH   1  34
HETATM   34  C5  UNL     1      -1.473  60.248  22.508  1.00  0.00     0.036 C 
BRANCH  34  35
HETATM   35  C4  UNL     1      -2.898  60.596  22.343  1.00  0.00     0.003 C 
BRANCH  35  36
HETATM   36  C3  UNL     1      -3.283  61.656  23.348  1.00  0.00    -0.000 C 
BRANCH  36  37
HETATM   37  C2  UNL     1      -2.268  61.953  24.390  1.00  0.00    -0.005 C 
HETATM   38  C1  UNL     1      -2.965  62.799  25.467  1.00  0.00     0.005 C 
ENDBRANCH  36  37
ENDBRANCH  35  36
ENDBRANCH  34  35
ENDBRANCH   1  34
TORSDOF 12
ENDMDL
MODEL 4
REMARK VINA RESULT: -6.967543653      1.473      3.699
REMARK  12 active torsions:
REMARK  status: ('A' for Active; 'I' for Inactive)
REMARK    1  A    between atoms: C2_2  and  C3_3 
REMARK    2  A    between atoms: C3_3  and  C4_4 
REMARK    3  A    between atoms: C4_4  and  C5_5 
REMARK    4  A    between atoms: C5_5  and  C6_6 
REMARK    5  A    between atoms: C11_13  and  N2_14 
REMARK    6  A    between atoms: N2_14  and  C12_16 
REMARK    7  A    between atoms: C13_18  and  C14_19 
REMARK    8  A    between atoms: C14_19  and  O3_20 
REMARK    9  A    between atoms: C15_22  and  O4_23 
REMARK   10  A    between atoms: C16_25  and  O5_26 
REMARK   11  A    between atoms: C17_28  and  O6_29 
REMARK   12  A    between atoms: C21_36  and  O9_37 
ROOT
HETATM    1  C6  UNL     1      -0.893  59.356  21.593  1.00  0.00     0.177 C 
HETATM    2  O1  UNL     1       0.345  58.843  21.858  1.00  0.00    -0.295 OA
HETATM    3  N1  UNL     1       0.355  57.524  21.974  1.00  0.00    -0.186 NA
HETATM    4  C7  UNL     1       0.805  57.268  23.361  1.00  0.00     0.121 C 
HETATM    5  C8  UNL     1       1.005  55.793  23.417  1.00  0.00     0.019 C 
HETATM    6  C9  UNL     1       1.352  55.499  21.937  1.00  0.00     0.029 C 
HETATM    7  C10 UNL     1       1.436  56.828  21.273  1.00  0.00     0.134 C 
HETATM    8  C11 UNL     1       1.375  56.858  19.833  1.00  0.00     0.036 C 
HETATM    9  C18 UNL     1       0.888  58.254  19.307  1.00  0.00     0.202 C 
HETATM   10  O7  UNL     1       1.204  58.230  17.953  1.00  0.00    -0.353 OA
HETATM   11  C19 UNL     1       0.025  58.280  17.247  1.00  0.00     0.339 C 
HETATM   12  O8  UNL     1      -0.983  58.723  18.056  1.00  0.00    -0.356 OA
HETATM   13  C20 UNL     1      -0.564  58.446  19.378  1.00  0.00     0.190 C 
HETATM   14  C21 UNL     1      -0.954  59.733  20.131  1.00  0.00     0.180 C 
ENDROOT
BRANCH   8  15
HETATM   15  N2  UNL     1       1.089  55.905  18.890  1.00  0.00    -0.365 N 
ATOM     16  H2  UNL     1       0.154  55.511  18.993  1.00  0.00     0.162 HD
BRANCH  15  17
HETATM   17  C12 UNL     1       1.785  55.366  17.841  1.00  0.00     0.253 C 
HETATM   18  O2  UNL     1       3.014  54.775  18.321  1.00  0.00    -0.354 OA
HETATM   19  C13 UNL     1       4.017  54.981  17.406  1.00  0.00     0.179 C 
HETATM   20  C15 UNL     1       3.739  54.153  16.161  1.00  0.00     0.180 C 
HETATM   21  C16 UNL     1       2.334  54.219  15.735  1.00  0.00     0.182 C 
HETATM   22  C17 UNL     1       1.289  54.404  16.847  1.00  0.00     0.198 C 
BRANCH  19  23
HETATM   23  C14 UNL     1       5.329  54.579  18.027  1.00  0.00     0.198 C 
BRANCH  23  24
HETATM   24  O3  UNL     1       5.788  55.484  18.965  1.00  0.00    -0.398 OA
ATOM     25  H3  UNL     1       5.355  56.328  18.915  1.00  0.00     0.209 HD
ENDBRANCH  23  24
ENDBRANCH  19  23
BRANCH  20  26
HETATM   26  O4  UNL     1       4.532  54.734  15.143  1.00  0.00    -0.390 OA
ATOM     27  H4  UNL     1       4.090  54.522  14.330  1.00  0.00     0.210 HD
ENDBRANCH  20  26
BRANCH  21  28
HETATM   28  O5  UNL     1       2.050  53.005  15.056  1.00  0.00    -0.390 OA
ATOM     29  H5  UNL     1       1.565  53.233  14.272  1.00  0.00     0.210 HD
ENDBRANCH  21  28
BRANCH  22  30
HETATM   30  O6  UNL     1       0.159  54.891  16.139  1.00  0.00    -0.389 OA
ATOM     31  H6  UNL     1      -0.210  54.240  15.554  1.00  0.00     0.210 HD
ENDBRANCH  22  30
ENDBRANCH  15  17
ENDBRANCH   8  15
BRANCH  14  32
HETATM   32  O9  UNL     1      -0.109  60.756  19.786  1.00  0.00    -0.390 OA
ATOM     33  H9  UNL     1      -0.191  61.034  18.881  1.00  0.00     0.210 HD
ENDBRANCH  14  32
BRANCH   1  34
HETATM   34  C5  UNL     1      -1.427  60.395  22.499  1.00  0.00     0.036 C 
BRANCH  34  35
HETATM   35  C4  UNL     1      -2.856  60.750  22.395  1.00  0.00     0.003 C 
BRANCH  35  36
HETATM   36  C3  UNL     1      -3.232  61.683  23.522  1.00  0.00    -0.000 C 
BRANCH  36  37
HETATM   37  C2  UNL     1      -2.166  61.948  24.521  1.00  0.00    -0.005 C 
HETATM   38  C1  UNL     1      -2.770  62.873  25.588  1.00  0.00     0.005 C 
ENDBRANCH  36  37
ENDBRANCH  35  36
ENDBRANCH  34  35
ENDBRANCH   1  34
TORSDOF 12
ENDMDL
MODEL 5
REMARK VINA RESULT: -6.814576661      0.746      2.181
REMARK  12 active torsions:
REMARK  status: ('A' for Active; 'I' for Inactive)
REMARK    1  A    between atoms: C2_2  and  C3_3 
REMARK    2  A    between atoms: C3_3  and  C4_4 
REMARK    3  A    between atoms: C4_4  and  C5_5 
REMARK    4  A    between atoms: C5_5  and  C6_6 
REMARK    5  A    between atoms: C11_13  and  N2_14 
REMARK    6  A    between atoms: N2_14  and  C12_16 
REMARK    7  A    between atoms: C13_18  and  C14_19 
REMARK    8  A    between atoms: C14_19  and  O3_20 
REMARK    9  A    between atoms: C15_22  and  O4_23 
REMARK   10  A    between atoms: C16_25  and  O5_26 
REMARK   11  A    between atoms: C17_28  and  O6_29 
REMARK   12  A    between atoms: C21_36  and  O9_37 
ROOT
HETATM    1  C6  UNL     1      -0.044  59.589  22.239  1.00  0.00     0.177 C 
HETATM    2  O1  UNL     1      -0.606  58.978  21.155  1.00  0.00    -0.295 OA
HETATM    3  N1  UNL     1       0.121  59.090  20.052  1.00  0.00    -0.186 NA
HETATM    4  C7  UNL     1      -0.740  59.833  19.104  1.00  0.00     0.121 C 
HETATM    5  C8  UNL     1       0.002  59.778  17.814  1.00  0.00     0.019 C 
HETATM    6  C9  UNL     1       0.775  58.448  17.989  1.00  0.00     0.029 C 
HETATM    7  C10 UNL     1       0.285  57.865  19.268  1.00  0.00     0.134 C 
HETATM    8  C11 UNL     1       1.081  56.828  19.875  1.00  0.00     0.036 C 
HETATM    9  C18 UNL     1       0.811  56.725  21.417  1.00  0.00     0.202 C 
HETATM   10  O7  UNL     1       1.372  55.504  21.775  1.00  0.00    -0.353 OA
HETATM   11  C19 UNL     1       2.415  55.758  22.633  1.00  0.00     0.339 C 
HETATM   12  O8  UNL     1       2.303  57.021  23.141  1.00  0.00    -0.356 OA
HETATM   13  C20 UNL     1       1.508  57.737  22.216  1.00  0.00     0.190 C 
HETATM   14  C21 UNL     1       0.556  58.528  23.132  1.00  0.00     0.180 C 
ENDROOT
BRANCH   8  15
HETATM   15  N2  UNL     1       2.333  56.337  19.611  1.00  0.00    -0.365 N 
ATOM     16  H2  UNL     1       2.990  56.488  20.376  1.00  0.00     0.162 HD
BRANCH  15  17
HETATM   17  C12 UNL     1       2.894  55.688  18.543  1.00  0.00     0.253 C 
HETATM   18  O2  UNL     1       4.208  55.203  18.899  1.00  0.00    -0.354 OA
HETATM   19  C13 UNL     1       5.055  55.320  17.825  1.00  0.00     0.179 C 
HETATM   20  C15 UNL     1       4.640  54.329  16.749  1.00  0.00     0.180 C 
HETATM   21  C16 UNL     1       3.186  54.295  16.537  1.00  0.00     0.182 C 
HETATM   22  C17 UNL     1       2.307  54.591  17.762  1.00  0.00     0.198 C 
BRANCH  19  23
HETATM   23  C14 UNL     1       6.463  55.044  18.284  1.00  0.00     0.198 C 
BRANCH  23  24
HETATM   24  O3  UNL     1       6.597  53.831  18.931  1.00  0.00    -0.398 OA
ATOM     25  H3  UNL     1       5.770  53.476  19.238  1.00  0.00     0.209 HD
ENDBRANCH  23  24
ENDBRANCH  19  23
BRANCH  20  26
HETATM   26  O4  UNL     1       5.245  54.797  15.558  1.00  0.00    -0.390 OA
ATOM     27  H4  UNL     1       5.019  54.156  14.894  1.00  0.00     0.210 HD
ENDBRANCH  20  26
BRANCH  21  28
HETATM   28  O5  UNL     1       2.867  52.995  16.064  1.00  0.00    -0.390 OA
ATOM     29  H5  UNL     1       2.165  52.665  16.612  1.00  0.00     0.210 HD
ENDBRANCH  21  28
BRANCH  22  30
HETATM   30  O6  UNL     1       1.062  54.946  17.179  1.00  0.00    -0.389 OA
ATOM     31  H6  UNL     1       1.018  54.724  16.257  1.00  0.00     0.210 HD
ENDBRANCH  22  30
ENDBRANCH  15  17
ENDBRANCH   8  15
BRANCH  14  32
HETATM   32  O9  UNL     1      -0.371  57.685  23.690  1.00  0.00    -0.390 OA
ATOM     33  H9  UNL     1      -0.272  56.777  23.427  1.00  0.00     0.210 HD
ENDBRANCH  14  32
BRANCH   1  34
HETATM   34  C5  UNL     1      -0.847  60.596  22.967  1.00  0.00     0.036 C 
BRANCH  34  35
HETATM   35  C4  UNL     1      -2.287  60.702  22.659  1.00  0.00     0.003 C 
BRANCH  35  36
HETATM   36  C3  UNL     1      -2.972  61.538  23.713  1.00  0.00    -0.000 C 
BRANCH  36  37
HETATM   37  C2  UNL     1      -2.095  62.060  24.792  1.00  0.00    -0.005 C 
HETATM   38  C1  UNL     1      -2.912  63.103  25.570  1.00  0.00     0.005 C 
ENDBRANCH  36  37
ENDBRANCH  35  36
ENDBRANCH  34  35
ENDBRANCH   1  34
TORSDOF 12
ENDMDL
