MODEL 1
REMARK VINA RESULT: -6.485738834      0.000      0.000
REMARK  11 active torsions:
REMARK  status: ('A' for Active; 'I' for Inactive)
REMARK    1  A    between atoms: C2_2  and  C3_3 
REMARK    2  A    between atoms: C3_3  and  N1_4 
REMARK       I    between atoms: N1_4  and  C4_6 
REMARK    3  A    between atoms: C4_6  and  C5_8 
REMARK    4  A    between atoms: C6_10  and  S1_11 
REMARK    5  A    between atoms: S1_11  and  C7_12 
REMARK    6  A    between atoms: C8_14  and  C9_15 
REMARK    7  A    between atoms: C9_15  and  N2_16 
REMARK    8  A    between atoms: C10_20  and  O4_21 
REMARK    9  A    between atoms: C11_23  and  O5_24 
REMARK   10  A    between atoms: C12_26  and  N3_27 
REMARK   11  A    between atoms: C17_35  and  N4_36 
REMARK       I    between atoms: N4_36  and  C18_38 
ROOT
HETATM    1  C5  UNL     1      -5.471  60.510  18.907  1.00  0.00     0.237 C 
HETATM    2  O2  UNL     1      -4.330  60.692  18.130  1.00  0.00    -0.358 OA
HETATM    3  C6  UNL     1      -3.925  59.474  17.548  1.00  0.00     0.194 C 
HETATM    4  C13 UNL     1      -4.898  59.093  16.439  1.00  0.00    -0.010 C 
HETATM    5  C14 UNL     1      -4.612  59.816  15.159  1.00  0.00     0.018 C 
HETATM    6  C15 UNL     1      -4.978  57.595  16.237  1.00  0.00     0.018 C 
HETATM    7  C16 UNL     1      -6.327  59.493  16.885  1.00  0.00     0.040 C 
HETATM    8  C17 UNL     1      -6.331  59.388  18.394  1.00  0.00     0.123 C 
ENDROOT
BRANCH   3   9
HETATM    9  S1  UNL     1      -2.302  59.778  16.845  1.00  0.00    -0.103 SA
BRANCH   9  10
HETATM   10  C7  UNL     1      -1.119  60.535  17.973  1.00  0.00     0.218 C 
HETATM   11  O3  UNL     1      -1.103  59.872  19.147  1.00  0.00    -0.364 OA
HETATM   12  C8  UNL     1       0.098  59.648  19.757  1.00  0.00     0.179 C 
HETATM   13  C10 UNL     1       0.969  58.879  18.785  1.00  0.00     0.179 C 
HETATM   14  C11 UNL     1       1.282  59.815  17.652  1.00  0.00     0.183 C 
HETATM   15  C12 UNL     1       0.201  60.764  17.312  1.00  0.00     0.253 C 
BRANCH  12  16
HETATM   16  C9  UNL     1      -0.183  58.731  20.954  1.00  0.00     0.264 C 
BRANCH  16  17
HETATM   17  N2  UNL     1       0.976  57.963  21.306  1.00  0.00    -0.077 N 
ATOM     18  H23 UNL     1       1.284  57.375  20.532  1.00  0.00     0.274 HD
ATOM     19  H22 UNL     1       1.804  58.553  21.393  1.00  0.00     0.274 HD
ATOM     20  H21 UNL     1       0.816  57.416  22.151  1.00  0.00     0.274 HD
ENDBRANCH  16  17
ENDBRANCH  12  16
BRANCH  13  21
HETATM   21  O4  UNL     1       0.282  57.792  18.300  1.00  0.00    -0.390 OA
ATOM     22  H4  UNL     1       0.599  57.570  17.432  1.00  0.00     0.210 HD
ENDBRANCH  13  21
BRANCH  14  23
HETATM   23  O5  UNL     1       2.449  60.517  18.036  1.00  0.00    -0.391 OA
ATOM     24  H5  UNL     1       3.144  60.201  17.470  1.00  0.00     0.210 HD
ENDBRANCH  14  23
BRANCH  15  25
HETATM   25  N3  UNL     1       0.674  62.133  17.497  1.00  0.00    -0.069 N 
ATOM     26  H33 UNL     1       0.035  62.670  18.082  1.00  0.00     0.275 HD
ATOM     27  H32 UNL     1       1.501  62.161  18.093  1.00  0.00     0.275 HD
ATOM     28  H31 UNL     1       0.844  62.601  16.606  1.00  0.00     0.275 HD
ENDBRANCH  15  25
ENDBRANCH   9  10
ENDBRANCH   3   9
BRANCH   1  29
HETATM   29  C4  UNL     1      -5.108  60.326  20.360  1.00  0.00     0.248 C 
HETATM   30  N1  UNL     1      -3.818  60.667  20.769  1.00  0.00    -0.359 N 
ATOM     31  H1  UNL     1      -3.218  61.010  20.019  1.00  0.00     0.162 HD
HETATM   32  O1  UNL     1      -6.003  59.880  21.087  1.00  0.00    -0.271 OA
BRANCH  30  33
HETATM   33  C3  UNL     1      -3.192  60.624  22.039  1.00  0.00     0.122 C 
BRANCH  33  34
HETATM   34  C2  UNL     1      -3.529  61.629  23.068  1.00  0.00     0.015 C 
HETATM   35  C1  UNL     1      -2.595  61.808  24.222  1.00  0.00     0.006 C 
ENDBRANCH  33  34
ENDBRANCH  30  33
ENDBRANCH   1  29
BRANCH   8  36
HETATM   36  N4  UNL     1      -7.706  59.552  18.844  1.00  0.00    -0.354 N 
HETATM   37  C18 UNL     1      -8.459  58.412  19.218  1.00  0.00     0.214 C 
HETATM   38  C19 UNL     1      -9.864  58.523  19.682  1.00  0.00     0.117 C 
HETATM   39  O6  UNL     1      -7.940  57.272  19.161  1.00  0.00    -0.274 OA
ATOM     40  H4  UNL     1      -8.123  60.482  18.889  1.00  0.00     0.162 HD
ENDBRANCH   8  36
TORSDOF 11
ENDMDL
MODEL 2
REMARK VINA RESULT: -6.362881614      2.586      4.303
REMARK  11 active torsions:
REMARK  status: ('A' for Active; 'I' for Inactive)
REMARK    1  A    between atoms: C2_2  and  C3_3 
REMARK    2  A    between atoms: C3_3  and  N1_4 
REMARK       I    between atoms: N1_4  and  C4_6 
REMARK    3  A    between atoms: C4_6  and  C5_8 
REMARK    4  A    between atoms: C6_10  and  S1_11 
REMARK    5  A    between atoms: S1_11  and  C7_12 
REMARK    6  A    between atoms: C8_14  and  C9_15 
REMARK    7  A    between atoms: C9_15  and  N2_16 
REMARK    8  A    between atoms: C10_20  and  O4_21 
REMARK    9  A    between atoms: C11_23  and  O5_24 
REMARK   10  A    between atoms: C12_26  and  N3_27 
REMARK   11  A    between atoms: C17_35  and  N4_36 
REMARK       I    between atoms: N4_36  and  C18_38 
ROOT
HETATM    1  C5  UNL     1      -4.898  60.552  18.837  1.00  0.00     0.237 C 
HETATM    2  O2  UNL     1      -3.626  60.652  19.394  1.00  0.00    -0.358 OA
HETATM    3  C6  UNL     1      -2.749  59.719  18.804  1.00  0.00     0.194 C 
HETATM    4  C13 UNL     1      -2.413  60.165  17.387  1.00  0.00    -0.010 C 
HETATM    5  C14 UNL     1      -1.342  61.211  17.360  1.00  0.00     0.018 C 
HETATM    6  C15 UNL     1      -2.087  58.997  16.482  1.00  0.00     0.018 C 
HETATM    7  C16 UNL     1      -3.683  60.790  16.758  1.00  0.00     0.040 C 
HETATM    8  C17 UNL     1      -4.853  60.085  17.408  1.00  0.00     0.123 C 
ENDROOT
BRANCH   3   9
HETATM    9  S1  UNL     1      -1.262  59.736  19.809  1.00  0.00    -0.103 SA
BRANCH   9  10
HETATM   10  C7  UNL     1      -1.525  59.386  21.556  1.00  0.00     0.218 C 
HETATM   11  O3  UNL     1      -0.892  58.248  21.904  1.00  0.00    -0.364 OA
HETATM   12  C8  UNL     1      -0.240  58.201  23.103  1.00  0.00     0.179 C 
HETATM   13  C10 UNL     1       0.786  59.316  23.110  1.00  0.00     0.179 C 
HETATM   14  C11 UNL     1       0.019  60.608  23.140  1.00  0.00     0.183 C 
HETATM   15  C12 UNL     1      -1.263  60.588  22.403  1.00  0.00     0.253 C 
BRANCH  12  16
HETATM   16  C9  UNL     1       0.523  56.870  23.137  1.00  0.00     0.264 C 
BRANCH  16  17
HETATM   17  N2  UNL     1       1.719  56.974  23.920  1.00  0.00    -0.077 N 
ATOM     18  H23 UNL     1       2.451  56.357  23.569  1.00  0.00     0.274 HD
ATOM     19  H22 UNL     1       2.185  57.870  23.774  1.00  0.00     0.274 HD
ATOM     20  H21 UNL     1       1.530  56.807  24.908  1.00  0.00     0.274 HD
ENDBRANCH  16  17
ENDBRANCH  12  16
BRANCH  13  21
HETATM   21  O4  UNL     1       1.543  59.264  21.965  1.00  0.00    -0.390 OA
ATOM     22  H4  UNL     1       0.977  59.274  21.202  1.00  0.00     0.210 HD
ENDBRANCH  13  21
BRANCH  14  23
HETATM   23  O5  UNL     1      -0.206  60.899  24.507  1.00  0.00    -0.391 OA
ATOM     24  H5  UNL     1       0.326  61.661  24.704  1.00  0.00     0.210 HD
ENDBRANCH  14  23
BRANCH  15  25
HETATM   25  N3  UNL     1      -2.363  60.858  23.324  1.00  0.00    -0.069 N 
ATOM     26  H33 UNL     1      -2.324  61.814  23.678  1.00  0.00     0.275 HD
ATOM     27  H32 UNL     1      -3.255  60.904  22.833  1.00  0.00     0.275 HD
ATOM     28  H31 UNL     1      -2.395  60.182  24.088  1.00  0.00     0.275 HD
ENDBRANCH  15  25
ENDBRANCH   9  10
ENDBRANCH   3   9
BRANCH   1  29
HETATM   29  C4  UNL     1      -5.791  59.683  19.689  1.00  0.00     0.248 C 
HETATM   30  N1  UNL     1      -6.363  58.551  19.108  1.00  0.00    -0.359 N 
ATOM     31  H1  UNL     1      -6.124  58.419  18.125  1.00  0.00     0.162 HD
HETATM   32  O1  UNL     1      -5.946  60.052  20.859  1.00  0.00    -0.271 OA
BRANCH  30  33
HETATM   33  C3  UNL     1      -7.215  57.551  19.637  1.00  0.00     0.122 C 
BRANCH  33  34
HETATM   34  C2  UNL     1      -8.615  57.447  19.173  1.00  0.00     0.015 C 
HETATM   35  C1  UNL     1      -9.635  58.358  19.775  1.00  0.00     0.006 C 
ENDBRANCH  33  34
ENDBRANCH  30  33
ENDBRANCH   1  29
BRANCH   8  36
HETATM   36  N4  UNL     1      -6.060  60.491  16.702  1.00  0.00    -0.354 N 
HETATM   37  C18 UNL     1      -6.828  59.518  16.016  1.00  0.00     0.214 C 
HETATM   38  C19 UNL     1      -8.065  59.876  15.280  1.00  0.00     0.117 C 
HETATM   39  O6  UNL     1      -6.467  58.317  16.022  1.00  0.00    -0.274 OA
ATOM     40  H4  UNL     1      -6.350  61.469  16.700  1.00  0.00     0.162 HD
ENDBRANCH   8  36
TORSDOF 11
ENDMDL
MODEL 3
REMARK VINA RESULT: -6.323551533      1.009      1.075
REMARK  11 active torsions:
REMARK  status: ('A' for Active; 'I' for Inactive)
REMARK    1  A    between atoms: C2_2  and  C3_3 
REMARK    2  A    between atoms: C3_3  and  N1_4 
REMARK       I    between atoms: N1_4  and  C4_6 
REMARK    3  A    between atoms: C4_6  and  C5_8 
REMARK    4  A    between atoms: C6_10  and  S1_11 
REMARK    5  A    between atoms: S1_11  and  C7_12 
REMARK    6  A    between atoms: C8_14  and  C9_15 
REMARK    7  A    between atoms: C9_15  and  N2_16 
REMARK    8  A    between atoms: C10_20  and  O4_21 
REMARK    9  A    between atoms: C11_23  and  O5_24 
REMARK   10  A    between atoms: C12_26  and  N3_27 
REMARK   11  A    between atoms: C17_35  and  N4_36 
REMARK       I    between atoms: N4_36  and  C18_38 
ROOT
HETATM    1  C5  UNL     1      -5.999  59.975  18.626  1.00  0.00     0.237 C 
HETATM    2  O2  UNL     1      -4.780  60.072  17.960  1.00  0.00    -0.358 OA
HETATM    3  C6  UNL     1      -4.230  58.793  17.739  1.00  0.00     0.194 C 
HETATM    4  C13 UNL     1      -5.027  58.079  16.654  1.00  0.00    -0.010 C 
HETATM    5  C14 UNL     1      -4.621  58.508  15.277  1.00  0.00     0.018 C 
HETATM    6  C15 UNL     1      -4.989  56.574  16.813  1.00  0.00     0.018 C 
HETATM    7  C16 UNL     1      -6.522  58.443  16.828  1.00  0.00     0.040 C 
HETATM    8  C17 UNL     1      -6.715  58.691  18.307  1.00  0.00     0.123 C 
ENDROOT
BRANCH   3   9
HETATM    9  S1  UNL     1      -2.551  59.070  17.169  1.00  0.00    -0.103 SA
BRANCH   9  10
HETATM   10  C7  UNL     1      -1.688  60.425  17.984  1.00  0.00     0.218 C 
HETATM   11  O3  UNL     1      -1.149  60.002  19.146  1.00  0.00    -0.364 OA
HETATM   12  C8  UNL     1       0.101  60.435  19.483  1.00  0.00     0.179 C 
HETATM   13  C10 UNL     1       1.043  60.029  18.367  1.00  0.00     0.179 C 
HETATM   14  C11 UNL     1       0.665  60.847  17.165  1.00  0.00     0.183 C 
HETATM   15  C12 UNL     1      -0.779  61.143  17.042  1.00  0.00     0.253 C 
BRANCH  12  16
HETATM   16  C9  UNL     1       0.511  59.657  20.740  1.00  0.00     0.264 C 
BRANCH  16  17
HETATM   17  N2  UNL     1      -0.234  58.439  20.865  1.00  0.00    -0.077 N 
ATOM     18  H23 UNL     1      -1.161  58.605  21.256  1.00  0.00     0.274 HD
ATOM     19  H22 UNL     1      -0.511  58.074  19.953  1.00  0.00     0.274 HD
ATOM     20  H21 UNL     1       0.280  57.743  21.405  1.00  0.00     0.274 HD
ENDBRANCH  16  17
ENDBRANCH  12  16
BRANCH  13  21
HETATM   21  O4  UNL     1       0.880  58.696  18.079  1.00  0.00    -0.390 OA
ATOM     22  H4  UNL     1       0.660  58.587  17.161  1.00  0.00     0.210 HD
ENDBRANCH  13  21
BRANCH  14  23
HETATM   23  O5  UNL     1       1.406  62.049  17.260  1.00  0.00    -0.391 OA
ATOM     24  H5  UNL     1       1.666  62.126  18.170  1.00  0.00     0.210 HD
ENDBRANCH  14  23
BRANCH  15  25
HETATM   25  N3  UNL     1      -0.988  62.588  17.076  1.00  0.00    -0.069 N 
ATOM     26  H33 UNL     1      -0.804  63.010  16.166  1.00  0.00     0.275 HD
ATOM     27  H32 UNL     1      -1.978  62.817  17.164  1.00  0.00     0.275 HD
ATOM     28  H31 UNL     1      -0.438  63.036  17.810  1.00  0.00     0.275 HD
ENDBRANCH  15  25
ENDBRANCH   9  10
ENDBRANCH   3   9
BRANCH   1  29
HETATM   29  C4  UNL     1      -5.816  60.167  20.111  1.00  0.00     0.248 C 
HETATM   30  N1  UNL     1      -4.626  60.735  20.565  1.00  0.00    -0.359 N 
ATOM     31  H1  UNL     1      -3.962  60.964  19.824  1.00  0.00     0.162 HD
HETATM   32  O1  UNL     1      -6.759  59.800  20.823  1.00  0.00    -0.271 OA
BRANCH  30  33
HETATM   33  C3  UNL     1      -4.171  61.051  21.868  1.00  0.00     0.122 C 
BRANCH  33  34
HETATM   34  C2  UNL     1      -2.852  60.570  22.332  1.00  0.00     0.015 C 
HETATM   35  C1  UNL     1      -2.180  61.300  23.450  1.00  0.00     0.006 C 
ENDBRANCH  33  34
ENDBRANCH  30  33
ENDBRANCH   1  29
BRANCH   8  36
HETATM   36  N4  UNL     1      -8.144  58.832  18.548  1.00  0.00    -0.354 N 
HETATM   37  C18 UNL     1      -8.876  57.736  19.067  1.00  0.00     0.214 C 
HETATM   38  C19 UNL     1     -10.334  57.825  19.329  1.00  0.00     0.117 C 
HETATM   39  O6  UNL     1      -8.293  56.655  19.316  1.00  0.00    -0.274 OA
ATOM     40  H4  UNL     1      -8.615  59.714  18.344  1.00  0.00     0.162 HD
ENDBRANCH   8  36
TORSDOF 11
ENDMDL
MODEL 4
REMARK VINA RESULT: -6.170246832      4.573      7.236
REMARK  11 active torsions:
REMARK  status: ('A' for Active; 'I' for Inactive)
REMARK    1  A    between atoms: C2_2  and  C3_3 
REMARK    2  A    between atoms: C3_3  and  N1_4 
REMARK       I    between atoms: N1_4  and  C4_6 
REMARK    3  A    between atoms: C4_6  and  C5_8 
REMARK    4  A    between atoms: C6_10  and  S1_11 
REMARK    5  A    between atoms: S1_11  and  C7_12 
REMARK    6  A    between atoms: C8_14  and  C9_15 
REMARK    7  A    between atoms: C9_15  and  N2_16 
REMARK    8  A    between atoms: C10_20  and  O4_21 
REMARK    9  A    between atoms: C11_23  and  O5_24 
REMARK   10  A    between atoms: C12_26  and  N3_27 
REMARK   11  A    between atoms: C17_35  and  N4_36 
REMARK       I    between atoms: N4_36  and  C18_38 
ROOT
HETATM    1  C5  UNL     1       1.333  57.850  21.512  1.00  0.00     0.237 C 
HETATM    2  O2  UNL     1       1.502  57.231  20.277  1.00  0.00    -0.358 OA
HETATM    3  C6  UNL     1       0.315  57.296  19.521  1.00  0.00     0.194 C 
HETATM    4  C13 UNL     1       0.101  58.723  19.033  1.00  0.00    -0.010 C 
HETATM    5  C14 UNL     1       0.912  59.034  17.813  1.00  0.00     0.018 C 
HETATM    6  C15 UNL     1      -1.365  59.047  18.837  1.00  0.00     0.018 C 
HETATM    7  C16 UNL     1       0.559  59.693  20.150  1.00  0.00     0.040 C 
HETATM    8  C17 UNL     1       0.322  58.962  21.453  1.00  0.00     0.123 C 
ENDROOT
BRANCH   3   9
HETATM    9  S1  UNL     1       0.566  56.210  18.113  1.00  0.00    -0.103 SA
BRANCH   9  10
HETATM   10  C7  UNL     1       2.289  55.846  17.736  1.00  0.00     0.218 C 
HETATM   11  O3  UNL     1       2.621  54.625  18.200  1.00  0.00    -0.364 OA
HETATM   12  C8  UNL     1       3.407  53.821  17.426  1.00  0.00     0.179 C 
HETATM   13  C10 UNL     1       2.700  53.630  16.099  1.00  0.00     0.179 C 
HETATM   14  C11 UNL     1       2.715  54.963  15.407  1.00  0.00     0.183 C 
HETATM   15  C12 UNL     1       2.610  56.133  16.306  1.00  0.00     0.253 C 
BRANCH  12  16
HETATM   16  C9  UNL     1       3.460  52.455  18.123  1.00  0.00     0.264 C 
BRANCH  16  17
HETATM   17  N2  UNL     1       3.310  51.384  17.183  1.00  0.00    -0.077 N 
ATOM     18  H23 UNL     1       2.353  51.322  16.836  1.00  0.00     0.274 HD
ATOM     19  H22 UNL     1       3.783  51.589  16.303  1.00  0.00     0.274 HD
ATOM     20  H21 UNL     1       3.623  50.497  17.578  1.00  0.00     0.274 HD
ENDBRANCH  16  17
ENDBRANCH  12  16
BRANCH  13  21
HETATM   21  O4  UNL     1       1.400  53.243  16.313  1.00  0.00    -0.390 OA
ATOM     22  H4  UNL     1       0.970  53.077  15.482  1.00  0.00     0.210 HD
ENDBRANCH  13  21
BRANCH  14  23
HETATM   23  O5  UNL     1       3.926  55.012  14.676  1.00  0.00    -0.391 OA
ATOM     24  H5  UNL     1       3.727  55.466  13.866  1.00  0.00     0.210 HD
ENDBRANCH  14  23
BRANCH  15  25
HETATM   25  N3  UNL     1       3.803  56.964  16.169  1.00  0.00    -0.069 N 
ATOM     26  H33 UNL     1       3.717  57.610  15.385  1.00  0.00     0.275 HD
ATOM     27  H32 UNL     1       3.872  57.641  16.929  1.00  0.00     0.275 HD
ATOM     28  H31 UNL     1       4.652  56.403  16.096  1.00  0.00     0.275 HD
ENDBRANCH  15  25
ENDBRANCH   9  10
ENDBRANCH   3   9
BRANCH   1  29
HETATM   29  C4  UNL     1       0.998  56.837  22.579  1.00  0.00     0.248 C 
HETATM   30  N1  UNL     1       1.762  55.672  22.652  1.00  0.00    -0.359 N 
ATOM     31  H1  UNL     1       2.494  55.608  21.944  1.00  0.00     0.162 HD
HETATM   32  O1  UNL     1       0.052  57.128  23.322  1.00  0.00    -0.271 OA
BRANCH  30  33
HETATM   33  C3  UNL     1       1.706  54.563  23.530  1.00  0.00     0.122 C 
BRANCH  33  34
HETATM   34  C2  UNL     1       0.556  53.635  23.482  1.00  0.00     0.015 C 
HETATM   35  C1  UNL     1       0.600  52.402  24.325  1.00  0.00     0.006 C 
ENDBRANCH  33  34
ENDBRANCH  30  33
ENDBRANCH   1  29
BRANCH   8  36
HETATM   36  N4  UNL     1       0.542  59.909  22.537  1.00  0.00    -0.354 N 
HETATM   37  C18 UNL     1      -0.562  60.601  23.093  1.00  0.00     0.214 C 
HETATM   38  C19 UNL     1      -0.395  61.577  24.197  1.00  0.00     0.117 C 
HETATM   39  O6  UNL     1      -1.718  60.396  22.652  1.00  0.00    -0.274 OA
ATOM     40  H4  UNL     1       1.484  60.073  22.892  1.00  0.00     0.162 HD
ENDBRANCH   8  36
TORSDOF 11
ENDMDL
MODEL 5
REMARK VINA RESULT: -6.164393741      4.376      6.612
REMARK  11 active torsions:
REMARK  status: ('A' for Active; 'I' for Inactive)
REMARK    1  A    between atoms: C2_2  and  C3_3 
REMARK    2  A    between atoms: C3_3  and  N1_4 
REMARK       I    between atoms: N1_4  and  C4_6 
REMARK    3  A    between atoms: C4_6  and  C5_8 
REMARK    4  A    between atoms: C6_10  and  S1_11 
REMARK    5  A    between atoms: S1_11  and  C7_12 
REMARK    6  A    between atoms: C8_14  and  C9_15 
REMARK    7  A    between atoms: C9_15  and  N2_16 
REMARK    8  A    between atoms: C10_20  and  O4_21 
REMARK    9  A    between atoms: C11_23  and  O5_24 
REMARK   10  A    between atoms: C12_26  and  N3_27 
REMARK   11  A    between atoms: C17_35  and  N4_36 
REMARK       I    between atoms: N4_36  and  C18_38 
ROOT
HETATM    1  C5  UNL     1       0.893  58.572  21.865  1.00  0.00     0.237 C 
HETATM    2  O2  UNL     1       0.937  58.179  20.530  1.00  0.00    -0.358 OA
HETATM    3  C6  UNL     1      -0.335  58.298  19.935  1.00  0.00     0.194 C 
HETATM    4  C13 UNL     1      -0.663  59.772  19.729  1.00  0.00    -0.010 C 
HETATM    5  C14 UNL     1      -0.017  60.330  18.497  1.00  0.00     0.018 C 
HETATM    6  C15 UNL     1      -2.153  60.036  19.756  1.00  0.00     0.018 C 
HETATM    7  C16 UNL     1      -0.113  60.567  20.938  1.00  0.00     0.040 C 
HETATM    8  C17 UNL     1      -0.161  59.616  22.113  1.00  0.00     0.123 C 
ENDROOT
BRANCH   3   9
HETATM    9  S1  UNL     1      -0.212  57.480  18.341  1.00  0.00    -0.103 SA
BRANCH   9  10
HETATM   10  C7  UNL     1       1.466  57.291  17.715  1.00  0.00     0.218 C 
HETATM   11  O3  UNL     1       1.868  56.011  17.838  1.00  0.00    -0.364 OA
HETATM   12  C8  UNL     1       2.581  55.447  16.818  1.00  0.00     0.179 C 
HETATM   13  C10 UNL     1       1.737  55.543  15.563  1.00  0.00     0.179 C 
HETATM   14  C11 UNL     1       1.652  57.002  15.211  1.00  0.00     0.183 C 
HETATM   15  C12 UNL     1       1.624  57.921  16.370  1.00  0.00     0.253 C 
BRANCH  12  16
HETATM   16  C9  UNL     1       2.734  53.959  17.159  1.00  0.00     0.264 C 
BRANCH  16  17
HETATM   17  N2  UNL     1       3.116  53.774  18.528  1.00  0.00    -0.077 N 
ATOM     18  H23 UNL     1       4.115  53.928  18.662  1.00  0.00     0.274 HD
ATOM     19  H22 UNL     1       2.761  54.526  19.121  1.00  0.00     0.274 HD
ATOM     20  H21 UNL     1       2.829  52.859  18.874  1.00  0.00     0.274 HD
ENDBRANCH  16  17
ENDBRANCH  12  16
BRANCH  13  21
HETATM   21  O4  UNL     1       0.474  55.061  15.809  1.00  0.00    -0.390 OA
ATOM     22  H4  UNL     1       0.019  55.637  16.412  1.00  0.00     0.210 HD
ENDBRANCH  13  21
BRANCH  14  23
HETATM   23  O5  UNL     1       2.775  57.274  14.395  1.00  0.00    -0.391 OA
ATOM     24  H5  UNL     1       3.061  58.150  14.626  1.00  0.00     0.210 HD
ENDBRANCH  14  23
BRANCH  15  25
HETATM   25  N3  UNL     1       2.780  58.812  16.315  1.00  0.00    -0.069 N 
ATOM     26  H33 UNL     1       2.493  59.789  16.270  1.00  0.00     0.275 HD
ATOM     27  H32 UNL     1       3.275  58.831  17.207  1.00  0.00     0.275 HD
ATOM     28  H31 UNL     1       3.409  58.574  15.548  1.00  0.00     0.275 HD
ENDBRANCH  15  25
ENDBRANCH   9  10
ENDBRANCH   3   9
BRANCH   1  29
HETATM   29  C4  UNL     1       0.730  57.377  22.772  1.00  0.00     0.248 C 
HETATM   30  N1  UNL     1       1.677  56.355  22.700  1.00  0.00    -0.359 N 
ATOM     31  H1  UNL     1       2.411  56.513  22.008  1.00  0.00     0.162 HD
HETATM   32  O1  UNL     1      -0.252  57.400  23.524  1.00  0.00    -0.271 OA
BRANCH  30  33
HETATM   33  C3  UNL     1       1.805  55.139  23.413  1.00  0.00     0.122 C 
BRANCH  33  34
HETATM   34  C2  UNL     1       0.846  54.038  23.183  1.00  0.00     0.015 C 
HETATM   35  C1  UNL     1       0.842  52.886  24.134  1.00  0.00     0.006 C 
ENDBRANCH  33  34
ENDBRANCH  30  33
ENDBRANCH   1  29
BRANCH   8  36
HETATM   36  N4  UNL     1       0.150  60.380  23.313  1.00  0.00    -0.354 N 
HETATM   37  C18 UNL     1      -0.844  61.208  23.890  1.00  0.00     0.214 C 
HETATM   38  C19 UNL     1      -0.581  62.008  25.111  1.00  0.00     0.117 C 
HETATM   39  O6  UNL     1      -1.982  61.278  23.368  1.00  0.00    -0.274 OA
ATOM     40  H4  UNL     1       1.077  60.319  23.734  1.00  0.00     0.162 HD
ENDBRANCH   8  36
TORSDOF 11
ENDMDL
