MODEL 1
REMARK VINA RESULT: -7.071880328      0.000      0.000
REMARK  11 active torsions:
REMARK  status: ('A' for Active; 'I' for Inactive)
REMARK       I    between atoms: C1_2  and  N1_3 
REMARK    1  A    between atoms: C1_2  and  C18_33 
REMARK    2  A    between atoms: N1_3  and  C2_5 
REMARK    3  A    between atoms: C4_8  and  O3_9 
REMARK    4  A    between atoms: O3_9  and  C5_10 
REMARK    5  A    between atoms: C6_12  and  C7_13 
REMARK    6  A    between atoms: C7_13  and  O5_14 
REMARK    7  A    between atoms: C8_16  and  O6_17 
REMARK    8  A    between atoms: C9_19  and  O7_20 
REMARK    9  A    between atoms: C10_22  and  O8_23 
REMARK   10  A    between atoms: C11_25  and  O9_26 
REMARK   11  A    between atoms: O9_26  and  C12_27 
ROOT
HETATM    1  C2  UNL     1      -2.001  59.995  17.501  1.00  0.00     0.142 C 
HETATM    2  C3  UNL     1      -0.884  61.051  17.413  1.00  0.00     0.199 C 
HETATM    3  O2  UNL     1       0.297  60.379  17.580  1.00  0.00    -0.356 OA
HETATM    4  C4  UNL     1      -0.019  59.432  18.589  1.00  0.00     0.293 C 
HETATM    5  C11 UNL     1      -1.242  58.805  17.976  1.00  0.00     0.202 C 
ENDROOT
BRANCH   4   6
HETATM    6  O3  UNL     1      -0.279  60.156  19.718  1.00  0.00    -0.326 OA
BRANCH   6   7
HETATM    7  C5  UNL     1      -0.293  59.252  20.801  1.00  0.00     0.294 C 
HETATM    8  O4  UNL     1       0.869  58.495  20.835  1.00  0.00    -0.348 OA
HETATM    9  C6  UNL     1       0.675  57.485  21.768  1.00  0.00     0.179 C 
HETATM   10  C8  UNL     1       0.555  57.990  23.187  1.00  0.00     0.180 C 
HETATM   11  C9  UNL     1       0.524  59.503  23.144  1.00  0.00     0.183 C 
HETATM   12  C10 UNL     1      -0.458  59.998  22.109  1.00  0.00     0.204 C 
BRANCH   9  13
HETATM   13  C7  UNL     1       1.753  56.417  21.662  1.00  0.00     0.198 C 
BRANCH  13  14
HETATM   14  O5  UNL     1       2.471  56.549  20.475  1.00  0.00    -0.398 OA
ATOM     15  H5  UNL     1       2.694  55.698  20.116  1.00  0.00     0.209 HD
ENDBRANCH  13  14
ENDBRANCH   9  13
BRANCH  10  16
HETATM   16  O6  UNL     1      -0.610  57.528  23.799  1.00  0.00    -0.390 OA
ATOM     17  H6  UNL     1      -0.423  57.092  24.622  1.00  0.00     0.210 HD
ENDBRANCH  10  16
BRANCH  11  18
HETATM   18  O7  UNL     1       0.110  59.962  24.399  1.00  0.00    -0.390 OA
ATOM     19  H7  UNL     1       0.168  60.910  24.398  1.00  0.00     0.210 HD
ENDBRANCH  11  18
BRANCH  12  20
HETATM   20  O8  UNL     1      -1.741  59.776  22.668  1.00  0.00    -0.388 OA
ATOM     21  H8  UNL     1      -1.678  59.343  23.512  1.00  0.00     0.210 HD
ENDBRANCH  12  20
ENDBRANCH   6   7
ENDBRANCH   4   6
BRANCH   5  22
HETATM   22  O9  UNL     1      -1.015  57.816  17.064  1.00  0.00    -0.373 OA
BRANCH  22  23
HETATM   23  C12 UNL     1       0.245  57.255  17.138  1.00  0.00     0.122 C 
HETATM   24  C13 UNL     1       0.913  57.110  15.773  1.00  0.00     0.032 C 
HETATM   25  C14 UNL     1       2.386  56.869  16.020  1.00  0.00     0.002 C 
HETATM   26  C15 UNL     1       2.545  55.844  17.092  1.00  0.00     0.000 C 
HETATM   27  C16 UNL     1       1.313  55.000  17.305  1.00  0.00     0.002 C 
HETATM   28  C17 UNL     1       0.121  55.833  17.670  1.00  0.00     0.032 C 
ENDBRANCH  22  23
ENDBRANCH   5  22
BRANCH   1  29
HETATM   29  N1  UNL     1      -2.982  60.499  18.437  1.00  0.00    -0.350 N 
HETATM   30  C1  UNL     1      -4.263  59.972  18.612  1.00  0.00     0.249 C 
HETATM   31  O1  UNL     1      -4.627  58.992  17.926  1.00  0.00    -0.271 OA
ATOM     32  H1  UNL     1      -2.718  61.300  19.011  1.00  0.00     0.163 HD
BRANCH  30  33
HETATM   33  C18 UNL     1      -5.193  60.561  19.598  1.00  0.00     0.277 C 
HETATM   34  C19 UNL     1      -6.257  59.618  20.045  1.00  0.00     0.044 C 
HETATM   35  C20 UNL     1      -7.542  60.256  19.627  1.00  0.00     0.030 C 
HETATM   36  C21 UNL     1      -7.194  61.726  19.554  1.00  0.00     0.233 C 
HETATM   37  N2  UNL     1      -5.815  61.768  19.105  1.00  0.00    -0.062 N 
ATOM     38  H22 UNL     1      -5.325  62.620  19.380  1.00  0.00     0.278 HD
ATOM     39  H21 UNL     1      -5.721  61.890  18.097  1.00  0.00     0.278 HD
ENDBRANCH  30  33
ENDBRANCH   1  29
TORSDOF 11
ENDMDL
MODEL 2
REMARK VINA RESULT: -6.997388807      3.370      7.290
REMARK  11 active torsions:
REMARK  status: ('A' for Active; 'I' for Inactive)
REMARK       I    between atoms: C1_2  and  N1_3 
REMARK    1  A    between atoms: C1_2  and  C18_33 
REMARK    2  A    between atoms: N1_3  and  C2_5 
REMARK    3  A    between atoms: C4_8  and  O3_9 
REMARK    4  A    between atoms: O3_9  and  C5_10 
REMARK    5  A    between atoms: C6_12  and  C7_13 
REMARK    6  A    between atoms: C7_13  and  O5_14 
REMARK    7  A    between atoms: C8_16  and  O6_17 
REMARK    8  A    between atoms: C9_19  and  O7_20 
REMARK    9  A    between atoms: C10_22  and  O8_23 
REMARK   10  A    between atoms: C11_25  and  O9_26 
REMARK   11  A    between atoms: O9_26  and  C12_27 
ROOT
HETATM    1  C2  UNL     1       1.781  56.548  17.181  1.00  0.00     0.142 C 
HETATM    2  C3  UNL     1       0.972  55.257  17.403  1.00  0.00     0.199 C 
HETATM    3  O2  UNL     1      -0.025  55.574  18.287  1.00  0.00    -0.356 OA
HETATM    4  C4  UNL     1       0.629  56.439  19.203  1.00  0.00     0.293 C 
HETATM    5  C11 UNL     1       1.219  57.432  18.238  1.00  0.00     0.202 C 
ENDROOT
BRANCH   4   6
HETATM    6  O3  UNL     1       1.562  55.674  19.844  1.00  0.00    -0.326 OA
BRANCH   6   7
HETATM    7  C5  UNL     1       1.354  55.836  21.230  1.00  0.00     0.294 C 
HETATM    8  O4  UNL     1       1.553  54.643  21.909  1.00  0.00    -0.348 OA
HETATM    9  C6  UNL     1       1.104  54.829  23.209  1.00  0.00     0.179 C 
HETATM   10  C8  UNL     1       1.935  55.813  23.999  1.00  0.00     0.180 C 
HETATM   11  C9  UNL     1       2.942  56.437  23.057  1.00  0.00     0.183 C 
HETATM   12  C10 UNL     1       2.280  56.901  21.781  1.00  0.00     0.204 C 
BRANCH   9  13
HETATM   13  C7  UNL     1       0.983  53.507  23.950  1.00  0.00     0.198 C 
BRANCH  13  14
HETATM   14  O5  UNL     1       0.914  52.439  23.056  1.00  0.00    -0.398 OA
ATOM     15  H5  UNL     1       1.740  52.321  22.603  1.00  0.00     0.209 HD
ENDBRANCH  13  14
ENDBRANCH   9  13
BRANCH  10  16
HETATM   16  O6  UNL     1       1.147  56.821  24.554  1.00  0.00    -0.390 OA
ATOM     17  H6  UNL     1       0.910  56.625  25.453  1.00  0.00     0.210 HD
ENDBRANCH  10  16
BRANCH  11  18
HETATM   18  O7  UNL     1       3.499  57.550  23.694  1.00  0.00    -0.390 OA
ATOM     19  H7  UNL     1       3.467  58.281  23.089  1.00  0.00     0.210 HD
ENDBRANCH  11  18
BRANCH  12  20
HETATM   20  O8  UNL     1       1.565  58.073  22.131  1.00  0.00    -0.388 OA
ATOM     21  H8  UNL     1       1.375  58.602  21.366  1.00  0.00     0.210 HD
ENDBRANCH  12  20
ENDBRANCH   6   7
ENDBRANCH   4   6
BRANCH   5  22
HETATM   22  O9  UNL     1       0.388  58.433  17.827  1.00  0.00    -0.373 OA
BRANCH  22  23
HETATM   23  C12 UNL     1      -0.512  58.855  18.787  1.00  0.00     0.122 C 
HETATM   24  C13 UNL     1      -1.513  59.877  18.256  1.00  0.00     0.032 C 
HETATM   25  C14 UNL     1      -2.647  59.951  19.254  1.00  0.00     0.002 C 
HETATM   26  C15 UNL     1      -2.086  60.035  20.632  1.00  0.00     0.000 C 
HETATM   27  C16 UNL     1      -0.649  60.493  20.671  1.00  0.00     0.002 C 
HETATM   28  C17 UNL     1       0.248  59.581  19.889  1.00  0.00     0.032 C 
ENDBRANCH  22  23
ENDBRANCH   5  22
BRANCH   1  29
HETATM   29  N1  UNL     1       3.175  56.205  17.358  1.00  0.00    -0.350 N 
HETATM   30  C1  UNL     1       4.035  55.808  16.333  1.00  0.00     0.249 C 
HETATM   31  O1  UNL     1       3.607  55.729  15.161  1.00  0.00    -0.271 OA
ATOM     32  H1  UNL     1       3.557  56.256  18.302  1.00  0.00     0.163 HD
BRANCH  30  33
HETATM   33  C18 UNL     1       5.448  55.477  16.619  1.00  0.00     0.277 C 
HETATM   34  C19 UNL     1       5.787  54.050  16.354  1.00  0.00     0.044 C 
HETATM   35  C20 UNL     1       6.212  53.501  17.677  1.00  0.00     0.030 C 
HETATM   36  C21 UNL     1       6.678  54.726  18.431  1.00  0.00     0.233 C 
HETATM   37  N2  UNL     1       5.818  55.802  17.978  1.00  0.00    -0.062 N 
ATOM     38  H22 UNL     1       6.239  56.726  18.075  1.00  0.00     0.278 HD
ATOM     39  H21 UNL     1       5.016  55.964  18.587  1.00  0.00     0.278 HD
ENDBRANCH  30  33
ENDBRANCH   1  29
TORSDOF 11
ENDMDL
MODEL 3
REMARK VINA RESULT: -6.894099398      1.516      2.109
REMARK  11 active torsions:
REMARK  status: ('A' for Active; 'I' for Inactive)
REMARK       I    between atoms: C1_2  and  N1_3 
REMARK    1  A    between atoms: C1_2  and  C18_33 
REMARK    2  A    between atoms: N1_3  and  C2_5 
REMARK    3  A    between atoms: C4_8  and  O3_9 
REMARK    4  A    between atoms: O3_9  and  C5_10 
REMARK    5  A    between atoms: C6_12  and  C7_13 
REMARK    6  A    between atoms: C7_13  and  O5_14 
REMARK    7  A    between atoms: C8_16  and  O6_17 
REMARK    8  A    between atoms: C9_19  and  O7_20 
REMARK    9  A    between atoms: C10_22  and  O8_23 
REMARK   10  A    between atoms: C11_25  and  O9_26 
REMARK   11  A    between atoms: O9_26  and  C12_27 
ROOT
HETATM    1  C2  UNL     1      -1.960  60.021  17.517  1.00  0.00     0.142 C 
HETATM    2  C3  UNL     1      -0.865  61.102  17.455  1.00  0.00     0.199 C 
HETATM    3  O2  UNL     1       0.328  60.452  17.629  1.00  0.00    -0.356 OA
HETATM    4  C4  UNL     1       0.020  59.487  18.623  1.00  0.00     0.293 C 
HETATM    5  C11 UNL     1      -1.183  58.842  17.987  1.00  0.00     0.202 C 
ENDROOT
BRANCH   4   6
HETATM    6  O3  UNL     1      -0.268  60.192  19.757  1.00  0.00    -0.326 OA
BRANCH   6   7
HETATM    7  C5  UNL     1      -0.282  59.274  20.827  1.00  0.00     0.294 C 
HETATM    8  O4  UNL     1       0.882  58.520  20.856  1.00  0.00    -0.348 OA
HETATM    9  C6  UNL     1       0.688  57.498  21.774  1.00  0.00     0.179 C 
HETATM   10  C8  UNL     1       0.563  57.983  23.199  1.00  0.00     0.180 C 
HETATM   11  C9  UNL     1       0.527  59.497  23.176  1.00  0.00     0.183 C 
HETATM   12  C10 UNL     1      -0.454  60.002  22.145  1.00  0.00     0.204 C 
BRANCH   9  13
HETATM   13  C7  UNL     1       1.770  56.435  21.658  1.00  0.00     0.198 C 
BRANCH  13  14
HETATM   14  O5  UNL     1       2.448  56.543  20.445  1.00  0.00    -0.398 OA
ATOM     15  H5  UNL     1       2.554  57.453  20.195  1.00  0.00     0.209 HD
ENDBRANCH  13  14
ENDBRANCH   9  13
BRANCH  10  16
HETATM   16  O6  UNL     1      -0.603  57.510  23.802  1.00  0.00    -0.390 OA
ATOM     17  H6  UNL     1      -0.956  58.139  24.421  1.00  0.00     0.210 HD
ENDBRANCH  10  16
BRANCH  11  18
HETATM   18  O7  UNL     1       0.108  59.938  24.435  1.00  0.00    -0.390 OA
ATOM     19  H7  UNL     1       0.758  60.547  24.764  1.00  0.00     0.210 HD
ENDBRANCH  11  18
BRANCH  12  20
HETATM   20  O8  UNL     1      -1.737  59.769  22.698  1.00  0.00    -0.388 OA
ATOM     21  H8  UNL     1      -1.685  59.608  23.632  1.00  0.00     0.210 HD
ENDBRANCH  12  20
ENDBRANCH   6   7
ENDBRANCH   4   6
BRANCH   5  22
HETATM   22  O9  UNL     1      -0.924  57.869  17.067  1.00  0.00    -0.373 OA
BRANCH  22  23
HETATM   23  C12 UNL     1      -2.051  57.242  16.571  1.00  0.00     0.122 C 
HETATM   24  C13 UNL     1      -2.138  55.771  16.969  1.00  0.00     0.032 C 
HETATM   25  C14 UNL     1      -3.561  55.324  16.715  1.00  0.00     0.002 C 
HETATM   26  C15 UNL     1      -3.997  55.808  15.374  1.00  0.00     0.000 C 
HETATM   27  C16 UNL     1      -2.851  56.167  14.460  1.00  0.00     0.002 C 
HETATM   28  C17 UNL     1      -1.982  57.236  15.049  1.00  0.00     0.032 C 
ENDBRANCH  22  23
ENDBRANCH   5  22
BRANCH   1  29
HETATM   29  N1  UNL     1      -2.963  60.494  18.447  1.00  0.00    -0.350 N 
HETATM   30  C1  UNL     1      -4.259  59.985  18.549  1.00  0.00     0.249 C 
HETATM   31  O1  UNL     1      -4.619  59.054  17.797  1.00  0.00    -0.271 OA
ATOM     32  H1  UNL     1      -2.703  61.255  19.074  1.00  0.00     0.163 HD
BRANCH  30  33
HETATM   33  C18 UNL     1      -5.211  60.539  19.536  1.00  0.00     0.277 C 
HETATM   34  C19 UNL     1      -6.268  59.571  19.946  1.00  0.00     0.044 C 
HETATM   35  C20 UNL     1      -7.556  60.202  19.525  1.00  0.00     0.030 C 
HETATM   36  C21 UNL     1      -7.227  61.678  19.491  1.00  0.00     0.233 C 
HETATM   37  N2  UNL     1      -5.843  61.749  19.062  1.00  0.00    -0.062 N 
ATOM     38  H22 UNL     1      -5.368  62.600  19.364  1.00  0.00     0.278 HD
ATOM     39  H21 UNL     1      -5.736  61.895  18.059  1.00  0.00     0.278 HD
ENDBRANCH  30  33
ENDBRANCH   1  29
TORSDOF 11
ENDMDL
MODEL 4
REMARK VINA RESULT: -6.678185079      4.258      7.054
REMARK  11 active torsions:
REMARK  status: ('A' for Active; 'I' for Inactive)
REMARK       I    between atoms: C1_2  and  N1_3 
REMARK    1  A    between atoms: C1_2  and  C18_33 
REMARK    2  A    between atoms: N1_3  and  C2_5 
REMARK    3  A    between atoms: C4_8  and  O3_9 
REMARK    4  A    between atoms: O3_9  and  C5_10 
REMARK    5  A    between atoms: C6_12  and  C7_13 
REMARK    6  A    between atoms: C7_13  and  O5_14 
REMARK    7  A    between atoms: C8_16  and  O6_17 
REMARK    8  A    between atoms: C9_19  and  O7_20 
REMARK    9  A    between atoms: C10_22  and  O8_23 
REMARK   10  A    between atoms: C11_25  and  O9_26 
REMARK   11  A    between atoms: O9_26  and  C12_27 
ROOT
HETATM    1  C2  UNL     1       1.726  56.644  17.005  1.00  0.00     0.142 C 
HETATM    2  C3  UNL     1       0.787  55.452  17.267  1.00  0.00     0.199 C 
HETATM    3  O2  UNL     1      -0.148  55.888  18.167  1.00  0.00    -0.356 OA
HETATM    4  C4  UNL     1       0.618  56.689  19.054  1.00  0.00     0.293 C 
HETATM    5  C11 UNL     1       1.289  57.599  18.060  1.00  0.00     0.202 C 
ENDROOT
BRANCH   4   6
HETATM    6  O3  UNL     1       1.476  55.836  19.687  1.00  0.00    -0.326 OA
BRANCH   6   7
HETATM    7  C5  UNL     1       1.275  55.993  21.074  1.00  0.00     0.294 C 
HETATM    8  O4  UNL     1       1.505  54.805  21.751  1.00  0.00    -0.348 OA
HETATM    9  C6  UNL     1       1.061  54.980  23.054  1.00  0.00     0.179 C 
HETATM   10  C8  UNL     1       1.876  55.982  23.839  1.00  0.00     0.180 C 
HETATM   11  C9  UNL     1       2.863  56.628  22.890  1.00  0.00     0.183 C 
HETATM   12  C10 UNL     1       2.182  57.077  21.619  1.00  0.00     0.204 C 
BRANCH   9  13
HETATM   13  C7  UNL     1       0.974  53.655  23.795  1.00  0.00     0.198 C 
BRANCH  13  14
HETATM   14  O5  UNL     1       0.986  52.583  22.903  1.00  0.00    -0.398 OA
ATOM     15  H5  UNL     1       0.126  52.447  22.523  1.00  0.00     0.209 HD
ENDBRANCH  13  14
ENDBRANCH   9  13
BRANCH  10  16
HETATM   16  O6  UNL     1       1.069  56.972  24.399  1.00  0.00    -0.390 OA
ATOM     17  H6  UNL     1       1.584  57.713  24.699  1.00  0.00     0.210 HD
ENDBRANCH  10  16
BRANCH  11  18
HETATM   18  O7  UNL     1       3.399  57.753  23.524  1.00  0.00    -0.390 OA
ATOM     19  H7  UNL     1       3.629  58.386  22.854  1.00  0.00     0.210 HD
ENDBRANCH  11  18
BRANCH  12  20
HETATM   20  O8  UNL     1       1.444  58.233  21.975  1.00  0.00    -0.388 OA
ATOM     21  H8  UNL     1       1.319  58.286  22.915  1.00  0.00     0.210 HD
ENDBRANCH  12  20
ENDBRANCH   6   7
ENDBRANCH   4   6
BRANCH   5  22
HETATM   22  O9  UNL     1       0.563  58.678  17.651  1.00  0.00    -0.373 OA
BRANCH  22  23
HETATM   23  C12 UNL     1       1.084  59.328  16.548  1.00  0.00     0.122 C 
HETATM   24  C13 UNL     1       2.229  60.274  16.900  1.00  0.00     0.032 C 
HETATM   25  C14 UNL     1       2.948  60.602  15.611  1.00  0.00     0.002 C 
HETATM   26  C15 UNL     1       1.946  60.931  14.557  1.00  0.00     0.000 C 
HETATM   27  C16 UNL     1       0.595  61.313  15.108  1.00  0.00     0.002 C 
HETATM   28  C17 UNL     1       0.005  60.220  15.947  1.00  0.00     0.032 C 
ENDBRANCH  22  23
ENDBRANCH   5  22
BRANCH   1  29
HETATM   29  N1  UNL     1       3.078  56.152  17.157  1.00  0.00    -0.350 N 
HETATM   30  C1  UNL     1       4.011  56.051  16.123  1.00  0.00     0.249 C 
HETATM   31  O1  UNL     1       3.692  56.399  14.965  1.00  0.00    -0.271 OA
ATOM     32  H1  UNL     1       3.372  55.858  18.088  1.00  0.00     0.163 HD
BRANCH  30  33
HETATM   33  C18 UNL     1       5.372  55.534  16.383  1.00  0.00     0.277 C 
HETATM   34  C19 UNL     1       5.425  54.051  16.526  1.00  0.00     0.044 C 
HETATM   35  C20 UNL     1       5.921  53.813  17.915  1.00  0.00     0.030 C 
HETATM   36  C21 UNL     1       6.686  55.079  18.235  1.00  0.00     0.233 C 
HETATM   37  N2  UNL     1       5.968  56.139  17.552  1.00  0.00    -0.062 N 
ATOM     38  H22 UNL     1       6.550  56.949  17.338  1.00  0.00     0.278 HD
ATOM     39  H21 UNL     1       5.295  56.621  18.147  1.00  0.00     0.278 HD
ENDBRANCH  30  33
ENDBRANCH   1  29
TORSDOF 11
ENDMDL
MODEL 5
REMARK VINA RESULT: -6.661417422      3.631      6.633
REMARK  11 active torsions:
REMARK  status: ('A' for Active; 'I' for Inactive)
REMARK       I    between atoms: C1_2  and  N1_3 
REMARK    1  A    between atoms: C1_2  and  C18_33 
REMARK    2  A    between atoms: N1_3  and  C2_5 
REMARK    3  A    between atoms: C4_8  and  O3_9 
REMARK    4  A    between atoms: O3_9  and  C5_10 
REMARK    5  A    between atoms: C6_12  and  C7_13 
REMARK    6  A    between atoms: C7_13  and  O5_14 
REMARK    7  A    between atoms: C8_16  and  O6_17 
REMARK    8  A    between atoms: C9_19  and  O7_20 
REMARK    9  A    between atoms: C10_22  and  O8_23 
REMARK   10  A    between atoms: C11_25  and  O9_26 
REMARK   11  A    between atoms: O9_26  and  C12_27 
ROOT
HETATM    1  C2  UNL     1       1.293  57.682  17.084  1.00  0.00     0.142 C 
HETATM    2  C3  UNL     1      -0.152  57.157  16.997  1.00  0.00     0.199 C 
HETATM    3  O2  UNL     1      -0.936  58.076  17.643  1.00  0.00    -0.356 OA
HETATM    4  C4  UNL     1      -0.138  58.441  18.759  1.00  0.00     0.293 C 
HETATM    5  C11 UNL     1       1.139  58.804  18.051  1.00  0.00     0.202 C 
ENDROOT
BRANCH   4   6
HETATM    6  O3  UNL     1      -0.039  57.321  19.535  1.00  0.00    -0.326 OA
BRANCH   6   7
HETATM    7  C5  UNL     1       0.790  57.642  20.629  1.00  0.00     0.294 C 
HETATM    8  O4  UNL     1       0.053  58.177  21.675  1.00  0.00    -0.348 OA
HETATM    9  C6  UNL     1       0.957  58.679  22.602  1.00  0.00     0.179 C 
HETATM   10  C8  UNL     1       1.782  57.609  23.279  1.00  0.00     0.180 C 
HETATM   11  C9  UNL     1       1.476  56.287  22.608  1.00  0.00     0.183 C 
HETATM   12  C10 UNL     1       1.537  56.413  21.104  1.00  0.00     0.204 C 
BRANCH   9  13
HETATM   13  C7  UNL     1       0.266  59.561  23.630  1.00  0.00     0.198 C 
BRANCH  13  14
HETATM   14  O5  UNL     1       0.138  60.867  23.161  1.00  0.00    -0.398 OA
ATOM     15  H5  UNL     1      -0.377  60.894  22.364  1.00  0.00     0.209 HD
ENDBRANCH  13  14
ENDBRANCH   9  13
BRANCH  10  16
HETATM   16  O6  UNL     1       3.148  57.869  23.169  1.00  0.00    -0.390 OA
ATOM     17  H6  UNL     1       3.329  58.802  23.195  1.00  0.00     0.210 HD
ENDBRANCH  10  16
BRANCH  11  18
HETATM   18  O7  UNL     1       2.444  55.363  23.013  1.00  0.00    -0.390 OA
ATOM     19  H7  UNL     1       2.200  54.512  22.668  1.00  0.00     0.210 HD
ENDBRANCH  11  18
BRANCH  12  20
HETATM   20  O8  UNL     1       2.916  56.496  20.788  1.00  0.00    -0.388 OA
ATOM     21  H8  UNL     1       3.301  55.632  20.696  1.00  0.00     0.210 HD
ENDBRANCH  12  20
ENDBRANCH   6   7
ENDBRANCH   4   6
BRANCH   5  22
HETATM   22  O9  UNL     1       1.204  60.067  17.542  1.00  0.00    -0.373 OA
BRANCH  22  23
HETATM   23  C12 UNL     1       1.773  60.146  16.285  1.00  0.00     0.122 C 
HETATM   24  C13 UNL     1       3.268  60.449  16.326  1.00  0.00     0.032 C 
HETATM   25  C14 UNL     1       3.827  60.120  14.960  1.00  0.00     0.002 C 
HETATM   26  C15 UNL     1       2.934  60.688  13.911  1.00  0.00     0.000 C 
HETATM   27  C16 UNL     1       2.034  61.788  14.418  1.00  0.00     0.002 C 
HETATM   28  C17 UNL     1       1.152  61.317  15.535  1.00  0.00     0.032 C 
ENDBRANCH  22  23
ENDBRANCH   5  22
BRANCH   1  29
HETATM   29  N1  UNL     1       2.109  56.584  17.556  1.00  0.00    -0.350 N 
HETATM   30  C1  UNL     1       3.173  56.020  16.851  1.00  0.00     0.249 C 
HETATM   31  O1  UNL     1       3.473  56.467  15.722  1.00  0.00    -0.271 OA
ATOM     32  H1  UNL     1       1.890  56.194  18.473  1.00  0.00     0.163 HD
BRANCH  30  33
HETATM   33  C18 UNL     1       3.947  54.898  17.423  1.00  0.00     0.277 C 
HETATM   34  C19 UNL     1       4.560  54.015  16.390  1.00  0.00     0.044 C 
HETATM   35  C20 UNL     1       3.945  52.671  16.614  1.00  0.00     0.030 C 
HETATM   36  C21 UNL     1       3.537  52.712  18.069  1.00  0.00     0.233 C 
HETATM   37  N2  UNL     1       3.151  54.089  18.317  1.00  0.00    -0.062 N 
ATOM     38  H22 UNL     1       3.235  54.363  19.296  1.00  0.00     0.278 HD
ATOM     39  H21 UNL     1       2.149  54.252  18.227  1.00  0.00     0.278 HD
ENDBRANCH  30  33
ENDBRANCH   1  29
TORSDOF 11
ENDMDL
