MODEL 1
REMARK VINA RESULT: -7.245815719      0.000      0.000
REMARK  13 active torsions:
REMARK  status: ('A' for Active; 'I' for Inactive)
REMARK    1  A    between atoms: C2_2  and  C3_3 
REMARK    2  A    between atoms: C3_3  and  C4_4 
REMARK    3  A    between atoms: C4_4  and  C5_5 
REMARK    4  A    between atoms: C5_5  and  C6_6 
REMARK    5  A    between atoms: C7_7  and  C8_8 
REMARK    6  A    between atoms: C8_8  and  C9_9 
REMARK    7  A    between atoms: C16_19  and  O4_20 
REMARK    8  A    between atoms: C17_22  and  O5_23 
REMARK    9  A    between atoms: C18_25  and  O6_26 
REMARK   10  A    between atoms: C19_28  and  O7_29 
REMARK   11  A    between atoms: C20_31  and  C21_32 
REMARK   12  A    between atoms: C21_32  and  O8_33 
REMARK   13  A    between atoms: C22_36  and  O10_37 
ROOT
HETATM    1  C9  UNL     1      -6.746  59.349  18.442  1.00  0.00     0.135 C 
HETATM    2  O1  UNL     1      -7.219  59.502  17.113  1.00  0.00    -0.341 OA
HETATM    3  C10 UNL     1      -7.327  60.881  16.964  1.00  0.00     0.294 C 
HETATM    4  O2  UNL     1      -8.369  61.235  16.110  1.00  0.00    -0.324 OA
HETATM    5  C11 UNL     1      -8.915  62.379  16.695  1.00  0.00     0.160 C 
HETATM    6  C12 UNL     1     -10.237  62.756  16.099  1.00  0.00     0.078 C 
HETATM    7  C13 UNL     1      -7.937  63.542  16.610  1.00  0.00     0.078 C 
HETATM    8  O3  UNL     1      -9.053  61.981  18.043  1.00  0.00    -0.345 OA
HETATM    9  C14 UNL     1      -7.833  61.413  18.288  1.00  0.00     0.190 C 
HETATM   10  C15 UNL     1      -7.820  60.223  19.152  1.00  0.00     0.092 C 
HETATM   11  C16 UNL     1      -9.018  59.345  19.102  1.00  0.00     0.170 C 
HETATM   12  C17 UNL     1      -8.590  57.991  18.676  1.00  0.00     0.171 C 
HETATM   13  C18 UNL     1      -9.128  56.862  19.512  1.00  0.00     0.192 C 
HETATM   14  C19 UNL     1      -8.396  55.641  18.992  1.00  0.00     0.181 C 
HETATM   15  C20 UNL     1      -6.890  55.826  19.174  1.00  0.00     0.180 C 
HETATM   16  O9  UNL     1      -6.454  56.935  18.470  1.00  0.00    -0.340 OA
HETATM   17  C22 UNL     1      -7.079  58.040  19.016  1.00  0.00     0.232 C 
ENDROOT
BRANCH   1  18
HETATM   18  C8  UNL     1      -5.408  59.929  18.634  1.00  0.00     0.071 C 
BRANCH  18  19
HETATM   19  C7  UNL     1      -5.171  60.293  20.048  1.00  0.00    -0.027 C 
HETATM   20  C6  UNL     1      -3.924  60.519  20.547  1.00  0.00    -0.031 C 
BRANCH  20  21
HETATM   21  C5  UNL     1      -3.767  60.873  21.950  1.00  0.00     0.027 C 
BRANCH  21  22
HETATM   22  C4  UNL     1      -2.516  60.514  22.646  1.00  0.00     0.007 C 
BRANCH  22  23
HETATM   23  C3  UNL     1      -2.086  61.409  23.746  1.00  0.00     0.026 C 
BRANCH  23  24
HETATM   24  C2  UNL     1      -3.138  62.097  24.478  1.00  0.00    -0.037 C 
HETATM   25  C1  UNL     1      -2.788  62.841  25.558  1.00  0.00     0.007 C 
ENDBRANCH  23  24
ENDBRANCH  22  23
ENDBRANCH  21  22
ENDBRANCH  20  21
ENDBRANCH  18  19
ENDBRANCH   1  18
BRANCH  17  26
HETATM   26  O10 UNL     1      -6.997  58.094  20.406  1.00  0.00    -0.360 OA
ATOM     27  H10 UNL     1      -7.538  57.414  20.790  1.00  0.00     0.213 HD
ENDBRANCH  17  26
BRANCH  11  28
HETATM   28  O4  UNL     1      -9.999  59.793  18.218  1.00  0.00    -0.392 OA
ATOM     29  H4  UNL     1      -9.741  59.734  17.306  1.00  0.00     0.210 HD
ENDBRANCH  11  28
BRANCH  12  30
HETATM   30  O5  UNL     1      -8.789  57.703  17.350  1.00  0.00    -0.379 OA
ATOM     31  H5  UNL     1      -8.262  56.991  17.005  1.00  0.00     0.211 HD
ENDBRANCH  12  30
BRANCH  13  32
HETATM   32  O6  UNL     1     -10.490  56.638  19.304  1.00  0.00    -0.390 OA
ATOM     33  H6  UNL     1     -10.955  56.433  20.107  1.00  0.00     0.210 HD
ENDBRANCH  13  32
BRANCH  15  34
HETATM   34  C21 UNL     1      -6.179  54.547  18.792  1.00  0.00     0.198 C 
BRANCH  34  35
HETATM   35  O8  UNL     1      -6.038  53.662  19.843  1.00  0.00    -0.398 OA
ATOM     36  H8  UNL     1      -6.829  53.173  20.033  1.00  0.00     0.209 HD
ENDBRANCH  34  35
ENDBRANCH  15  34
BRANCH  14  37
HETATM   37  O7  UNL     1      -8.828  54.467  19.550  1.00  0.00    -0.390 OA
ATOM     38  H7  UNL     1      -8.132  53.835  19.685  1.00  0.00     0.210 HD
ENDBRANCH  14  37
TORSDOF 13
ENDMDL
MODEL 2
REMARK VINA RESULT: -7.172490461      0.840      1.524
REMARK  13 active torsions:
REMARK  status: ('A' for Active; 'I' for Inactive)
REMARK    1  A    between atoms: C2_2  and  C3_3 
REMARK    2  A    between atoms: C3_3  and  C4_4 
REMARK    3  A    between atoms: C4_4  and  C5_5 
REMARK    4  A    between atoms: C5_5  and  C6_6 
REMARK    5  A    between atoms: C7_7  and  C8_8 
REMARK    6  A    between atoms: C8_8  and  C9_9 
REMARK    7  A    between atoms: C16_19  and  O4_20 
REMARK    8  A    between atoms: C17_22  and  O5_23 
REMARK    9  A    between atoms: C18_25  and  O6_26 
REMARK   10  A    between atoms: C19_28  and  O7_29 
REMARK   11  A    between atoms: C20_31  and  C21_32 
REMARK   12  A    between atoms: C21_32  and  O8_33 
REMARK   13  A    between atoms: C22_36  and  O10_37 
ROOT
HETATM    1  C9  UNL     1      -6.740  59.389  18.522  1.00  0.00     0.135 C 
HETATM    2  O1  UNL     1      -7.216  59.532  17.193  1.00  0.00    -0.341 OA
HETATM    3  C10 UNL     1      -7.306  60.910  17.027  1.00  0.00     0.294 C 
HETATM    4  O2  UNL     1      -8.347  61.267  16.173  1.00  0.00    -0.324 OA
HETATM    5  C11 UNL     1      -8.875  62.426  16.744  1.00  0.00     0.160 C 
HETATM    6  C12 UNL     1     -10.194  62.814  16.149  1.00  0.00     0.078 C 
HETATM    7  C13 UNL     1      -7.882  63.574  16.641  1.00  0.00     0.078 C 
HETATM    8  O3  UNL     1      -9.013  62.047  18.098  1.00  0.00    -0.345 OA
HETATM    9  C14 UNL     1      -7.800  61.466  18.345  1.00  0.00     0.190 C 
HETATM   10  C15 UNL     1      -7.799  60.287  19.225  1.00  0.00     0.092 C 
HETATM   11  C16 UNL     1      -9.009  59.424  19.191  1.00  0.00     0.170 C 
HETATM   12  C17 UNL     1      -8.602  58.059  18.780  1.00  0.00     0.171 C 
HETATM   13  C18 UNL     1      -9.151  56.948  19.633  1.00  0.00     0.192 C 
HETATM   14  C19 UNL     1      -8.438  55.711  19.125  1.00  0.00     0.181 C 
HETATM   15  C20 UNL     1      -6.929  55.878  19.299  1.00  0.00     0.180 C 
HETATM   16  O9  UNL     1      -6.481  56.972  18.579  1.00  0.00    -0.340 OA
HETATM   17  C22 UNL     1      -7.089  58.092  19.113  1.00  0.00     0.232 C 
ENDROOT
BRANCH   1  18
HETATM   18  C8  UNL     1      -5.394  59.954  18.701  1.00  0.00     0.071 C 
BRANCH  18  19
HETATM   19  C7  UNL     1      -5.148  60.336  20.108  1.00  0.00    -0.027 C 
HETATM   20  C6  UNL     1      -3.896  60.550  20.601  1.00  0.00    -0.031 C 
BRANCH  20  21
HETATM   21  C5  UNL     1      -3.731  60.925  21.998  1.00  0.00     0.027 C 
BRANCH  21  22
HETATM   22  C4  UNL     1      -2.487  60.551  22.699  1.00  0.00     0.007 C 
BRANCH  22  23
HETATM   23  C3  UNL     1      -1.413  59.951  21.873  1.00  0.00     0.026 C 
BRANCH  23  24
HETATM   24  C2  UNL     1      -0.877  58.676  22.325  1.00  0.00    -0.037 C 
HETATM   25  C1  UNL     1       0.138  58.118  21.615  1.00  0.00     0.007 C 
ENDBRANCH  23  24
ENDBRANCH  22  23
ENDBRANCH  21  22
ENDBRANCH  20  21
ENDBRANCH  18  19
ENDBRANCH   1  18
BRANCH  17  26
HETATM   26  O10 UNL     1      -7.000  58.163  20.502  1.00  0.00    -0.360 OA
ATOM     27  H10 UNL     1      -6.368  57.529  20.820  1.00  0.00     0.213 HD
ENDBRANCH  17  26
BRANCH  11  28
HETATM   28  O4  UNL     1      -9.988  59.874  18.305  1.00  0.00    -0.392 OA
ATOM     29  H4  UNL     1     -10.212  59.240  17.635  1.00  0.00     0.210 HD
ENDBRANCH  11  28
BRANCH  12  30
HETATM   30  O5  UNL     1      -8.810  57.757  17.459  1.00  0.00    -0.379 OA
ATOM     31  H5  UNL     1      -8.297  57.031  17.122  1.00  0.00     0.211 HD
ENDBRANCH  12  30
BRANCH  13  32
HETATM   32  O6  UNL     1     -10.517  56.740  19.433  1.00  0.00    -0.390 OA
ATOM     33  H6  UNL     1     -11.045  57.040  20.163  1.00  0.00     0.210 HD
ENDBRANCH  13  32
BRANCH  15  34
HETATM   34  C21 UNL     1      -6.237  54.585  18.930  1.00  0.00     0.198 C 
BRANCH  34  35
HETATM   35  O8  UNL     1      -5.921  53.800  20.022  1.00  0.00    -0.398 OA
ATOM     36  H8  UNL     1      -6.112  52.879  19.893  1.00  0.00     0.209 HD
ENDBRANCH  34  35
ENDBRANCH  15  34
BRANCH  14  37
HETATM   37  O7  UNL     1      -8.883  54.551  19.699  1.00  0.00    -0.390 OA
ATOM     38  H7  UNL     1      -9.189  53.910  19.069  1.00  0.00     0.210 HD
ENDBRANCH  14  37
TORSDOF 13
ENDMDL
MODEL 3
REMARK VINA RESULT: -7.163753276      1.204      1.336
REMARK  13 active torsions:
REMARK  status: ('A' for Active; 'I' for Inactive)
REMARK    1  A    between atoms: C2_2  and  C3_3 
REMARK    2  A    between atoms: C3_3  and  C4_4 
REMARK    3  A    between atoms: C4_4  and  C5_5 
REMARK    4  A    between atoms: C5_5  and  C6_6 
REMARK    5  A    between atoms: C7_7  and  C8_8 
REMARK    6  A    between atoms: C8_8  and  C9_9 
REMARK    7  A    between atoms: C16_19  and  O4_20 
REMARK    8  A    between atoms: C17_22  and  O5_23 
REMARK    9  A    between atoms: C18_25  and  O6_26 
REMARK   10  A    between atoms: C19_28  and  O7_29 
REMARK   11  A    between atoms: C20_31  and  C21_32 
REMARK   12  A    between atoms: C21_32  and  O8_33 
REMARK   13  A    between atoms: C22_36  and  O10_37 
ROOT
HETATM    1  C9  UNL     1      -7.708  59.522  18.855  1.00  0.00     0.135 C 
HETATM    2  O1  UNL     1      -7.018  59.779  17.642  1.00  0.00    -0.341 OA
HETATM    3  C10 UNL     1      -7.270  61.126  17.405  1.00  0.00     0.294 C 
HETATM    4  O2  UNL     1      -7.333  61.415  16.043  1.00  0.00    -0.324 OA
HETATM    5  C11 UNL     1      -8.360  62.354  15.941  1.00  0.00     0.160 C 
HETATM    6  C12 UNL     1      -8.796  62.581  14.526  1.00  0.00     0.078 C 
HETATM    7  C13 UNL     1      -7.952  63.667  16.594  1.00  0.00     0.078 C 
HETATM    8  O3  UNL     1      -9.385  61.751  16.705  1.00  0.00    -0.345 OA
HETATM    9  C14 UNL     1      -8.703  61.371  17.827  1.00  0.00     0.190 C 
HETATM   10  C15 UNL     1      -9.095  60.090  18.435  1.00  0.00     0.092 C 
HETATM   11  C16 UNL     1      -9.596  59.037  17.515  1.00  0.00     0.170 C 
HETATM   12  C17 UNL     1      -8.716  57.850  17.635  1.00  0.00     0.171 C 
HETATM   13  C18 UNL     1      -9.436  56.538  17.796  1.00  0.00     0.192 C 
HETATM   14  C19 UNL     1      -8.326  55.547  18.086  1.00  0.00     0.181 C 
HETATM   15  C20 UNL     1      -7.587  55.958  19.358  1.00  0.00     0.180 C 
HETATM   16  O9  UNL     1      -7.026  57.214  19.203  1.00  0.00    -0.340 OA
HETATM   17  C22 UNL     1      -8.063  58.107  19.016  1.00  0.00     0.232 C 
ENDROOT
BRANCH   1  18
HETATM   18  C8  UNL     1      -7.163  60.288  19.986  1.00  0.00     0.071 C 
BRANCH  18  19
HETATM   19  C7  UNL     1      -5.741  59.962  20.229  1.00  0.00    -0.027 C 
HETATM   20  C6  UNL     1      -4.884  60.829  20.836  1.00  0.00    -0.031 C 
BRANCH  20  21
HETATM   21  C5  UNL     1      -3.496  60.438  21.042  1.00  0.00     0.027 C 
BRANCH  21  22
HETATM   22  C4  UNL     1      -2.929  60.500  22.403  1.00  0.00     0.007 C 
BRANCH  22  23
HETATM   23  C3  UNL     1      -3.359  61.635  23.252  1.00  0.00     0.026 C 
BRANCH  23  24
HETATM   24  C2  UNL     1      -2.582  61.881  24.458  1.00  0.00    -0.037 C 
HETATM   25  C1  UNL     1      -3.037  62.809  25.338  1.00  0.00     0.007 C 
ENDBRANCH  23  24
ENDBRANCH  22  23
ENDBRANCH  21  22
ENDBRANCH  20  21
ENDBRANCH  18  19
ENDBRANCH   1  18
BRANCH  17  26
HETATM   26  O10 UNL     1      -9.083  57.976  19.957  1.00  0.00    -0.360 OA
ATOM     27  H10 UNL     1      -9.808  58.548  19.731  1.00  0.00     0.213 HD
ENDBRANCH  17  26
BRANCH  11  28
HETATM   28  O4  UNL     1      -9.619  59.431  16.178  1.00  0.00    -0.392 OA
ATOM     29  H4  UNL     1      -9.898  58.744  15.585  1.00  0.00     0.210 HD
ENDBRANCH  11  28
BRANCH  12  30
HETATM   30  O5  UNL     1      -7.765  57.723  16.655  1.00  0.00    -0.379 OA
ATOM     31  H5  UNL     1      -7.773  56.896  16.185  1.00  0.00     0.211 HD
ENDBRANCH  12  30
BRANCH  13  32
HETATM   32  O6  UNL     1     -10.059  56.117  16.621  1.00  0.00    -0.390 OA
ATOM     33  H6  UNL     1     -10.746  55.480  16.778  1.00  0.00     0.210 HD
ENDBRANCH  13  32
BRANCH  15  34
HETATM   34  C21 UNL     1      -6.583  54.887  19.721  1.00  0.00     0.198 C 
BRANCH  34  35
HETATM   35  O8  UNL     1      -7.146  53.801  20.364  1.00  0.00    -0.398 OA
ATOM     36  H8  UNL     1      -6.671  52.992  20.226  1.00  0.00     0.209 HD
ENDBRANCH  34  35
ENDBRANCH  15  34
BRANCH  14  37
HETATM   37  O7  UNL     1      -8.759  54.249  18.156  1.00  0.00    -0.390 OA
ATOM     38  H7  UNL     1      -9.649  54.164  18.477  1.00  0.00     0.210 HD
ENDBRANCH  14  37
TORSDOF 13
ENDMDL
MODEL 4
REMARK VINA RESULT: -7.012942358      1.411      1.942
REMARK  13 active torsions:
REMARK  status: ('A' for Active; 'I' for Inactive)
REMARK    1  A    between atoms: C2_2  and  C3_3 
REMARK    2  A    between atoms: C3_3  and  C4_4 
REMARK    3  A    between atoms: C4_4  and  C5_5 
REMARK    4  A    between atoms: C5_5  and  C6_6 
REMARK    5  A    between atoms: C7_7  and  C8_8 
REMARK    6  A    between atoms: C8_8  and  C9_9 
REMARK    7  A    between atoms: C16_19  and  O4_20 
REMARK    8  A    between atoms: C17_22  and  O5_23 
REMARK    9  A    between atoms: C18_25  and  O6_26 
REMARK   10  A    between atoms: C19_28  and  O7_29 
REMARK   11  A    between atoms: C20_31  and  C21_32 
REMARK   12  A    between atoms: C21_32  and  O8_33 
REMARK   13  A    between atoms: C22_36  and  O10_37 
ROOT
HETATM    1  C9  UNL     1      -7.866  59.373  18.860  1.00  0.00     0.135 C 
HETATM    2  O1  UNL     1      -7.142  59.715  17.688  1.00  0.00    -0.341 OA
HETATM    3  C10 UNL     1      -7.469  61.052  17.484  1.00  0.00     0.294 C 
HETATM    4  O2  UNL     1      -7.493  61.384  16.132  1.00  0.00    -0.324 OA
HETATM    5  C11 UNL     1      -8.571  62.262  16.015  1.00  0.00     0.160 C 
HETATM    6  C12 UNL     1      -8.961  62.513  14.591  1.00  0.00     0.078 C 
HETATM    7  C13 UNL     1      -8.274  63.574  16.729  1.00  0.00     0.078 C 
HETATM    8  O3  UNL     1      -9.587  61.571  16.713  1.00  0.00    -0.345 OA
HETATM    9  C14 UNL     1      -8.931  61.193  17.851  1.00  0.00     0.190 C 
HETATM   10  C15 UNL     1      -9.266  59.870  18.399  1.00  0.00     0.092 C 
HETATM   11  C16 UNL     1      -9.662  58.821  17.423  1.00  0.00     0.170 C 
HETATM   12  C17 UNL     1      -8.715  57.687  17.542  1.00  0.00     0.171 C 
HETATM   13  C18 UNL     1      -9.357  56.329  17.628  1.00  0.00     0.192 C 
HETATM   14  C19 UNL     1      -8.201  55.398  17.934  1.00  0.00     0.181 C 
HETATM   15  C20 UNL     1      -7.542  55.807  19.250  1.00  0.00     0.180 C 
HETATM   16  O9  UNL     1      -7.055  57.100  19.161  1.00  0.00    -0.340 OA
HETATM   17  C22 UNL     1      -8.138  57.934  18.959  1.00  0.00     0.232 C 
ENDROOT
BRANCH   1  18
HETATM   18  C8  UNL     1      -7.418  60.131  20.038  1.00  0.00     0.071 C 
BRANCH  18  19
HETATM   19  C7  UNL     1      -6.002  59.848  20.361  1.00  0.00    -0.027 C 
HETATM   20  C6  UNL     1      -5.105  60.832  20.646  1.00  0.00    -0.031 C 
BRANCH  20  21
HETATM   21  C5  UNL     1      -3.727  60.478  20.954  1.00  0.00     0.027 C 
BRANCH  21  22
HETATM   22  C4  UNL     1      -3.180  60.813  22.284  1.00  0.00     0.007 C 
BRANCH  22  23
HETATM   23  C3  UNL     1      -1.774  60.424  22.543  1.00  0.00     0.026 C 
BRANCH  23  24
HETATM   24  C2  UNL     1      -1.186  59.454  21.630  1.00  0.00    -0.037 C 
HETATM   25  C1  UNL     1      -0.549  58.378  22.159  1.00  0.00     0.007 C 
ENDBRANCH  23  24
ENDBRANCH  22  23
ENDBRANCH  21  22
ENDBRANCH  20  21
ENDBRANCH  18  19
ENDBRANCH   1  18
BRANCH  17  26
HETATM   26  O10 UNL     1      -9.186  57.708  19.849  1.00  0.00    -0.360 OA
ATOM     27  H10 UNL     1      -9.056  56.884  20.302  1.00  0.00     0.213 HD
ENDBRANCH  17  26
BRANCH  11  28
HETATM   28  O4  UNL     1      -9.654  59.261  16.100  1.00  0.00    -0.392 OA
ATOM     29  H4  UNL     1      -9.865  58.580  15.473  1.00  0.00     0.210 HD
ENDBRANCH  11  28
BRANCH  12  30
HETATM   30  O5  UNL     1      -7.718  57.654  16.602  1.00  0.00    -0.379 OA
ATOM     31  H5  UNL     1      -7.898  57.119  15.836  1.00  0.00     0.211 HD
ENDBRANCH  12  30
BRANCH  13  32
HETATM   32  O6  UNL     1      -9.903  55.913  16.413  1.00  0.00    -0.390 OA
ATOM     33  H6  UNL     1     -10.839  56.071  16.358  1.00  0.00     0.210 HD
ENDBRANCH  13  32
BRANCH  15  34
HETATM   34  C21 UNL     1      -6.490  54.787  19.622  1.00  0.00     0.198 C 
BRANCH  34  35
HETATM   35  O8  UNL     1      -6.990  53.719  20.340  1.00  0.00    -0.398 OA
ATOM     36  H8  UNL     1      -6.330  53.076  20.569  1.00  0.00     0.209 HD
ENDBRANCH  34  35
ENDBRANCH  15  34
BRANCH  14  37
HETATM   37  O7  UNL     1      -8.554  54.074  17.942  1.00  0.00    -0.390 OA
ATOM     38  H7  UNL     1      -8.287  53.616  18.729  1.00  0.00     0.210 HD
ENDBRANCH  14  37
TORSDOF 13
ENDMDL
MODEL 5
REMARK VINA RESULT: -6.962455048      1.377      1.982
REMARK  13 active torsions:
REMARK  status: ('A' for Active; 'I' for Inactive)
REMARK    1  A    between atoms: C2_2  and  C3_3 
REMARK    2  A    between atoms: C3_3  and  C4_4 
REMARK    3  A    between atoms: C4_4  and  C5_5 
REMARK    4  A    between atoms: C5_5  and  C6_6 
REMARK    5  A    between atoms: C7_7  and  C8_8 
REMARK    6  A    between atoms: C8_8  and  C9_9 
REMARK    7  A    between atoms: C16_19  and  O4_20 
REMARK    8  A    between atoms: C17_22  and  O5_23 
REMARK    9  A    between atoms: C18_25  and  O6_26 
REMARK   10  A    between atoms: C19_28  and  O7_29 
REMARK   11  A    between atoms: C20_31  and  C21_32 
REMARK   12  A    between atoms: C21_32  and  O8_33 
REMARK   13  A    between atoms: C22_36  and  O10_37 
ROOT
HETATM    1  C9  UNL     1      -6.107  59.922  18.542  1.00  0.00     0.135 C 
HETATM    2  O1  UNL     1      -6.389  60.114  17.165  1.00  0.00    -0.341 OA
HETATM    3  C10 UNL     1      -6.133  61.467  16.967  1.00  0.00     0.294 C 
HETATM    4  O2  UNL     1      -6.961  62.019  15.993  1.00  0.00    -0.324 OA
HETATM    5  C11 UNL     1      -7.260  63.292  16.481  1.00  0.00     0.160 C 
HETATM    6  C12 UNL     1      -8.378  63.949  15.731  1.00  0.00     0.078 C 
HETATM    7  C13 UNL     1      -6.019  64.173  16.475  1.00  0.00     0.078 C 
HETATM    8  O3  UNL     1      -7.630  63.014  17.816  1.00  0.00    -0.345 OA
HETATM    9  C14 UNL     1      -6.622  62.178  18.211  1.00  0.00     0.190 C 
HETATM   10  C15 UNL     1      -6.995  61.070  19.104  1.00  0.00     0.092 C 
HETATM   11  C16 UNL     1      -8.362  60.511  18.943  1.00  0.00     0.170 C 
HETATM   12  C17 UNL     1      -8.246  59.073  18.605  1.00  0.00     0.171 C 
HETATM   13  C18 UNL     1      -9.131  58.157  19.406  1.00  0.00     0.192 C 
HETATM   14  C19 UNL     1      -8.678  56.768  19.004  1.00  0.00     0.181 C 
HETATM   15  C20 UNL     1      -7.201  56.587  19.349  1.00  0.00     0.180 C 
HETATM   16  O9  UNL     1      -6.432  57.516  18.669  1.00  0.00    -0.340 OA
HETATM   17  C22 UNL     1      -6.813  58.768  19.110  1.00  0.00     0.232 C 
ENDROOT
BRANCH   1  18
HETATM   18  C8  UNL     1      -4.693  60.165  18.866  1.00  0.00     0.071 C 
BRANCH  18  19
HETATM   19  C7  UNL     1      -4.510  60.480  20.300  1.00  0.00    -0.027 C 
HETATM   20  C6  UNL     1      -3.291  60.458  20.906  1.00  0.00    -0.031 C 
BRANCH  20  21
HETATM   21  C5  UNL     1      -3.188  60.779  22.322  1.00  0.00     0.027 C 
BRANCH  21  22
HETATM   22  C4  UNL     1      -1.889  60.616  23.003  1.00  0.00     0.007 C 
BRANCH  22  23
HETATM   23  C3  UNL     1      -0.797  59.998  22.213  1.00  0.00     0.026 C 
BRANCH  23  24
HETATM   24  C2  UNL     1      -0.477  58.611  22.516  1.00  0.00    -0.037 C 
HETATM   25  C1  UNL     1       0.192  57.887  21.582  1.00  0.00     0.007 C 
ENDBRANCH  23  24
ENDBRANCH  22  23
ENDBRANCH  21  22
ENDBRANCH  20  21
ENDBRANCH  18  19
ENDBRANCH   1  18
BRANCH  17  26
HETATM   26  O10 UNL     1      -6.862  58.875  20.499  1.00  0.00    -0.360 OA
ATOM     27  H10 UNL     1      -7.663  58.485  20.827  1.00  0.00     0.213 HD
ENDBRANCH  17  26
BRANCH  11  28
HETATM   28  O4  UNL     1      -9.105  61.138  17.943  1.00  0.00    -0.392 OA
ATOM     29  H4  UNL     1      -8.874  60.855  17.067  1.00  0.00     0.210 HD
ENDBRANCH  11  28
BRANCH  12  30
HETATM   30  O5  UNL     1      -8.375  58.771  17.274  1.00  0.00    -0.379 OA
ATOM     31  H5  UNL     1      -9.189  59.049  16.870  1.00  0.00     0.211 HD
ENDBRANCH  12  30
BRANCH  13  32
HETATM   32  O6  UNL     1     -10.477  58.263  19.053  1.00  0.00    -0.390 OA
ATOM     33  H6  UNL     1     -10.717  57.680  18.342  1.00  0.00     0.210 HD
ENDBRANCH  13  32
BRANCH  15  34
HETATM   34  C21 UNL     1      -6.797  55.154  19.084  1.00  0.00     0.198 C 
BRANCH  34  35
HETATM   35  O8  UNL     1      -6.685  54.393  20.231  1.00  0.00    -0.398 OA
ATOM     36  H8  UNL     1      -6.217  53.578  20.100  1.00  0.00     0.209 HD
ENDBRANCH  34  35
ENDBRANCH  15  34
BRANCH  14  37
HETATM   37  O7  UNL     1      -9.444  55.768  19.542  1.00  0.00    -0.390 OA
ATOM     38  H7  UNL     1      -8.998  55.273  20.219  1.00  0.00     0.210 HD
ENDBRANCH  14  37
TORSDOF 13
ENDMDL
