MODEL 1
REMARK VINA RESULT: -4.509772817      0.000      0.000
REMARK  3 active torsions:
REMARK  status: ('A' for Active; 'I' for Inactive)
REMARK    1  A    between atoms: N1_1  and  C1_5 
REMARK    2  A    between atoms: C1_5  and  C2_6 
REMARK    3  A    between atoms: C1_5  and  C3_8 
ROOT
HETATM    1  C3  UNL     1      11.024  35.303  33.835  1.00  0.00     0.055 C 
HETATM    2  C4  UNL     1       9.588  34.947  33.546  1.00  0.00     0.017 C 
HETATM    3  C5  UNL     1       9.521  34.663  32.043  1.00  0.00     0.045 C 
HETATM    4  C6  UNL     1      10.299  35.655  31.252  1.00  0.00     0.060 C 
HETATM    5  N2  UNL     1      10.723  36.811  31.937  1.00  0.00    -0.382 N 
ATOM      6  H2  UNL     1      10.628  37.735  31.515  1.00  0.00     0.164 HD
HETATM    7  C7  UNL     1      11.283  36.655  33.220  1.00  0.00     0.066 C 
ENDROOT
BRANCH   1   8
HETATM    8  C1  UNL     1      11.360  35.253  35.292  1.00  0.00     0.202 C 
BRANCH   8   9
HETATM    9  N1  UNL     1      10.441  34.434  36.041  1.00  0.00    -0.074 N 
ATOM     10  H13 UNL     1      10.784  33.483  36.175  1.00  0.00     0.274 HD
ATOM     11  H12 UNL     1      10.388  34.702  37.023  1.00  0.00     0.274 HD
ATOM     12  H11 UNL     1       9.533  34.461  35.578  1.00  0.00     0.274 HD
ENDBRANCH   8   9
BRANCH   8  13
HETATM   13  C2  UNL     1      12.754  34.790  35.582  1.00  0.00     0.119 C 
HETATM   14  S1  UNL     1      13.749  36.252  36.035  1.00  0.00    -0.096 SA
ENDBRANCH   8  13
ENDBRANCH   1   8
TORSDOF 3
ENDMDL
MODEL 2
REMARK VINA RESULT: -4.504417444      2.678      4.152
REMARK  3 active torsions:
REMARK  status: ('A' for Active; 'I' for Inactive)
REMARK    1  A    between atoms: N1_1  and  C1_5 
REMARK    2  A    between atoms: C1_5  and  C2_6 
REMARK    3  A    between atoms: C1_5  and  C3_8 
ROOT
HETATM    1  C3  UNL     1      11.984  35.944  34.896  1.00  0.00     0.055 C 
HETATM    2  C4  UNL     1      12.837  34.947  35.637  1.00  0.00     0.017 C 
HETATM    3  C5  UNL     1      13.616  35.755  36.678  1.00  0.00     0.045 C 
HETATM    4  C6  UNL     1      14.140  37.030  36.117  1.00  0.00     0.060 C 
HETATM    5  N2  UNL     1      14.092  37.167  34.716  1.00  0.00    -0.382 N 
ATOM      6  H2  UNL     1      14.890  37.533  34.197  1.00  0.00     0.164 HD
HETATM    7  C7  UNL     1      12.910  36.784  34.052  1.00  0.00     0.066 C 
ENDROOT
BRANCH   1   8
HETATM    8  C1  UNL     1      10.891  35.305  34.099  1.00  0.00     0.202 C 
BRANCH   8   9
HETATM    9  N1  UNL     1       9.737  34.989  34.902  1.00  0.00    -0.074 N 
ATOM     10  H13 UNL     1       9.186  35.814  35.138  1.00  0.00     0.274 HD
ATOM     11  H12 UNL     1       9.020  34.488  34.378  1.00  0.00     0.274 HD
ATOM     12  H11 UNL     1      10.048  34.476  35.728  1.00  0.00     0.274 HD
ENDBRANCH   8   9
BRANCH   8  13
HETATM   13  C2  UNL     1      10.443  36.111  32.919  1.00  0.00     0.119 C 
HETATM   14  S1  UNL     1      10.188  34.965  31.520  1.00  0.00    -0.096 SA
ENDBRANCH   8  13
ENDBRANCH   1   8
TORSDOF 3
ENDMDL
MODEL 3
REMARK VINA RESULT: -4.480878432      2.368      3.186
REMARK  3 active torsions:
REMARK  status: ('A' for Active; 'I' for Inactive)
REMARK    1  A    between atoms: N1_1  and  C1_5 
REMARK    2  A    between atoms: C1_5  and  C2_6 
REMARK    3  A    between atoms: C1_5  and  C3_8 
ROOT
HETATM    1  C3  UNL     1      13.081  35.811  35.098  1.00  0.00     0.055 C 
HETATM    2  C4  UNL     1      12.208  35.096  36.096  1.00  0.00     0.017 C 
HETATM    3  C5  UNL     1      11.390  34.085  35.289  1.00  0.00     0.045 C 
HETATM    4  C6  UNL     1      10.880  34.667  34.018  1.00  0.00     0.060 C 
HETATM    5  N2  UNL     1      10.976  36.067  33.884  1.00  0.00    -0.382 N 
ATOM      6  H2  UNL     1      10.195  36.614  33.523  1.00  0.00     0.164 HD
HETATM    7  C7  UNL     1      12.182  36.688  34.263  1.00  0.00     0.066 C 
ENDROOT
BRANCH   1   8
HETATM    8  C1  UNL     1      14.204  36.568  35.734  1.00  0.00     0.202 C 
BRANCH   8   9
HETATM    9  N1  UNL     1      14.200  37.964  35.375  1.00  0.00    -0.074 N 
ATOM     10  H13 UNL     1      14.275  38.577  36.186  1.00  0.00     0.274 HD
ATOM     11  H12 UNL     1      15.058  38.250  34.904  1.00  0.00     0.274 HD
ATOM     12  H11 UNL     1      13.367  38.152  34.817  1.00  0.00     0.274 HD
ENDBRANCH   8   9
BRANCH   8  13
HETATM   13  C2  UNL     1      14.244  36.462  37.227  1.00  0.00     0.119 C 
HETATM   14  S1  UNL     1      14.537  38.133  37.902  1.00  0.00    -0.096 SA
ENDBRANCH   8  13
ENDBRANCH   1   8
TORSDOF 3
ENDMDL
MODEL 4
REMARK VINA RESULT: -4.259839862      2.680      4.820
REMARK  3 active torsions:
REMARK  status: ('A' for Active; 'I' for Inactive)
REMARK    1  A    between atoms: N1_1  and  C1_5 
REMARK    2  A    between atoms: C1_5  and  C2_6 
REMARK    3  A    between atoms: C1_5  and  C3_8 
ROOT
HETATM    1  C3  UNL     1      12.869  35.104  35.920  1.00  0.00     0.055 C 
HETATM    2  C4  UNL     1      13.539  36.306  35.306  1.00  0.00     0.017 C 
HETATM    3  C5  UNL     1      14.959  36.332  35.877  1.00  0.00     0.045 C 
HETATM    4  C6  UNL     1      14.980  36.033  37.334  1.00  0.00     0.060 C 
HETATM    5  N2  UNL     1      13.737  36.051  37.998  1.00  0.00    -0.382 N 
ATOM      6  H2  UNL     1      13.631  36.513  38.902  1.00  0.00     0.164 HD
HETATM    7  C7  UNL     1      12.644  35.413  37.379  1.00  0.00     0.066 C 
ENDROOT
BRANCH   1   8
HETATM    8  C1  UNL     1      11.614  34.704  35.210  1.00  0.00     0.202 C 
BRANCH   8   9
HETATM    9  N1  UNL     1      10.523  34.457  36.119  1.00  0.00    -0.074 N 
ATOM     10  H13 UNL     1       9.636  34.824  35.776  1.00  0.00     0.274 HD
ATOM     11  H12 UNL     1      10.260  33.472  36.157  1.00  0.00     0.274 HD
ATOM     12  H11 UNL     1      10.774  34.830  37.034  1.00  0.00     0.274 HD
ENDBRANCH   8   9
BRANCH   8  13
HETATM   13  C2  UNL     1      11.157  35.685  34.175  1.00  0.00     0.119 C 
HETATM   14  S1  UNL     1       9.470  35.214  33.660  1.00  0.00    -0.096 SA
ENDBRANCH   8  13
ENDBRANCH   1   8
TORSDOF 3
ENDMDL
MODEL 5
REMARK VINA RESULT: -4.222398504      1.923      2.511
REMARK  3 active torsions:
REMARK  status: ('A' for Active; 'I' for Inactive)
REMARK    1  A    between atoms: N1_1  and  C1_5 
REMARK    2  A    between atoms: C1_5  and  C2_6 
REMARK    3  A    between atoms: C1_5  and  C3_8 
ROOT
HETATM    1  C3  UNL     1      11.830  36.288  34.392  1.00  0.00     0.055 C 
HETATM    2  C4  UNL     1      11.803  36.454  32.894  1.00  0.00     0.017 C 
HETATM    3  C5  UNL     1      10.325  36.580  32.514  1.00  0.00     0.045 C 
HETATM    4  C6  UNL     1       9.474  35.607  33.250  1.00  0.00     0.060 C 
HETATM    5  N2  UNL     1      10.146  34.577  33.938  1.00  0.00    -0.382 N 
ATOM      6  H2  UNL     1       9.822  33.611  33.883  1.00  0.00     0.164 HD
HETATM    7  C7  UNL     1      11.279  34.919  34.701  1.00  0.00     0.066 C 
ENDROOT
BRANCH   1   8
HETATM    8  C1  UNL     1      13.185  36.518  34.984  1.00  0.00     0.202 C 
BRANCH   8   9
HETATM    9  N1  UNL     1      13.369  37.876  35.427  1.00  0.00    -0.074 N 
ATOM     10  H13 UNL     1      14.300  38.235  35.215  1.00  0.00     0.274 HD
ATOM     11  H12 UNL     1      12.833  38.545  34.874  1.00  0.00     0.274 HD
ATOM     12  H11 UNL     1      13.148  37.925  36.421  1.00  0.00     0.274 HD
ENDBRANCH   8   9
BRANCH   8  13
HETATM   13  C2  UNL     1      13.521  35.599  36.117  1.00  0.00     0.119 C 
HETATM   14  S1  UNL     1      14.201  36.609  37.477  1.00  0.00    -0.096 SA
ENDBRANCH   8  13
ENDBRANCH   1   8
TORSDOF 3
ENDMDL
