MODEL 1
REMARK VINA RESULT: -4.762696445      0.000      0.000
REMARK  3 active torsions:
REMARK  status: ('A' for Active; 'I' for Inactive)
REMARK    1  A    between atoms: C2_2  and  C3_3 
REMARK    2  A    between atoms: C3_3  and  N1_4 
REMARK    3  A    between atoms: N1_4  and  C4_6 
ROOT
HETATM    1  N1  UNL     1      15.827  37.856  36.867  1.00  0.00    -0.365 N 
ATOM      2  H1  UNL     1      16.831  37.907  37.044  1.00  0.00     0.157 HD
ENDROOT
BRANCH   1   3
HETATM    3  C3  UNL     1      15.270  36.606  36.620  1.00  0.00     0.028 C 
HETATM    4  C6  UNL     1      14.171  36.816  35.560  1.00  0.00     0.031 C 
HETATM    5  C7  UNL     1      13.200  35.689  35.739  1.00  0.00     0.002 C 
HETATM    6  C8  UNL     1      13.177  35.507  37.226  1.00  0.00     0.002 C 
HETATM    7  C9  UNL     1      14.451  36.068  37.773  1.00  0.00     0.031 C 
BRANCH   3   8
HETATM    8  C2  UNL     1      16.130  35.505  36.115  1.00  0.00     0.026 C 
HETATM    9  C1  UNL     1      17.561  35.525  36.491  1.00  0.00     0.007 C 
ENDBRANCH   3   8
ENDBRANCH   1   3
BRANCH   1  10
HETATM   10  C4  UNL     1      15.097  39.039  36.887  1.00  0.00     0.485 C 
HETATM   11  N2  UNL     1      15.498  39.814  38.085  1.00  0.00    -0.005 N 
HETATM   12  C5  UNL     1      16.515  40.454  37.273  1.00  0.00     0.472 C 
ATOM     13  H22 UNL     1      14.815  40.369  38.601  1.00  0.00     0.283 HD
ATOM     14  H21 UNL     1      15.745  39.342  38.954  1.00  0.00     0.283 HD
HETATM   15  N3  UNL     1      15.690  40.161  36.115  1.00  0.00    -0.005 N 
ATOM     16  H32 UNL     1      16.111  40.002  35.199  1.00  0.00     0.283 HD
ATOM     17  H31 UNL     1      15.099  40.881  35.699  1.00  0.00     0.283 HD
ENDBRANCH   1  10
TORSDOF 3
ENDMDL
MODEL 2
REMARK VINA RESULT: -4.697972981      1.329      2.061
REMARK  3 active torsions:
REMARK  status: ('A' for Active; 'I' for Inactive)
REMARK    1  A    between atoms: C2_2  and  C3_3 
REMARK    2  A    between atoms: C3_3  and  N1_4 
REMARK    3  A    between atoms: N1_4  and  C4_6 
ROOT
HETATM    1  N1  UNL     1      16.090  37.995  36.866  1.00  0.00    -0.365 N 
ATOM      2  H1  UNL     1      16.924  37.530  36.509  1.00  0.00     0.157 HD
ENDROOT
BRANCH   1   3
HETATM    3  C3  UNL     1      14.902  37.272  36.901  1.00  0.00     0.028 C 
HETATM    4  C6  UNL     1      15.212  35.888  36.297  1.00  0.00     0.031 C 
HETATM    5  C7  UNL     1      13.910  35.365  35.771  1.00  0.00     0.002 C 
HETATM    6  C8  UNL     1      13.250  36.599  35.237  1.00  0.00     0.002 C 
HETATM    7  C9  UNL     1      13.855  37.776  35.932  1.00  0.00     0.031 C 
BRANCH   3   8
HETATM    8  C2  UNL     1      14.237  37.018  38.204  1.00  0.00     0.026 C 
HETATM    9  C1  UNL     1      14.988  36.249  39.220  1.00  0.00     0.007 C 
ENDBRANCH   3   8
ENDBRANCH   1   3
BRANCH   1  10
HETATM   10  C4  UNL     1      16.206  39.316  37.288  1.00  0.00     0.485 C 
HETATM   11  N2  UNL     1      17.312  39.394  38.272  1.00  0.00    -0.005 N 
HETATM   12  C5  UNL     1      18.212  39.667  37.167  1.00  0.00     0.472 C 
ATOM     13  H22 UNL     1      17.257  40.027  39.070  1.00  0.00     0.283 HD
ATOM     14  H21 UNL     1      17.495  38.625  38.916  1.00  0.00     0.283 HD
HETATM   15  N3  UNL     1      17.066  40.178  36.438  1.00  0.00    -0.005 N 
ATOM     16  H32 UNL     1      17.023  40.118  35.420  1.00  0.00     0.283 HD
ATOM     17  H31 UNL     1      16.895  41.181  36.368  1.00  0.00     0.283 HD
ENDBRANCH   1  10
TORSDOF 3
ENDMDL
MODEL 3
REMARK VINA RESULT: -4.663687192      2.350      3.257
REMARK  3 active torsions:
REMARK  status: ('A' for Active; 'I' for Inactive)
REMARK    1  A    between atoms: C2_2  and  C3_3 
REMARK    2  A    between atoms: C3_3  and  N1_4 
REMARK    3  A    between atoms: N1_4  and  C4_6 
ROOT
HETATM    1  N1  UNL     1      15.779  36.161  36.186  1.00  0.00    -0.365 N 
ATOM      2  H1  UNL     1      16.128  35.584  35.421  1.00  0.00     0.157 HD
ENDROOT
BRANCH   1   3
HETATM    3  C3  UNL     1      14.405  36.350  36.289  1.00  0.00     0.028 C 
HETATM    4  C6  UNL     1      13.750  34.990  35.976  1.00  0.00     0.031 C 
HETATM    5  C7  UNL     1      12.368  35.299  35.485  1.00  0.00     0.002 C 
HETATM    6  C8  UNL     1      12.573  36.552  34.689  1.00  0.00     0.002 C 
HETATM    7  C9  UNL     1      13.825  37.204  35.183  1.00  0.00     0.031 C 
BRANCH   3   8
HETATM    8  C2  UNL     1      13.822  36.807  37.576  1.00  0.00     0.026 C 
HETATM    9  C1  UNL     1      13.651  35.802  38.648  1.00  0.00     0.007 C 
ENDBRANCH   3   8
ENDBRANCH   1   3
BRANCH   1  10
HETATM   10  C4  UNL     1      16.705  36.713  37.065  1.00  0.00     0.485 C 
HETATM   11  N2  UNL     1      17.343  35.609  37.823  1.00  0.00    -0.005 N 
HETATM   12  C5  UNL     1      18.358  35.550  36.789  1.00  0.00     0.472 C 
ATOM     13  H22 UNL     1      17.600  35.729  38.803  1.00  0.00     0.283 HD
ATOM     14  H21 UNL     1      16.812  34.778  38.082  1.00  0.00     0.283 HD
HETATM   15  N3  UNL     1      18.059  36.940  36.497  1.00  0.00    -0.005 N 
ATOM     16  H32 UNL     1      18.175  37.314  35.555  1.00  0.00     0.283 HD
ATOM     17  H31 UNL     1      18.655  37.689  36.850  1.00  0.00     0.283 HD
ENDBRANCH   1  10
TORSDOF 3
ENDMDL
MODEL 4
REMARK VINA RESULT: -4.646023357      1.850      3.422
REMARK  3 active torsions:
REMARK  status: ('A' for Active; 'I' for Inactive)
REMARK    1  A    between atoms: C2_2  and  C3_3 
REMARK    2  A    between atoms: C3_3  and  N1_4 
REMARK    3  A    between atoms: N1_4  and  C4_6 
ROOT
HETATM    1  N1  UNL     1      16.456  36.617  36.501  1.00  0.00    -0.365 N 
ATOM      2  H1  UNL     1      16.854  37.033  35.659  1.00  0.00     0.157 HD
ENDROOT
BRANCH   1   3
HETATM    3  C3  UNL     1      15.100  36.805  36.744  1.00  0.00     0.028 C 
HETATM    4  C6  UNL     1      14.773  36.027  38.034  1.00  0.00     0.031 C 
HETATM    5  C7  UNL     1      13.310  35.706  37.965  1.00  0.00     0.002 C 
HETATM    6  C8  UNL     1      13.103  35.421  36.509  1.00  0.00     0.002 C 
HETATM    7  C9  UNL     1      14.201  36.098  35.752  1.00  0.00     0.031 C 
BRANCH   3   8
HETATM    8  C2  UNL     1      14.573  38.179  36.942  1.00  0.00     0.026 C 
HETATM    9  C1  UNL     1      15.066  38.942  38.110  1.00  0.00     0.007 C 
ENDBRANCH   3   8
ENDBRANCH   1   3
BRANCH   1  10
HETATM   10  C4  UNL     1      17.300  35.894  37.337  1.00  0.00     0.485 C 
HETATM   11  N2  UNL     1      18.412  35.351  36.520  1.00  0.00    -0.005 N 
HETATM   12  C5  UNL     1      19.155  36.561  36.813  1.00  0.00     0.472 C 
ATOM     13  H22 UNL     1      18.808  34.433  36.722  1.00  0.00     0.283 HD
ATOM     14  H21 UNL     1      18.256  35.054  35.558  1.00  0.00     0.283 HD
HETATM   15  N3  UNL     1      18.353  36.693  38.015  1.00  0.00    -0.005 N 
ATOM     16  H32 UNL     1      18.142  37.611  38.407  1.00  0.00     0.283 HD
ATOM     17  H31 UNL     1      18.721  36.410  38.924  1.00  0.00     0.283 HD
ENDBRANCH   1  10
TORSDOF 3
ENDMDL
MODEL 5
REMARK VINA RESULT: -4.611304870      2.051      3.542
REMARK  3 active torsions:
REMARK  status: ('A' for Active; 'I' for Inactive)
REMARK    1  A    between atoms: C2_2  and  C3_3 
REMARK    2  A    between atoms: C3_3  and  N1_4 
REMARK    3  A    between atoms: N1_4  and  C4_6 
ROOT
HETATM    1  N1  UNL     1      16.574  36.066  37.708  1.00  0.00    -0.365 N 
ATOM      2  H1  UNL     1      17.052  35.840  38.580  1.00  0.00     0.157 HD
ENDROOT
BRANCH   1   3
HETATM    3  C3  UNL     1      15.249  36.484  37.777  1.00  0.00     0.028 C 
HETATM    4  C6  UNL     1      14.609  35.722  38.954  1.00  0.00     0.031 C 
HETATM    5  C7  UNL     1      13.139  35.672  38.666  1.00  0.00     0.002 C 
HETATM    6  C8  UNL     1      13.101  35.493  37.179  1.00  0.00     0.002 C 
HETATM    7  C9  UNL     1      14.397  35.995  36.626  1.00  0.00     0.031 C 
BRANCH   3   8
HETATM    8  C2  UNL     1      14.943  37.921  37.996  1.00  0.00     0.026 C 
HETATM    9  C1  UNL     1      14.792  38.780  36.801  1.00  0.00     0.007 C 
ENDBRANCH   3   8
ENDBRANCH   1   3
BRANCH   1  10
HETATM   10  C4  UNL     1      17.285  35.939  36.519  1.00  0.00     0.485 C 
HETATM   11  N2  UNL     1      18.284  37.033  36.455  1.00  0.00    -0.005 N 
HETATM   12  C5  UNL     1      19.225  36.148  37.114  1.00  0.00     0.472 C 
ATOM     13  H22 UNL     1      18.516  37.476  35.566  1.00  0.00     0.283 HD
ATOM     14  H21 UNL     1      18.075  37.954  36.839  1.00  0.00     0.283 HD
HETATM   15  N3  UNL     1      18.462  35.035  36.580  1.00  0.00    -0.005 N 
ATOM     16  H32 UNL     1      18.413  34.146  37.079  1.00  0.00     0.283 HD
ATOM     17  H31 UNL     1      18.779  34.532  35.751  1.00  0.00     0.283 HD
ENDBRANCH   1  10
TORSDOF 3
ENDMDL
