MODEL 1
REMARK VINA RESULT: -4.432251612      0.000      0.000
REMARK  4 active torsions:
REMARK  status: ('A' for Active; 'I' for Inactive)
REMARK    1  A    between atoms: C2_2  and  C4_4 
REMARK    2  A    between atoms: C5_7  and  C6_8 
REMARK    3  A    between atoms: C6_8  and  N2_9 
REMARK    4  A    between atoms: C9_15  and  N3_16 
ROOT
HETATM    1  C4  UNL     1      11.796  34.941  34.878  1.00  0.00     0.110 C 
HETATM    2  N1  UNL     1      11.616  35.667  33.664  1.00  0.00    -0.409 N 
ATOM      3  H1  UNL     1      12.224  36.445  33.404  1.00  0.00     0.154 HD
HETATM    4  C5  UNL     1      10.542  35.246  32.840  1.00  0.00     0.102 C 
HETATM    5  C7  UNL     1       9.229  35.098  33.536  1.00  0.00     0.028 C 
HETATM    6  C8  UNL     1       9.314  35.176  35.028  1.00  0.00     0.037 C 
HETATM    7  C9  UNL     1      10.532  34.410  35.485  1.00  0.00     0.206 C 
ENDROOT
BRANCH   4   8
HETATM    8  C6  UNL     1      10.364  36.319  31.757  1.00  0.00     0.254 C 
BRANCH   8   9
HETATM    9  N2  UNL     1      11.177  37.448  32.151  1.00  0.00    -0.077 N 
ATOM     10  H23 UNL     1      11.115  37.661  33.146  1.00  0.00     0.274 HD
ATOM     11  H22 UNL     1      12.178  37.251  32.124  1.00  0.00     0.274 HD
ATOM     12  H21 UNL     1      10.904  38.229  31.554  1.00  0.00     0.274 HD
ENDBRANCH   8   9
ENDBRANCH   4   8
BRANCH   1  13
HETATM   13  C2  UNL     1      12.589  35.825  35.821  1.00  0.00     0.002 C 
HETATM   14  C1  UNL     1      12.889  37.175  35.204  1.00  0.00     0.011 C 
HETATM   15  C3  UNL     1      13.946  35.134  36.000  1.00  0.00     0.011 C 
ENDBRANCH   1  13
BRANCH   7  16
HETATM   16  N3  UNL     1      10.531  34.391  36.917  1.00  0.00    -0.073 N 
ATOM     17  H33 UNL     1      11.078  33.603  37.265  1.00  0.00     0.274 HD
ATOM     18  H32 UNL     1      11.087  35.164  37.285  1.00  0.00     0.274 HD
ATOM     19  H31 UNL     1       9.600  34.392  37.335  1.00  0.00     0.274 HD
ENDBRANCH   7  16
TORSDOF 4
ENDMDL
MODEL 2
REMARK VINA RESULT: -4.381529696      4.228      6.276
REMARK  4 active torsions:
REMARK  status: ('A' for Active; 'I' for Inactive)
REMARK    1  A    between atoms: C2_2  and  C4_4 
REMARK    2  A    between atoms: C5_7  and  C6_8 
REMARK    3  A    between atoms: C6_8  and  N2_9 
REMARK    4  A    between atoms: C9_15  and  N3_16 
ROOT
HETATM    1  C4  UNL     1      14.288  37.339  37.073  1.00  0.00     0.110 C 
HETATM    2  N1  UNL     1      15.461  38.090  36.768  1.00  0.00    -0.409 N 
ATOM      3  H1  UNL     1      15.942  38.000  35.872  1.00  0.00     0.154 HD
HETATM    4  C5  UNL     1      15.921  38.967  37.782  1.00  0.00     0.102 C 
HETATM    5  C7  UNL     1      16.056  38.353  39.137  1.00  0.00     0.028 C 
HETATM    6  C8  UNL     1      15.450  36.990  39.257  1.00  0.00     0.037 C 
HETATM    7  C9  UNL     1      14.132  36.979  38.520  1.00  0.00     0.206 C 
ENDROOT
BRANCH   4   8
HETATM    8  C6  UNL     1      17.316  39.445  37.359  1.00  0.00     0.254 C 
BRANCH   8   9
HETATM    9  N2  UNL     1      17.121  40.440  36.328  1.00  0.00    -0.077 N 
ATOM     10  H23 UNL     1      17.647  40.245  35.476  1.00  0.00     0.274 HD
ATOM     11  H22 UNL     1      16.190  40.411  35.912  1.00  0.00     0.274 HD
ATOM     12  H21 UNL     1      17.350  41.343  36.744  1.00  0.00     0.274 HD
ENDBRANCH   8   9
ENDBRANCH   4   8
BRANCH   1  13
HETATM   13  C2  UNL     1      14.267  36.136  36.150  1.00  0.00     0.002 C 
HETATM   14  C1  UNL     1      15.666  35.659  35.820  1.00  0.00     0.011 C 
HETATM   15  C3  UNL     1      13.670  36.633  34.829  1.00  0.00     0.011 C 
ENDBRANCH   1  13
BRANCH   7  16
HETATM   16  N3  UNL     1      13.511  35.708  38.746  1.00  0.00    -0.073 N 
ATOM     17  H33 UNL     1      13.215  35.294  37.862  1.00  0.00     0.274 HD
ATOM     18  H32 UNL     1      14.204  35.019  39.037  1.00  0.00     0.274 HD
ATOM     19  H31 UNL     1      12.734  35.734  39.407  1.00  0.00     0.274 HD
ENDBRANCH   7  16
TORSDOF 4
ENDMDL
MODEL 3
REMARK VINA RESULT: -4.219243170      1.696      3.734
REMARK  4 active torsions:
REMARK  status: ('A' for Active; 'I' for Inactive)
REMARK    1  A    between atoms: C2_2  and  C4_4 
REMARK    2  A    between atoms: C5_7  and  C6_8 
REMARK    3  A    between atoms: C6_8  and  N2_9 
REMARK    4  A    between atoms: C9_15  and  N3_16 
ROOT
HETATM    1  C4  UNL     1      10.466  36.310  33.619  1.00  0.00     0.110 C 
HETATM    2  N1  UNL     1      11.838  36.679  33.735  1.00  0.00    -0.409 N 
ATOM      3  H1  UNL     1      12.351  37.104  32.962  1.00  0.00     0.154 HD
HETATM    4  C5  UNL     1      12.449  36.421  34.988  1.00  0.00     0.102 C 
HETATM    5  C7  UNL     1      12.256  35.036  35.514  1.00  0.00     0.028 C 
HETATM    6  C8  UNL     1      11.246  34.228  34.759  1.00  0.00     0.037 C 
HETATM    7  C9  UNL     1      10.067  35.112  34.429  1.00  0.00     0.206 C 
ENDROOT
BRANCH   4   8
HETATM    8  C6  UNL     1      13.958  36.628  34.799  1.00  0.00     0.254 C 
BRANCH   8   9
HETATM    9  N2  UNL     1      14.290  37.881  35.438  1.00  0.00    -0.077 N 
ATOM     10  H23 UNL     1      13.941  37.950  36.394  1.00  0.00     0.274 HD
ATOM     11  H22 UNL     1      15.283  37.970  35.657  1.00  0.00     0.274 HD
ATOM     12  H21 UNL     1      13.944  38.622  34.829  1.00  0.00     0.274 HD
ENDBRANCH   8   9
ENDBRANCH   4   8
BRANCH   1  13
HETATM   13  C2  UNL     1      10.159  36.164  32.142  1.00  0.00     0.002 C 
HETATM   14  C1  UNL     1      10.640  34.834  31.599  1.00  0.00     0.011 C 
HETATM   15  C3  UNL     1      10.996  37.234  31.433  1.00  0.00     0.011 C 
ENDBRANCH   1  13
BRANCH   7  16
HETATM   16  N3  UNL     1       9.062  34.297  33.816  1.00  0.00    -0.073 N 
ATOM     17  H33 UNL     1       8.204  34.313  34.368  1.00  0.00     0.274 HD
ATOM     18  H32 UNL     1       8.724  34.732  32.958  1.00  0.00     0.274 HD
ATOM     19  H31 UNL     1       9.354  33.336  33.639  1.00  0.00     0.274 HD
ENDBRANCH   7  16
TORSDOF 4
ENDMDL
MODEL 4
REMARK VINA RESULT: -4.147405242      4.188      5.778
REMARK  4 active torsions:
REMARK  status: ('A' for Active; 'I' for Inactive)
REMARK    1  A    between atoms: C2_2  and  C4_4 
REMARK    2  A    between atoms: C5_7  and  C6_8 
REMARK    3  A    between atoms: C6_8  and  N2_9 
REMARK    4  A    between atoms: C9_15  and  N3_16 
ROOT
HETATM    1  C4  UNL     1      16.776  36.215  37.461  1.00  0.00     0.110 C 
HETATM    2  N1  UNL     1      15.934  36.674  36.405  1.00  0.00    -0.409 N 
ATOM      3  H1  UNL     1      16.232  37.402  35.755  1.00  0.00     0.154 HD
HETATM    4  C5  UNL     1      14.660  36.060  36.311  1.00  0.00     0.102 C 
HETATM    5  C7  UNL     1      13.884  36.013  37.586  1.00  0.00     0.028 C 
HETATM    6  C8  UNL     1      14.674  36.393  38.800  1.00  0.00     0.037 C 
HETATM    7  C9  UNL     1      16.048  35.776  38.696  1.00  0.00     0.206 C 
ENDROOT
BRANCH   4   8
HETATM    8  C6  UNL     1      13.840  36.885  35.310  1.00  0.00     0.254 C 
BRANCH   8   9
HETATM    9  N2  UNL     1      14.187  38.271  35.530  1.00  0.00    -0.077 N 
ATOM     10  H23 UNL     1      14.608  38.441  36.443  1.00  0.00     0.274 HD
ATOM     11  H22 UNL     1      14.978  38.582  34.964  1.00  0.00     0.274 HD
ATOM     12  H21 UNL     1      13.339  38.815  35.370  1.00  0.00     0.274 HD
ENDBRANCH   8   9
ENDBRANCH   4   8
BRANCH   1  13
HETATM   13  C2  UNL     1      17.805  37.297  37.723  1.00  0.00     0.002 C 
HETATM   14  C1  UNL     1      17.239  38.680  37.476  1.00  0.00     0.011 C 
HETATM   15  C3  UNL     1      18.900  37.097  36.669  1.00  0.00     0.011 C 
ENDBRANCH   1  13
BRANCH   7  16
HETATM   16  N3  UNL     1      16.747  36.048  39.917  1.00  0.00    -0.073 N 
ATOM     17  H33 UNL     1      17.289  36.908  39.834  1.00  0.00     0.274 HD
ATOM     18  H32 UNL     1      16.092  36.325  40.649  1.00  0.00     0.274 HD
ATOM     19  H31 UNL     1      17.338  35.282  40.239  1.00  0.00     0.274 HD
ENDBRANCH   7  16
TORSDOF 4
ENDMDL
MODEL 5
REMARK VINA RESULT: -4.102111032      3.722      5.144
REMARK  4 active torsions:
REMARK  status: ('A' for Active; 'I' for Inactive)
REMARK    1  A    between atoms: C2_2  and  C4_4 
REMARK    2  A    between atoms: C5_7  and  C6_8 
REMARK    3  A    between atoms: C6_8  and  N2_9 
REMARK    4  A    between atoms: C9_15  and  N3_16 
ROOT
HETATM    1  C4  UNL     1      15.901  36.879  37.624  1.00  0.00     0.110 C 
HETATM    2  N1  UNL     1      15.084  37.051  36.468  1.00  0.00    -0.409 N 
ATOM      3  H1  UNL     1      15.140  37.888  35.887  1.00  0.00     0.154 HD
HETATM    4  C5  UNL     1      14.189  35.992  36.174  1.00  0.00     0.102 C 
HETATM    5  C7  UNL     1      13.347  35.537  37.321  1.00  0.00     0.028 C 
HETATM    6  C8  UNL     1      13.759  36.099  38.646  1.00  0.00     0.037 C 
HETATM    7  C9  UNL     1      15.266  36.088  38.729  1.00  0.00     0.206 C 
ENDROOT
BRANCH   4   8
HETATM    8  C6  UNL     1      13.237  36.502  35.085  1.00  0.00     0.254 C 
BRANCH   8   9
HETATM    9  N2  UNL     1      14.056  37.145  34.082  1.00  0.00    -0.077 N 
ATOM     10  H23 UNL     1      13.776  36.917  33.128  1.00  0.00     0.274 HD
ATOM     11  H22 UNL     1      13.903  38.152  34.023  1.00  0.00     0.274 HD
ATOM     12  H21 UNL     1      15.023  36.895  34.288  1.00  0.00     0.274 HD
ENDBRANCH   8   9
ENDBRANCH   4   8
BRANCH   1  13
HETATM   13  C2  UNL     1      16.364  38.255  38.061  1.00  0.00     0.002 C 
HETATM   14  C1  UNL     1      15.589  39.354  37.365  1.00  0.00     0.011 C 
HETATM   15  C3  UNL     1      17.810  38.385  37.570  1.00  0.00     0.011 C 
ENDBRANCH   1  13
BRANCH   7  16
HETATM   16  N3  UNL     1      15.639  36.514  40.045  1.00  0.00    -0.073 N 
ATOM     17  H33 UNL     1      15.406  37.498  40.181  1.00  0.00     0.274 HD
ATOM     18  H32 UNL     1      15.025  36.093  40.743  1.00  0.00     0.274 HD
ATOM     19  H31 UNL     1      16.617  36.342  40.279  1.00  0.00     0.274 HD
ENDBRANCH   7  16
TORSDOF 4
ENDMDL
