MODEL 1
REMARK VINA RESULT: -4.866104281      0.000      0.000
REMARK  3 active torsions:
REMARK  status: ('A' for Active; 'I' for Inactive)
REMARK    1  A    between atoms: C2_2  and  C3_3 
REMARK    2  A    between atoms: C5_5  and  C6_6 
REMARK    3  A    between atoms: C6_6  and  C7_7 
ROOT
HETATM    1  C3  UNL     1      13.895  37.822  36.498  1.00  0.00     0.188 C 
HETATM    2  C4  UNL     1      14.469  37.918  37.917  1.00  0.00     0.069 C 
HETATM    3  C5  UNL     1      15.649  38.490  37.229  1.00  0.00     0.224 C 
HETATM    4  N1  UNL     1      14.816  38.862  36.126  1.00  0.00    -0.064 N 
ATOM      5  H11 UNL     1      14.493  39.824  36.025  1.00  0.00     0.278 HD
ATOM      6  H12 UNL     1      15.198  38.899  35.181  1.00  0.00     0.278 HD
ENDROOT
BRANCH   3   7
HETATM    7  C6  UNL     1      16.378  39.607  37.920  1.00  0.00     0.113 C 
HETATM    8  C9  UNL     1      16.823  39.272  39.304  1.00  0.00     0.210 C 
HETATM    9  O1  UNL     1      16.535  40.424  40.044  1.00  0.00    -0.364 OA
HETATM   10  C10 UNL     1      15.529  41.079  39.379  1.00  0.00     0.339 C 
HETATM   11  O2  UNL     1      15.600  40.752  38.036  1.00  0.00    -0.352 OA
BRANCH   7  12
HETATM   12  C7  UNL     1      17.603  39.979  37.110  1.00  0.00     0.038 C 
HETATM   13  C8  UNL     1      18.685  38.929  37.197  1.00  0.00     0.008 C 
ENDBRANCH   7  12
ENDBRANCH   3   7
BRANCH   1  14
HETATM   14  C2  UNL     1      14.169  36.456  35.948  1.00  0.00     0.028 C 
HETATM   15  C1  UNL     1      12.961  35.608  35.771  1.00  0.00     0.007 C 
ENDBRANCH   1  14
TORSDOF 3
ENDMDL
MODEL 2
REMARK VINA RESULT: -4.747197194      1.406      2.501
REMARK  3 active torsions:
REMARK  status: ('A' for Active; 'I' for Inactive)
REMARK    1  A    between atoms: C2_2  and  C3_3 
REMARK    2  A    between atoms: C5_5  and  C6_6 
REMARK    3  A    between atoms: C6_6  and  C7_7 
ROOT
HETATM    1  C3  UNL     1      14.365  36.879  36.031  1.00  0.00     0.188 C 
HETATM    2  C4  UNL     1      14.192  38.260  36.675  1.00  0.00     0.069 C 
HETATM    3  C5  UNL     1      15.278  37.801  37.571  1.00  0.00     0.224 C 
HETATM    4  N1  UNL     1      15.697  36.867  36.572  1.00  0.00    -0.064 N 
ATOM      5  H11 UNL     1      16.498  37.074  35.975  1.00  0.00     0.278 HD
ATOM      6  H12 UNL     1      16.136  35.986  36.842  1.00  0.00     0.278 HD
ENDROOT
BRANCH   3   7
HETATM    7  C6  UNL     1      16.295  38.820  38.001  1.00  0.00     0.113 C 
HETATM    8  C9  UNL     1      16.259  40.082  37.207  1.00  0.00     0.210 C 
HETATM    9  O1  UNL     1      17.607  40.387  36.988  1.00  0.00    -0.364 OA
HETATM   10  C10 UNL     1      18.298  39.205  37.077  1.00  0.00     0.339 C 
HETATM   11  O2  UNL     1      17.596  38.342  37.898  1.00  0.00    -0.352 OA
BRANCH   7  12
HETATM   12  C7  UNL     1      16.063  39.174  39.456  1.00  0.00     0.038 C 
HETATM   13  C8  UNL     1      15.335  40.487  39.614  1.00  0.00     0.008 C 
ENDBRANCH   7  12
ENDBRANCH   3   7
BRANCH   1  14
HETATM   14  C2  UNL     1      13.385  35.925  36.642  1.00  0.00     0.028 C 
HETATM   15  C1  UNL     1      12.510  35.229  35.663  1.00  0.00     0.007 C 
ENDBRANCH   1  14
TORSDOF 3
ENDMDL
MODEL 3
REMARK VINA RESULT: -4.582400297      1.782      2.735
REMARK  3 active torsions:
REMARK  status: ('A' for Active; 'I' for Inactive)
REMARK    1  A    between atoms: C2_2  and  C3_3 
REMARK    2  A    between atoms: C5_5  and  C6_6 
REMARK    3  A    between atoms: C6_6  and  C7_7 
ROOT
HETATM    1  C3  UNL     1      14.124  36.590  35.493  1.00  0.00     0.188 C 
HETATM    2  C4  UNL     1      13.904  37.711  36.516  1.00  0.00     0.069 C 
HETATM    3  C5  UNL     1      14.846  36.923  37.343  1.00  0.00     0.224 C 
HETATM    4  N1  UNL     1      15.370  36.318  36.157  1.00  0.00    -0.064 N 
ATOM      5  H11 UNL     1      16.249  36.645  35.756  1.00  0.00     0.278 HD
ATOM      6  H12 UNL     1      15.744  35.369  36.183  1.00  0.00     0.278 HD
ENDROOT
BRANCH   3   7
HETATM    7  C6  UNL     1      15.825  37.684  38.191  1.00  0.00     0.113 C 
HETATM    8  C9  UNL     1      15.384  39.070  38.525  1.00  0.00     0.210 C 
HETATM    9  O1  UNL     1      16.541  39.843  38.369  1.00  0.00    -0.364 OA
HETATM   10  C10 UNL     1      17.354  39.165  37.496  1.00  0.00     0.339 C 
HETATM   11  O2  UNL     1      17.064  37.815  37.579  1.00  0.00    -0.352 OA
BRANCH   7  12
HETATM   12  C7  UNL     1      16.045  36.937  39.491  1.00  0.00     0.038 C 
HETATM   13  C8  UNL     1      15.001  35.871  39.720  1.00  0.00     0.008 C 
ENDBRANCH   7  12
ENDBRANCH   3   7
BRANCH   1  14
HETATM   14  C2  UNL     1      13.044  35.563  35.649  1.00  0.00     0.028 C 
HETATM   15  C1  UNL     1      11.843  35.799  34.806  1.00  0.00     0.007 C 
ENDBRANCH   1  14
TORSDOF 3
ENDMDL
MODEL 4
REMARK VINA RESULT: -4.554950233      1.270      1.408
REMARK  3 active torsions:
REMARK  status: ('A' for Active; 'I' for Inactive)
REMARK    1  A    between atoms: C2_2  and  C3_3 
REMARK    2  A    between atoms: C5_5  and  C6_6 
REMARK    3  A    between atoms: C6_6  and  C7_7 
ROOT
HETATM    1  C3  UNL     1      13.558  37.157  36.275  1.00  0.00     0.188 C 
HETATM    2  C4  UNL     1      14.109  37.047  37.702  1.00  0.00     0.069 C 
HETATM    3  C5  UNL     1      15.397  37.401  37.060  1.00  0.00     0.224 C 
HETATM    4  N1  UNL     1      14.682  38.003  35.977  1.00  0.00    -0.064 N 
ATOM      5  H11 UNL     1      14.569  39.015  35.933  1.00  0.00     0.278 HD
ATOM      6  H12 UNL     1      15.083  38.015  35.038  1.00  0.00     0.278 HD
ENDROOT
BRANCH   3   7
HETATM    7  C6  UNL     1      16.327  38.298  37.826  1.00  0.00     0.113 C 
HETATM    8  C9  UNL     1      15.987  38.426  39.273  1.00  0.00     0.210 C 
HETATM    9  O1  UNL     1      16.157  39.789  39.545  1.00  0.00    -0.364 OA
HETATM   10  C10 UNL     1      16.003  40.450  38.352  1.00  0.00     0.339 C 
HETATM   11  O2  UNL     1      16.345  39.593  37.323  1.00  0.00    -0.352 OA
BRANCH   7  12
HETATM   12  C7  UNL     1      17.739  37.758  37.722  1.00  0.00     0.038 C 
HETATM   13  C8  UNL     1      17.787  36.416  37.032  1.00  0.00     0.008 C 
ENDBRANCH   7  12
ENDBRANCH   3   7
BRANCH   1  14
HETATM   14  C2  UNL     1      13.554  35.799  35.643  1.00  0.00     0.028 C 
HETATM   15  C1  UNL     1      12.252  35.088  35.717  1.00  0.00     0.007 C 
ENDBRANCH   1  14
TORSDOF 3
ENDMDL
MODEL 5
REMARK VINA RESULT: -4.518178341      2.288      3.612
REMARK  3 active torsions:
REMARK  status: ('A' for Active; 'I' for Inactive)
REMARK    1  A    between atoms: C2_2  and  C3_3 
REMARK    2  A    between atoms: C5_5  and  C6_6 
REMARK    3  A    between atoms: C6_6  and  C7_7 
ROOT
HETATM    1  C3  UNL     1      13.637  36.599  35.061  1.00  0.00     0.188 C 
HETATM    2  C4  UNL     1      13.652  37.651  36.176  1.00  0.00     0.069 C 
HETATM    3  C5  UNL     1      14.046  36.507  37.030  1.00  0.00     0.224 C 
HETATM    4  N1  UNL     1      14.532  35.820  35.873  1.00  0.00    -0.064 N 
ATOM      5  H11 UNL     1      15.531  35.800  35.666  1.00  0.00     0.278 HD
ATOM      6  H12 UNL     1      14.511  34.801  35.832  1.00  0.00     0.278 HD
ENDROOT
BRANCH   3   7
HETATM    7  C6  UNL     1      15.048  36.771  38.119  1.00  0.00     0.113 C 
HETATM    8  C9  UNL     1      15.174  38.211  38.488  1.00  0.00     0.210 C 
HETATM    9  O1  UNL     1      16.552  38.407  38.632  1.00  0.00    -0.364 OA
HETATM   10  C10 UNL     1      17.169  37.445  37.872  1.00  0.00     0.339 C 
HETATM   11  O2  UNL     1      16.326  36.353  37.772  1.00  0.00    -0.352 OA
BRANCH   7  12
HETATM   12  C7  UNL     1      14.647  36.002  39.361  1.00  0.00     0.038 C 
HETATM   13  C8  UNL     1      13.212  35.536  39.306  1.00  0.00     0.008 C 
ENDBRANCH   7  12
ENDBRANCH   3   7
BRANCH   1  14
HETATM   14  C2  UNL     1      12.244  36.069  34.902  1.00  0.00     0.028 C 
HETATM   15  C1  UNL     1      11.528  36.569  33.699  1.00  0.00     0.007 C 
ENDBRANCH   1  14
TORSDOF 3
ENDMDL
