MODEL 1
REMARK VINA RESULT: -4.602715904      0.000      0.000
REMARK  3 active torsions:
REMARK  status: ('A' for Active; 'I' for Inactive)
REMARK    1  A    between atoms: C2_2  and  N1_4 
REMARK    2  A    between atoms: C6_10  and  C7_11 
REMARK    3  A    between atoms: C7_11  and  S1_12 
ROOT
HETATM    1  S1  UNL     1      12.703  35.547  35.460  1.00  0.00    -0.047 SA
HETATM    2  C8  UNL     1      11.833  36.466  34.262  1.00  0.00     0.133 C 
HETATM    3  N3  UNL     1      11.224  37.085  33.466  1.00  0.00    -0.184 NA
ENDROOT
BRANCH   1   4
HETATM    4  C7  UNL     1      14.269  36.269  35.925  1.00  0.00     0.144 C 
BRANCH   4   5
HETATM    5  C6  UNL     1      14.172  37.473  36.829  1.00  0.00     0.292 C 
HETATM    6  N1  UNL     1      15.140  37.394  37.820  1.00  0.00    -0.380 N 
HETATM    7  C4  UNL     1      16.161  38.332  37.694  1.00  0.00     0.147 C 
HETATM    8  C5  UNL     1      15.500  39.378  36.781  1.00  0.00     0.254 C 
HETATM    9  N2  UNL     1      14.396  38.730  36.170  1.00  0.00    -0.052 N 
ATOM     10  H22 UNL     1      13.561  39.315  36.154  1.00  0.00     0.279 HD
ATOM     11  H21 UNL     1      14.515  38.626  35.162  1.00  0.00     0.279 HD
BRANCH   6  12
HETATM   12  C2  UNL     1      14.971  36.708  39.006  1.00  0.00     0.073 C 
HETATM   13  C1  UNL     1      16.223  35.841  39.226  1.00  0.00     0.031 C 
HETATM   14  C3  UNL     1      13.791  35.855  39.180  1.00  0.00     0.031 C 
ENDBRANCH   6  12
ENDBRANCH   4   5
ENDBRANCH   1   4
TORSDOF 3
ENDMDL
MODEL 2
REMARK VINA RESULT: -4.517052767      0.715      1.046
REMARK  3 active torsions:
REMARK  status: ('A' for Active; 'I' for Inactive)
REMARK    1  A    between atoms: C2_2  and  N1_4 
REMARK    2  A    between atoms: C6_10  and  C7_11 
REMARK    3  A    between atoms: C7_11  and  S1_12 
ROOT
HETATM    1  S1  UNL     1      12.974  35.623  35.728  1.00  0.00    -0.047 SA
HETATM    2  C8  UNL     1      12.055  36.486  34.524  1.00  0.00     0.133 C 
HETATM    3  N3  UNL     1      11.415  37.066  33.725  1.00  0.00    -0.184 NA
ENDROOT
BRANCH   1   4
HETATM    4  C7  UNL     1      14.533  36.393  36.135  1.00  0.00     0.144 C 
BRANCH   4   5
HETATM    5  C6  UNL     1      14.426  37.658  36.950  1.00  0.00     0.292 C 
HETATM    6  N1  UNL     1      15.482  37.728  37.846  1.00  0.00    -0.380 N 
HETATM    7  C4  UNL     1      16.412  38.722  37.552  1.00  0.00     0.147 C 
HETATM    8  C5  UNL     1      15.592  39.640  36.630  1.00  0.00     0.254 C 
HETATM    9  N2  UNL     1      14.491  38.869  36.179  1.00  0.00    -0.052 N 
ATOM     10  H22 UNL     1      13.615  39.391  36.200  1.00  0.00     0.279 HD
ATOM     11  H21 UNL     1      14.526  38.691  35.176  1.00  0.00     0.279 HD
BRANCH   6  12
HETATM   12  C2  UNL     1      15.475  37.133  39.092  1.00  0.00     0.073 C 
HETATM   13  C1  UNL     1      16.099  38.128  40.087  1.00  0.00     0.031 C 
HETATM   14  C3  UNL     1      16.135  35.837  39.272  1.00  0.00     0.031 C 
ENDBRANCH   6  12
ENDBRANCH   4   5
ENDBRANCH   1   4
TORSDOF 3
ENDMDL
MODEL 3
REMARK VINA RESULT: -4.510787447      2.174      5.959
REMARK  3 active torsions:
REMARK  status: ('A' for Active; 'I' for Inactive)
REMARK    1  A    between atoms: C2_2  and  N1_4 
REMARK    2  A    between atoms: C6_10  and  C7_11 
REMARK    3  A    between atoms: C7_11  and  S1_12 
ROOT
HETATM    1  S1  UNL     1      14.450  36.528  36.297  1.00  0.00    -0.047 SA
HETATM    2  C8  UNL     1      14.431  38.011  37.213  1.00  0.00     0.133 C 
HETATM    3  N3  UNL     1      14.443  39.013  37.831  1.00  0.00    -0.184 NA
ENDROOT
BRANCH   1   4
HETATM    4  C7  UNL     1      13.323  36.521  34.912  1.00  0.00     0.144 C 
BRANCH   4   5
HETATM    5  C6  UNL     1      11.910  36.108  35.241  1.00  0.00     0.292 C 
HETATM    6  N1  UNL     1      11.275  35.656  34.093  1.00  0.00    -0.380 N 
HETATM    7  C4  UNL     1      11.024  34.286  34.085  1.00  0.00     0.147 C 
HETATM    8  C5  UNL     1      11.118  33.952  35.583  1.00  0.00     0.254 C 
HETATM    9  N2  UNL     1      11.810  35.032  36.188  1.00  0.00    -0.052 N 
ATOM     10  H22 UNL     1      11.383  35.325  37.066  1.00  0.00     0.279 HD
ATOM     11  H21 UNL     1      12.718  34.754  36.557  1.00  0.00     0.279 HD
BRANCH   6  12
HETATM   12  C2  UNL     1      10.637  36.483  33.190  1.00  0.00     0.073 C 
HETATM   13  C1  UNL     1       9.340  35.780  32.751  1.00  0.00     0.031 C 
HETATM   14  C3  UNL     1      11.350  36.915  31.984  1.00  0.00     0.031 C 
ENDBRANCH   6  12
ENDBRANCH   4   5
ENDBRANCH   1   4
TORSDOF 3
ENDMDL
MODEL 4
REMARK VINA RESULT: -4.469373038      3.036      4.007
REMARK  3 active torsions:
REMARK  status: ('A' for Active; 'I' for Inactive)
REMARK    1  A    between atoms: C2_2  and  N1_4 
REMARK    2  A    between atoms: C6_10  and  C7_11 
REMARK    3  A    between atoms: C7_11  and  S1_12 
ROOT
HETATM    1  S1  UNL     1      17.450  39.238  37.592  1.00  0.00    -0.047 SA
HETATM    2  C8  UNL     1      16.370  40.524  37.125  1.00  0.00     0.133 C 
HETATM    3  N3  UNL     1      15.646  41.389  36.787  1.00  0.00    -0.184 NA
ENDROOT
BRANCH   1   4
HETATM    4  C7  UNL     1      16.761  38.122  38.804  1.00  0.00     0.144 C 
BRANCH   4   5
HETATM    5  C6  UNL     1      16.312  36.788  38.261  1.00  0.00     0.292 C 
HETATM    6  N1  UNL     1      15.100  36.433  38.835  1.00  0.00    -0.380 N 
HETATM    7  C4  UNL     1      14.022  36.467  37.955  1.00  0.00     0.147 C 
HETATM    8  C5  UNL     1      14.739  36.406  36.596  1.00  0.00     0.254 C 
HETATM    9  N2  UNL     1      16.087  36.770  36.842  1.00  0.00    -0.052 N 
ATOM     10  H22 UNL     1      16.749  36.169  36.351  1.00  0.00     0.279 HD
ATOM     11  H21 UNL     1      16.340  37.651  36.396  1.00  0.00     0.279 HD
BRANCH   6  12
HETATM   12  C2  UNL     1      14.985  35.781  40.047  1.00  0.00     0.073 C 
HETATM   13  C1  UNL     1      16.180  34.820  40.173  1.00  0.00     0.031 C 
HETATM   14  C3  UNL     1      13.763  35.027  40.343  1.00  0.00     0.031 C 
ENDBRANCH   6  12
ENDBRANCH   4   5
ENDBRANCH   1   4
TORSDOF 3
ENDMDL
MODEL 5
REMARK VINA RESULT: -4.442530231      1.411      2.122
REMARK  3 active torsions:
REMARK  status: ('A' for Active; 'I' for Inactive)
REMARK    1  A    between atoms: C2_2  and  N1_4 
REMARK    2  A    between atoms: C6_10  and  C7_11 
REMARK    3  A    between atoms: C7_11  and  S1_12 
ROOT
HETATM    1  S1  UNL     1      12.864  35.643  35.726  1.00  0.00    -0.047 SA
HETATM    2  C8  UNL     1      11.956  36.456  34.480  1.00  0.00     0.133 C 
HETATM    3  N3  UNL     1      11.323  37.007  33.653  1.00  0.00    -0.184 NA
ENDROOT
BRANCH   1   4
HETATM    4  C7  UNL     1      14.544  36.225  35.890  1.00  0.00     0.144 C 
BRANCH   4   5
HETATM    5  C6  UNL     1      14.988  36.500  37.305  1.00  0.00     0.292 C 
HETATM    6  N1  UNL     1      16.288  36.985  37.302  1.00  0.00    -0.380 N 
HETATM    7  C4  UNL     1      16.395  38.327  37.656  1.00  0.00     0.147 C 
HETATM    8  C5  UNL     1      15.059  38.555  38.384  1.00  0.00     0.254 C 
HETATM    9  N2  UNL     1      14.207  37.491  37.992  1.00  0.00    -0.052 N 
ATOM     10  H22 UNL     1      13.686  37.101  38.776  1.00  0.00     0.279 HD
ATOM     11  H21 UNL     1      13.413  37.812  37.439  1.00  0.00     0.279 HD
BRANCH   6  12
HETATM   12  C2  UNL     1      17.410  36.180  37.292  1.00  0.00     0.073 C 
HETATM   13  C1  UNL     1      17.641  35.687  38.731  1.00  0.00     0.031 C 
HETATM   14  C3  UNL     1      18.676  36.719  36.787  1.00  0.00     0.031 C 
ENDBRANCH   6  12
ENDBRANCH   4   5
ENDBRANCH   1   4
TORSDOF 3
ENDMDL
