MODEL 1
REMARK VINA RESULT: -4.434279086      0.000      0.000
REMARK  3 active torsions:
REMARK  status: ('A' for Active; 'I' for Inactive)
REMARK    1  A    between atoms: S1_3  and  C3_4 
REMARK    2  A    between atoms: C3_4  and  C4_5 
REMARK    3  A    between atoms: C7_11  and  N2_12 
ROOT
HETATM    1  C1  UNL     1      13.721  36.236  38.723  1.00  0.00     0.025 C 
HETATM    2  C2  UNL     1      13.865  36.272  37.537  1.00  0.00    -0.045 C 
HETATM    3  S1  UNL     1      14.062  36.275  35.756  1.00  0.00    -0.077 SA
ENDROOT
BRANCH   3   4
HETATM    4  C3  UNL     1      12.496  36.840  34.990  1.00  0.00     0.123 C 
BRANCH   4   5
HETATM    5  C4  UNL     1      11.857  35.766  34.168  1.00  0.00     0.218 C 
HETATM    6  N1  UNL     1      11.829  34.522  34.951  1.00  0.00    -0.068 N 
HETATM    7  C5  UNL     1      10.538  34.612  35.666  1.00  0.00     0.235 C 
ATOM      8  H12 UNL     1      11.955  33.671  34.404  1.00  0.00     0.277 HD
ATOM      9  H11 UNL     1      12.639  34.379  35.553  1.00  0.00     0.277 HD
HETATM   10  C6  UNL     1       9.629  35.052  34.541  1.00  0.00     0.054 C 
HETATM   11  C7  UNL     1      10.412  36.114  33.854  1.00  0.00     0.111 C 
BRANCH  11  12
HETATM   12  N2  UNL     1      10.273  36.073  32.435  1.00  0.00    -0.414 N 
HETATM   13  C8  UNL     1      11.019  37.013  31.687  1.00  0.00     0.143 C 
HETATM   14  C9  UNL     1      10.068  34.789  31.865  1.00  0.00     0.143 C 
ENDBRANCH  11  12
ENDBRANCH   4   5
ENDBRANCH   3   4
TORSDOF 3
ENDMDL
MODEL 2
REMARK VINA RESULT: -4.203184207      2.993      6.173
REMARK  3 active torsions:
REMARK  status: ('A' for Active; 'I' for Inactive)
REMARK    1  A    between atoms: S1_3  and  C3_4 
REMARK    2  A    between atoms: C3_4  and  C4_5 
REMARK    3  A    between atoms: C7_11  and  N2_12 
ROOT
HETATM    1  C1  UNL     1      11.053  36.592  33.149  1.00  0.00     0.025 C 
HETATM    2  C2  UNL     1      11.674  36.257  34.115  1.00  0.00    -0.045 C 
HETATM    3  S1  UNL     1      12.635  35.725  35.530  1.00  0.00    -0.077 SA
ENDROOT
BRANCH   3   4
HETATM    4  C3  UNL     1      14.052  36.866  35.744  1.00  0.00     0.123 C 
BRANCH   4   5
HETATM    5  C4  UNL     1      14.885  36.508  36.935  1.00  0.00     0.218 C 
HETATM    6  N1  UNL     1      16.181  37.194  36.832  1.00  0.00    -0.068 N 
HETATM    7  C5  UNL     1      15.928  38.479  37.515  1.00  0.00     0.235 C 
ATOM      8  H12 UNL     1      16.973  36.665  37.197  1.00  0.00     0.277 HD
ATOM      9  H11 UNL     1      16.543  37.280  35.883  1.00  0.00     0.277 HD
HETATM   10  C6  UNL     1      15.198  37.998  38.748  1.00  0.00     0.054 C 
HETATM   11  C7  UNL     1      14.234  36.999  38.217  1.00  0.00     0.111 C 
BRANCH  11  12
HETATM   12  N2  UNL     1      14.086  35.865  39.068  1.00  0.00    -0.414 N 
HETATM   13  C8  UNL     1      15.053  35.690  40.083  1.00  0.00     0.143 C 
HETATM   14  C9  UNL     1      12.753  35.467  39.351  1.00  0.00     0.143 C 
ENDBRANCH  11  12
ENDBRANCH   4   5
ENDBRANCH   3   4
TORSDOF 3
ENDMDL
MODEL 3
REMARK VINA RESULT: -4.114305787      3.251      6.324
REMARK  3 active torsions:
REMARK  status: ('A' for Active; 'I' for Inactive)
REMARK    1  A    between atoms: S1_3  and  C3_4 
REMARK    2  A    between atoms: C3_4  and  C4_5 
REMARK    3  A    between atoms: C7_11  and  N2_12 
ROOT
HETATM    1  C1  UNL     1      11.285  36.584  33.463  1.00  0.00     0.025 C 
HETATM    2  C2  UNL     1      11.909  36.226  34.418  1.00  0.00    -0.045 C 
HETATM    3  S1  UNL     1      12.874  35.657  35.817  1.00  0.00    -0.077 SA
ENDROOT
BRANCH   3   4
HETATM    4  C3  UNL     1      14.307  36.778  36.039  1.00  0.00     0.123 C 
BRANCH   4   5
HETATM    5  C4  UNL     1      14.221  37.549  37.318  1.00  0.00     0.218 C 
HETATM    6  N1  UNL     1      13.773  36.645  38.388  1.00  0.00    -0.068 N 
HETATM    7  C5  UNL     1      15.042  36.101  38.913  1.00  0.00     0.235 C 
ATOM      8  H12 UNL     1      13.173  37.079  39.089  1.00  0.00     0.277 HD
ATOM      9  H11 UNL     1      13.096  35.941  38.095  1.00  0.00     0.277 HD
HETATM   10  C6  UNL     1      15.865  37.366  39.013  1.00  0.00     0.054 C 
HETATM   11  C7  UNL     1      15.588  38.066  37.731  1.00  0.00     0.111 C 
BRANCH  11  12
HETATM   12  N2  UNL     1      15.469  39.478  37.885  1.00  0.00    -0.414 N 
HETATM   13  C8  UNL     1      15.445  39.983  39.205  1.00  0.00     0.143 C 
HETATM   14  C9  UNL     1      16.096  40.270  36.888  1.00  0.00     0.143 C 
ENDBRANCH  11  12
ENDBRANCH   4   5
ENDBRANCH   3   4
TORSDOF 3
ENDMDL
MODEL 4
REMARK VINA RESULT: -4.058862161      4.408      7.208
REMARK  3 active torsions:
REMARK  status: ('A' for Active; 'I' for Inactive)
REMARK    1  A    between atoms: S1_3  and  C3_4 
REMARK    2  A    between atoms: C3_4  and  C4_5 
REMARK    3  A    between atoms: C7_11  and  N2_12 
ROOT
HETATM    1  C1  UNL     1      13.459  35.923  35.652  1.00  0.00     0.025 C 
HETATM    2  C2  UNL     1      13.689  36.142  36.804  1.00  0.00    -0.045 C 
HETATM    3  S1  UNL     1      14.078  36.438  38.528  1.00  0.00    -0.077 SA
ENDROOT
BRANCH   3   4
HETATM    4  C3  UNL     1      15.186  37.893  38.641  1.00  0.00     0.123 C 
BRANCH   4   5
HETATM    5  C4  UNL     1      16.054  38.031  37.430  1.00  0.00     0.218 C 
HETATM    6  N1  UNL     1      15.579  39.170  36.632  1.00  0.00    -0.068 N 
HETATM    7  C5  UNL     1      16.342  40.305  37.190  1.00  0.00     0.235 C 
ATOM      8  H12 UNL     1      15.669  39.050  35.622  1.00  0.00     0.277 HD
ATOM      9  H11 UNL     1      14.567  39.296  36.630  1.00  0.00     0.277 HD
HETATM   10  C6  UNL     1      17.725  39.701  37.261  1.00  0.00     0.054 C 
HETATM   11  C7  UNL     1      17.487  38.345  37.825  1.00  0.00     0.111 C 
BRANCH  11  12
HETATM   12  N2  UNL     1      18.311  37.345  37.232  1.00  0.00    -0.414 N 
HETATM   13  C8  UNL     1      17.677  36.159  36.800  1.00  0.00     0.143 C 
HETATM   14  C9  UNL     1      19.415  37.817  36.473  1.00  0.00     0.143 C 
ENDBRANCH  11  12
ENDBRANCH   4   5
ENDBRANCH   3   4
TORSDOF 3
ENDMDL
MODEL 5
REMARK VINA RESULT: -4.041990402      2.604      6.027
REMARK  3 active torsions:
REMARK  status: ('A' for Active; 'I' for Inactive)
REMARK    1  A    between atoms: S1_3  and  C3_4 
REMARK    2  A    between atoms: C3_4  and  C4_5 
REMARK    3  A    between atoms: C7_11  and  N2_12 
ROOT
HETATM    1  C1  UNL     1       9.603  35.103  34.166  1.00  0.00     0.025 C 
HETATM    2  C2  UNL     1      10.694  35.570  34.310  1.00  0.00    -0.045 C 
HETATM    3  S1  UNL     1      12.306  36.314  34.546  1.00  0.00    -0.077 SA
ENDROOT
BRANCH   3   4
HETATM    4  C3  UNL     1      12.928  35.860  36.209  1.00  0.00     0.123 C 
BRANCH   4   5
HETATM    5  C4  UNL     1      14.300  36.401  36.461  1.00  0.00     0.218 C 
HETATM    6  N1  UNL     1      14.492  37.606  35.640  1.00  0.00    -0.068 N 
HETATM    7  C5  UNL     1      14.008  38.687  36.524  1.00  0.00     0.235 C 
ATOM      8  H12 UNL     1      15.442  37.735  35.289  1.00  0.00     0.277 HD
ATOM      9  H11 UNL     1      14.047  37.573  34.724  1.00  0.00     0.277 HD
HETATM   10  C6  UNL     1      14.675  38.301  37.824  1.00  0.00     0.054 C 
HETATM   11  C7  UNL     1      14.453  36.833  37.909  1.00  0.00     0.111 C 
BRANCH  11  12
HETATM   12  N2  UNL     1      15.579  36.133  38.434  1.00  0.00    -0.414 N 
HETATM   13  C8  UNL     1      16.859  36.564  38.018  1.00  0.00     0.143 C 
HETATM   14  C9  UNL     1      15.446  35.645  39.761  1.00  0.00     0.143 C 
ENDBRANCH  11  12
ENDBRANCH   4   5
ENDBRANCH   3   4
TORSDOF 3
ENDMDL
