MODEL 1
REMARK VINA RESULT: -5.631811195      0.000      0.000
REMARK  4 active torsions:
REMARK  status: ('A' for Active; 'I' for Inactive)
REMARK    1  A    between atoms: O1_2  and  C2_3 
REMARK    2  A    between atoms: C5_6  and  C6_7 
REMARK    3  A    between atoms: C6_7  and  N1_8 
REMARK    4  A    between atoms: C6_7  and  C7_12 
ROOT
HETATM    1  C6  UNL     1      13.022  36.128  37.681  1.00  0.00     0.191 C 
ENDROOT
BRANCH   1   2
HETATM    2  C5  UNL     1      12.882  35.550  36.313  1.00  0.00     0.019 C 
HETATM    3  C4  UNL     1      11.572  34.824  36.116  1.00  0.00     0.009 C 
HETATM    4  C3  UNL     1      10.978  35.297  34.811  1.00  0.00     0.032 C 
HETATM    5  C2  UNL     1      11.983  36.191  34.170  1.00  0.00     0.121 C 
HETATM    6  C11 UNL     1      12.878  36.676  35.293  1.00  0.00     0.038 C 
BRANCH   5   7
HETATM    7  O1  UNL     1      11.340  37.274  33.576  1.00  0.00    -0.391 OA
HETATM    8  C1  UNL     1      10.998  36.890  32.279  1.00  0.00     0.202 C 
ENDBRANCH   5   7
ENDBRANCH   1   2
BRANCH   1   9
HETATM    9  N1  UNL     1      12.476  35.214  38.696  1.00  0.00    -0.074 N 
ATOM     10  H13 UNL     1      11.651  35.604  39.150  1.00  0.00     0.274 HD
ATOM     11  H12 UNL     1      12.044  34.393  38.271  1.00  0.00     0.274 HD
ATOM     12  H11 UNL     1      13.192  34.954  39.376  1.00  0.00     0.274 HD
ENDBRANCH   1   9
BRANCH   1  13
HETATM   13  C7  UNL     1      14.485  36.287  38.041  1.00  0.00     0.016 C 
HETATM   14  C8  UNL     1      14.777  35.932  39.508  1.00  0.00     0.007 C 
HETATM   15  C9  UNL     1      15.855  37.022  39.435  1.00  0.00     0.001 C 
HETATM   16  C10 UNL     1      14.911  37.691  38.423  1.00  0.00     0.007 C 
ENDBRANCH   1  13
TORSDOF 4
ENDMDL
MODEL 2
REMARK VINA RESULT: -5.564169763      1.668      1.955
REMARK  4 active torsions:
REMARK  status: ('A' for Active; 'I' for Inactive)
REMARK    1  A    between atoms: O1_2  and  C2_3 
REMARK    2  A    between atoms: C5_6  and  C6_7 
REMARK    3  A    between atoms: C6_7  and  N1_8 
REMARK    4  A    between atoms: C6_7  and  C7_12 
ROOT
HETATM    1  C6  UNL     1      13.999  37.039  35.918  1.00  0.00     0.191 C 
ENDROOT
BRANCH   1   2
HETATM    2  C5  UNL     1      13.273  35.857  35.369  1.00  0.00     0.019 C 
HETATM    3  C4  UNL     1      12.491  35.110  36.423  1.00  0.00     0.009 C 
HETATM    4  C3  UNL     1      11.105  34.864  35.877  1.00  0.00     0.032 C 
HETATM    5  C2  UNL     1      11.100  35.337  34.464  1.00  0.00     0.121 C 
HETATM    6  C11 UNL     1      12.242  36.328  34.358  1.00  0.00     0.038 C 
BRANCH   5   7
HETATM    7  O1  UNL     1       9.894  35.972  34.182  1.00  0.00    -0.391 OA
HETATM    8  C1  UNL     1       9.348  35.345  33.062  1.00  0.00     0.202 C 
ENDBRANCH   5   7
ENDBRANCH   1   2
BRANCH   1   9
HETATM    9  N1  UNL     1      13.161  38.247  35.852  1.00  0.00    -0.074 N 
ATOM     10  H13 UNL     1      12.402  38.216  36.532  1.00  0.00     0.274 HD
ATOM     11  H12 UNL     1      13.653  39.067  36.207  1.00  0.00     0.274 HD
ATOM     12  H11 UNL     1      12.811  38.397  34.906  1.00  0.00     0.274 HD
ENDBRANCH   1   9
BRANCH   1  13
HETATM   13  C7  UNL     1      14.293  36.843  37.391  1.00  0.00     0.016 C 
HETATM   14  C8  UNL     1      14.519  38.172  38.131  1.00  0.00     0.007 C 
HETATM   15  C9  UNL     1      15.510  37.383  38.999  1.00  0.00     0.001 C 
HETATM   16  C10 UNL     1      15.740  36.547  37.730  1.00  0.00     0.007 C 
ENDBRANCH   1  13
TORSDOF 4
ENDMDL
MODEL 3
REMARK VINA RESULT: -5.553563087      2.679      5.281
REMARK  4 active torsions:
REMARK  status: ('A' for Active; 'I' for Inactive)
REMARK    1  A    between atoms: O1_2  and  C2_3 
REMARK    2  A    between atoms: C5_6  and  C6_7 
REMARK    3  A    between atoms: C6_7  and  N1_8 
REMARK    4  A    between atoms: C6_7  and  C7_12 
ROOT
HETATM    1  C6  UNL     1      13.360  36.697  35.812  1.00  0.00     0.191 C 
ENDROOT
BRANCH   1   2
HETATM    2  C5  UNL     1      14.201  36.522  37.031  1.00  0.00     0.019 C 
HETATM    3  C4  UNL     1      15.660  36.300  36.708  1.00  0.00     0.009 C 
HETATM    4  C3  UNL     1      16.469  37.219  37.591  1.00  0.00     0.032 C 
HETATM    5  C2  UNL     1      15.516  37.883  38.525  1.00  0.00     0.121 C 
HETATM    6  C11 UNL     1      14.159  37.797  37.856  1.00  0.00     0.038 C 
BRANCH   5   7
HETATM    7  O1  UNL     1      15.875  39.217  38.697  1.00  0.00    -0.391 OA
HETATM    8  C1  UNL     1      15.967  39.787  37.427  1.00  0.00     0.202 C 
ENDBRANCH   5   7
ENDBRANCH   1   2
BRANCH   1   9
HETATM    9  N1  UNL     1      14.190  37.021  34.642  1.00  0.00    -0.074 N 
ATOM     10  H13 UNL     1      13.754  37.732  34.055  1.00  0.00     0.274 HD
ATOM     11  H12 UNL     1      15.031  37.536  34.907  1.00  0.00     0.274 HD
ATOM     12  H11 UNL     1      14.415  36.180  34.111  1.00  0.00     0.274 HD
ENDBRANCH   1   9
BRANCH   1  13
HETATM   13  C7  UNL     1      12.667  35.398  35.456  1.00  0.00     0.016 C 
HETATM   14  C8  UNL     1      11.447  35.609  34.544  1.00  0.00     0.007 C 
HETATM   15  C9  UNL     1      10.839  34.404  35.277  1.00  0.00     0.001 C 
HETATM   16  C10 UNL     1      11.666  34.895  36.476  1.00  0.00     0.007 C 
ENDBRANCH   1  13
TORSDOF 4
ENDMDL
MODEL 4
REMARK VINA RESULT: -5.350499056      1.010      1.264
REMARK  4 active torsions:
REMARK  status: ('A' for Active; 'I' for Inactive)
REMARK    1  A    between atoms: O1_2  and  C2_3 
REMARK    2  A    between atoms: C5_6  and  C6_7 
REMARK    3  A    between atoms: C6_7  and  N1_8 
REMARK    4  A    between atoms: C6_7  and  C7_12 
ROOT
HETATM    1  C6  UNL     1      13.692  36.517  37.553  1.00  0.00     0.191 C 
ENDROOT
BRANCH   1   2
HETATM    2  C5  UNL     1      13.452  35.883  36.224  1.00  0.00     0.019 C 
HETATM    3  C4  UNL     1      12.239  34.985  36.215  1.00  0.00     0.009 C 
HETATM    4  C3  UNL     1      11.420  35.334  34.995  1.00  0.00     0.032 C 
HETATM    5  C2  UNL     1      12.201  36.332  34.213  1.00  0.00     0.121 C 
HETATM    6  C11 UNL     1      13.162  36.966  35.199  1.00  0.00     0.038 C 
BRANCH   5   7
HETATM    7  O1  UNL     1      11.346  37.301  33.696  1.00  0.00    -0.391 OA
HETATM    8  C1  UNL     1      10.984  36.891  32.413  1.00  0.00     0.202 C 
ENDBRANCH   5   7
ENDBRANCH   1   2
BRANCH   1   9
HETATM    9  N1  UNL     1      12.972  35.798  38.616  1.00  0.00    -0.074 N 
ATOM     10  H13 UNL     1      12.345  36.416  39.130  1.00  0.00     0.274 HD
ATOM     11  H12 UNL     1      12.277  35.157  38.233  1.00  0.00     0.274 HD
ATOM     12  H11 UNL     1      13.624  35.321  39.239  1.00  0.00     0.274 HD
ENDBRANCH   1   9
BRANCH   1  13
HETATM   13  C7  UNL     1      15.156  36.417  37.931  1.00  0.00     0.016 C 
HETATM   14  C8  UNL     1      15.812  37.793  38.128  1.00  0.00     0.007 C 
HETATM   15  C9  UNL     1      17.086  37.132  37.582  1.00  0.00     0.001 C 
HETATM   16  C10 UNL     1      16.117  36.259  36.770  1.00  0.00     0.007 C 
ENDBRANCH   1  13
TORSDOF 4
ENDMDL
MODEL 5
REMARK VINA RESULT: -5.339228138      2.690      5.786
REMARK  4 active torsions:
REMARK  status: ('A' for Active; 'I' for Inactive)
REMARK    1  A    between atoms: O1_2  and  C2_3 
REMARK    2  A    between atoms: C5_6  and  C6_7 
REMARK    3  A    between atoms: C6_7  and  N1_8 
REMARK    4  A    between atoms: C6_7  and  C7_12 
ROOT
HETATM    1  C6  UNL     1      11.517  36.288  34.327  1.00  0.00     0.191 C 
ENDROOT
BRANCH   1   2
HETATM    2  C5  UNL     1      12.734  35.781  35.024  1.00  0.00     0.019 C 
HETATM    3  C4  UNL     1      13.878  36.766  34.995  1.00  0.00     0.009 C 
HETATM    4  C3  UNL     1      14.430  36.869  36.397  1.00  0.00     0.032 C 
HETATM    5  C2  UNL     1      13.714  35.859  37.226  1.00  0.00     0.121 C 
HETATM    6  C11 UNL     1      12.417  35.572  36.495  1.00  0.00     0.038 C 
BRANCH   5   7
HETATM    7  O1  UNL     1      13.442  36.387  38.485  1.00  0.00    -0.391 OA
HETATM    8  C1  UNL     1      12.593  35.490  39.134  1.00  0.00     0.202 C 
ENDBRANCH   5   7
ENDBRANCH   1   2
BRANCH   1   9
HETATM    9  N1  UNL     1      11.881  37.078  33.142  1.00  0.00    -0.074 N 
ATOM     10  H13 UNL     1      11.242  37.860  32.999  1.00  0.00     0.274 HD
ATOM     11  H12 UNL     1      12.741  37.607  33.291  1.00  0.00     0.274 HD
ATOM     12  H11 UNL     1      11.941  36.486  32.313  1.00  0.00     0.274 HD
ENDBRANCH   1   9
BRANCH   1  13
HETATM   13  C7  UNL     1      10.693  35.134  33.793  1.00  0.00     0.016 C 
HETATM   14  C8  UNL     1      10.311  35.313  32.315  1.00  0.00     0.007 C 
HETATM   15  C9  UNL     1       9.017  34.572  32.682  1.00  0.00     0.001 C 
HETATM   16  C10 UNL     1       9.205  35.218  34.063  1.00  0.00     0.007 C 
ENDBRANCH   1  13
TORSDOF 4
ENDMDL
