MODEL 1
REMARK VINA RESULT: -4.690960837      0.000      0.000
REMARK  0 active torsions:
REMARK  status: ('A' for Active; 'I' for Inactive)
ROOT
HETATM    1  C1  UNL     1       9.083  34.513  32.660  1.00  0.00     0.011 C 
HETATM    2  C2  UNL     1      10.460  35.040  32.865  1.00  0.00     0.009 C 
HETATM    3  C3  UNL     1      10.865  35.214  34.287  1.00  0.00     0.033 C 
HETATM    4  C4  UNL     1      12.041  36.187  34.131  1.00  0.00     0.232 C 
HETATM    5  N1  UNL     1      11.772  36.970  32.967  1.00  0.00    -0.075 N 
ATOM      6  H11 UNL     1      12.577  37.025  32.342  1.00  0.00     0.277 HD
ATOM      7  H12 UNL     1      11.687  37.964  33.179  1.00  0.00     0.277 HD
HETATM    8  C5  UNL     1      10.613  36.455  32.312  1.00  0.00     0.236 C 
ENDROOT
TORSDOF 0
ENDMDL
MODEL 2
REMARK VINA RESULT: -4.379453135      1.298      2.509
REMARK  0 active torsions:
REMARK  status: ('A' for Active; 'I' for Inactive)
ROOT
HETATM    1  C1  UNL     1      12.246  36.373  34.299  1.00  0.00     0.011 C 
HETATM    2  C2  UNL     1      11.070  36.074  33.437  1.00  0.00     0.009 C 
HETATM    3  C3  UNL     1      10.880  34.636  33.103  1.00  0.00     0.033 C 
HETATM    4  C4  UNL     1       9.965  34.747  31.875  1.00  0.00     0.232 C 
HETATM    5  N1  UNL     1      10.285  35.985  31.238  1.00  0.00    -0.075 N 
ATOM      6  H11 UNL     1       9.454  36.531  31.012  1.00  0.00     0.277 HD
ATOM      7  H12 UNL     1      10.633  35.853  30.288  1.00  0.00     0.277 HD
HETATM    8  C5  UNL     1      11.204  36.709  32.055  1.00  0.00     0.236 C 
ENDROOT
TORSDOF 0
ENDMDL
MODEL 3
REMARK VINA RESULT: -4.355576608      1.178      1.715
REMARK  0 active torsions:
REMARK  status: ('A' for Active; 'I' for Inactive)
ROOT
HETATM    1  C1  UNL     1      10.155  34.688  34.845  1.00  0.00     0.011 C 
HETATM    2  C2  UNL     1      10.720  35.215  33.574  1.00  0.00     0.009 C 
HETATM    3  C3  UNL     1      11.698  36.327  33.729  1.00  0.00     0.033 C 
HETATM    4  C4  UNL     1      11.675  36.926  32.316  1.00  0.00     0.232 C 
HETATM    5  N1  UNL     1      10.370  36.683  31.790  1.00  0.00    -0.075 N 
ATOM      6  H11 UNL     1      10.398  36.293  30.847  1.00  0.00     0.277 HD
ATOM      7  H12 UNL     1       9.873  37.547  31.574  1.00  0.00     0.277 HD
HETATM    8  C5  UNL     1       9.645  35.853  32.697  1.00  0.00     0.236 C 
ENDROOT
TORSDOF 0
ENDMDL
MODEL 4
REMARK VINA RESULT: -4.290598863      1.020      2.012
REMARK  0 active torsions:
REMARK  status: ('A' for Active; 'I' for Inactive)
ROOT
HETATM    1  C1  UNL     1      10.253  34.630  34.548  1.00  0.00     0.011 C 
HETATM    2  C2  UNL     1      10.179  35.648  33.465  1.00  0.00     0.009 C 
HETATM    3  C3  UNL     1      10.139  35.099  32.082  1.00  0.00     0.033 C 
HETATM    4  C4  UNL     1      10.565  36.333  31.274  1.00  0.00     0.232 C 
HETATM    5  N1  UNL     1      11.420  37.102  32.121  1.00  0.00    -0.075 N 
ATOM      6  H11 UNL     1      11.165  38.089  32.135  1.00  0.00     0.277 HD
ATOM      7  H12 UNL     1      12.359  37.201  31.735  1.00  0.00     0.277 HD
HETATM    8  C5  UNL     1      11.428  36.525  33.426  1.00  0.00     0.236 C 
ENDROOT
TORSDOF 0
ENDMDL
MODEL 5
REMARK VINA RESULT: -4.180433720      1.588      2.976
REMARK  0 active torsions:
REMARK  status: ('A' for Active; 'I' for Inactive)
ROOT
HETATM    1  C1  UNL     1      12.393  36.442  34.288  1.00  0.00     0.011 C 
HETATM    2  C2  UNL     1      11.399  35.604  33.565  1.00  0.00     0.009 C 
HETATM    3  C3  UNL     1      10.535  36.337  32.600  1.00  0.00     0.033 C 
HETATM    4  C4  UNL     1       9.377  35.342  32.441  1.00  0.00     0.232 C 
HETATM    5  N1  UNL     1       9.278  34.630  33.675  1.00  0.00    -0.075 N 
ATOM      6  H11 UNL     1       9.215  33.622  33.537  1.00  0.00     0.277 HD
ATOM      7  H12 UNL     1       8.377  34.769  34.131  1.00  0.00     0.277 HD
HETATM    8  C5  UNL     1      10.372  34.994  34.516  1.00  0.00     0.236 C 
ENDROOT
TORSDOF 0
ENDMDL
