MODEL 1
REMARK VINA RESULT: -4.613980746      0.000      0.000
REMARK  0 active torsions:
REMARK  status: ('A' for Active; 'I' for Inactive)
ROOT
HETATM    1  C1  UNL     1       9.821  35.034  33.143  1.00  0.00     0.003 C 
HETATM    2  C2  UNL     1      10.983  35.022  34.080  1.00  0.00     0.027 C 
HETATM    3  C3  UNL     1      11.852  36.218  34.034  1.00  0.00     0.232 C 
HETATM    4  N1  UNL     1      12.017  36.830  32.764  1.00  0.00    -0.075 N 
ATOM      5  H11 UNL     1      12.742  36.355  32.226  1.00  0.00     0.277 HD
ATOM      6  H12 UNL     1      12.449  37.749  32.860  1.00  0.00     0.277 HD
HETATM    7  C4  UNL     1      10.786  36.919  31.998  1.00  0.00     0.232 C 
HETATM    8  C5  UNL     1      10.356  35.463  31.772  1.00  0.00     0.027 C 
ENDROOT
TORSDOF 0
ENDMDL
MODEL 2
REMARK VINA RESULT: -4.503915431      0.549      2.047
REMARK  0 active torsions:
REMARK  status: ('A' for Active; 'I' for Inactive)
ROOT
HETATM    1  C1  UNL     1      10.525  34.594  32.908  1.00  0.00     0.003 C 
HETATM    2  C2  UNL     1      10.184  35.719  31.987  1.00  0.00     0.027 C 
HETATM    3  C3  UNL     1      11.078  36.896  32.059  1.00  0.00     0.232 C 
HETATM    4  N1  UNL     1      11.607  37.209  33.338  1.00  0.00    -0.075 N 
ATOM      5  H11 UNL     1      10.940  37.757  33.880  1.00  0.00     0.277 HD
ATOM      6  H12 UNL     1      12.363  37.890  33.258  1.00  0.00     0.277 HD
HETATM    7  C4  UNL     1      12.043  36.044  34.087  1.00  0.00     0.232 C 
HETATM    8  C5  UNL     1      10.772  35.208  34.290  1.00  0.00     0.027 C 
ENDROOT
TORSDOF 0
ENDMDL
MODEL 3
REMARK VINA RESULT: -4.365911917      1.247      2.259
REMARK  0 active torsions:
REMARK  status: ('A' for Active; 'I' for Inactive)
ROOT
HETATM    1  C1  UNL     1      11.608  35.764  34.358  1.00  0.00     0.003 C 
HETATM    2  C2  UNL     1      12.042  36.549  33.164  1.00  0.00     0.027 C 
HETATM    3  C3  UNL     1      10.967  36.917  32.217  1.00  0.00     0.232 C 
HETATM    4  N1  UNL     1       9.916  35.977  32.060  1.00  0.00    -0.075 N 
ATOM      5  H11 UNL     1      10.176  35.253  31.390  1.00  0.00     0.277 HD
ATOM      6  H12 UNL     1       9.129  36.395  31.562  1.00  0.00     0.277 HD
HETATM    7  C4  UNL     1       9.475  35.383  33.310  1.00  0.00     0.232 C 
HETATM    8  C5  UNL     1      10.704  34.637  33.847  1.00  0.00     0.027 C 
ENDROOT
TORSDOF 0
ENDMDL
MODEL 4
REMARK VINA RESULT: -4.335730649      1.391      2.134
REMARK  0 active torsions:
REMARK  status: ('A' for Active; 'I' for Inactive)
ROOT
HETATM    1  C1  UNL     1      11.712  35.500  34.051  1.00  0.00     0.003 C 
HETATM    2  C2  UNL     1      10.409  34.979  34.561  1.00  0.00     0.027 C 
HETATM    3  C3  UNL     1       9.329  34.867  33.557  1.00  0.00     0.232 C 
HETATM    4  N1  UNL     1       9.307  35.858  32.542  1.00  0.00    -0.075 N 
ATOM      5  H11 UNL     1       8.833  36.700  32.870  1.00  0.00     0.277 HD
ATOM      6  H12 UNL     1       8.673  35.589  31.789  1.00  0.00     0.277 HD
HETATM    7  C4  UNL     1      10.621  36.181  32.016  1.00  0.00     0.232 C 
HETATM    8  C5  UNL     1      11.397  36.745  33.213  1.00  0.00     0.027 C 
ENDROOT
TORSDOF 0
ENDMDL
MODEL 5
REMARK VINA RESULT: -4.120095125      0.969      2.132
REMARK  0 active torsions:
REMARK  status: ('A' for Active; 'I' for Inactive)
ROOT
HETATM    1  C1  UNL     1      10.053  34.783  31.494  1.00  0.00     0.003 C 
HETATM    2  C2  UNL     1      10.480  36.193  31.249  1.00  0.00     0.027 C 
HETATM    3  C3  UNL     1      11.392  36.768  32.261  1.00  0.00     0.232 C 
HETATM    4  N1  UNL     1      11.193  36.348  33.602  1.00  0.00    -0.075 N 
ATOM      5  H11 UNL     1      10.454  36.894  34.044  1.00  0.00     0.277 HD
ATOM      6  H12 UNL     1      11.982  36.623  34.187  1.00  0.00     0.277 HD
HETATM    7  C4  UNL     1      10.929  34.926  33.732  1.00  0.00     0.232 C 
HETATM    8  C5  UNL     1       9.622  34.696  32.962  1.00  0.00     0.027 C 
ENDROOT
TORSDOF 0
ENDMDL
