MODEL 1
REMARK VINA RESULT: -4.247870264      0.000      0.000
REMARK  0 active torsions:
REMARK  status: ('A' for Active; 'I' for Inactive)
ROOT
HETATM    1  S1  UNL     1      12.168  36.369  34.076  1.00  0.00    -0.092 SA
HETATM    2  C1  UNL     1      10.668  36.054  33.150  1.00  0.00     0.063 C 
HETATM    3  C2  UNL     1      10.734  36.464  31.688  1.00  0.00     0.021 C 
HETATM    4  C3  UNL     1      10.221  35.138  31.258  1.00  0.00    -0.008 A 
HETATM    5  C4  UNL     1       9.184  34.389  31.994  1.00  0.00     0.011 A 
HETATM    6  C5  UNL     1      10.471  34.632  32.674  1.00  0.00     0.005 A 
ENDROOT
TORSDOF 0
ENDMDL
MODEL 2
REMARK VINA RESULT: -4.186329975      1.215      1.868
REMARK  0 active torsions:
REMARK  status: ('A' for Active; 'I' for Inactive)
ROOT
HETATM    1  S1  UNL     1      12.345  36.500  34.174  1.00  0.00    -0.092 SA
HETATM    2  C1  UNL     1      11.243  35.198  33.628  1.00  0.00     0.063 C 
HETATM    3  C2  UNL     1      10.168  34.822  34.633  1.00  0.00     0.021 C 
HETATM    4  C3  UNL     1       9.111  34.934  33.596  1.00  0.00    -0.008 A 
HETATM    5  C4  UNL     1       9.298  34.511  32.195  1.00  0.00     0.011 A 
HETATM    6  C5  UNL     1      10.130  35.622  32.696  1.00  0.00     0.005 A 
ENDROOT
TORSDOF 0
ENDMDL
MODEL 3
REMARK VINA RESULT: -4.111556995      1.975      2.781
REMARK  0 active torsions:
REMARK  status: ('A' for Active; 'I' for Inactive)
ROOT
HETATM    1  S1  UNL     1       8.841  34.274  32.445  1.00  0.00    -0.092 SA
HETATM    2  C1  UNL     1      10.504  34.911  32.630  1.00  0.00     0.063 C 
HETATM    3  C2  UNL     1      10.757  36.226  31.912  1.00  0.00     0.021 C 
HETATM    4  C3  UNL     1      11.346  36.821  33.139  1.00  0.00    -0.008 A 
HETATM    5  C4  UNL     1      12.198  36.067  34.080  1.00  0.00     0.011 A 
HETATM    6  C5  UNL     1      10.795  35.637  33.924  1.00  0.00     0.005 A 
ENDROOT
TORSDOF 0
ENDMDL
MODEL 4
REMARK VINA RESULT: -4.036208029      2.223      3.149
REMARK  0 active torsions:
REMARK  status: ('A' for Active; 'I' for Inactive)
ROOT
HETATM    1  S1  UNL     1       8.837  34.315  32.246  1.00  0.00    -0.092 SA
HETATM    2  C1  UNL     1       9.708  35.487  33.282  1.00  0.00     0.063 C 
HETATM    3  C2  UNL     1      10.288  34.892  34.554  1.00  0.00     0.021 C 
HETATM    4  C3  UNL     1      11.613  35.504  34.278  1.00  0.00    -0.008 A 
HETATM    5  C4  UNL     1      11.781  36.847  33.689  1.00  0.00     0.011 A 
HETATM    6  C5  UNL     1      11.126  35.811  32.867  1.00  0.00     0.005 A 
ENDROOT
TORSDOF 0
ENDMDL
MODEL 5
REMARK VINA RESULT: -3.989476176      2.175      2.989
REMARK  0 active torsions:
REMARK  status: ('A' for Active; 'I' for Inactive)
ROOT
HETATM    1  S1  UNL     1       9.968  34.524  31.011  1.00  0.00    -0.092 SA
HETATM    2  C1  UNL     1      10.279  35.505  32.476  1.00  0.00     0.063 C 
HETATM    3  C2  UNL     1       9.379  35.176  33.656  1.00  0.00     0.021 C 
HETATM    4  C3  UNL     1      10.550  35.067  34.562  1.00  0.00    -0.008 A 
HETATM    5  C4  UNL     1      11.730  35.950  34.478  1.00  0.00     0.011 A 
HETATM    6  C5  UNL     1      11.448  35.066  33.330  1.00  0.00     0.005 A 
ENDROOT
TORSDOF 0
ENDMDL
