MODEL 1
REMARK VINA RESULT: -4.719088764      0.000      0.000
REMARK  0 active torsions:
REMARK  status: ('A' for Active; 'I' for Inactive)
ROOT
HETATM    1  C1  UNL     1      11.001  36.970  32.254  1.00  0.00     0.114 C 
HETATM    2  C2  UNL     1      11.751  36.482  33.502  1.00  0.00     0.024 C 
HETATM    3  C3  UNL     1      10.931  35.413  34.129  1.00  0.00    -0.009 C 
HETATM    4  C4  UNL     1      11.138  34.138  33.296  1.00  0.00     0.029 C 
HETATM    5  C5  UNL     1      10.119  34.737  32.348  1.00  0.00     0.077 C 
HETATM    6  C6  UNL     1       9.506  35.357  33.615  1.00  0.00     0.029 C 
HETATM    7  N1  UNL     1      10.586  35.810  31.576  1.00  0.00    -0.417 N 
ATOM      8  H1  UNL     1      10.623  35.752  30.559  1.00  0.00     0.153 HD
ENDROOT
TORSDOF 0
ENDMDL
MODEL 2
REMARK VINA RESULT: -4.702836276      0.979      1.588
REMARK  0 active torsions:
REMARK  status: ('A' for Active; 'I' for Inactive)
ROOT
HETATM    1  C1  UNL     1      11.638  36.398  33.811  1.00  0.00     0.114 C 
HETATM    2  C2  UNL     1      11.352  34.890  33.872  1.00  0.00     0.024 C 
HETATM    3  C3  UNL     1      10.077  34.645  33.147  1.00  0.00    -0.009 C 
HETATM    4  C4  UNL     1      10.395  34.698  31.644  1.00  0.00     0.029 C 
HETATM    5  C5  UNL     1      10.327  36.203  31.806  1.00  0.00     0.077 C 
HETATM    6  C6  UNL     1       9.274  35.903  32.885  1.00  0.00     0.029 C 
HETATM    7  N1  UNL     1      11.417  36.777  32.475  1.00  0.00    -0.417 N 
ATOM      8  H1  UNL     1      12.029  37.447  32.009  1.00  0.00     0.153 HD
ENDROOT
TORSDOF 0
ENDMDL
MODEL 3
REMARK VINA RESULT: -4.586169549      1.172      2.021
REMARK  0 active torsions:
REMARK  status: ('A' for Active; 'I' for Inactive)
ROOT
HETATM    1  C1  UNL     1      11.017  36.760  32.259  1.00  0.00     0.114 C 
HETATM    2  C2  UNL     1       9.679  36.010  32.328  1.00  0.00     0.024 C 
HETATM    3  C3  UNL     1       9.916  34.738  33.059  1.00  0.00    -0.009 C 
HETATM    4  C4  UNL     1       9.994  35.085  34.555  1.00  0.00     0.029 C 
HETATM    5  C5  UNL     1      11.423  35.495  34.261  1.00  0.00     0.077 C 
HETATM    6  C6  UNL     1      11.381  34.380  33.203  1.00  0.00     0.029 C 
HETATM    7  N1  UNL     1      11.561  36.697  33.554  1.00  0.00    -0.417 N 
ATOM      8  H1  UNL     1      12.040  37.499  33.964  1.00  0.00     0.153 HD
ENDROOT
TORSDOF 0
ENDMDL
MODEL 4
REMARK VINA RESULT: -4.425906289      1.350      2.110
REMARK  0 active torsions:
REMARK  status: ('A' for Active; 'I' for Inactive)
ROOT
HETATM    1  C1  UNL     1      12.003  36.239  33.793  1.00  0.00     0.114 C 
HETATM    2  C2  UNL     1      11.144  36.883  32.695  1.00  0.00     0.024 C 
HETATM    3  C3  UNL     1      10.269  35.822  32.131  1.00  0.00    -0.009 C 
HETATM    4  C4  UNL     1       9.125  35.601  33.134  1.00  0.00     0.029 C 
HETATM    5  C5  UNL     1      10.121  34.750  33.896  1.00  0.00     0.077 C 
HETATM    6  C6  UNL     1      10.693  34.417  32.508  1.00  0.00     0.029 C 
HETATM    7  N1  UNL     1      11.121  35.466  34.568  1.00  0.00    -0.417 N 
ATOM      8  H1  UNL     1      11.207  35.427  35.583  1.00  0.00     0.153 HD
ENDROOT
TORSDOF 0
ENDMDL
MODEL 5
REMARK VINA RESULT: -4.387157303      1.382      2.263
REMARK  0 active torsions:
REMARK  status: ('A' for Active; 'I' for Inactive)
ROOT
HETATM    1  C1  UNL     1      10.201  34.801  34.712  1.00  0.00     0.114 C 
HETATM    2  C2  UNL     1      11.440  35.593  34.269  1.00  0.00     0.024 C 
HETATM    3  C3  UNL     1      11.442  35.629  32.783  1.00  0.00    -0.009 C 
HETATM    4  C4  UNL     1      10.406  36.681  32.356  1.00  0.00     0.029 C 
HETATM    5  C5  UNL     1       9.380  35.592  32.597  1.00  0.00     0.077 C 
HETATM    6  C6  UNL     1      10.494  34.632  32.148  1.00  0.00     0.029 C 
HETATM    7  N1  UNL     1       9.133  35.298  33.945  1.00  0.00    -0.417 N 
ATOM      8  H1  UNL     1       8.210  35.439  34.356  1.00  0.00     0.153 HD
ENDROOT
TORSDOF 0
ENDMDL
