MODEL 1
REMARK VINA RESULT: -5.074508352      0.000      0.000
REMARK  1 active torsions:
REMARK  status: ('A' for Active; 'I' for Inactive)
REMARK    1  A    between atoms: C2_2  and  C4_4 
ROOT
HETATM    1  C4  UNL     1      10.015  35.981  32.612  1.00  0.00     0.013 A 
HETATM    2  C5  UNL     1      10.867  36.712  31.581  1.00  0.00     0.010 A 
HETATM    3  C6  UNL     1      10.246  35.369  31.315  1.00  0.00     0.010 A 
ENDROOT
BRANCH   1   4
HETATM    4  C2  UNL     1      10.768  35.616  33.836  1.00  0.00    -0.089 C 
HETATM    5  C1  UNL     1      10.207  34.741  34.655  1.00  0.00     0.014 C 
HETATM    6  C3  UNL     1      12.090  36.166  34.190  1.00  0.00     0.043 C 
ENDBRANCH   1   4
TORSDOF 1
ENDMDL
MODEL 2
REMARK VINA RESULT: -4.978926007      0.871      1.179
REMARK  1 active torsions:
REMARK  status: ('A' for Active; 'I' for Inactive)
REMARK    1  A    between atoms: C2_2  and  C4_4 
ROOT
HETATM    1  C4  UNL     1       9.791  35.549  32.629  1.00  0.00     0.013 A 
HETATM    2  C5  UNL     1      10.265  34.640  31.501  1.00  0.00     0.010 A 
HETATM    3  C6  UNL     1       8.940  34.458  32.188  1.00  0.00     0.010 A 
ENDROOT
BRANCH   1   4
HETATM    4  C2  UNL     1      10.653  35.479  33.833  1.00  0.00    -0.089 C 
HETATM    5  C1  UNL     1      10.226  34.737  34.842  1.00  0.00     0.014 C 
HETATM    6  C3  UNL     1      11.943  36.182  33.971  1.00  0.00     0.043 C 
ENDBRANCH   1   4
TORSDOF 1
ENDMDL
MODEL 3
REMARK VINA RESULT: -4.968816678      1.147      2.423
REMARK  1 active torsions:
REMARK  status: ('A' for Active; 'I' for Inactive)
REMARK    1  A    between atoms: C2_2  and  C4_4 
ROOT
HETATM    1  C4  UNL     1      10.741  34.848  33.417  1.00  0.00     0.013 A 
HETATM    2  C5  UNL     1       9.946  34.754  34.715  1.00  0.00     0.010 A 
HETATM    3  C6  UNL     1       9.296  34.716  33.360  1.00  0.00     0.010 A 
ENDROOT
BRANCH   1   4
HETATM    4  C2  UNL     1      11.452  36.139  33.262  1.00  0.00    -0.089 C 
HETATM    5  C1  UNL     1      11.094  36.911  32.249  1.00  0.00     0.014 C 
HETATM    6  C3  UNL     1      12.524  36.608  34.161  1.00  0.00     0.043 C 
ENDBRANCH   1   4
TORSDOF 1
ENDMDL
MODEL 4
REMARK VINA RESULT: -4.935895293      1.177      2.407
REMARK  1 active torsions:
REMARK  status: ('A' for Active; 'I' for Inactive)
REMARK    1  A    between atoms: C2_2  and  C4_4 
ROOT
HETATM    1  C4  UNL     1      10.681  34.795  33.469  1.00  0.00     0.013 A 
HETATM    2  C5  UNL     1       9.528  34.889  34.463  1.00  0.00     0.010 A 
HETATM    3  C6  UNL     1       9.325  34.532  33.017  1.00  0.00     0.010 A 
ENDROOT
BRANCH   1   4
HETATM    4  C2  UNL     1      11.376  36.087  33.261  1.00  0.00    -0.089 C 
HETATM    5  C1  UNL     1      12.311  36.420  34.136  1.00  0.00     0.014 C 
HETATM    6  C3  UNL     1      11.090  37.013  32.149  1.00  0.00     0.043 C 
ENDBRANCH   1   4
TORSDOF 1
ENDMDL
MODEL 5
REMARK VINA RESULT: -4.892368356      1.008      2.785
REMARK  1 active torsions:
REMARK  status: ('A' for Active; 'I' for Inactive)
REMARK    1  A    between atoms: C2_2  and  C4_4 
ROOT
HETATM    1  C4  UNL     1      10.924  34.621  33.349  1.00  0.00     0.013 A 
HETATM    2  C5  UNL     1      11.490  35.813  34.113  1.00  0.00     0.010 A 
HETATM    3  C6  UNL     1      10.473  34.879  34.706  1.00  0.00     0.010 A 
ENDROOT
BRANCH   1   4
HETATM    4  C2  UNL     1      10.156  35.014  32.144  1.00  0.00    -0.089 C 
HETATM    5  C1  UNL     1       9.041  34.348  31.891  1.00  0.00     0.014 C 
HETATM    6  C3  UNL     1      10.559  36.090  31.219  1.00  0.00     0.043 C 
ENDBRANCH   1   4
TORSDOF 1
ENDMDL
