MODEL 1
REMARK VINA RESULT: -6.879597168      0.000      0.000
REMARK  6 active torsions:
REMARK  status: ('A' for Active; 'I' for Inactive)
REMARK       I    between atoms: N1_2  and  C2_4 
REMARK    1  A    between atoms: C2_4  and  C3_6 
REMARK    2  A    between atoms: C6_11  and  C7_12 
REMARK    3  A    between atoms: C15_24  and  C16_25 
REMARK    4  A    between atoms: C16_25  and  C17_26 
REMARK    5  A    between atoms: C17_26  and  C18_28 
REMARK    6  A    between atoms: C18_28  and  C19_29 
ROOT
HETATM    1  C3  UNL     1      63.469  42.693   4.078  1.00  0.00     0.114 A 
HETATM    2  N2  UNL     1      63.798  41.941   5.162  1.00  0.00    -0.354 N 
ATOM      3  H2  UNL     1      63.435  42.087   6.103  1.00  0.00     0.166 HD
HETATM    4  C4  UNL     1      64.669  40.979   4.816  1.00  0.00     0.021 A 
HETATM    5  C5  UNL     1      64.912  41.110   3.471  1.00  0.00    -0.020 A 
HETATM    6  C6  UNL     1      64.157  42.191   2.997  1.00  0.00     0.034 A 
HETATM    7  C12 UNL     1      65.820  40.244   2.684  1.00  0.00     0.042 C 
HETATM    8  C13 UNL     1      66.470  39.224   3.550  1.00  0.00     0.005 C 
HETATM    9  C14 UNL     1      65.477  38.740   4.608  1.00  0.00     0.011 C 
HETATM   10  C15 UNL     1      65.340  39.903   5.598  1.00  0.00     0.043 C 
ENDROOT
BRANCH   6  11
HETATM   11  C7  UNL     1      64.119  42.683   1.608  1.00  0.00     0.084 A 
HETATM   12  N3  UNL     1      63.045  42.575   0.841  1.00  0.00    -0.361 N 
HETATM   13  C8  UNL     1      63.081  43.045  -0.414  1.00  0.00     0.107 A 
ATOM     14  H3  UNL     1      62.197  42.138   1.202  1.00  0.00     0.165 HD
HETATM   15  C9  UNL     1      64.195  43.649  -0.968  1.00  0.00     0.029 A 
HETATM   16 BR1  UNL     1      64.185  44.297  -2.759  1.00  0.00    -0.050 Br
HETATM   17  C10 UNL     1      65.319  43.765  -0.172  1.00  0.00     0.065 A 
HETATM   18  C11 UNL     1      65.261  43.280   1.100  1.00  0.00     0.145 A 
HETATM   19  F1  UNL     1      66.376  43.393   1.898  1.00  0.00    -0.204 F 
ENDBRANCH   6  11
BRANCH   1  20
HETATM   20  C2  UNL     1      62.551  43.832   4.048  1.00  0.00     0.268 C 
HETATM   21  N1  UNL     1      62.769  44.971   4.856  1.00  0.00    -0.360 N 
HETATM   22  C1  UNL     1      61.856  46.069   4.805  1.00  0.00     0.149 C 
ATOM     23  H1  UNL     1      63.579  45.010   5.476  1.00  0.00     0.162 HD
HETATM   24  O1  UNL     1      61.549  43.813   3.297  1.00  0.00    -0.266 OA
ENDBRANCH   1  20
BRANCH  10  25
HETATM   25  C16 UNL     1      64.476  39.570   6.767  1.00  0.00     0.089 C 
BRANCH  25  26
HETATM   26  C17 UNL     1      63.470  38.532   6.555  1.00  0.00     0.128 C 
HETATM   27  O2  UNL     1      63.674  37.380   6.867  1.00  0.00    -0.298 OA
BRANCH  26  28
HETATM   28  C18 UNL     1      62.172  38.964   5.933  1.00  0.00     0.082 C 
BRANCH  28  29
HETATM   29  C19 UNL     1      61.800  38.070   4.776  1.00  0.00    -0.016 C 
HETATM   30  C20 UNL     1      60.327  37.710   4.970  1.00  0.00     0.010 C 
HETATM   31  C21 UNL     1      62.045  38.701   3.446  1.00  0.00     0.010 C 
ENDBRANCH  28  29
ENDBRANCH  26  28
ENDBRANCH  25  26
ENDBRANCH  10  25
TORSDOF 6
ENDMDL
MODEL 2
REMARK VINA RESULT: -6.866146940      3.689      6.193
REMARK  6 active torsions:
REMARK  status: ('A' for Active; 'I' for Inactive)
REMARK       I    between atoms: N1_2  and  C2_4 
REMARK    1  A    between atoms: C2_4  and  C3_6 
REMARK    2  A    between atoms: C6_11  and  C7_12 
REMARK    3  A    between atoms: C15_24  and  C16_25 
REMARK    4  A    between atoms: C16_25  and  C17_26 
REMARK    5  A    between atoms: C17_26  and  C18_28 
REMARK    6  A    between atoms: C18_28  and  C19_29 
ROOT
HETATM    1  C3  UNL     1      63.414  38.858   5.028  1.00  0.00     0.114 A 
HETATM    2  N2  UNL     1      63.413  40.187   5.314  1.00  0.00    -0.354 N 
ATOM      3  H2  UNL     1      62.898  40.617   6.081  1.00  0.00     0.166 HD
HETATM    4  C4  UNL     1      64.188  40.854   4.442  1.00  0.00     0.021 A 
HETATM    5  C5  UNL     1      64.705  39.931   3.566  1.00  0.00    -0.020 A 
HETATM    6  C6  UNL     1      64.222  38.667   3.930  1.00  0.00     0.034 A 
HETATM    7  C12 UNL     1      65.616  40.247   2.441  1.00  0.00     0.042 C 
HETATM    8  C13 UNL     1      65.875  41.710   2.357  1.00  0.00     0.005 C 
HETATM    9  C14 UNL     1      65.968  42.297   3.766  1.00  0.00     0.011 C 
HETATM   10  C15 UNL     1      64.530  42.296   4.302  1.00  0.00     0.043 C 
ENDROOT
BRANCH   6  11
HETATM   11  C7  UNL     1      64.526  37.392   3.256  1.00  0.00     0.084 A 
HETATM   12  N3  UNL     1      63.942  37.025   2.126  1.00  0.00    -0.361 N 
HETATM   13  C8  UNL     1      64.267  35.851   1.568  1.00  0.00     0.107 A 
ATOM     14  H3  UNL     1      63.251  37.630   1.684  1.00  0.00     0.165 HD
HETATM   15  C9  UNL     1      65.196  34.981   2.111  1.00  0.00     0.029 A 
HETATM   16 BR1  UNL     1      65.615  33.325   1.270  1.00  0.00    -0.050 Br
HETATM   17  C10 UNL     1      65.809  35.359   3.291  1.00  0.00     0.065 A 
HETATM   18  C11 UNL     1      65.463  36.557   3.841  1.00  0.00     0.145 A 
HETATM   19  F1  UNL     1      66.070  36.940   5.016  1.00  0.00    -0.204 F 
ENDBRANCH   6  11
BRANCH   1  20
HETATM   20  C2  UNL     1      62.694  37.807   5.747  1.00  0.00     0.268 C 
HETATM   21  N1  UNL     1      63.309  37.080   6.793  1.00  0.00    -0.360 N 
HETATM   22  C1  UNL     1      62.580  36.059   7.478  1.00  0.00     0.149 C 
ATOM     23  H1  UNL     1      64.273  37.285   7.058  1.00  0.00     0.162 HD
HETATM   24  O1  UNL     1      61.510  37.533   5.443  1.00  0.00    -0.266 OA
ENDBRANCH   1  20
BRANCH  10  25
HETATM   25  C16 UNL     1      64.412  42.935   5.644  1.00  0.00     0.089 C 
BRANCH  25  26
HETATM   26  C17 UNL     1      63.371  43.950   5.789  1.00  0.00     0.128 C 
HETATM   27  O2  UNL     1      63.618  45.130   5.675  1.00  0.00    -0.298 OA
BRANCH  26  28
HETATM   28  C18 UNL     1      61.983  43.458   6.085  1.00  0.00     0.082 C 
BRANCH  28  29
HETATM   29  C19 UNL     1      61.062  43.691   4.913  1.00  0.00    -0.016 C 
HETATM   30  C20 UNL     1      60.622  42.307   4.434  1.00  0.00     0.010 C 
HETATM   31  C21 UNL     1      59.894  44.558   5.248  1.00  0.00     0.010 C 
ENDBRANCH  28  29
ENDBRANCH  26  28
ENDBRANCH  25  26
ENDBRANCH  10  25
TORSDOF 6
ENDMDL
MODEL 3
REMARK VINA RESULT: -6.828090468      7.337      9.813
REMARK  6 active torsions:
REMARK  status: ('A' for Active; 'I' for Inactive)
REMARK       I    between atoms: N1_2  and  C2_4 
REMARK    1  A    between atoms: C2_4  and  C3_6 
REMARK    2  A    between atoms: C6_11  and  C7_12 
REMARK    3  A    between atoms: C15_24  and  C16_25 
REMARK    4  A    between atoms: C16_25  and  C17_26 
REMARK    5  A    between atoms: C17_26  and  C18_28 
REMARK    6  A    between atoms: C18_28  and  C19_29 
ROOT
HETATM    1  C3  UNL     1      64.203  39.197  -5.284  1.00  0.00     0.114 A 
HETATM    2  N2  UNL     1      65.533  38.923  -5.355  1.00  0.00    -0.354 N 
ATOM      3  H2  UNL     1      65.986  38.439  -6.128  1.00  0.00     0.166 HD
HETATM    4  C4  UNL     1      66.163  39.381  -4.260  1.00  0.00     0.021 A 
HETATM    5  C5  UNL     1      65.216  39.968  -3.458  1.00  0.00    -0.020 A 
HETATM    6  C6  UNL     1      63.975  39.857  -4.098  1.00  0.00     0.034 A 
HETATM    7  C12 UNL     1      65.490  40.602  -2.147  1.00  0.00     0.042 C 
HETATM    8  C13 UNL     1      66.930  40.491  -1.789  1.00  0.00     0.005 C 
HETATM    9  C14 UNL     1      67.785  40.647  -3.047  1.00  0.00     0.011 C 
HETATM   10  C15 UNL     1      67.590  39.346  -3.835  1.00  0.00     0.043 C 
ENDROOT
BRANCH   6  11
HETATM   11  C7  UNL     1      62.685  40.353  -3.586  1.00  0.00     0.084 A 
HETATM   12  N3  UNL     1      62.246  41.580  -3.825  1.00  0.00    -0.361 N 
HETATM   13  C8  UNL     1      61.063  41.965  -3.329  1.00  0.00     0.107 A 
ATOM     14  H3  UNL     1      62.805  42.226  -4.382  1.00  0.00     0.165 HD
HETATM   15  C9  UNL     1      60.254  41.142  -2.566  1.00  0.00     0.029 A 
HETATM   16 BR1  UNL     1      58.581  41.748  -1.887  1.00  0.00    -0.050 Br
HETATM   17  C10 UNL     1      60.706  39.860  -2.314  1.00  0.00     0.065 A 
HETATM   18  C11 UNL     1      61.912  39.490  -2.828  1.00  0.00     0.145 A 
HETATM   19  F1  UNL     1      62.368  38.215  -2.581  1.00  0.00    -0.204 F 
ENDBRANCH   6  11
BRANCH   1  20
HETATM   20  C2  UNL     1      63.185  38.861  -6.280  1.00  0.00     0.268 C 
HETATM   21  N1  UNL     1      63.252  37.657  -7.019  1.00  0.00    -0.360 N 
HETATM   22  C1  UNL     1      62.242  37.355  -7.984  1.00  0.00     0.149 C 
ATOM     23  H1  UNL     1      64.020  37.004  -6.863  1.00  0.00     0.162 HD
HETATM   24  O1  UNL     1      62.230  39.643  -6.493  1.00  0.00    -0.266 OA
ENDBRANCH   1  20
BRANCH  10  25
HETATM   25  C16 UNL     1      68.439  39.278  -5.060  1.00  0.00     0.089 C 
BRANCH  25  26
HETATM   26  C17 UNL     1      69.220  38.056  -5.240  1.00  0.00     0.128 C 
HETATM   27  O2  UNL     1      70.389  38.001  -4.927  1.00  0.00    -0.298 OA
BRANCH  26  28
HETATM   28  C18 UNL     1      68.503  36.875  -5.829  1.00  0.00     0.082 C 
BRANCH  28  29
HETATM   29  C19 UNL     1      68.171  35.855  -4.768  1.00  0.00    -0.016 C 
HETATM   30  C20 UNL     1      66.649  35.714  -4.773  1.00  0.00     0.010 C 
HETATM   31  C21 UNL     1      68.850  34.543  -4.983  1.00  0.00     0.010 C 
ENDBRANCH  28  29
ENDBRANCH  26  28
ENDBRANCH  25  26
ENDBRANCH  10  25
TORSDOF 6
ENDMDL
MODEL 4
REMARK VINA RESULT: -6.826382925      3.021      5.395
REMARK  6 active torsions:
REMARK  status: ('A' for Active; 'I' for Inactive)
REMARK       I    between atoms: N1_2  and  C2_4 
REMARK    1  A    between atoms: C2_4  and  C3_6 
REMARK    2  A    between atoms: C6_11  and  C7_12 
REMARK    3  A    between atoms: C15_24  and  C16_25 
REMARK    4  A    between atoms: C16_25  and  C17_26 
REMARK    5  A    between atoms: C17_26  and  C18_28 
REMARK    6  A    between atoms: C18_28  and  C19_29 
ROOT
HETATM    1  C3  UNL     1      65.093  42.527   2.405  1.00  0.00     0.114 A 
HETATM    2  N2  UNL     1      64.163  42.996   3.279  1.00  0.00    -0.354 N 
ATOM      3  H2  UNL     1      63.639  43.862   3.162  1.00  0.00     0.166 HD
HETATM    4  C4  UNL     1      64.034  42.155   4.319  1.00  0.00     0.021 A 
HETATM    5  C5  UNL     1      64.904  41.113   4.113  1.00  0.00    -0.020 A 
HETATM    6  C6  UNL     1      65.576  41.340   2.905  1.00  0.00     0.034 A 
HETATM    7  C12 UNL     1      65.078  39.960   5.028  1.00  0.00     0.042 C 
HETATM    8  C13 UNL     1      64.208  40.093   6.228  1.00  0.00     0.005 C 
HETATM    9  C14 UNL     1      62.869  40.712   5.825  1.00  0.00     0.011 C 
HETATM   10  C15 UNL     1      63.174  42.187   5.535  1.00  0.00     0.043 C 
ENDROOT
BRANCH   6  11
HETATM   11  C7  UNL     1      66.601  40.469   2.303  1.00  0.00     0.084 A 
HETATM   12  N3  UNL     1      67.892  40.762   2.329  1.00  0.00    -0.361 N 
HETATM   13  C8  UNL     1      68.770  39.923   1.761  1.00  0.00     0.107 A 
ATOM     14  H3  UNL     1      68.216  41.619   2.776  1.00  0.00     0.165 HD
HETATM   15  C9  UNL     1      68.402  38.745   1.137  1.00  0.00     0.029 A 
HETATM   16 BR1  UNL     1      69.697  37.593   0.347  1.00  0.00    -0.050 Br
HETATM   17  C10 UNL     1      67.055  38.433   1.108  1.00  0.00     0.065 A 
HETATM   18  C11 UNL     1      66.181  39.300   1.691  1.00  0.00     0.145 A 
HETATM   19  F1  UNL     1      64.838  38.995   1.666  1.00  0.00    -0.204 F 
ENDBRANCH   6  11
BRANCH   1  20
HETATM   20  C2  UNL     1      65.515  43.157   1.154  1.00  0.00     0.268 C 
HETATM   21  N1  UNL     1      64.640  43.245   0.046  1.00  0.00    -0.360 N 
HETATM   22  C1  UNL     1      65.080  43.867  -1.164  1.00  0.00     0.149 C 
ATOM     23  H1  UNL     1      63.695  42.865   0.110  1.00  0.00     0.162 HD
HETATM   24  O1  UNL     1      66.668  43.633   1.045  1.00  0.00    -0.266 OA
ENDBRANCH   1  20
BRANCH  10  25
HETATM   25  C16 UNL     1      61.952  42.980   5.221  1.00  0.00     0.089 C 
BRANCH  25  26
HETATM   26  C17 UNL     1      61.836  44.281   5.877  1.00  0.00     0.128 C 
HETATM   27  O2  UNL     1      61.500  44.376   7.037  1.00  0.00    -0.298 OA
BRANCH  26  28
HETATM   28  C18 UNL     1      62.155  45.490   5.045  1.00  0.00     0.082 C 
BRANCH  28  29
HETATM   29  C19 UNL     1      61.390  45.473   3.745  1.00  0.00    -0.016 C 
HETATM   30  C20 UNL     1      60.136  46.318   3.976  1.00  0.00     0.010 C 
HETATM   31  C21 UNL     1      62.188  45.973   2.587  1.00  0.00     0.010 C 
ENDBRANCH  28  29
ENDBRANCH  26  28
ENDBRANCH  25  26
ENDBRANCH  10  25
TORSDOF 6
ENDMDL
MODEL 5
REMARK VINA RESULT: -6.816434386      2.300      3.650
REMARK  6 active torsions:
REMARK  status: ('A' for Active; 'I' for Inactive)
REMARK       I    between atoms: N1_2  and  C2_4 
REMARK    1  A    between atoms: C2_4  and  C3_6 
REMARK    2  A    between atoms: C6_11  and  C7_12 
REMARK    3  A    between atoms: C15_24  and  C16_25 
REMARK    4  A    between atoms: C16_25  and  C17_26 
REMARK    5  A    between atoms: C17_26  and  C18_28 
REMARK    6  A    between atoms: C18_28  and  C19_29 
ROOT
HETATM    1  C3  UNL     1      64.943  40.516   2.585  1.00  0.00     0.114 A 
HETATM    2  N2  UNL     1      64.620  40.068   3.827  1.00  0.00    -0.354 N 
ATOM      3  H2  UNL     1      65.166  39.395   4.363  1.00  0.00     0.166 HD
HETATM    4  C4  UNL     1      63.479  40.638   4.248  1.00  0.00     0.021 A 
HETATM    5  C5  UNL     1      63.050  41.479   3.251  1.00  0.00    -0.020 A 
HETATM    6  C6  UNL     1      63.970  41.408   2.196  1.00  0.00     0.034 A 
HETATM    7  C12 UNL     1      61.823  42.307   3.308  1.00  0.00     0.042 C 
HETATM    8  C13 UNL     1      61.086  42.084   4.582  1.00  0.00     0.005 C 
HETATM    9  C14 UNL     1      62.084  41.894   5.726  1.00  0.00     0.011 C 
HETATM   10  C15 UNL     1      62.693  40.504   5.506  1.00  0.00     0.043 C 
ENDROOT
BRANCH   6  11
HETATM   11  C7  UNL     1      63.895  42.149   0.925  1.00  0.00     0.084 A 
HETATM   12  N3  UNL     1      63.037  41.837  -0.034  1.00  0.00    -0.361 N 
HETATM   13  C8  UNL     1      63.023  42.554  -1.166  1.00  0.00     0.107 A 
ATOM     14  H3  UNL     1      62.392  41.056   0.088  1.00  0.00     0.165 HD
HETATM   15  C9  UNL     1      63.868  43.625  -1.398  1.00  0.00     0.029 A 
HETATM   16 BR1  UNL     1      63.801  44.606  -3.029  1.00  0.00    -0.050 Br
HETATM   17  C10 UNL     1      64.765  43.956  -0.400  1.00  0.00     0.065 A 
HETATM   18  C11 UNL     1      64.763  43.213   0.742  1.00  0.00     0.145 A 
HETATM   19  F1  UNL     1      65.653  43.538   1.739  1.00  0.00    -0.204 F 
ENDBRANCH   6  11
BRANCH   1  20
HETATM   20  C2  UNL     1      66.110  40.131   1.791  1.00  0.00     0.268 C 
HETATM   21  N1  UNL     1      67.386  40.686   2.046  1.00  0.00    -0.360 N 
HETATM   22  C1  UNL     1      68.508  40.290   1.253  1.00  0.00     0.149 C 
ATOM     23  H1  UNL     1      67.505  41.369   2.794  1.00  0.00     0.162 HD
HETATM   24  O1  UNL     1      65.994  39.295   0.865  1.00  0.00    -0.266 OA
ENDBRANCH   1  20
BRANCH  10  25
HETATM   25  C16 UNL     1      63.627  40.103   6.597  1.00  0.00     0.089 C 
BRANCH  25  26
HETATM   26  C17 UNL     1      63.843  38.668   6.771  1.00  0.00     0.128 C 
HETATM   27  O2  UNL     1      64.786  38.104   6.262  1.00  0.00    -0.298 OA
BRANCH  26  28
HETATM   28  C18 UNL     1      62.841  37.930   7.612  1.00  0.00     0.082 C 
BRANCH  28  29
HETATM   29  C19 UNL     1      62.153  36.850   6.815  1.00  0.00    -0.016 C 
HETATM   30  C20 UNL     1      62.240  35.576   7.657  1.00  0.00     0.010 C 
HETATM   31  C21 UNL     1      60.742  37.187   6.466  1.00  0.00     0.010 C 
ENDBRANCH  28  29
ENDBRANCH  26  28
ENDBRANCH  25  26
ENDBRANCH  10  25
TORSDOF 6
ENDMDL
