MODEL 1
REMARK VINA RESULT: -7.623730367      0.000      0.000
REMARK  6 active torsions:
REMARK  status: ('A' for Active; 'I' for Inactive)
REMARK    1  A    between atoms: C2_2  and  N1_4 
REMARK    2  A    between atoms: C7_8  and  C8_9 
REMARK    3  A    between atoms: C8_9  and  N2_10 
REMARK    4  A    between atoms: N2_10  and  C20_25 
REMARK    5  A    between atoms: C9_11  and  C10_12 
REMARK       I    between atoms: N3_18  and  C16_19 
REMARK    6  A    between atoms: C20_25  and  C23_28 
ROOT
HETATM    1  N2  UNL     1      63.419  41.236   3.213  1.00  0.00    -0.355 N 
HETATM    2  C9  UNL     1      63.882  41.531   1.967  1.00  0.00     0.069 C 
ENDROOT
BRANCH   1   3
HETATM    3  C8  UNL     1      62.956  40.010   3.653  1.00  0.00     0.070 C 
BRANCH   3   4
HETATM    4  C7  UNL     1      63.629  39.017   4.479  1.00  0.00     0.052 C 
HETATM    5  C6  UNL     1      64.266  37.805   3.946  1.00  0.00     0.013 C 
HETATM    6  C5  UNL     1      64.795  36.963   5.100  1.00  0.00     0.031 C 
HETATM    7  C4  UNL     1      63.827  36.689   6.180  1.00  0.00     0.273 C 
HETATM    8  N1  UNL     1      63.003  37.823   6.559  1.00  0.00     0.093 N 
HETATM    9  C24 UNL     1      62.486  38.435   5.392  1.00  0.00     0.282 C 
BRANCH   8  10
HETATM   10  C2  UNL     1      61.849  37.279   7.288  1.00  0.00     0.215 C 
HETATM   11  C1  UNL     1      62.122  35.919   7.857  1.00  0.00     0.042 C 
HETATM   12  C3  UNL     1      60.634  37.181   6.396  1.00  0.00     0.042 C 
ENDBRANCH   8  10
ENDBRANCH   3   4
ENDBRANCH   1   3
BRANCH   1  13
HETATM   13  C20 UNL     1      62.759  42.349   3.895  1.00  0.00     0.126 C 
HETATM   14  C21 UNL     1      62.620  43.532   2.949  1.00  0.00     0.048 C 
HETATM   15  C22 UNL     1      61.271  41.987   4.162  1.00  0.00     0.048 C 
BRANCH  13  16
HETATM   16  C23 UNL     1      63.295  42.731   5.210  1.00  0.00     0.412 C 
HETATM   17  F1  UNL     1      63.281  44.024   5.593  1.00  0.00    -0.168 F 
HETATM   18  F2  UNL     1      62.562  42.030   6.192  1.00  0.00    -0.168 F 
HETATM   19  F3  UNL     1      64.604  42.261   5.423  1.00  0.00    -0.168 F 
ENDBRANCH  13  16
ENDBRANCH   1  13
BRANCH   2  20
HETATM   20  C10 UNL     1      65.095  41.140   1.277  1.00  0.00     0.025 C 
HETATM   21  C11 UNL     1      66.278  41.945   1.895  1.00  0.00     0.010 C 
HETATM   22  C12 UNL     1      66.942  40.973   2.821  1.00  0.00     0.010 C 
HETATM   23  C13 UNL     1      66.964  39.723   1.929  1.00  0.00    -0.037 C 
HETATM   24  C14 UNL     1      67.208  38.547   2.800  1.00  0.00     0.029 C 
HETATM   25  C18 UNL     1      68.018  39.973   0.899  1.00  0.00     0.029 C 
HETATM   26  C19 UNL     1      65.572  39.754   1.326  1.00  0.00     0.019 C 
HETATM   27  C15 UNL     1      67.780  37.361   2.062  1.00  0.00     0.128 C 
HETATM   28  N3  UNL     1      68.830  37.743   1.150  1.00  0.00    -0.336 N 
HETATM   29  C16 UNL     1      70.135  37.139   1.177  1.00  0.00     0.330 C 
HETATM   30  C17 UNL     1      68.520  38.770   0.185  1.00  0.00     0.128 C 
HETATM   31  N4  UNL     1      71.108  37.564   0.260  1.00  0.00    -0.040 NA
HETATM   32  O1  UNL     1      70.356  36.248   2.029  1.00  0.00    -0.251 OA
ENDBRANCH   2  20
TORSDOF 6
ENDMDL
MODEL 2
REMARK VINA RESULT: -7.622686935      2.326      4.875
REMARK  6 active torsions:
REMARK  status: ('A' for Active; 'I' for Inactive)
REMARK    1  A    between atoms: C2_2  and  N1_4 
REMARK    2  A    between atoms: C7_8  and  C8_9 
REMARK    3  A    between atoms: C8_9  and  N2_10 
REMARK    4  A    between atoms: N2_10  and  C20_25 
REMARK    5  A    between atoms: C9_11  and  C10_12 
REMARK       I    between atoms: N3_18  and  C16_19 
REMARK    6  A    between atoms: C20_25  and  C23_28 
ROOT
HETATM    1  N2  UNL     1      64.240  38.287   5.148  1.00  0.00    -0.355 N 
HETATM    2  C9  UNL     1      65.028  37.213   4.861  1.00  0.00     0.069 C 
ENDROOT
BRANCH   1   3
HETATM    3  C8  UNL     1      64.637  39.610   5.198  1.00  0.00     0.070 C 
BRANCH   3   4
HETATM    4  C7  UNL     1      64.476  40.655   4.196  1.00  0.00     0.052 C 
HETATM    5  C6  UNL     1      65.583  41.471   3.679  1.00  0.00     0.013 C 
HETATM    6  C5  UNL     1      65.036  42.511   2.712  1.00  0.00     0.031 C 
HETATM    7  C4  UNL     1      63.905  43.313   3.217  1.00  0.00     0.273 C 
HETATM    8  N1  UNL     1      62.907  42.559   3.955  1.00  0.00     0.093 N 
HETATM    9  C24 UNL     1      63.556  41.724   4.896  1.00  0.00     0.282 C 
BRANCH   8  10
HETATM   10  C2  UNL     1      62.132  43.535   4.733  1.00  0.00     0.215 C 
HETATM   11  C1  UNL     1      62.884  44.813   4.958  1.00  0.00     0.042 C 
HETATM   12  C3  UNL     1      61.741  42.977   6.080  1.00  0.00     0.042 C 
ENDBRANCH   8  10
ENDBRANCH   3   4
ENDBRANCH   1   3
BRANCH   1  13
HETATM   13  C20 UNL     1      63.144  38.005   6.075  1.00  0.00     0.126 C 
HETATM   14  C21 UNL     1      63.318  36.623   6.685  1.00  0.00     0.048 C 
HETATM   15  C22 UNL     1      63.274  38.918   7.326  1.00  0.00     0.048 C 
BRANCH  13  16
HETATM   16  C23 UNL     1      61.781  38.241   5.578  1.00  0.00     0.412 C 
HETATM   17  F1  UNL     1      61.286  39.495   5.536  1.00  0.00    -0.168 F 
HETATM   18  F2  UNL     1      61.718  37.758   4.252  1.00  0.00    -0.168 F 
HETATM   19  F3  UNL     1      60.817  37.449   6.229  1.00  0.00    -0.168 F 
ENDBRANCH  13  16
ENDBRANCH   1  13
BRANCH   2  20
HETATM   20  C10 UNL     1      65.650  36.783   3.625  1.00  0.00     0.025 C 
HETATM   21  C11 UNL     1      64.534  36.667   2.543  1.00  0.00     0.010 C 
HETATM   22  C12 UNL     1      64.672  37.920   1.734  1.00  0.00     0.010 C 
HETATM   23  C13 UNL     1      66.199  37.967   1.570  1.00  0.00    -0.037 C 
HETATM   24  C14 UNL     1      66.568  39.342   1.153  1.00  0.00     0.029 C 
HETATM   25  C18 UNL     1      66.540  36.897   0.584  1.00  0.00     0.029 C 
HETATM   26  C19 UNL     1      66.666  37.611   2.969  1.00  0.00     0.019 C 
HETATM   27  C15 UNL     1      67.902  39.418   0.449  1.00  0.00     0.128 C 
HETATM   28  N3  UNL     1      68.066  38.361  -0.519  1.00  0.00    -0.336 N 
HETATM   29  C16 UNL     1      68.409  38.618  -1.892  1.00  0.00     0.330 C 
HETATM   30  C17 UNL     1      67.877  37.009  -0.053  1.00  0.00     0.128 C 
HETATM   31  N4  UNL     1      68.549  37.539  -2.778  1.00  0.00    -0.040 NA
HETATM   32  O1  UNL     1      68.568  39.807  -2.250  1.00  0.00    -0.251 OA
ENDBRANCH   2  20
TORSDOF 6
ENDMDL
MODEL 3
REMARK VINA RESULT: -7.608103159      1.548      2.249
REMARK  6 active torsions:
REMARK  status: ('A' for Active; 'I' for Inactive)
REMARK    1  A    between atoms: C2_2  and  N1_4 
REMARK    2  A    between atoms: C7_8  and  C8_9 
REMARK    3  A    between atoms: C8_9  and  N2_10 
REMARK    4  A    between atoms: N2_10  and  C20_25 
REMARK    5  A    between atoms: C9_11  and  C10_12 
REMARK       I    between atoms: N3_18  and  C16_19 
REMARK    6  A    between atoms: C20_25  and  C23_28 
ROOT
HETATM    1  N2  UNL     1      63.770  42.032   4.731  1.00  0.00    -0.355 N 
HETATM    2  C9  UNL     1      64.545  41.701   3.661  1.00  0.00     0.069 C 
ENDROOT
BRANCH   1   3
HETATM    3  C8  UNL     1      63.097  41.157   5.563  1.00  0.00     0.070 C 
BRANCH   3   4
HETATM    4  C7  UNL     1      62.481  39.876   5.244  1.00  0.00     0.052 C 
HETATM    5  C6  UNL     1      61.037  39.687   5.052  1.00  0.00     0.013 C 
HETATM    6  C5  UNL     1      60.748  38.211   4.814  1.00  0.00     0.031 C 
HETATM    7  C4  UNL     1      61.333  37.284   5.802  1.00  0.00     0.273 C 
HETATM    8  N1  UNL     1      62.694  37.598   6.199  1.00  0.00     0.093 N 
HETATM    9  C24 UNL     1      62.784  38.978   6.502  1.00  0.00     0.282 C 
BRANCH   8  10
HETATM   10  C2  UNL     1      62.941  36.881   7.458  1.00  0.00     0.215 C 
HETATM   11  C1  UNL     1      62.273  35.539   7.492  1.00  0.00     0.042 C 
HETATM   12  C3  UNL     1      62.457  37.677   8.647  1.00  0.00     0.042 C 
ENDBRANCH   8  10
ENDBRANCH   3   4
ENDBRANCH   1   3
BRANCH   1  13
HETATM   13  C20 UNL     1      63.079  43.315   4.607  1.00  0.00     0.126 C 
HETATM   14  C21 UNL     1      63.317  43.904   3.224  1.00  0.00     0.048 C 
HETATM   15  C22 UNL     1      61.543  43.079   4.586  1.00  0.00     0.048 C 
BRANCH  13  16
HETATM   16  C23 UNL     1      63.295  44.289   5.686  1.00  0.00     0.412 C 
HETATM   17  F1  UNL     1      64.460  44.296   6.364  1.00  0.00    -0.168 F 
HETATM   18  F2  UNL     1      63.165  45.581   5.130  1.00  0.00    -0.168 F 
HETATM   19  F3  UNL     1      62.268  44.276   6.648  1.00  0.00    -0.168 F 
ENDBRANCH  13  16
ENDBRANCH   1  13
BRANCH   2  20
HETATM   20  C10 UNL     1      65.844  41.062   3.578  1.00  0.00     0.025 C 
HETATM   21  C11 UNL     1      65.693  39.600   4.098  1.00  0.00     0.010 C 
HETATM   22  C12 UNL     1      65.626  38.770   2.853  1.00  0.00     0.010 C 
HETATM   23  C13 UNL     1      66.761  39.412   2.041  1.00  0.00    -0.037 C 
HETATM   24  C14 UNL     1      66.590  39.008   0.624  1.00  0.00     0.029 C 
HETATM   25  C18 UNL     1      68.032  38.952   2.678  1.00  0.00     0.029 C 
HETATM   26  C19 UNL     1      66.513  40.889   2.285  1.00  0.00     0.019 C 
HETATM   27  C15 UNL     1      67.863  39.092  -0.183  1.00  0.00     0.128 C 
HETATM   28  N3  UNL     1      68.995  38.554   0.532  1.00  0.00    -0.336 N 
HETATM   29  C16 UNL     1      69.845  37.534  -0.022  1.00  0.00     0.330 C 
HETATM   30  C17 UNL     1      69.255  39.087   1.847  1.00  0.00     0.128 C 
HETATM   31  N4  UNL     1      70.927  37.056   0.733  1.00  0.00    -0.040 NA
HETATM   32  O1  UNL     1      69.583  37.104  -1.169  1.00  0.00    -0.251 OA
ENDBRANCH   2  20
TORSDOF 6
ENDMDL
MODEL 4
REMARK VINA RESULT: -7.573766844      4.151      6.655
REMARK  6 active torsions:
REMARK  status: ('A' for Active; 'I' for Inactive)
REMARK    1  A    between atoms: C2_2  and  N1_4 
REMARK    2  A    between atoms: C7_8  and  C8_9 
REMARK    3  A    between atoms: C8_9  and  N2_10 
REMARK    4  A    between atoms: N2_10  and  C20_25 
REMARK    5  A    between atoms: C9_11  and  C10_12 
REMARK       I    between atoms: N3_18  and  C16_19 
REMARK    6  A    between atoms: C20_25  and  C23_28 
ROOT
HETATM    1  N2  UNL     1      63.879  40.136   5.144  1.00  0.00    -0.355 N 
HETATM    2  C9  UNL     1      65.008  40.293   4.398  1.00  0.00     0.069 C 
ENDROOT
BRANCH   1   3
HETATM    3  C8  UNL     1      63.194  41.128   5.821  1.00  0.00     0.070 C 
BRANCH   3   4
HETATM    4  C7  UNL     1      61.882  41.693   5.539  1.00  0.00     0.052 C 
HETATM    5  C6  UNL     1      61.084  41.358   4.351  1.00  0.00     0.013 C 
HETATM    6  C5  UNL     1      59.812  42.194   4.345  1.00  0.00     0.031 C 
HETATM    7  C4  UNL     1      60.007  43.646   4.528  1.00  0.00     0.273 C 
HETATM    8  N1  UNL     1      60.986  44.004   5.538  1.00  0.00     0.093 N 
HETATM    9  C24 UNL     1      62.157  43.232   5.348  1.00  0.00     0.282 C 
BRANCH   8  10
HETATM   10  C2  UNL     1      61.365  45.400   5.280  1.00  0.00     0.215 C 
HETATM   11  C1  UNL     1      60.588  46.003   4.147  1.00  0.00     0.042 C 
HETATM   12  C3  UNL     1      62.835  45.520   4.958  1.00  0.00     0.042 C 
ENDBRANCH   8  10
ENDBRANCH   3   4
ENDBRANCH   1   3
BRANCH   1  13
HETATM   13  C20 UNL     1      63.765  38.838   5.807  1.00  0.00     0.126 C 
HETATM   14  C21 UNL     1      65.049  38.043   5.625  1.00  0.00     0.048 C 
HETATM   15  C22 UNL     1      63.739  39.041   7.348  1.00  0.00     0.048 C 
BRANCH  13  16
HETATM   16  C23 UNL     1      62.560  38.048   5.512  1.00  0.00     0.412 C 
HETATM   17  F1  UNL     1      61.359  38.455   5.970  1.00  0.00    -0.168 F 
HETATM   18  F2  UNL     1      62.432  37.970   4.108  1.00  0.00    -0.168 F 
HETATM   19  F3  UNL     1      62.692  36.694   5.874  1.00  0.00    -0.168 F 
ENDBRANCH  13  16
ENDBRANCH   1  13
BRANCH   2  20
HETATM   20  C10 UNL     1      65.230  40.932   3.116  1.00  0.00     0.025 C 
HETATM   21  C11 UNL     1      64.470  40.110   2.032  1.00  0.00     0.010 C 
HETATM   22  C12 UNL     1      63.219  40.895   1.782  1.00  0.00     0.010 C 
HETATM   23  C13 UNL     1      63.804  42.314   1.708  1.00  0.00    -0.037 C 
HETATM   24  C14 UNL     1      62.685  43.275   1.874  1.00  0.00     0.029 C 
HETATM   25  C18 UNL     1      64.516  42.397   0.397  1.00  0.00     0.029 C 
HETATM   26  C19 UNL     1      64.774  42.305   2.875  1.00  0.00     0.019 C 
HETATM   27  C15 UNL     1      62.980  44.643   1.307  1.00  0.00     0.128 C 
HETATM   28  N3  UNL     1      63.609  44.570   0.011  1.00  0.00    -0.336 N 
HETATM   29  C16 UNL     1      63.090  45.260  -1.139  1.00  0.00     0.330 C 
HETATM   30  C17 UNL     1      64.804  43.769  -0.094  1.00  0.00     0.128 C 
HETATM   31  N4  UNL     1      63.754  45.140  -2.370  1.00  0.00    -0.040 NA
HETATM   32  O1  UNL     1      62.053  45.946  -0.999  1.00  0.00    -0.251 OA
ENDBRANCH   2  20
TORSDOF 6
ENDMDL
MODEL 5
REMARK VINA RESULT: -7.570016621      1.341      1.749
REMARK  6 active torsions:
REMARK  status: ('A' for Active; 'I' for Inactive)
REMARK    1  A    between atoms: C2_2  and  N1_4 
REMARK    2  A    between atoms: C7_8  and  C8_9 
REMARK    3  A    between atoms: C8_9  and  N2_10 
REMARK    4  A    between atoms: N2_10  and  C20_25 
REMARK    5  A    between atoms: C9_11  and  C10_12 
REMARK       I    between atoms: N3_18  and  C16_19 
REMARK    6  A    between atoms: C20_25  and  C23_28 
ROOT
HETATM    1  N2  UNL     1      63.091  42.486   3.630  1.00  0.00    -0.355 N 
HETATM    2  C9  UNL     1      63.491  42.595   2.333  1.00  0.00     0.069 C 
ENDROOT
BRANCH   1   3
HETATM    3  C8  UNL     1      62.562  41.363   4.238  1.00  0.00     0.070 C 
BRANCH   3   4
HETATM    4  C7  UNL     1      63.012  40.670   5.438  1.00  0.00     0.052 C 
HETATM    5  C6  UNL     1      64.423  40.408   5.751  1.00  0.00     0.013 C 
HETATM    6  C5  UNL     1      64.513  39.597   7.036  1.00  0.00     0.031 C 
HETATM    7  C4  UNL     1      63.670  38.386   7.081  1.00  0.00     0.273 C 
HETATM    8  N1  UNL     1      62.333  38.557   6.542  1.00  0.00     0.093 N 
HETATM    9  C24 UNL     1      62.415  39.221   5.294  1.00  0.00     0.282 C 
BRANCH   8  10
HETATM   10  C2  UNL     1      61.817  37.210   6.262  1.00  0.00     0.215 C 
HETATM   11  C1  UNL     1      60.327  37.192   6.095  1.00  0.00     0.042 C 
HETATM   12  C3  UNL     1      62.178  36.244   7.364  1.00  0.00     0.042 C 
ENDBRANCH   8  10
ENDBRANCH   3   4
ENDBRANCH   1   3
BRANCH   1  13
HETATM   13  C20 UNL     1      62.569  43.723   4.210  1.00  0.00     0.126 C 
HETATM   14  C21 UNL     1      62.543  44.822   3.159  1.00  0.00     0.048 C 
HETATM   15  C22 UNL     1      61.056  43.554   4.522  1.00  0.00     0.048 C 
BRANCH  13  16
HETATM   16  C23 UNL     1      63.167  44.162   5.479  1.00  0.00     0.412 C 
HETATM   17  F1  UNL     1      64.386  43.713   5.841  1.00  0.00    -0.168 F 
HETATM   18  F2  UNL     1      63.271  45.570   5.441  1.00  0.00    -0.168 F 
HETATM   19  F3  UNL     1      62.318  43.957   6.583  1.00  0.00    -0.168 F 
ENDBRANCH  13  16
ENDBRANCH   1  13
BRANCH   2  20
HETATM   20  C10 UNL     1      64.621  42.023   1.626  1.00  0.00     0.025 C 
HETATM   21  C11 UNL     1      65.924  42.583   2.274  1.00  0.00     0.010 C 
HETATM   22  C12 UNL     1      66.402  41.475   3.161  1.00  0.00     0.010 C 
HETATM   23  C13 UNL     1      66.208  40.276   2.221  1.00  0.00    -0.037 C 
HETATM   24  C14 UNL     1      66.237  39.043   3.046  1.00  0.00     0.029 C 
HETATM   25  C18 UNL     1      67.295  40.376   1.199  1.00  0.00     0.029 C 
HETATM   26  C19 UNL     1      64.846  40.575   1.622  1.00  0.00     0.019 C 
HETATM   27  C15 UNL     1      66.595  37.804   2.262  1.00  0.00     0.128 C 
HETATM   28  N3  UNL     1      67.701  38.030   1.363  1.00  0.00    -0.336 N 
HETATM   29  C16 UNL     1      68.879  37.205   1.365  1.00  0.00     0.330 C 
HETATM   30  C17 UNL     1      67.582  39.132   0.439  1.00  0.00     0.128 C 
HETATM   31  N4  UNL     1      69.917  37.487   0.464  1.00  0.00    -0.040 NA
HETATM   32  O1  UNL     1      68.936  36.258   2.182  1.00  0.00    -0.251 OA
ENDBRANCH   2  20
TORSDOF 6
ENDMDL
