MODEL 1
REMARK VINA RESULT: -6.993414957      0.000      0.000
REMARK  8 active torsions:
REMARK  status: ('A' for Active; 'I' for Inactive)
REMARK    1  A    between atoms: O1_2  and  C2_3 
REMARK    2  A    between atoms: C4_5  and  N1_6 
REMARK    3  A    between atoms: N1_6  and  C5_8 
REMARK    4  A    between atoms: C5_8  and  C6_9 
REMARK    5  A    between atoms: C6_9  and  N2_10 
REMARK    6  A    between atoms: N2_10  and  C7_13 
REMARK    7  A    between atoms: C13_22  and  O2_23 
REMARK    8  A    between atoms: C15_25  and  O3_26 
ROOT
HETATM    1  N1  UNL     1      17.508   8.302  37.435  1.00  0.00    -0.388 N 
ATOM      2  H1  UNL     1      18.480   8.057  37.250  1.00  0.00     0.159 HD
ENDROOT
BRANCH   1   3
HETATM    3  C4  UNL     1      17.108   8.673  38.773  1.00  0.00     0.033 A 
HETATM    4  C3  UNL     1      16.109   9.598  38.971  1.00  0.00     0.069 A 
HETATM    5  C2  UNL     1      15.716   9.967  40.239  1.00  0.00     0.106 A 
HETATM    6  C15 UNL     1      16.298   9.434  41.371  1.00  0.00     0.135 A 
HETATM    7  C13 UNL     1      17.312   8.494  41.168  1.00  0.00     0.106 A 
HETATM    8  C12 UNL     1      17.698   8.132  39.895  1.00  0.00     0.069 A 
BRANCH   5   9
HETATM    9  O1  UNL     1      14.702  10.907  40.442  1.00  0.00    -0.353 OA
HETATM   10  C1  UNL     1      13.369  10.433  40.436  1.00  0.00     0.210 C 
ENDBRANCH   5   9
BRANCH   6  11
HETATM   11  O3  UNL     1      15.884   9.823  42.635  1.00  0.00    -0.351 OA
HETATM   12  C16 UNL     1      14.920   9.000  43.305  1.00  0.00     0.210 C 
ENDBRANCH   6  11
BRANCH   7  13
HETATM   13  O2  UNL     1      17.878   7.978  42.319  1.00  0.00    -0.353 OA
HETATM   14  C14 UNL     1      17.672   6.639  42.687  1.00  0.00     0.210 C 
ENDBRANCH   7  13
ENDBRANCH   1   3
BRANCH   1  15
HETATM   15  C5  UNL     1      16.550   8.275  36.359  1.00  0.00     0.147 C 
BRANCH  15  16
HETATM   16  C6  UNL     1      17.295   8.012  35.050  1.00  0.00     0.254 C 
BRANCH  16  17
HETATM   17  N2  UNL     1      17.244   6.625  34.745  1.00  0.00    -0.045 N 
ATOM     18  H22 UNL     1      17.794   6.092  35.418  1.00  0.00     0.279 HD
ATOM     19  H21 UNL     1      16.315   6.251  34.944  1.00  0.00     0.279 HD
BRANCH  17  20
HETATM   20  C7  UNL     1      17.633   6.305  33.424  1.00  0.00     0.382 C 
HETATM   21  C8  UNL     1      18.270   4.947  33.341  1.00  0.00     0.062 C 
HETATM   22  C9  UNL     1      18.328   4.586  31.863  1.00  0.00     0.005 C 
HETATM   23  C10 UNL     1      19.080   5.634  31.111  1.00  0.00     0.028 C 
HETATM   24  C11 UNL     1      18.743   7.042  31.492  1.00  0.00     0.235 C 
HETATM   25  N3  UNL     1      18.664   7.247  32.924  1.00  0.00    -0.046 N 
ATOM     26  H32 UNL     1      18.486   8.217  33.185  1.00  0.00     0.279 HD
ATOM     27  H31 UNL     1      19.563   7.152  33.397  1.00  0.00     0.279 HD
ENDBRANCH  17  20
ENDBRANCH  16  17
ENDBRANCH  15  16
ENDBRANCH   1  15
TORSDOF 8
ENDMDL
MODEL 2
REMARK VINA RESULT: -6.984804109      0.489      2.597
REMARK  8 active torsions:
REMARK  status: ('A' for Active; 'I' for Inactive)
REMARK    1  A    between atoms: O1_2  and  C2_3 
REMARK    2  A    between atoms: C4_5  and  N1_6 
REMARK    3  A    between atoms: N1_6  and  C5_8 
REMARK    4  A    between atoms: C5_8  and  C6_9 
REMARK    5  A    between atoms: C6_9  and  N2_10 
REMARK    6  A    between atoms: N2_10  and  C7_13 
REMARK    7  A    between atoms: C13_22  and  O2_23 
REMARK    8  A    between atoms: C15_25  and  O3_26 
ROOT
HETATM    1  N1  UNL     1      17.437   8.360  37.487  1.00  0.00    -0.388 N 
ATOM      2  H1  UNL     1      18.426   8.210  37.286  1.00  0.00     0.159 HD
ENDROOT
BRANCH   1   3
HETATM    3  C4  UNL     1      17.033   8.764  38.814  1.00  0.00     0.033 A 
HETATM    4  C3  UNL     1      17.657   8.239  39.923  1.00  0.00     0.069 A 
HETATM    5  C2  UNL     1      17.284   8.610  41.196  1.00  0.00     0.106 A 
HETATM    6  C15 UNL     1      16.272   9.519  41.428  1.00  0.00     0.135 A 
HETATM    7  C13 UNL     1      15.640  10.051  40.301  1.00  0.00     0.106 A 
HETATM    8  C12 UNL     1      16.021   9.674  39.031  1.00  0.00     0.069 A 
BRANCH   5   9
HETATM    9  O1  UNL     1      17.916   8.078  42.324  1.00  0.00    -0.353 OA
HETATM   10  C1  UNL     1      17.681   6.714  42.615  1.00  0.00     0.210 C 
ENDBRANCH   5   9
BRANCH   6  11
HETATM   11  O3  UNL     1      15.917   9.874  42.720  1.00  0.00    -0.351 OA
HETATM   12  C16 UNL     1      14.933   9.072  43.387  1.00  0.00     0.210 C 
ENDBRANCH   6  11
BRANCH   7  13
HETATM   13  O2  UNL     1      14.631  10.959  40.563  1.00  0.00    -0.353 OA
HETATM   14  C14 UNL     1      13.282  10.572  40.519  1.00  0.00     0.210 C 
ENDBRANCH   7  13
ENDBRANCH   1   3
BRANCH   1  15
HETATM   15  C5  UNL     1      16.462   8.165  36.445  1.00  0.00     0.147 C 
BRANCH  15  16
HETATM   16  C6  UNL     1      17.004   7.131  35.457  1.00  0.00     0.254 C 
BRANCH  16  17
HETATM   17  N2  UNL     1      17.462   7.790  34.284  1.00  0.00    -0.045 N 
ATOM     18  H22 UNL     1      16.784   8.490  33.981  1.00  0.00     0.279 HD
ATOM     19  H21 UNL     1      18.252   8.398  34.503  1.00  0.00     0.279 HD
BRANCH  17  20
HETATM   20  C7  UNL     1      17.786   6.922  33.217  1.00  0.00     0.382 C 
HETATM   21  C8  UNL     1      18.084   5.530  33.698  1.00  0.00     0.062 C 
HETATM   22  C9  UNL     1      18.079   4.637  32.465  1.00  0.00     0.005 C 
HETATM   23  C10 UNL     1      19.071   5.137  31.468  1.00  0.00     0.028 C 
HETATM   24  C11 UNL     1      19.072   6.622  31.276  1.00  0.00     0.235 C 
HETATM   25  N3  UNL     1      19.019   7.362  32.521  1.00  0.00    -0.046 N 
ATOM     26  H32 UNL     1      19.073   8.373  32.393  1.00  0.00     0.279 HD
ATOM     27  H31 UNL     1      19.862   7.263  33.088  1.00  0.00     0.279 HD
ENDBRANCH  17  20
ENDBRANCH  16  17
ENDBRANCH  15  16
ENDBRANCH   1  15
TORSDOF 8
ENDMDL
MODEL 3
REMARK VINA RESULT: -6.922641259      0.897      2.582
REMARK  8 active torsions:
REMARK  status: ('A' for Active; 'I' for Inactive)
REMARK    1  A    between atoms: O1_2  and  C2_3 
REMARK    2  A    between atoms: C4_5  and  N1_6 
REMARK    3  A    between atoms: N1_6  and  C5_8 
REMARK    4  A    between atoms: C5_8  and  C6_9 
REMARK    5  A    between atoms: C6_9  and  N2_10 
REMARK    6  A    between atoms: N2_10  and  C7_13 
REMARK    7  A    between atoms: C13_22  and  O2_23 
REMARK    8  A    between atoms: C15_25  and  O3_26 
ROOT
HETATM    1  N1  UNL     1      17.360   8.629  37.452  1.00  0.00    -0.388 N 
ATOM      2  H1  UNL     1      17.672   9.464  36.958  1.00  0.00     0.159 HD
ENDROOT
BRANCH   1   3
HETATM    3  C4  UNL     1      16.826   8.749  38.790  1.00  0.00     0.033 A 
HETATM    4  C3  UNL     1      17.636   8.543  39.883  1.00  0.00     0.069 A 
HETATM    5  C2  UNL     1      17.145   8.649  41.167  1.00  0.00     0.106 A 
HETATM    6  C15 UNL     1      15.827   8.967  41.423  1.00  0.00     0.135 A 
HETATM    7  C13 UNL     1      15.007   9.177  40.311  1.00  0.00     0.106 A 
HETATM    8  C12 UNL     1      15.508   9.067  39.031  1.00  0.00     0.069 A 
BRANCH   5   9
HETATM    9  O1  UNL     1      17.965   8.440  42.279  1.00  0.00    -0.353 OA
HETATM   10  C1  UNL     1      18.736   9.536  42.731  1.00  0.00     0.210 C 
ENDBRANCH   5   9
BRANCH   6  11
HETATM   11  O3  UNL     1      15.360   9.068  42.725  1.00  0.00    -0.351 OA
HETATM   12  C16 UNL     1      14.761   7.904  43.311  1.00  0.00     0.210 C 
ENDBRANCH   6  11
BRANCH   7  13
HETATM   13  O2  UNL     1      13.692   9.492  40.598  1.00  0.00    -0.353 OA
HETATM   14  C14 UNL     1      13.250  10.824  40.589  1.00  0.00     0.210 C 
ENDBRANCH   7  13
ENDBRANCH   1   3
BRANCH   1  15
HETATM   15  C5  UNL     1      17.456   7.344  36.808  1.00  0.00     0.147 C 
BRANCH  15  16
HETATM   16  C6  UNL     1      17.146   7.519  35.321  1.00  0.00     0.254 C 
BRANCH  16  17
HETATM   17  N2  UNL     1      16.966   6.244  34.720  1.00  0.00    -0.045 N 
ATOM     18  H22 UNL     1      17.326   5.510  35.329  1.00  0.00     0.279 HD
ATOM     19  H21 UNL     1      15.978   5.992  34.709  1.00  0.00     0.279 HD
BRANCH  17  20
HETATM   20  C7  UNL     1      17.521   6.128  33.425  1.00  0.00     0.382 C 
HETATM   21  C8  UNL     1      18.296   4.852  33.260  1.00  0.00     0.062 C 
HETATM   22  C9  UNL     1      18.544   4.687  31.767  1.00  0.00     0.005 C 
HETATM   23  C10 UNL     1      19.262   5.882  31.233  1.00  0.00     0.028 C 
HETATM   24  C11 UNL     1      18.748   7.197  31.733  1.00  0.00     0.235 C 
HETATM   25  N3  UNL     1      18.499   7.211  33.160  1.00  0.00    -0.046 N 
ATOM     26  H32 UNL     1      18.199   8.122  33.509  1.00  0.00     0.279 HD
ATOM     27  H31 UNL     1      19.349   7.136  33.720  1.00  0.00     0.279 HD
ENDBRANCH  17  20
ENDBRANCH  16  17
ENDBRANCH  15  16
ENDBRANCH   1  15
TORSDOF 8
ENDMDL
MODEL 4
REMARK VINA RESULT: -6.878561761      0.963      1.046
REMARK  8 active torsions:
REMARK  status: ('A' for Active; 'I' for Inactive)
REMARK    1  A    between atoms: O1_2  and  C2_3 
REMARK    2  A    between atoms: C4_5  and  N1_6 
REMARK    3  A    between atoms: N1_6  and  C5_8 
REMARK    4  A    between atoms: C5_8  and  C6_9 
REMARK    5  A    between atoms: C6_9  and  N2_10 
REMARK    6  A    between atoms: N2_10  and  C7_13 
REMARK    7  A    between atoms: C13_22  and  O2_23 
REMARK    8  A    between atoms: C15_25  and  O3_26 
ROOT
HETATM    1  N1  UNL     1      17.343   8.516  37.469  1.00  0.00    -0.388 N 
ATOM      2  H1  UNL     1      18.332   8.660  37.266  1.00  0.00     0.159 HD
ENDROOT
BRANCH   1   3
HETATM    3  C4  UNL     1      16.868   8.647  38.827  1.00  0.00     0.033 A 
HETATM    4  C3  UNL     1      15.542   8.918  39.077  1.00  0.00     0.069 A 
HETATM    5  C2  UNL     1      15.070   9.050  40.365  1.00  0.00     0.106 A 
HETATM    6  C15 UNL     1      15.893   8.919  41.465  1.00  0.00     0.135 A 
HETATM    7  C13 UNL     1      17.239   8.644  41.208  1.00  0.00     0.106 A 
HETATM    8  C12 UNL     1      17.701   8.513  39.916  1.00  0.00     0.069 A 
BRANCH   5   9
HETATM    9  O1  UNL     1      13.724   9.326  40.622  1.00  0.00    -0.353 OA
HETATM   10  C1  UNL     1      13.323  10.682  40.589  1.00  0.00     0.210 C 
ENDBRANCH   5   9
BRANCH   6  11
HETATM   11  O3  UNL     1      15.391   9.058  42.750  1.00  0.00    -0.351 OA
HETATM   12  C16 UNL     1      14.918   7.877  43.413  1.00  0.00     0.210 C 
ENDBRANCH   6  11
BRANCH   7  13
HETATM   13  O2  UNL     1      18.040   8.519  42.328  1.00  0.00    -0.353 OA
HETATM   14  C14 UNL     1      18.803   9.600  42.795  1.00  0.00     0.210 C 
ENDBRANCH   7  13
ENDBRANCH   1   3
BRANCH   1  15
HETATM   15  C5  UNL     1      16.439   8.183  36.398  1.00  0.00     0.147 C 
BRANCH  15  16
HETATM   16  C6  UNL     1      17.129   7.182  35.471  1.00  0.00     0.254 C 
BRANCH  16  17
HETATM   17  N2  UNL     1      17.489   7.828  34.258  1.00  0.00    -0.045 N 
ATOM     18  H22 UNL     1      16.760   8.481  33.972  1.00  0.00     0.279 HD
ATOM     19  H21 UNL     1      18.255   8.482  34.417  1.00  0.00     0.279 HD
BRANCH  17  20
HETATM   20  C7  UNL     1      17.804   6.946  33.200  1.00  0.00     0.382 C 
HETATM   21  C8  UNL     1      18.092   5.557  33.695  1.00  0.00     0.062 C 
HETATM   22  C9  UNL     1      18.078   4.650  32.471  1.00  0.00     0.005 C 
HETATM   23  C10 UNL     1      19.071   5.132  31.467  1.00  0.00     0.028 C 
HETATM   24  C11 UNL     1      19.084   6.615  31.259  1.00  0.00     0.235 C 
HETATM   25  N3  UNL     1      19.039   7.369  32.496  1.00  0.00    -0.046 N 
ATOM     26  H32 UNL     1      19.101   8.378  32.358  1.00  0.00     0.279 HD
ATOM     27  H31 UNL     1      19.882   7.269  33.062  1.00  0.00     0.279 HD
ENDBRANCH  17  20
ENDBRANCH  16  17
ENDBRANCH  15  16
ENDBRANCH   1  15
TORSDOF 8
ENDMDL
MODEL 5
REMARK VINA RESULT: -6.849245719      0.716      2.815
REMARK  8 active torsions:
REMARK  status: ('A' for Active; 'I' for Inactive)
REMARK    1  A    between atoms: O1_2  and  C2_3 
REMARK    2  A    between atoms: C4_5  and  N1_6 
REMARK    3  A    between atoms: N1_6  and  C5_8 
REMARK    4  A    between atoms: C5_8  and  C6_9 
REMARK    5  A    between atoms: C6_9  and  N2_10 
REMARK    6  A    between atoms: N2_10  and  C7_13 
REMARK    7  A    between atoms: C13_22  and  O2_23 
REMARK    8  A    between atoms: C15_25  and  O3_26 
ROOT
HETATM    1  N1  UNL     1      16.844   8.001  37.407  1.00  0.00    -0.388 N 
ATOM      2  H1  UNL     1      17.474   7.209  37.282  1.00  0.00     0.159 HD
ENDROOT
BRANCH   1   3
HETATM    3  C4  UNL     1      16.639   8.547  38.728  1.00  0.00     0.033 A 
HETATM    4  C3  UNL     1      17.393   8.101  39.790  1.00  0.00     0.069 A 
HETATM    5  C2  UNL     1      17.210   8.607  41.059  1.00  0.00     0.106 A 
HETATM    6  C15 UNL     1      16.269   9.579  41.332  1.00  0.00     0.135 A 
HETATM    7  C13 UNL     1      15.506  10.029  40.252  1.00  0.00     0.106 A 
HETATM    8  C12 UNL     1      15.697   9.517  38.987  1.00  0.00     0.069 A 
BRANCH   5   9
HETATM    9  O1  UNL     1      17.973   8.156  42.139  1.00  0.00    -0.353 OA
HETATM   10  C1  UNL     1      17.702   6.855  42.626  1.00  0.00     0.210 C 
ENDBRANCH   5   9
BRANCH   6  11
HETATM   11  O3  UNL     1      16.106  10.069  42.618  1.00  0.00    -0.351 OA
HETATM   12  C16 UNL     1      15.156   9.412  43.468  1.00  0.00     0.210 C 
ENDBRANCH   6  11
BRANCH   7  13
HETATM   13  O2  UNL     1      14.571  11.002  40.555  1.00  0.00    -0.353 OA
HETATM   14  C14 UNL     1      13.204  10.693  40.626  1.00  0.00     0.210 C 
ENDBRANCH   7  13
ENDBRANCH   1   3
BRANCH   1  15
HETATM   15  C5  UNL     1      16.171   8.561  36.263  1.00  0.00     0.147 C 
BRANCH  15  16
HETATM   16  C6  UNL     1      16.403   7.643  35.062  1.00  0.00     0.254 C 
BRANCH  16  17
HETATM   17  N2  UNL     1      17.607   8.015  34.406  1.00  0.00    -0.045 N 
ATOM     18  H22 UNL     1      17.462   8.853  33.844  1.00  0.00     0.279 HD
ATOM     19  H21 UNL     1      18.284   8.373  35.081  1.00  0.00     0.279 HD
BRANCH  17  20
HETATM   20  C7  UNL     1      18.185   6.989  33.624  1.00  0.00     0.382 C 
HETATM   21  C8  UNL     1      18.226   7.350  32.167  1.00  0.00     0.062 C 
HETATM   22  C9  UNL     1      19.154   6.345  31.498  1.00  0.00     0.005 C 
HETATM   23  C10 UNL     1      18.665   4.956  31.744  1.00  0.00     0.028 C 
HETATM   24  C11 UNL     1      18.212   4.690  33.146  1.00  0.00     0.235 C 
HETATM   25  N3  UNL     1      17.380   5.744  33.691  1.00  0.00    -0.046 N 
ATOM     26  H32 UNL     1      17.029   5.539  34.627  1.00  0.00     0.279 HD
ATOM     27  H31 UNL     1      16.473   5.823  33.231  1.00  0.00     0.279 HD
ENDBRANCH  17  20
ENDBRANCH  16  17
ENDBRANCH  15  16
ENDBRANCH   1  15
TORSDOF 8
ENDMDL
