MODEL 1
REMARK VINA RESULT: -6.315054526      0.000      0.000
REMARK  7 active torsions:
REMARK  status: ('A' for Active; 'I' for Inactive)
REMARK    1  A    between atoms: C2_2  and  C3_3 
REMARK    2  A    between atoms: C6_10  and  O2_11 
REMARK    3  A    between atoms: C8_13  and  O3_14 
REMARK    4  A    between atoms: O3_14  and  C9_15 
REMARK    5  A    between atoms: C9_15  and  C10_16 
REMARK    6  A    between atoms: C10_16  and  N3_17 
REMARK    7  A    between atoms: N3_17  and  C11_19 
ROOT
HETATM    1  C3  UNL     1      17.131   8.515  39.728  1.00  0.00     0.056 A 
HETATM    2  C4  UNL     1      16.115   9.409  39.644  1.00  0.00     0.132 A 
HETATM    3  N1  UNL     1      15.692  10.087  40.845  1.00  0.00    -0.082 NA
HETATM    4  N2  UNL     1      15.456   9.707  38.481  1.00  0.00    -0.323 N 
ATOM      5  H2  UNL     1      14.700  10.391  38.482  1.00  0.00     0.169 HD
HETATM    6  C5  UNL     1      15.810   9.091  37.334  1.00  0.00     0.169 A 
HETATM    7  O1  UNL     1      15.344   9.192  36.105  1.00  0.00    -0.267 OA
HETATM    8  C6  UNL     1      15.987   8.399  35.303  1.00  0.00     0.222 A 
HETATM    9  C8  UNL     1      16.935   7.732  36.026  1.00  0.00     0.146 A 
HETATM   10  C14 UNL     1      16.827   8.178  37.340  1.00  0.00     0.105 A 
HETATM   11  C15 UNL     1      17.479   7.889  38.498  1.00  0.00     0.202 A 
HETATM   12  O4  UNL     1      18.426   7.053  38.507  1.00  0.00    -0.286 OA
ENDROOT
BRANCH   9  13
HETATM   13  O3  UNL     1      17.887   6.769  35.666  1.00  0.00    -0.340 OA
BRANCH  13  14
HETATM   14  C9  UNL     1      17.439   5.605  34.940  1.00  0.00     0.220 C 
BRANCH  14  15
HETATM   15  C10 UNL     1      18.010   5.560  33.540  1.00  0.00     0.082 C 
BRANCH  15  16
HETATM   16  N3  UNL     1      18.225   6.856  33.039  1.00  0.00    -0.396 N 
ATOM     17  H3  UNL     1      17.702   7.652  33.406  1.00  0.00     0.159 HD
BRANCH  16  18
HETATM   18  C11 UNL     1      19.167   7.026  32.030  1.00  0.00     0.081 A 
HETATM   19  C12 UNL     1      19.317   5.943  30.956  1.00  0.00     0.027 A 
HETATM   20  C13 UNL     1      18.571   7.193  30.614  1.00  0.00     0.027 A 
ENDBRANCH  16  18
ENDBRANCH  15  16
ENDBRANCH  14  15
ENDBRANCH  13  14
ENDBRANCH   9  13
BRANCH   8  21
HETATM   21  O2  UNL     1      15.751   8.252  33.925  1.00  0.00    -0.333 OA
HETATM   22  C7  UNL     1      14.507   8.764  33.454  1.00  0.00     0.212 C 
ENDBRANCH   8  21
BRANCH   1  23
HETATM   23  C2  UNL     1      17.853   8.132  40.908  1.00  0.00     0.009 C 
HETATM   24  C1  UNL     1      17.535   7.477  41.951  1.00  0.00     0.012 C 
ENDBRANCH   1  23
TORSDOF 7
ENDMDL
MODEL 2
REMARK VINA RESULT: -6.276639421      2.224      6.864
REMARK  7 active torsions:
REMARK  status: ('A' for Active; 'I' for Inactive)
REMARK    1  A    between atoms: C2_2  and  C3_3 
REMARK    2  A    between atoms: C6_10  and  O2_11 
REMARK    3  A    between atoms: C8_13  and  O3_14 
REMARK    4  A    between atoms: O3_14  and  C9_15 
REMARK    5  A    between atoms: C9_15  and  C10_16 
REMARK    6  A    between atoms: C10_16  and  N3_17 
REMARK    7  A    between atoms: N3_17  and  C11_19 
ROOT
HETATM    1  C3  UNL     1      16.978   7.285  35.536  1.00  0.00     0.056 A 
HETATM    2  C4  UNL     1      16.017   8.156  35.138  1.00  0.00     0.132 A 
HETATM    3  N1  UNL     1      15.630   8.166  33.748  1.00  0.00    -0.082 NA
HETATM    4  N2  UNL     1      15.392   9.039  35.978  1.00  0.00    -0.323 N 
ATOM      5  H2  UNL     1      14.675   9.668  35.618  1.00  0.00     0.169 HD
HETATM    6  C5  UNL     1      15.729   9.072  37.284  1.00  0.00     0.169 A 
HETATM    7  O1  UNL     1      15.292   9.813  38.283  1.00  0.00    -0.267 OA
HETATM    8  C6  UNL     1      15.906   9.509  39.385  1.00  0.00     0.222 A 
HETATM    9  C8  UNL     1      16.800   8.510  39.116  1.00  0.00     0.146 A 
HETATM   10  C14 UNL     1      16.688   8.223  37.759  1.00  0.00     0.105 A 
HETATM   11  C15 UNL     1      17.303   7.347  36.920  1.00  0.00     0.202 A 
HETATM   12  O4  UNL     1      18.182   6.553  37.357  1.00  0.00    -0.286 OA
ENDROOT
BRANCH   9  13
HETATM   13  O3  UNL     1      17.712   7.822  39.929  1.00  0.00    -0.340 OA
BRANCH  13  14
HETATM   14  C9  UNL     1      17.792   8.185  41.323  1.00  0.00     0.220 C 
BRANCH  14  15
HETATM   15  C10 UNL     1      17.072   7.189  42.206  1.00  0.00     0.082 C 
BRANCH  15  16
HETATM   16  N3  UNL     1      15.740   7.579  42.426  1.00  0.00    -0.396 N 
ATOM     17  H3  UNL     1      15.519   8.364  43.039  1.00  0.00     0.159 HD
BRANCH  16  18
HETATM   18  C11 UNL     1      14.730   6.866  41.787  1.00  0.00     0.081 A 
HETATM   19  C12 UNL     1      13.702   6.105  42.631  1.00  0.00     0.027 A 
HETATM   20  C13 UNL     1      13.305   7.414  42.026  1.00  0.00     0.027 A 
ENDBRANCH  16  18
ENDBRANCH  15  16
ENDBRANCH  14  15
ENDBRANCH  13  14
ENDBRANCH   9  13
BRANCH   8  21
HETATM   21  O2  UNL     1      15.689  10.101  40.640  1.00  0.00    -0.333 OA
HETATM   22  C7  UNL     1      14.419  10.722  40.818  1.00  0.00     0.212 C 
ENDBRANCH   8  21
BRANCH   1  23
HETATM   23  C2  UNL     1      17.694   6.350  34.716  1.00  0.00     0.009 C 
HETATM   24  C1  UNL     1      17.333   5.367  33.993  1.00  0.00     0.012 C 
ENDBRANCH   1  23
TORSDOF 7
ENDMDL
MODEL 3
REMARK VINA RESULT: -6.125450501      2.341      7.062
REMARK  7 active torsions:
REMARK  status: ('A' for Active; 'I' for Inactive)
REMARK    1  A    between atoms: C2_2  and  C3_3 
REMARK    2  A    between atoms: C6_10  and  O2_11 
REMARK    3  A    between atoms: C8_13  and  O3_14 
REMARK    4  A    between atoms: O3_14  and  C9_15 
REMARK    5  A    between atoms: C9_15  and  C10_16 
REMARK    6  A    between atoms: C10_16  and  N3_17 
REMARK    7  A    between atoms: N3_17  and  C11_19 
ROOT
HETATM    1  C3  UNL     1      16.952   7.457  35.928  1.00  0.00     0.056 A 
HETATM    2  C4  UNL     1      15.965   8.321  35.584  1.00  0.00     0.132 A 
HETATM    3  N1  UNL     1      15.526   8.354  34.210  1.00  0.00    -0.082 NA
HETATM    4  N2  UNL     1      15.359   9.177  36.465  1.00  0.00    -0.323 N 
ATOM      5  H2  UNL     1      14.619   9.802  36.144  1.00  0.00     0.169 HD
HETATM    6  C5  UNL     1      15.742   9.188  37.758  1.00  0.00     0.169 A 
HETATM    7  O1  UNL     1      15.332   9.902  38.787  1.00  0.00    -0.267 OA
HETATM    8  C6  UNL     1      15.991   9.584  39.860  1.00  0.00     0.222 A 
HETATM    9  C8  UNL     1      16.889   8.606  39.537  1.00  0.00     0.146 A 
HETATM   10  C14 UNL     1      16.731   8.345  38.180  1.00  0.00     0.105 A 
HETATM   11  C15 UNL     1      17.328   7.496  37.300  1.00  0.00     0.202 A 
HETATM   12  O4  UNL     1      18.234   6.707  37.688  1.00  0.00    -0.286 OA
ENDROOT
BRANCH   9  13
HETATM   13  O3  UNL     1      17.841   7.915  40.301  1.00  0.00    -0.340 OA
BRANCH  13  14
HETATM   14  C9  UNL     1      17.401   7.261  41.510  1.00  0.00     0.220 C 
BRANCH  14  15
HETATM   15  C10 UNL     1      18.021   7.880  42.743  1.00  0.00     0.082 C 
BRANCH  15  16
HETATM   16  N3  UNL     1      18.428   9.203  42.495  1.00  0.00    -0.396 N 
ATOM     17  H3  UNL     1      18.136   9.690  41.646  1.00  0.00     0.159 HD
BRANCH  16  18
HETATM   18  C11 UNL     1      19.238   9.831  43.435  1.00  0.00     0.081 A 
HETATM   19  C12 UNL     1      20.427  10.670  42.956  1.00  0.00     0.027 A 
HETATM   20  C13 UNL     1      19.186  11.376  43.400  1.00  0.00     0.027 A 
ENDBRANCH  16  18
ENDBRANCH  15  16
ENDBRANCH  14  15
ENDBRANCH  13  14
ENDBRANCH   9  13
BRANCH   8  21
HETATM   21  O2  UNL     1      15.812  10.147  41.135  1.00  0.00    -0.333 OA
HETATM   22  C7  UNL     1      14.620   9.765  41.815  1.00  0.00     0.212 C 
ENDBRANCH   8  21
BRANCH   1  23
HETATM   23  C2  UNL     1      17.652   6.551  35.062  1.00  0.00     0.009 C 
HETATM   24  C1  UNL     1      17.271   5.627  34.275  1.00  0.00     0.012 C 
ENDBRANCH   1  23
TORSDOF 7
ENDMDL
MODEL 4
REMARK VINA RESULT: -6.050636707      2.385      7.222
REMARK  7 active torsions:
REMARK  status: ('A' for Active; 'I' for Inactive)
REMARK    1  A    between atoms: C2_2  and  C3_3 
REMARK    2  A    between atoms: C6_10  and  O2_11 
REMARK    3  A    between atoms: C8_13  and  O3_14 
REMARK    4  A    between atoms: O3_14  and  C9_15 
REMARK    5  A    between atoms: C9_15  and  C10_16 
REMARK    6  A    between atoms: C10_16  and  N3_17 
REMARK    7  A    between atoms: N3_17  and  C11_19 
ROOT
HETATM    1  C3  UNL     1      16.931   7.324  35.637  1.00  0.00     0.056 A 
HETATM    2  C4  UNL     1      15.969   8.215  35.292  1.00  0.00     0.132 A 
HETATM    3  N1  UNL     1      15.540   8.267  33.915  1.00  0.00    -0.082 NA
HETATM    4  N2  UNL     1      15.380   9.082  36.174  1.00  0.00    -0.323 N 
ATOM      5  H2  UNL     1      14.659   9.728  35.853  1.00  0.00     0.169 HD
HETATM    6  C5  UNL     1      15.755   9.076  37.469  1.00  0.00     0.169 A 
HETATM    7  O1  UNL     1      15.357   9.794  38.501  1.00  0.00    -0.267 OA
HETATM    8  C6  UNL     1      16.000   9.454  39.575  1.00  0.00     0.222 A 
HETATM    9  C8  UNL     1      16.875   8.454  39.253  1.00  0.00     0.146 A 
HETATM   10  C14 UNL     1      16.719   8.204  37.893  1.00  0.00     0.105 A 
HETATM   11  C15 UNL     1      17.298   7.345  37.012  1.00  0.00     0.202 A 
HETATM   12  O4  UNL     1      18.181   6.530  37.401  1.00  0.00    -0.286 OA
ENDROOT
BRANCH   9  13
HETATM   13  O3  UNL     1      17.802   7.734  40.019  1.00  0.00    -0.340 OA
BRANCH  13  14
HETATM   14  C9  UNL     1      17.928   8.058  41.419  1.00  0.00     0.220 C 
BRANCH  14  15
HETATM   15  C10 UNL     1      17.244   7.034  42.298  1.00  0.00     0.082 C 
BRANCH  15  16
HETATM   16  N3  UNL     1      18.172   6.119  42.826  1.00  0.00    -0.396 N 
ATOM     17  H3  UNL     1      18.899   5.713  42.237  1.00  0.00     0.159 HD
BRANCH  16  18
HETATM   18  C11 UNL     1      18.072   5.783  44.173  1.00  0.00     0.081 A 
HETATM   19  C12 UNL     1      17.506   4.414  44.562  1.00  0.00     0.027 A 
HETATM   20  C13 UNL     1      18.986   4.617  44.614  1.00  0.00     0.027 A 
ENDBRANCH  16  18
ENDBRANCH  15  16
ENDBRANCH  14  15
ENDBRANCH  13  14
ENDBRANCH   9  13
BRANCH   8  21
HETATM   21  O2  UNL     1      15.828  10.014  40.852  1.00  0.00    -0.333 OA
HETATM   22  C7  UNL     1      14.544   9.823  41.441  1.00  0.00     0.212 C 
ENDBRANCH   8  21
BRANCH   1  23
HETATM   23  C2  UNL     1      17.612   6.404  34.771  1.00  0.00     0.009 C 
HETATM   24  C1  UNL     1      17.221   5.434  34.048  1.00  0.00     0.012 C 
ENDBRANCH   1  23
TORSDOF 7
ENDMDL
MODEL 5
REMARK VINA RESULT: -5.800816960      3.355      5.838
REMARK  7 active torsions:
REMARK  status: ('A' for Active; 'I' for Inactive)
REMARK    1  A    between atoms: C2_2  and  C3_3 
REMARK    2  A    between atoms: C6_10  and  O2_11 
REMARK    3  A    between atoms: C8_13  and  O3_14 
REMARK    4  A    between atoms: O3_14  and  C9_15 
REMARK    5  A    between atoms: C9_15  and  C10_16 
REMARK    6  A    between atoms: C10_16  and  N3_17 
REMARK    7  A    between atoms: N3_17  and  C11_19 
ROOT
HETATM    1  C3  UNL     1      13.663   7.958  42.314  1.00  0.00     0.056 A 
HETATM    2  C4  UNL     1      13.724   8.757  43.409  1.00  0.00     0.132 A 
HETATM    3  N1  UNL     1      12.530   8.934  44.199  1.00  0.00    -0.082 NA
HETATM    4  N2  UNL     1      14.855   9.417  43.810  1.00  0.00    -0.323 N 
ATOM      5  H2  UNL     1      14.837  10.002  44.645  1.00  0.00     0.169 HD
HETATM    6  C5  UNL     1      15.993   9.289  43.097  1.00  0.00     0.169 A 
HETATM    7  O1  UNL     1      17.193   9.808  43.261  1.00  0.00    -0.267 OA
HETATM    8  C6  UNL     1      17.998   9.414  42.322  1.00  0.00     0.222 A 
HETATM    9  C8  UNL     1      17.306   8.586  41.484  1.00  0.00     0.146 A 
HETATM   10  C14 UNL     1      16.009   8.499  41.981  1.00  0.00     0.105 A 
HETATM   11  C15 UNL     1      14.883   7.845  41.590  1.00  0.00     0.202 A 
HETATM   12  O4  UNL     1      14.897   7.106  40.566  1.00  0.00    -0.286 OA
ENDROOT
BRANCH   9  13
HETATM   13  O3  UNL     1      17.683   7.896  40.323  1.00  0.00    -0.340 OA
BRANCH  13  14
HETATM   14  C9  UNL     1      17.708   8.622  39.076  1.00  0.00     0.220 C 
BRANCH  14  15
HETATM   15  C10 UNL     1      18.131   7.743  37.920  1.00  0.00     0.082 C 
BRANCH  15  16
HETATM   16  N3  UNL     1      17.074   7.560  37.011  1.00  0.00    -0.396 N 
ATOM     17  H3  UNL     1      16.129   7.359  37.340  1.00  0.00     0.159 HD
BRANCH  16  18
HETATM   18  C11 UNL     1      17.351   7.658  35.651  1.00  0.00     0.081 A 
HETATM   19  C12 UNL     1      16.668   6.693  34.677  1.00  0.00     0.027 A 
HETATM   20  C13 UNL     1      16.150   8.092  34.780  1.00  0.00     0.027 A 
ENDBRANCH  16  18
ENDBRANCH  15  16
ENDBRANCH  14  15
ENDBRANCH  13  14
ENDBRANCH   9  13
BRANCH   8  21
HETATM   21  O2  UNL     1      19.350   9.775  42.189  1.00  0.00    -0.333 OA
HETATM   22  C7  UNL     1      19.954  10.338  43.350  1.00  0.00     0.212 C 
ENDBRANCH   8  21
BRANCH   1  23
HETATM   23  C2  UNL     1      12.515   7.255  41.816  1.00  0.00     0.009 C 
HETATM   24  C1  UNL     1      11.888   6.220  42.207  1.00  0.00     0.012 C 
ENDBRANCH   1  23
TORSDOF 7
ENDMDL
