MODEL 1
REMARK VINA RESULT: -6.410524508      0.000      0.000
REMARK  4 active torsions:
REMARK  status: ('A' for Active; 'I' for Inactive)
REMARK    1  A    between atoms: N1_1  and  C1_5 
REMARK    2  A    between atoms: C4_8  and  C5_9 
REMARK    3  A    between atoms: C5_9  and  O1_10 
REMARK    4  A    between atoms: O1_10  and  C6_11 
ROOT
HETATM    1  C1  UNL     1      14.119  37.885  36.018  1.00  0.00     0.318 C 
HETATM    2  C2  UNL     1      14.122  36.837  37.122  1.00  0.00     0.064 C 
HETATM    3  C3  UNL     1      13.351  35.646  36.538  1.00  0.00     0.038 C 
HETATM    4  C4  UNL     1      13.132  36.086  35.129  1.00  0.00     0.148 C 
HETATM    5  O2  UNL     1      13.098  37.501  35.168  1.00  0.00    -0.352 OA
ENDROOT
BRANCH   4   6
HETATM    6  C5  UNL     1      11.811  35.658  34.561  1.00  0.00     0.200 C 
BRANCH   6   7
HETATM    7  O1  UNL     1      11.189  36.557  33.747  1.00  0.00    -0.383 OA
BRANCH   7   8
HETATM    8  C6  UNL     1      10.107  36.097  33.053  1.00  0.00     0.121 C 
HETATM    9  C7  UNL     1       9.571  34.783  33.559  1.00  0.00     0.032 C 
HETATM   10  C8  UNL     1       8.940  34.212  32.282  1.00  0.00     0.002 C 
HETATM   11  C9  UNL     1      10.072  34.424  31.296  1.00  0.00     0.002 C 
HETATM   12  C10 UNL     1      10.531  35.807  31.629  1.00  0.00     0.032 C 
ENDBRANCH   7   8
ENDBRANCH   6   7
ENDBRANCH   4   6
BRANCH   1  13
HETATM   13  N1  UNL     1      13.819  39.169  36.570  1.00  0.00    -0.053 N 
ATOM     14  H13 UNL     1      14.182  39.274  37.518  1.00  0.00     0.277 HD
ATOM     15  H12 UNL     1      14.356  39.913  36.124  1.00  0.00     0.277 HD
ATOM     16  H11 UNL     1      12.815  39.340  36.523  1.00  0.00     0.277 HD
ENDBRANCH   1  13
TORSDOF 4
ENDMDL
MODEL 2
REMARK VINA RESULT: -5.960698247      1.147      1.817
REMARK  4 active torsions:
REMARK  status: ('A' for Active; 'I' for Inactive)
REMARK    1  A    between atoms: N1_1  and  C1_5 
REMARK    2  A    between atoms: C4_8  and  C5_9 
REMARK    3  A    between atoms: C5_9  and  O1_10 
REMARK    4  A    between atoms: O1_10  and  C6_11 
ROOT
HETATM    1  C1  UNL     1      14.480  38.216  36.568  1.00  0.00     0.318 C 
HETATM    2  C2  UNL     1      14.285  37.613  37.951  1.00  0.00     0.064 C 
HETATM    3  C3  UNL     1      13.993  36.129  37.697  1.00  0.00     0.038 C 
HETATM    4  C4  UNL     1      14.204  36.024  36.223  1.00  0.00     0.148 C 
HETATM    5  O2  UNL     1      13.906  37.305  35.700  1.00  0.00    -0.352 OA
ENDROOT
BRANCH   4   6
HETATM    6  C5  UNL     1      13.264  35.072  35.545  1.00  0.00     0.200 C 
BRANCH   6   7
HETATM    7  O1  UNL     1      12.024  35.559  35.257  1.00  0.00    -0.383 OA
BRANCH   7   8
HETATM    8  C6  UNL     1      11.539  35.278  34.012  1.00  0.00     0.121 C 
HETATM    9  C7  UNL     1      11.374  36.492  33.134  1.00  0.00     0.032 C 
HETATM   10  C8  UNL     1      10.240  36.033  32.208  1.00  0.00     0.002 C 
HETATM   11  C9  UNL     1       9.253  35.496  33.225  1.00  0.00     0.002 C 
HETATM   12  C10 UNL     1      10.138  34.723  34.151  1.00  0.00     0.032 C 
ENDBRANCH   7   8
ENDBRANCH   6   7
ENDBRANCH   4   6
BRANCH   1  13
HETATM   13  N1  UNL     1      13.781  39.461  36.480  1.00  0.00    -0.053 N 
ATOM     14  H13 UNL     1      14.416  40.248  36.345  1.00  0.00     0.277 HD
ATOM     15  H12 UNL     1      13.256  39.544  35.610  1.00  0.00     0.277 HD
ATOM     16  H11 UNL     1      13.188  39.583  37.300  1.00  0.00     0.277 HD
ENDBRANCH   1  13
TORSDOF 4
ENDMDL
MODEL 3
REMARK VINA RESULT: -5.877714387      2.420      5.760
REMARK  4 active torsions:
REMARK  status: ('A' for Active; 'I' for Inactive)
REMARK    1  A    between atoms: N1_1  and  C1_5 
REMARK    2  A    between atoms: C4_8  and  C5_9 
REMARK    3  A    between atoms: C5_9  and  O1_10 
REMARK    4  A    between atoms: O1_10  and  C6_11 
ROOT
HETATM    1  C1  UNL     1      10.514  36.473  32.532  1.00  0.00     0.318 C 
HETATM    2  C2  UNL     1      10.337  35.035  32.995  1.00  0.00     0.064 C 
HETATM    3  C3  UNL     1      11.316  34.874  34.165  1.00  0.00     0.038 C 
HETATM    4  C4  UNL     1      11.822  36.268  34.333  1.00  0.00     0.148 C 
HETATM    5  O2  UNL     1      11.733  36.867  33.054  1.00  0.00    -0.352 OA
ENDROOT
BRANCH   4   6
HETATM    6  C5  UNL     1      13.269  36.342  34.722  1.00  0.00     0.200 C 
BRANCH   6   7
HETATM    7  O1  UNL     1      13.526  36.741  36.000  1.00  0.00    -0.383 OA
BRANCH   7   8
HETATM    8  C6  UNL     1      14.380  35.955  36.719  1.00  0.00     0.121 C 
HETATM    9  C7  UNL     1      15.120  36.694  37.805  1.00  0.00     0.032 C 
HETATM   10  C8  UNL     1      16.398  35.852  37.914  1.00  0.00     0.002 C 
HETATM   11  C9  UNL     1      16.783  35.743  36.452  1.00  0.00     0.002 C 
HETATM   12  C10 UNL     1      15.470  35.452  35.797  1.00  0.00     0.032 C 
ENDBRANCH   7   8
ENDBRANCH   6   7
ENDBRANCH   4   6
BRANCH   1  13
HETATM   13  N1  UNL     1      10.572  36.519  31.103  1.00  0.00    -0.053 N 
ATOM     14  H13 UNL     1      10.774  35.604  30.698  1.00  0.00     0.277 HD
ATOM     15  H12 UNL     1       9.653  36.665  30.686  1.00  0.00     0.277 HD
ATOM     16  H11 UNL     1      11.245  37.226  30.807  1.00  0.00     0.277 HD
ENDBRANCH   1  13
TORSDOF 4
ENDMDL
MODEL 4
REMARK VINA RESULT: -5.856212456      2.195      5.714
REMARK  4 active torsions:
REMARK  status: ('A' for Active; 'I' for Inactive)
REMARK    1  A    between atoms: N1_1  and  C1_5 
REMARK    2  A    between atoms: C4_8  and  C5_9 
REMARK    3  A    between atoms: C5_9  and  O1_10 
REMARK    4  A    between atoms: O1_10  and  C6_11 
ROOT
HETATM    1  C1  UNL     1      10.490  36.444  32.555  1.00  0.00     0.318 C 
HETATM    2  C2  UNL     1      10.347  34.986  32.966  1.00  0.00     0.064 C 
HETATM    3  C3  UNL     1      11.307  34.814  34.150  1.00  0.00     0.038 C 
HETATM    4  C4  UNL     1      11.769  36.215  34.375  1.00  0.00     0.148 C 
HETATM    5  O2  UNL     1      11.687  36.854  33.114  1.00  0.00    -0.352 OA
ENDROOT
BRANCH   4   6
HETATM    6  C5  UNL     1      13.205  36.317  34.796  1.00  0.00     0.200 C 
BRANCH   6   7
HETATM    7  O1  UNL     1      13.546  37.437  35.494  1.00  0.00    -0.383 OA
BRANCH   7   8
HETATM    8  C6  UNL     1      14.582  37.309  36.375  1.00  0.00     0.121 C 
HETATM    9  C7  UNL     1      15.179  35.926  36.417  1.00  0.00     0.032 C 
HETATM   10  C8  UNL     1      15.723  35.884  37.851  1.00  0.00     0.002 C 
HETATM   11  C9  UNL     1      14.517  36.387  38.619  1.00  0.00     0.002 C 
HETATM   12  C10 UNL     1      14.057  37.534  37.777  1.00  0.00     0.032 C 
ENDBRANCH   7   8
ENDBRANCH   6   7
ENDBRANCH   4   6
BRANCH   1  13
HETATM   13  N1  UNL     1      10.576  36.540  31.130  1.00  0.00    -0.053 N 
ATOM     14  H13 UNL     1      11.521  36.758  30.816  1.00  0.00     0.277 HD
ATOM     15  H12 UNL     1      10.477  35.630  30.678  1.00  0.00     0.277 HD
ATOM     16  H11 UNL     1       9.892  37.215  30.787  1.00  0.00     0.277 HD
ENDBRANCH   1  13
TORSDOF 4
ENDMDL
MODEL 5
REMARK VINA RESULT: -5.853230218      2.191      5.814
REMARK  4 active torsions:
REMARK  status: ('A' for Active; 'I' for Inactive)
REMARK    1  A    between atoms: N1_1  and  C1_5 
REMARK    2  A    between atoms: C4_8  and  C5_9 
REMARK    3  A    between atoms: C5_9  and  O1_10 
REMARK    4  A    between atoms: O1_10  and  C6_11 
ROOT
HETATM    1  C1  UNL     1      10.438  36.375  32.551  1.00  0.00     0.318 C 
HETATM    2  C2  UNL     1      10.333  34.894  32.885  1.00  0.00     0.064 C 
HETATM    3  C3  UNL     1      11.261  34.694  34.090  1.00  0.00     0.038 C 
HETATM    4  C4  UNL     1      11.666  36.097  34.399  1.00  0.00     0.148 C 
HETATM    5  O2  UNL     1      11.602  36.796  33.170  1.00  0.00    -0.352 OA
ENDROOT
BRANCH   4   6
HETATM    6  C5  UNL     1      13.083  36.225  34.873  1.00  0.00     0.200 C 
BRANCH   6   7
HETATM    7  O1  UNL     1      13.463  37.463  35.299  1.00  0.00    -0.383 OA
BRANCH   7   8
HETATM    8  C6  UNL     1      14.430  37.501  36.262  1.00  0.00     0.121 C 
HETATM    9  C7  UNL     1      14.052  36.787  37.534  1.00  0.00     0.032 C 
HETATM   10  C8  UNL     1      14.892  37.556  38.563  1.00  0.00     0.002 C 
HETATM   11  C9  UNL     1      14.560  38.984  38.178  1.00  0.00     0.002 C 
HETATM   12  C10 UNL     1      14.637  38.939  36.686  1.00  0.00     0.032 C 
ENDBRANCH   7   8
ENDBRANCH   6   7
ENDBRANCH   4   6
BRANCH   1  13
HETATM   13  N1  UNL     1      10.565  36.545  31.137  1.00  0.00    -0.053 N 
ATOM     14  H13 UNL     1      10.801  37.505  30.886  1.00  0.00     0.277 HD
ATOM     15  H12 UNL     1      11.399  36.087  30.769  1.00  0.00     0.277 HD
ATOM     16  H11 UNL     1       9.715  36.225  30.673  1.00  0.00     0.277 HD
ENDBRANCH   1  13
TORSDOF 4
ENDMDL
