MODEL 1
REMARK VINA RESULT: -5.045811741      0.000      0.000
REMARK  3 active torsions:
REMARK  status: ('A' for Active; 'I' for Inactive)
REMARK    1  A    between atoms: C2_2  and  C3_3 
REMARK    2  A    between atoms: C3_3  and  C4_4 
REMARK    3  A    between atoms: C4_4  and  C5_5 
ROOT
HETATM    1  C4  UNL     1      13.288  35.684  35.971  1.00  0.00     0.043 C 
HETATM    2  C8  UNL     1      14.742  35.388  35.864  1.00  0.00     0.182 C 
HETATM    3  O1  UNL     1      14.892  36.580  35.141  1.00  0.00    -0.389 OA
HETATM    4  C9  UNL     1      13.814  37.091  35.862  1.00  0.00     0.182 C 
ENDROOT
BRANCH   1   5
HETATM    5  C3  UNL     1      12.626  35.373  37.271  1.00  0.00     0.043 C 
BRANCH   5   6
HETATM    6  C2  UNL     1      13.388  35.799  38.449  1.00  0.00    -0.036 C 
HETATM    7  C1  UNL     1      13.170  35.231  39.617  1.00  0.00     0.007 C 
ENDBRANCH   5   6
ENDBRANCH   1   5
BRANCH   1   8
HETATM    8  C5  UNL     1      12.483  35.294  34.763  1.00  0.00     0.260 C 
HETATM    9  N1  UNL     1      11.935  36.450  34.114  1.00  0.00    -0.061 N 
HETATM   10  C6  UNL     1      10.856  36.067  33.274  1.00  0.00     0.243 C 
ATOM     11  H12 UNL     1      11.664  37.171  34.782  1.00  0.00     0.278 HD
ATOM     12  H11 UNL     1      12.647  36.977  33.607  1.00  0.00     0.278 HD
HETATM   13  C7  UNL     1       9.822  35.342  34.107  1.00  0.00     0.103 C 
HETATM   14  S1  UNL     1      10.932  34.442  35.266  1.00  0.00    -0.134 SA
ENDBRANCH   1   8
TORSDOF 3
ENDMDL
MODEL 2
REMARK VINA RESULT: -4.812827045      2.494      3.338
REMARK  3 active torsions:
REMARK  status: ('A' for Active; 'I' for Inactive)
REMARK    1  A    between atoms: C2_2  and  C3_3 
REMARK    2  A    between atoms: C3_3  and  C4_4 
REMARK    3  A    between atoms: C4_4  and  C5_5 
ROOT
HETATM    1  C4  UNL     1      11.574  35.282  34.782  1.00  0.00     0.043 C 
HETATM    2  C8  UNL     1      10.983  34.884  36.087  1.00  0.00     0.182 C 
HETATM    3  O1  UNL     1      10.721  33.619  35.540  1.00  0.00    -0.389 OA
HETATM    4  C9  UNL     1      11.837  33.800  34.725  1.00  0.00     0.182 C 
ENDROOT
BRANCH   1   5
HETATM    5  C3  UNL     1      12.803  36.125  34.822  1.00  0.00     0.043 C 
BRANCH   5   6
HETATM    6  C2  UNL     1      13.682  35.850  35.964  1.00  0.00    -0.036 C 
HETATM    7  C1  UNL     1      14.935  35.503  35.763  1.00  0.00     0.007 C 
ENDBRANCH   5   6
ENDBRANCH   1   5
BRANCH   1   8
HETATM    8  C5  UNL     1      10.569  35.709  33.748  1.00  0.00     0.260 C 
HETATM    9  N1  UNL     1      10.291  34.644  32.829  1.00  0.00    -0.061 N 
HETATM   10  C6  UNL     1       9.709  35.168  31.644  1.00  0.00     0.243 C 
ATOM     11  H12 UNL     1      11.118  34.082  32.633  1.00  0.00     0.278 HD
ATOM     12  H11 UNL     1       9.712  33.916  33.250  1.00  0.00     0.278 HD
HETATM   13  C7  UNL     1      10.647  36.196  31.052  1.00  0.00     0.103 C 
HETATM   14  S1  UNL     1      11.307  36.942  32.600  1.00  0.00    -0.134 SA
ENDBRANCH   1   8
TORSDOF 3
ENDMDL
MODEL 3
REMARK VINA RESULT: -4.726852695      2.346      4.707
REMARK  3 active torsions:
REMARK  status: ('A' for Active; 'I' for Inactive)
REMARK    1  A    between atoms: C2_2  and  C3_3 
REMARK    2  A    between atoms: C3_3  and  C4_4 
REMARK    3  A    between atoms: C4_4  and  C5_5 
ROOT
HETATM    1  C4  UNL     1      12.034  35.265  34.926  1.00  0.00     0.043 C 
HETATM    2  C8  UNL     1      11.791  33.909  34.364  1.00  0.00     0.182 C 
HETATM    3  O1  UNL     1      11.074  33.597  35.529  1.00  0.00    -0.389 OA
HETATM    4  C9  UNL     1      10.735  34.946  35.618  1.00  0.00     0.182 C 
ENDROOT
BRANCH   1   5
HETATM    5  C3  UNL     1      11.962  36.415  33.979  1.00  0.00     0.043 C 
BRANCH   5   6
HETATM    6  C2  UNL     1      10.817  36.368  33.064  1.00  0.00    -0.036 C 
HETATM    7  C1  UNL     1      10.963  36.726  31.806  1.00  0.00     0.007 C 
ENDBRANCH   5   6
ENDBRANCH   1   5
BRANCH   1   8
HETATM    8  C5  UNL     1      13.179  35.339  35.898  1.00  0.00     0.260 C 
HETATM    9  N1  UNL     1      12.704  35.398  37.249  1.00  0.00    -0.061 N 
HETATM   10  C6  UNL     1      13.726  35.898  38.099  1.00  0.00     0.243 C 
ATOM     11  H12 UNL     1      11.842  35.936  37.329  1.00  0.00     0.278 HD
ATOM     12  H11 UNL     1      12.347  34.497  37.569  1.00  0.00     0.278 HD
HETATM   13  C7  UNL     1      14.163  37.255  37.593  1.00  0.00     0.103 C 
HETATM   14  S1  UNL     1      14.022  36.970  35.780  1.00  0.00    -0.134 SA
ENDBRANCH   1   8
TORSDOF 3
ENDMDL
MODEL 4
REMARK VINA RESULT: -4.659506277      3.681      5.401
REMARK  3 active torsions:
REMARK  status: ('A' for Active; 'I' for Inactive)
REMARK    1  A    between atoms: C2_2  and  C3_3 
REMARK    2  A    between atoms: C3_3  and  C4_4 
REMARK    3  A    between atoms: C4_4  and  C5_5 
ROOT
HETATM    1  C4  UNL     1      15.101  36.818  37.109  1.00  0.00     0.043 C 
HETATM    2  C8  UNL     1      14.039  36.957  38.141  1.00  0.00     0.182 C 
HETATM    3  O1  UNL     1      14.110  38.347  37.973  1.00  0.00    -0.389 OA
HETATM    4  C9  UNL     1      14.487  38.115  36.651  1.00  0.00     0.182 C 
ENDROOT
BRANCH   1   5
HETATM    5  C3  UNL     1      14.962  35.694  36.138  1.00  0.00     0.043 C 
BRANCH   5   6
HETATM    6  C2  UNL     1      13.763  35.773  35.297  1.00  0.00    -0.036 C 
HETATM    7  C1  UNL     1      12.863  34.814  35.340  1.00  0.00     0.007 C 
ENDBRANCH   5   6
ENDBRANCH   1   5
BRANCH   1   8
HETATM    8  C5  UNL     1      16.500  37.015  37.625  1.00  0.00     0.260 C 
HETATM    9  N1  UNL     1      17.060  38.241  37.137  1.00  0.00    -0.061 N 
HETATM   10  C6  UNL     1      18.475  38.207  37.257  1.00  0.00     0.243 C 
ATOM     11  H12 UNL     1      16.761  38.447  36.185  1.00  0.00     0.278 HD
ATOM     12  H11 UNL     1      16.657  39.057  37.599  1.00  0.00     0.278 HD
HETATM   13  C7  UNL     1      19.000  37.005  36.503  1.00  0.00     0.103 C 
HETATM   14  S1  UNL     1      17.650  35.805  36.853  1.00  0.00    -0.134 SA
ENDBRANCH   1   8
TORSDOF 3
ENDMDL
MODEL 5
REMARK VINA RESULT: -4.595469728      1.245      1.373
REMARK  3 active torsions:
REMARK  status: ('A' for Active; 'I' for Inactive)
REMARK    1  A    between atoms: C2_2  and  C3_3 
REMARK    2  A    between atoms: C3_3  and  C4_4 
REMARK    3  A    between atoms: C4_4  and  C5_5 
ROOT
HETATM    1  C4  UNL     1      13.946  36.087  37.050  1.00  0.00     0.043 C 
HETATM    2  C8  UNL     1      15.419  36.027  37.248  1.00  0.00     0.182 C 
HETATM    3  O1  UNL     1      15.511  37.300  36.665  1.00  0.00    -0.389 OA
HETATM    4  C9  UNL     1      14.235  37.561  37.163  1.00  0.00     0.182 C 
ENDROOT
BRANCH   1   5
HETATM    5  C3  UNL     1      13.091  35.542  38.144  1.00  0.00     0.043 C 
BRANCH   5   6
HETATM    6  C2  UNL     1      13.780  35.403  39.431  1.00  0.00    -0.036 C 
HETATM    7  C1  UNL     1      13.127  34.961  40.485  1.00  0.00     0.007 C 
ENDBRANCH   5   6
ENDBRANCH   1   5
BRANCH   1   8
HETATM    8  C5  UNL     1      13.488  35.713  35.668  1.00  0.00     0.260 C 
HETATM    9  N1  UNL     1      13.076  36.872  34.930  1.00  0.00    -0.061 N 
HETATM   10  C6  UNL     1      12.260  36.483  33.835  1.00  0.00     0.243 C 
ATOM     11  H12 UNL     1      12.616  37.560  35.526  1.00  0.00     0.278 HD
ATOM     12  H11 UNL     1      13.870  37.439  34.633  1.00  0.00     0.278 HD
HETATM   13  C7  UNL     1      11.079  35.696  34.360  1.00  0.00     0.103 C 
HETATM   14  S1  UNL     1      11.897  34.793  35.740  1.00  0.00    -0.134 SA
ENDBRANCH   1   8
TORSDOF 3
ENDMDL
