MODEL 1
REMARK VINA RESULT: -6.128567489      0.000      0.000
REMARK  2 active torsions:
REMARK  status: ('A' for Active; 'I' for Inactive)
REMARK       I    between atoms: C1_4  and  N3_6 
REMARK    1  A    between atoms: N3_6  and  N4_8 
REMARK    2  A    between atoms: C2_10  and  C3_11 
ROOT
HETATM    1  N4  UNL     1      12.255  36.941  33.166  1.00  0.00    -0.313 N 
ATOM      2  H4  UNL     1      13.116  37.188  32.678  1.00  0.00     0.185 HD
HETATM    3  C2  UNL     1      12.373  36.562  34.360  1.00  0.00     0.084 C 
ENDROOT
BRANCH   1   4
HETATM    4  N3  UNL     1      11.078  37.057  32.445  1.00  0.00    -0.275 N 
HETATM    5  C1  UNL     1      10.216  35.925  32.400  1.00  0.00     0.200 C 
HETATM    6  N1  UNL     1      10.340  35.038  31.474  1.00  0.00    -0.372 N 
HETATM    7  N2  UNL     1       9.202  35.758  33.382  1.00  0.00    -0.062 NA
ATOM      8  H12 UNL     1       9.722  34.227  31.441  1.00  0.00     0.158 HD
ATOM      9  H11 UNL     1      11.068  35.157  30.769  1.00  0.00     0.158 HD
ATOM     10  H3  UNL     1      10.837  37.923  31.964  1.00  0.00     0.189 HD
ENDBRANCH   1   4
BRANCH   3  11
HETATM   11  C3  UNL     1      13.711  36.493  34.986  1.00  0.00     0.025 C 
HETATM   12  C4  UNL     1      13.934  37.686  35.857  1.00  0.00     0.010 C 
HETATM   13  C5  UNL     1      14.968  37.466  36.933  1.00  0.00     0.001 C 
HETATM   14  C6  UNL     1      14.714  36.233  37.749  1.00  0.00     0.000 C 
HETATM   15  C7  UNL     1      13.451  35.563  37.211  1.00  0.00     0.001 C 
HETATM   16  C8  UNL     1      13.755  35.182  35.774  1.00  0.00     0.010 C 
ENDBRANCH   3  11
TORSDOF 2
ENDMDL
MODEL 2
REMARK VINA RESULT: -5.999431429      2.676      5.528
REMARK  2 active torsions:
REMARK  status: ('A' for Active; 'I' for Inactive)
REMARK       I    between atoms: C1_4  and  N3_6 
REMARK    1  A    between atoms: N3_6  and  N4_8 
REMARK    2  A    between atoms: C2_10  and  C3_11 
ROOT
HETATM    1  N4  UNL     1      12.911  37.420  34.801  1.00  0.00    -0.313 N 
ATOM      2  H4  UNL     1      12.556  38.306  34.443  1.00  0.00     0.185 HD
HETATM    3  C2  UNL     1      12.277  36.384  34.470  1.00  0.00     0.084 C 
ENDROOT
BRANCH   1   4
HETATM    4  N3  UNL     1      14.040  37.481  35.601  1.00  0.00    -0.275 N 
HETATM    5  C1  UNL     1      14.358  38.731  36.202  1.00  0.00     0.200 C 
HETATM    6  N1  UNL     1      15.111  39.583  35.597  1.00  0.00    -0.372 N 
HETATM    7  N2  UNL     1      13.844  39.059  37.487  1.00  0.00    -0.062 NA
ATOM      8  H12 UNL     1      15.340  40.479  36.027  1.00  0.00     0.158 HD
ATOM      9  H11 UNL     1      15.480  39.348  34.675  1.00  0.00     0.158 HD
ATOM     10  H3  UNL     1      14.623  36.659  35.754  1.00  0.00     0.189 HD
ENDBRANCH   1   4
BRANCH   3  11
HETATM   11  C3  UNL     1      11.084  36.492  33.604  1.00  0.00     0.025 C 
HETATM   12  C4  UNL     1      11.495  36.734  32.188  1.00  0.00     0.010 C 
HETATM   13  C5  UNL     1      10.457  36.320  31.176  1.00  0.00     0.001 C 
HETATM   14  C6  UNL     1       9.973  34.913  31.372  1.00  0.00     0.000 C 
HETATM   15  C7  UNL     1      10.703  34.327  32.578  1.00  0.00     0.001 C 
HETATM   16  C8  UNL     1      10.309  35.182  33.767  1.00  0.00     0.010 C 
ENDBRANCH   3  11
TORSDOF 2
ENDMDL
MODEL 3
REMARK VINA RESULT: -5.942931521      0.987      1.305
REMARK  2 active torsions:
REMARK  status: ('A' for Active; 'I' for Inactive)
REMARK       I    between atoms: C1_4  and  N3_6 
REMARK    1  A    between atoms: N3_6  and  N4_8 
REMARK    2  A    between atoms: C2_10  and  C3_11 
ROOT
HETATM    1  N4  UNL     1      12.427  36.502  34.049  1.00  0.00    -0.313 N 
ATOM      2  H4  UNL     1      13.387  36.643  33.736  1.00  0.00     0.185 HD
HETATM    3  C2  UNL     1      12.266  35.790  35.074  1.00  0.00     0.084 C 
ENDROOT
BRANCH   1   4
HETATM    4  N3  UNL     1      11.435  37.114  33.300  1.00  0.00    -0.275 N 
HETATM    5  C1  UNL     1      10.499  36.275  32.631  1.00  0.00     0.200 C 
HETATM    6  N1  UNL     1      10.724  35.858  31.433  1.00  0.00    -0.372 N 
HETATM    7  N2  UNL     1       9.296  35.884  33.281  1.00  0.00    -0.062 NA
ATOM      8  H12 UNL     1      10.054  35.258  30.954  1.00  0.00     0.158 HD
ATOM      9  H11 UNL     1      11.587  36.139  30.966  1.00  0.00     0.158 HD
ATOM     10  H3  UNL     1      11.377  38.129  33.230  1.00  0.00     0.189 HD
ENDBRANCH   1   4
BRANCH   3  11
HETATM   11  C3  UNL     1      13.438  35.207  35.762  1.00  0.00     0.025 C 
HETATM   12  C4  UNL     1      14.698  35.807  35.230  1.00  0.00     0.010 C 
HETATM   13  C5  UNL     1      15.861  35.720  36.187  1.00  0.00     0.001 C 
HETATM   14  C6  UNL     1      15.538  36.245  37.554  1.00  0.00     0.000 C 
HETATM   15  C7  UNL     1      14.084  36.713  37.549  1.00  0.00     0.001 C 
HETATM   16  C8  UNL     1      13.247  35.483  37.255  1.00  0.00     0.010 C 
ENDBRANCH   3  11
TORSDOF 2
ENDMDL
MODEL 4
REMARK VINA RESULT: -5.846805886      4.943      6.140
REMARK  2 active torsions:
REMARK  status: ('A' for Active; 'I' for Inactive)
REMARK       I    between atoms: C1_4  and  N3_6 
REMARK    1  A    between atoms: N3_6  and  N4_8 
REMARK    2  A    between atoms: C2_10  and  C3_11 
ROOT
HETATM    1  N4  UNL     1      16.130  38.343  37.963  1.00  0.00    -0.313 N 
ATOM      2  H4  UNL     1      15.160  38.369  38.276  1.00  0.00     0.185 HD
HETATM    3  C2  UNL     1      16.550  37.242  37.519  1.00  0.00     0.084 C 
ENDROOT
BRANCH   1   4
HETATM    4  N3  UNL     1      16.849  39.522  38.070  1.00  0.00    -0.275 N 
HETATM    5  C1  UNL     1      16.829  40.412  36.960  1.00  0.00     0.200 C 
HETATM    6  N1  UNL     1      17.705  40.317  36.021  1.00  0.00    -0.372 N 
HETATM    7  N2  UNL     1      15.833  41.424  36.873  1.00  0.00    -0.062 NA
ATOM      8  H12 UNL     1      17.691  40.956  35.225  1.00  0.00     0.158 HD
ATOM      9  H11 UNL     1      18.420  39.591  36.083  1.00  0.00     0.158 HD
ATOM     10  H3  UNL     1      17.376  39.744  38.915  1.00  0.00     0.189 HD
ENDBRANCH   1   4
BRANCH   3  11
HETATM   11  C3  UNL     1      15.648  36.071  37.471  1.00  0.00     0.025 C 
HETATM   12  C4  UNL     1      14.289  36.447  37.965  1.00  0.00     0.010 C 
HETATM   13  C5  UNL     1      13.190  35.545  37.462  1.00  0.00     0.001 C 
HETATM   14  C6  UNL     1      13.204  35.377  35.971  1.00  0.00     0.000 C 
HETATM   15  C7  UNL     1      14.368  36.194  35.415  1.00  0.00     0.001 C 
HETATM   16  C8  UNL     1      15.627  35.598  36.016  1.00  0.00     0.010 C 
ENDBRANCH   3  11
TORSDOF 2
ENDMDL
MODEL 5
REMARK VINA RESULT: -5.735670220      3.930      5.779
REMARK  2 active torsions:
REMARK  status: ('A' for Active; 'I' for Inactive)
REMARK       I    between atoms: C1_4  and  N3_6 
REMARK    1  A    between atoms: N3_6  and  N4_8 
REMARK    2  A    between atoms: C2_10  and  C3_11 
ROOT
HETATM    1  N4  UNL     1      15.588  37.545  36.544  1.00  0.00    -0.313 N 
ATOM      2  H4  UNL     1      16.172  37.231  35.769  1.00  0.00     0.185 HD
HETATM    3  C2  UNL     1      14.470  36.982  36.672  1.00  0.00     0.084 C 
ENDROOT
BRANCH   1   4
HETATM    4  N3  UNL     1      16.108  38.547  37.346  1.00  0.00    -0.275 N 
HETATM    5  C1  UNL     1      16.486  39.767  36.719  1.00  0.00     0.200 C 
HETATM    6  N1  UNL     1      17.678  39.933  36.260  1.00  0.00    -0.372 N 
HETATM    7  N2  UNL     1      15.545  40.826  36.589  1.00  0.00    -0.062 NA
ATOM      8  H12 UNL     1      17.949  40.808  35.811  1.00  0.00     0.158 HD
ATOM      9  H11 UNL     1      18.353  39.174  36.353  1.00  0.00     0.158 HD
ATOM     10  H3  UNL     1      16.217  38.415  38.351  1.00  0.00     0.189 HD
ENDBRANCH   1   4
BRANCH   3  11
HETATM   11  C3  UNL     1      14.062  35.922  35.725  1.00  0.00     0.025 C 
HETATM   12  C4  UNL     1      12.928  35.133  36.291  1.00  0.00     0.010 C 
HETATM   13  C5  UNL     1      12.096  34.432  35.246  1.00  0.00     0.001 C 
HETATM   14  C6  UNL     1      11.633  35.347  34.152  1.00  0.00     0.000 C 
HETATM   15  C7  UNL     1      12.173  36.745  34.446  1.00  0.00     0.001 C 
HETATM   16  C8  UNL     1      13.685  36.628  34.420  1.00  0.00     0.010 C 
ENDBRANCH   3  11
TORSDOF 2
ENDMDL
