MODEL 1
REMARK VINA RESULT: -5.957606101      0.000      0.000
REMARK  3 active torsions:
REMARK  status: ('A' for Active; 'I' for Inactive)
REMARK    1  A    between atoms: C2_2  and  C4_4 
REMARK    2  A    between atoms: C4_4  and  O1_5 
REMARK    3  A    between atoms: C4_4  and  C5_7 
ROOT
HETATM    1  C5  UNL     1      12.339  36.341  34.693  1.00  0.00     0.214 C 
HETATM    2  C6  UNL     1      12.811  34.932  34.977  1.00  0.00     0.036 C 
HETATM    3  C7  UNL     1      14.152  35.078  35.723  1.00  0.00     0.004 C 
HETATM    4  C8  UNL     1      14.052  36.295  36.650  1.00  0.00     0.027 C 
HETATM    5  C9  UNL     1      14.003  37.558  35.779  1.00  0.00     0.233 C 
HETATM    6  N1  UNL     1      13.580  37.102  34.463  1.00  0.00    -0.068 N 
ATOM      7  H11 UNL     1      13.480  37.854  33.781  1.00  0.00     0.277 HD
ATOM      8  H12 UNL     1      14.296  36.578  33.960  1.00  0.00     0.277 HD
ENDROOT
BRANCH   1   9
HETATM    9  C4  UNL     1      11.412  36.476  33.539  1.00  0.00     0.152 C 
BRANCH   9  10
HETATM   10  C2  UNL     1      10.670  35.227  33.182  1.00  0.00     0.008 C 
HETATM   11  C1  UNL     1       9.380  35.146  34.005  1.00  0.00     0.012 C 
HETATM   12  C3  UNL     1      10.369  35.063  31.728  1.00  0.00     0.012 C 
ENDBRANCH   9  10
BRANCH   9  13
HETATM   13  O1  UNL     1      12.068  37.045  32.461  1.00  0.00    -0.393 OA
ATOM     14  H1  UNL     1      12.606  36.425  31.983  1.00  0.00     0.210 HD
ENDBRANCH   9  13
ENDBRANCH   1   9
TORSDOF 3
ENDMDL
MODEL 2
REMARK VINA RESULT: -5.724113701      1.506      4.260
REMARK  3 active torsions:
REMARK  status: ('A' for Active; 'I' for Inactive)
REMARK    1  A    between atoms: C2_2  and  C4_4 
REMARK    2  A    between atoms: C4_4  and  O1_5 
REMARK    3  A    between atoms: C4_4  and  C5_7 
ROOT
HETATM    1  C5  UNL     1      12.382  36.011  34.048  1.00  0.00     0.214 C 
HETATM    2  C6  UNL     1      11.420  35.124  34.806  1.00  0.00     0.036 C 
HETATM    3  C7  UNL     1      10.076  35.221  34.057  1.00  0.00     0.004 C 
HETATM    4  C8  UNL     1      10.373  35.305  32.555  1.00  0.00     0.027 C 
HETATM    5  C9  UNL     1      11.024  36.664  32.271  1.00  0.00     0.233 C 
HETATM    6  N1  UNL     1      11.545  37.118  33.552  1.00  0.00    -0.068 N 
ATOM      7  H11 UNL     1      12.033  38.012  33.503  1.00  0.00     0.277 HD
ATOM      8  H12 UNL     1      10.822  37.412  34.208  1.00  0.00     0.277 HD
ENDROOT
BRANCH   1   9
HETATM    9  C4  UNL     1      13.527  36.527  34.844  1.00  0.00     0.152 C 
BRANCH   9  10
HETATM   10  C2  UNL     1      14.047  35.580  35.880  1.00  0.00     0.008 C 
HETATM   11  C1  UNL     1      15.551  35.373  35.674  1.00  0.00     0.012 C 
HETATM   12  C3  UNL     1      13.766  35.972  37.293  1.00  0.00     0.012 C 
ENDBRANCH   9  10
BRANCH   9  13
HETATM   13  O1  UNL     1      13.232  37.779  35.352  1.00  0.00    -0.393 OA
ATOM     14  H1  UNL     1      12.674  38.292  34.779  1.00  0.00     0.210 HD
ENDBRANCH   9  13
ENDBRANCH   1   9
TORSDOF 3
ENDMDL
MODEL 3
REMARK VINA RESULT: -5.635103181      1.590      4.366
REMARK  3 active torsions:
REMARK  status: ('A' for Active; 'I' for Inactive)
REMARK    1  A    between atoms: C2_2  and  C4_4 
REMARK    2  A    between atoms: C4_4  and  O1_5 
REMARK    3  A    between atoms: C4_4  and  C5_7 
ROOT
HETATM    1  C5  UNL     1      11.923  36.079  34.502  1.00  0.00     0.214 C 
HETATM    2  C6  UNL     1      11.544  36.444  33.084  1.00  0.00     0.036 C 
HETATM    3  C7  UNL     1      10.388  35.499  32.698  1.00  0.00     0.004 C 
HETATM    4  C8  UNL     1       9.509  35.291  33.938  1.00  0.00     0.027 C 
HETATM    5  C9  UNL     1      10.305  34.464  34.956  1.00  0.00     0.233 C 
HETATM    6  N1  UNL     1      11.701  34.623  34.575  1.00  0.00    -0.068 N 
ATOM      7  H11 UNL     1      12.353  34.139  35.193  1.00  0.00     0.277 HD
ATOM      8  H12 UNL     1      11.953  34.126  33.721  1.00  0.00     0.277 HD
ENDROOT
BRANCH   1   9
HETATM    9  C4  UNL     1      13.315  36.423  34.891  1.00  0.00     0.152 C 
BRANCH   9  10
HETATM   10  C2  UNL     1      13.932  35.501  35.896  1.00  0.00     0.008 C 
HETATM   11  C1  UNL     1      15.447  35.441  35.673  1.00  0.00     0.012 C 
HETATM   12  C3  UNL     1      13.629  35.825  37.322  1.00  0.00     0.012 C 
ENDBRANCH   9  10
BRANCH   9  13
HETATM   13  O1  UNL     1      13.396  37.755  35.257  1.00  0.00    -0.393 OA
ATOM     14  H1  UNL     1      12.570  38.217  35.166  1.00  0.00     0.210 HD
ENDBRANCH   9  13
ENDBRANCH   1   9
TORSDOF 3
ENDMDL
MODEL 4
REMARK VINA RESULT: -5.140356739      1.574      4.364
REMARK  3 active torsions:
REMARK  status: ('A' for Active; 'I' for Inactive)
REMARK    1  A    between atoms: C2_2  and  C4_4 
REMARK    2  A    between atoms: C4_4  and  O1_5 
REMARK    3  A    between atoms: C4_4  and  C5_7 
ROOT
HETATM    1  C5  UNL     1      12.279  35.899  34.802  1.00  0.00     0.214 C 
HETATM    2  C6  UNL     1      11.697  36.192  33.437  1.00  0.00     0.036 C 
HETATM    3  C7  UNL     1      10.522  35.211  33.258  1.00  0.00     0.004 C 
HETATM    4  C8  UNL     1       9.830  35.044  34.616  1.00  0.00     0.027 C 
HETATM    5  C9  UNL     1      10.779  34.280  35.548  1.00  0.00     0.233 C 
HETATM    6  N1  UNL     1      12.104  34.445  34.969  1.00  0.00    -0.068 N 
ATOM      7  H11 UNL     1      12.847  34.002  35.509  1.00  0.00     0.277 HD
ATOM      8  H12 UNL     1      12.246  33.914  34.110  1.00  0.00     0.277 HD
ENDROOT
BRANCH   1   9
HETATM    9  C4  UNL     1      13.703  36.286  34.978  1.00  0.00     0.152 C 
BRANCH   9  10
HETATM   10  C2  UNL     1      14.097  36.605  36.386  1.00  0.00     0.008 C 
HETATM   11  C1  UNL     1      15.426  35.916  36.714  1.00  0.00     0.012 C 
HETATM   12  C3  UNL     1      14.174  38.061  36.707  1.00  0.00     0.012 C 
ENDBRANCH   9  10
BRANCH   9  13
HETATM   13  O1  UNL     1      14.044  37.282  34.080  1.00  0.00    -0.393 OA
ATOM     14  H1  UNL     1      13.392  37.411  33.402  1.00  0.00     0.210 HD
ENDBRANCH   9  13
ENDBRANCH   1   9
TORSDOF 3
ENDMDL
MODEL 5
REMARK VINA RESULT: -5.125066198      1.562      4.269
REMARK  3 active torsions:
REMARK  status: ('A' for Active; 'I' for Inactive)
REMARK    1  A    between atoms: C2_2  and  C4_4 
REMARK    2  A    between atoms: C4_4  and  O1_5 
REMARK    3  A    between atoms: C4_4  and  C5_7 
ROOT
HETATM    1  C5  UNL     1      12.423  35.857  34.951  1.00  0.00     0.214 C 
HETATM    2  C6  UNL     1      11.747  36.390  33.707  1.00  0.00     0.036 C 
HETATM    3  C7  UNL     1      10.572  35.434  33.422  1.00  0.00     0.004 C 
HETATM    4  C8  UNL     1       9.975  34.999  34.766  1.00  0.00     0.027 C 
HETATM    5  C9  UNL     1      10.992  34.094  35.472  1.00  0.00     0.233 C 
HETATM    6  N1  UNL     1      12.273  34.394  34.850  1.00  0.00    -0.068 N 
ATOM      7  H11 UNL     1      13.055  33.873  35.246  1.00  0.00     0.277 HD
ATOM      8  H12 UNL     1      12.361  34.037  33.898  1.00  0.00     0.277 HD
ENDROOT
BRANCH   1   9
HETATM    9  C4  UNL     1      13.852  36.235  35.104  1.00  0.00     0.152 C 
BRANCH   9  10
HETATM   10  C2  UNL     1      14.255  36.616  36.494  1.00  0.00     0.008 C 
HETATM   11  C1  UNL     1      14.080  38.127  36.681  1.00  0.00     0.012 C 
HETATM   12  C3  UNL     1      13.552  35.874  37.582  1.00  0.00     0.012 C 
ENDBRANCH   9  10
BRANCH   9  13
HETATM   13  O1  UNL     1      14.202  37.182  34.158  1.00  0.00    -0.393 OA
ATOM     14  H1  UNL     1      14.523  36.801  33.349  1.00  0.00     0.210 HD
ENDBRANCH   9  13
ENDBRANCH   1   9
TORSDOF 3
ENDMDL
