MODEL 1
REMARK VINA RESULT: -5.950161725      0.000      0.000
REMARK  2 active torsions:
REMARK  status: ('A' for Active; 'I' for Inactive)
REMARK    1  A    between atoms: C2_2  and  C4_4 
REMARK    2  A    between atoms: N1_5  and  C5_7 
ROOT
HETATM    1  C5  UNL     1      13.987  37.982  35.934  1.00  0.00     0.283 C 
HETATM    2  C6  UNL     1      13.676  38.180  37.404  1.00  0.00     0.056 C 
HETATM    3  C7  UNL     1      14.515  39.382  37.805  1.00  0.00     0.031 C 
HETATM    4  C8  UNL     1      15.467  39.514  36.641  1.00  0.00     0.235 C 
HETATM    5  N2  UNL     1      14.571  39.235  35.508  1.00  0.00    -0.054 N 
ATOM      6  H21 UNL     1      13.909  39.975  35.277  1.00  0.00     0.279 HD
ATOM      7  H22 UNL     1      15.013  39.225  34.589  1.00  0.00     0.279 HD
ENDROOT
BRANCH   1   8
HETATM    8  N1  UNL     1      12.895  37.554  35.168  1.00  0.00    -0.375 N 
HETATM    9  C4  UNL     1      12.664  36.403  34.712  1.00  0.00     0.061 C 
ATOM     10  H1  UNL     1      12.198  38.266  34.951  1.00  0.00     0.160 HD
BRANCH   9  11
HETATM   11  C2  UNL     1      11.409  36.213  33.915  1.00  0.00     0.015 C 
HETATM   12  C1  UNL     1      11.090  34.740  33.915  1.00  0.00     0.015 C 
HETATM   13  C3  UNL     1      11.549  36.776  32.526  1.00  0.00     0.015 C 
ENDBRANCH   9  11
ENDBRANCH   1   8
TORSDOF 2
ENDMDL
MODEL 2
REMARK VINA RESULT: -5.787762261      0.496      1.224
REMARK  2 active torsions:
REMARK  status: ('A' for Active; 'I' for Inactive)
REMARK    1  A    between atoms: C2_2  and  C4_4 
REMARK    2  A    between atoms: N1_5  and  C5_7 
ROOT
HETATM    1  C5  UNL     1      14.366  37.823  35.798  1.00  0.00     0.283 C 
HETATM    2  C6  UNL     1      13.712  38.011  37.152  1.00  0.00     0.056 C 
HETATM    3  C7  UNL     1      14.125  39.410  37.577  1.00  0.00     0.031 C 
HETATM    4  C8  UNL     1      15.241  39.724  36.609  1.00  0.00     0.235 C 
HETATM    5  N2  UNL     1      14.702  39.161  35.362  1.00  0.00    -0.054 N 
ATOM      6  H21 UNL     1      13.943  39.688  34.931  1.00  0.00     0.279 HD
ATOM      7  H22 UNL     1      15.317  39.218  34.551  1.00  0.00     0.279 HD
ENDROOT
BRANCH   1   8
HETATM    8  N1  UNL     1      13.601  37.084  34.887  1.00  0.00    -0.375 N 
HETATM    9  C4  UNL     1      12.447  36.605  35.043  1.00  0.00     0.061 C 
ATOM     10  H1  UNL     1      14.034  36.912  33.980  1.00  0.00     0.160 HD
BRANCH   9  11
HETATM   11  C2  UNL     1      11.850  35.849  33.896  1.00  0.00     0.015 C 
HETATM   12  C1  UNL     1      11.360  36.861  32.891  1.00  0.00     0.015 C 
HETATM   13  C3  UNL     1      10.760  34.918  34.357  1.00  0.00     0.015 C 
ENDBRANCH   9  11
ENDBRANCH   1   8
TORSDOF 2
ENDMDL
MODEL 3
REMARK VINA RESULT: -5.191906866      1.151      4.978
REMARK  2 active torsions:
REMARK  status: ('A' for Active; 'I' for Inactive)
REMARK    1  A    between atoms: C2_2  and  C4_4 
REMARK    2  A    between atoms: N1_5  and  C5_7 
ROOT
HETATM    1  C5  UNL     1      12.009  36.927  34.272  1.00  0.00     0.283 C 
HETATM    2  C6  UNL     1      11.528  35.514  34.530  1.00  0.00     0.056 C 
HETATM    3  C7  UNL     1      11.004  35.045  33.184  1.00  0.00     0.031 C 
HETATM    4  C8  UNL     1      10.910  36.335  32.407  1.00  0.00     0.235 C 
HETATM    5  N2  UNL     1      12.143  37.015  32.834  1.00  0.00    -0.054 N 
ATOM      6  H21 UNL     1      13.009  36.640  32.448  1.00  0.00     0.279 HD
ATOM      7  H22 UNL     1      12.281  37.954  32.461  1.00  0.00     0.279 HD
ENDROOT
BRANCH   1   8
HETATM    8  N1  UNL     1      13.157  37.286  34.990  1.00  0.00    -0.375 N 
HETATM    9  C4  UNL     1      13.245  38.033  35.999  1.00  0.00     0.061 C 
ATOM     10  H1  UNL     1      14.034  36.891  34.650  1.00  0.00     0.160 HD
BRANCH   9  11
HETATM   11  C2  UNL     1      14.609  38.253  36.581  1.00  0.00     0.015 C 
HETATM   12  C1  UNL     1      14.516  38.004  38.064  1.00  0.00     0.015 C 
HETATM   13  C3  UNL     1      15.131  39.627  36.256  1.00  0.00     0.015 C 
ENDBRANCH   9  11
ENDBRANCH   1   8
TORSDOF 2
ENDMDL
MODEL 4
REMARK VINA RESULT: -5.044707378      1.214      5.277
REMARK  2 active torsions:
REMARK  status: ('A' for Active; 'I' for Inactive)
REMARK    1  A    between atoms: C2_2  and  C4_4 
REMARK    2  A    between atoms: N1_5  and  C5_7 
ROOT
HETATM    1  C5  UNL     1      12.083  36.416  33.910  1.00  0.00     0.283 C 
HETATM    2  C6  UNL     1      11.350  36.994  32.716  1.00  0.00     0.056 C 
HETATM    3  C7  UNL     1      10.301  35.948  32.380  1.00  0.00     0.031 C 
HETATM    4  C8  UNL     1      10.773  34.751  33.170  1.00  0.00     0.235 C 
HETATM    5  N2  UNL     1      11.202  35.390  34.423  1.00  0.00    -0.054 N 
ATOM      6  H21 UNL     1      10.451  35.717  35.032  1.00  0.00     0.279 HD
ATOM      7  H22 UNL     1      11.610  34.766  35.119  1.00  0.00     0.279 HD
ENDROOT
BRANCH   1   8
HETATM    8  N1  UNL     1      12.486  37.369  34.855  1.00  0.00    -0.375 N 
HETATM    9  C4  UNL     1      13.546  37.396  35.533  1.00  0.00     0.061 C 
ATOM     10  H1  UNL     1      11.837  38.139  35.013  1.00  0.00     0.160 HD
BRANCH   9  11
HETATM   11  C2  UNL     1      13.731  38.541  36.482  1.00  0.00     0.015 C 
HETATM   12  C1  UNL     1      14.853  39.395  35.949  1.00  0.00     0.015 C 
HETATM   13  C3  UNL     1      13.989  38.058  37.885  1.00  0.00     0.015 C 
ENDBRANCH   9  11
ENDBRANCH   1   8
TORSDOF 2
ENDMDL
MODEL 5
REMARK VINA RESULT: -4.953781234      1.095      1.678
REMARK  2 active torsions:
REMARK  status: ('A' for Active; 'I' for Inactive)
REMARK    1  A    between atoms: C2_2  and  C4_4 
REMARK    2  A    between atoms: N1_5  and  C5_7 
ROOT
HETATM    1  C5  UNL     1      14.345  38.454  36.065  1.00  0.00     0.283 C 
HETATM    2  C6  UNL     1      15.519  37.893  36.843  1.00  0.00     0.056 C 
HETATM    3  C7  UNL     1      15.377  38.503  38.227  1.00  0.00     0.031 C 
HETATM    4  C8  UNL     1      14.370  39.603  37.992  1.00  0.00     0.235 C 
HETATM    5  N2  UNL     1      13.431  38.939  37.076  1.00  0.00    -0.054 N 
ATOM      6  H21 UNL     1      12.826  38.234  37.499  1.00  0.00     0.279 HD
ATOM      7  H22 UNL     1      12.663  39.517  36.735  1.00  0.00     0.279 HD
ENDROOT
BRANCH   1   8
HETATM    8  N1  UNL     1      13.782  37.558  35.148  1.00  0.00    -0.375 N 
HETATM    9  C4  UNL     1      12.671  36.969  35.213  1.00  0.00     0.061 C 
ATOM     10  H1  UNL     1      14.344  37.356  34.321  1.00  0.00     0.160 HD
BRANCH   9  11
HETATM   11  C2  UNL     1      12.305  36.054  34.084  1.00  0.00     0.015 C 
HETATM   12  C1  UNL     1      11.900  36.914  32.915  1.00  0.00     0.015 C 
HETATM   13  C3  UNL     1      11.227  35.083  34.489  1.00  0.00     0.015 C 
ENDBRANCH   9  11
ENDBRANCH   1   8
TORSDOF 2
ENDMDL
