MODEL 1
REMARK VINA RESULT: -4.763366840      0.000      0.000
REMARK  2 active torsions:
REMARK  status: ('A' for Active; 'I' for Inactive)
REMARK    1  A    between atoms: O1_2  and  N1_3 
REMARK    2  A    between atoms: N1_3  and  C2_5 
ROOT
HETATM    1  C2  UNL     1      15.566  40.335  38.007  1.00  0.00     0.110 C 
HETATM    2  C3  UNL     1      15.447  39.322  39.145  1.00  0.00     0.032 C 
HETATM    3  C4  UNL     1      14.946  38.125  38.324  1.00  0.00    -0.012 C 
HETATM    4  C5  UNL     1      13.743  38.488  37.526  1.00  0.00     0.005 C 
HETATM    5  C6  UNL     1      14.235  39.246  36.289  1.00  0.00     0.007 C 
HETATM    6  C7  UNL     1      15.657  39.575  36.738  1.00  0.00     0.010 C 
HETATM    7  C8  UNL     1      16.046  38.174  37.246  1.00  0.00     0.011 C 
ENDROOT
BRANCH   1   8
HETATM    8  N1  UNL     1      16.598  41.292  38.220  1.00  0.00    -0.298 N 
ATOM      9  H1  UNL     1      17.560  41.131  37.921  1.00  0.00     0.188 HD
BRANCH   8  10
HETATM   10  O1  UNL     1      16.225  42.408  38.834  1.00  0.00    -0.290 OA
HETATM   11  C1  UNL     1      16.995  42.519  40.004  1.00  0.00     0.237 C 
ENDBRANCH   8  10
ENDBRANCH   1   8
TORSDOF 2
ENDMDL
MODEL 2
REMARK VINA RESULT: -4.683749286      2.962      4.307
REMARK  2 active torsions:
REMARK  status: ('A' for Active; 'I' for Inactive)
REMARK    1  A    between atoms: O1_2  and  N1_3 
REMARK    2  A    between atoms: N1_3  and  C2_5 
ROOT
HETATM    1  C2  UNL     1      14.688  38.149  36.735  1.00  0.00     0.110 C 
HETATM    2  C3  UNL     1      13.863  39.136  37.561  1.00  0.00     0.032 C 
HETATM    3  C4  UNL     1      14.954  39.560  38.554  1.00  0.00    -0.012 C 
HETATM    4  C5  UNL     1      15.570  38.374  39.212  1.00  0.00     0.005 C 
HETATM    5  C6  UNL     1      16.576  37.781  38.221  1.00  0.00     0.007 C 
HETATM    6  C7  UNL     1      16.118  38.479  36.942  1.00  0.00     0.010 C 
HETATM    7  C8  UNL     1      16.027  39.909  37.504  1.00  0.00     0.011 C 
ENDROOT
BRANCH   1   8
HETATM    8  N1  UNL     1      14.270  38.076  35.376  1.00  0.00    -0.298 N 
ATOM      9  H1  UNL     1      14.925  38.161  34.599  1.00  0.00     0.188 HD
BRANCH   8  10
HETATM   10  O1  UNL     1      12.969  37.891  35.188  1.00  0.00    -0.290 OA
HETATM   11  C1  UNL     1      12.799  36.581  34.706  1.00  0.00     0.237 C 
ENDBRANCH   8  10
ENDBRANCH   1   8
TORSDOF 2
ENDMDL
MODEL 3
REMARK VINA RESULT: -4.660995605      2.610      3.995
REMARK  2 active torsions:
REMARK  status: ('A' for Active; 'I' for Inactive)
REMARK    1  A    between atoms: O1_2  and  N1_3 
REMARK    2  A    between atoms: N1_3  and  C2_5 
ROOT
HETATM    1  C2  UNL     1      15.084  39.193  36.642  1.00  0.00     0.110 C 
HETATM    2  C3  UNL     1      16.341  38.397  36.996  1.00  0.00     0.032 C 
HETATM    3  C4  UNL     1      16.246  38.502  38.524  1.00  0.00    -0.012 C 
HETATM    4  C5  UNL     1      16.120  39.921  38.958  1.00  0.00     0.005 C 
HETATM    5  C6  UNL     1      14.658  40.327  38.749  1.00  0.00     0.007 C 
HETATM    6  C7  UNL     1      14.204  39.192  37.834  1.00  0.00     0.010 C 
HETATM    7  C8  UNL     1      14.787  38.022  38.647  1.00  0.00     0.011 C 
ENDROOT
BRANCH   1   8
HETATM    8  N1  UNL     1      14.474  38.758  35.432  1.00  0.00    -0.298 N 
ATOM      9  H1  UNL     1      14.980  38.726  34.547  1.00  0.00     0.188 HD
BRANCH   8  10
HETATM   10  O1  UNL     1      13.200  38.398  35.532  1.00  0.00    -0.290 OA
HETATM   11  C1  UNL     1      13.105  37.070  35.083  1.00  0.00     0.237 C 
ENDBRANCH   8  10
ENDBRANCH   1   8
TORSDOF 2
ENDMDL
MODEL 4
REMARK VINA RESULT: -4.628581628      1.881      2.922
REMARK  2 active torsions:
REMARK  status: ('A' for Active; 'I' for Inactive)
REMARK    1  A    between atoms: O1_2  and  N1_3 
REMARK    2  A    between atoms: N1_3  and  C2_5 
ROOT
HETATM    1  C2  UNL     1      16.293  39.481  37.022  1.00  0.00     0.110 C 
HETATM    2  C3  UNL     1      14.902  39.463  36.388  1.00  0.00     0.032 C 
HETATM    3  C4  UNL     1      14.086  39.162  37.653  1.00  0.00    -0.012 C 
HETATM    4  C5  UNL     1      14.601  37.949  38.347  1.00  0.00     0.005 C 
HETATM    5  C6  UNL     1      15.841  38.375  39.138  1.00  0.00     0.007 C 
HETATM    6  C7  UNL     1      16.120  39.722  38.474  1.00  0.00     0.010 C 
HETATM    7  C8  UNL     1      14.687  40.281  38.525  1.00  0.00     0.011 C 
ENDROOT
BRANCH   1   8
HETATM    8  N1  UNL     1      17.194  40.364  36.360  1.00  0.00    -0.298 N 
ATOM      9  H1  UNL     1      16.880  41.043  35.668  1.00  0.00     0.188 HD
BRANCH   8  10
HETATM   10  O1  UNL     1      18.469  40.243  36.707  1.00  0.00    -0.290 OA
HETATM   11  C1  UNL     1      18.882  38.951  36.338  1.00  0.00     0.237 C 
ENDBRANCH   8  10
ENDBRANCH   1   8
TORSDOF 2
ENDMDL
MODEL 5
REMARK VINA RESULT: -4.584416408      3.058      4.372
REMARK  2 active torsions:
REMARK  status: ('A' for Active; 'I' for Inactive)
REMARK    1  A    between atoms: O1_2  and  N1_3 
REMARK    2  A    between atoms: N1_3  and  C2_5 
ROOT
HETATM    1  C2  UNL     1      14.808  38.353  36.472  1.00  0.00     0.110 C 
HETATM    2  C3  UNL     1      14.157  38.051  37.822  1.00  0.00     0.032 C 
HETATM    3  C4  UNL     1      15.063  38.921  38.705  1.00  0.00    -0.012 C 
HETATM    4  C5  UNL     1      16.499  38.594  38.485  1.00  0.00     0.005 C 
HETATM    5  C6  UNL     1      16.928  39.298  37.194  1.00  0.00     0.007 C 
HETATM    6  C7  UNL     1      15.555  39.626  36.611  1.00  0.00     0.010 C 
HETATM    7  C8  UNL     1      14.923  40.217  37.884  1.00  0.00     0.011 C 
ENDROOT
BRANCH   1   8
HETATM    8  N1  UNL     1      13.888  38.301  35.387  1.00  0.00    -0.298 N 
ATOM      9  H1  UNL     1      13.223  39.051  35.201  1.00  0.00     0.188 HD
BRANCH   8  10
HETATM   10  O1  UNL     1      13.955  37.210  34.634  1.00  0.00    -0.290 OA
HETATM   11  C1  UNL     1      12.704  36.575  34.706  1.00  0.00     0.237 C 
ENDBRANCH   8  10
ENDBRANCH   1   8
TORSDOF 2
ENDMDL
