MODEL 1
REMARK VINA RESULT: -5.441170862      0.000      0.000
REMARK  2 active torsions:
REMARK  status: ('A' for Active; 'I' for Inactive)
REMARK    1  A    between atoms: N1_4  and  N2_5 
REMARK    2  A    between atoms: N2_5  and  C4_7 
ROOT
HETATM    1  C1  UNL     1       9.851  35.430  33.289  1.00  0.00     0.002 C 
HETATM    2  C2  UNL     1      10.855  34.765  34.184  1.00  0.00     0.016 C 
HETATM    3  C3  UNL     1      11.986  35.654  34.589  1.00  0.00     0.113 C 
HETATM    4  N1  UNL     1      11.713  36.987  34.133  1.00  0.00    -0.235 NA
HETATM    5  C7  UNL     1      11.667  37.069  32.714  1.00  0.00     0.113 C 
HETATM    6  C8  UNL     1      10.446  36.301  32.238  1.00  0.00     0.016 C 
ENDROOT
BRANCH   4   7
HETATM    7  N2  UNL     1      12.384  37.978  34.781  1.00  0.00    -0.350 N 
ATOM      8  H2  UNL     1      12.161  38.964  34.642  1.00  0.00     0.174 HD
BRANCH   7   9
HETATM    9  C4  UNL     1      13.421  37.552  35.668  1.00  0.00     0.094 A 
HETATM   10  C5  UNL     1      14.392  38.666  36.061  1.00  0.00     0.028 A 
HETATM   11  C6  UNL     1      13.447  38.044  37.068  1.00  0.00     0.028 A 
ENDBRANCH   7   9
ENDBRANCH   4   7
TORSDOF 2
ENDMDL
MODEL 2
REMARK VINA RESULT: -5.250459108      1.289      2.351
REMARK  2 active torsions:
REMARK  status: ('A' for Active; 'I' for Inactive)
REMARK    1  A    between atoms: N1_4  and  N2_5 
REMARK    2  A    between atoms: N2_5  and  C4_7 
ROOT
HETATM    1  C1  UNL     1      10.011  34.657  31.347  1.00  0.00     0.002 C 
HETATM    2  C2  UNL     1      10.546  36.051  31.196  1.00  0.00     0.016 C 
HETATM    3  C3  UNL     1      11.030  36.655  32.475  1.00  0.00     0.113 C 
HETATM    4  N1  UNL     1      11.002  35.650  33.500  1.00  0.00    -0.235 NA
HETATM    5  C7  UNL     1       9.680  35.205  33.778  1.00  0.00     0.113 C 
HETATM    6  C8  UNL     1       9.175  34.448  32.561  1.00  0.00     0.016 C 
ENDROOT
BRANCH   4   7
HETATM    7  N2  UNL     1      11.806  35.885  34.573  1.00  0.00    -0.350 N 
ATOM      8  H2  UNL     1      11.835  35.256  35.375  1.00  0.00     0.174 HD
BRANCH   7   9
HETATM    9  C4  UNL     1      12.608  37.068  34.505  1.00  0.00     0.094 A 
HETATM   10  C5  UNL     1      13.296  37.421  35.823  1.00  0.00     0.028 A 
HETATM   11  C6  UNL     1      14.084  36.969  34.611  1.00  0.00     0.028 A 
ENDBRANCH   7   9
ENDBRANCH   4   7
TORSDOF 2
ENDMDL
MODEL 3
REMARK VINA RESULT: -4.540460898      1.619      5.196
REMARK  2 active torsions:
REMARK  status: ('A' for Active; 'I' for Inactive)
REMARK    1  A    between atoms: N1_4  and  N2_5 
REMARK    2  A    between atoms: N2_5  and  C4_7 
ROOT
HETATM    1  C1  UNL     1      16.294  38.355  37.625  1.00  0.00     0.002 C 
HETATM    2  C2  UNL     1      15.098  37.950  38.436  1.00  0.00     0.016 C 
HETATM    3  C3  UNL     1      13.804  38.048  37.696  1.00  0.00     0.113 C 
HETATM    4  N1  UNL     1      14.079  38.355  36.321  1.00  0.00    -0.235 NA
HETATM    5  C7  UNL     1      14.690  39.630  36.170  1.00  0.00     0.113 C 
HETATM    6  C8  UNL     1      16.081  39.560  36.777  1.00  0.00     0.016 C 
ENDROOT
BRANCH   4   7
HETATM    7  N2  UNL     1      13.090  38.042  35.441  1.00  0.00    -0.350 N 
ATOM      8  H2  UNL     1      12.271  38.636  35.313  1.00  0.00     0.174 HD
BRANCH   7   9
HETATM    9  C4  UNL     1      13.270  36.829  34.704  1.00  0.00     0.094 A 
HETATM   10  C5  UNL     1      12.054  35.905  34.733  1.00  0.00     0.028 A 
HETATM   11  C6  UNL     1      12.496  36.596  33.461  1.00  0.00     0.028 A 
ENDBRANCH   7   9
ENDBRANCH   4   7
TORSDOF 2
ENDMDL
MODEL 4
REMARK VINA RESULT: -4.476552827      2.123      5.781
REMARK  2 active torsions:
REMARK  status: ('A' for Active; 'I' for Inactive)
REMARK    1  A    between atoms: N1_4  and  N2_5 
REMARK    2  A    between atoms: N2_5  and  C4_7 
ROOT
HETATM    1  C1  UNL     1      15.202  40.546  38.619  1.00  0.00     0.002 C 
HETATM    2  C2  UNL     1      15.762  40.836  37.259  1.00  0.00     0.016 C 
HETATM    3  C3  UNL     1      15.220  39.956  36.180  1.00  0.00     0.113 C 
HETATM    4  N1  UNL     1      14.159  39.157  36.725  1.00  0.00    -0.235 NA
HETATM    5  C7  UNL     1      14.623  38.267  37.732  1.00  0.00     0.113 C 
HETATM    6  C8  UNL     1      15.059  39.096  38.928  1.00  0.00     0.016 C 
ENDROOT
BRANCH   4   7
HETATM    7  N2  UNL     1      13.281  38.650  35.818  1.00  0.00    -0.350 N 
ATOM      8  H2  UNL     1      12.583  39.232  35.355  1.00  0.00     0.174 HD
BRANCH   7   9
HETATM    9  C4  UNL     1      13.397  37.249  35.552  1.00  0.00     0.094 A 
HETATM   10  C5  UNL     1      12.349  36.718  34.574  1.00  0.00     0.028 A 
HETATM   11  C6  UNL     1      13.817  36.782  34.208  1.00  0.00     0.028 A 
ENDBRANCH   7   9
ENDBRANCH   4   7
TORSDOF 2
ENDMDL
MODEL 5
REMARK VINA RESULT: -4.242575403      3.626      6.981
REMARK  2 active torsions:
REMARK  status: ('A' for Active; 'I' for Inactive)
REMARK    1  A    between atoms: N1_4  and  N2_5 
REMARK    2  A    between atoms: N2_5  and  C4_7 
ROOT
HETATM    1  C1  UNL     1      17.549  39.990  39.214  1.00  0.00     0.002 C 
HETATM    2  C2  UNL     1      16.531  41.076  39.024  1.00  0.00     0.016 C 
HETATM    3  C3  UNL     1      15.855  41.045  37.692  1.00  0.00     0.113 C 
HETATM    4  N1  UNL     1      16.256  39.855  36.997  1.00  0.00    -0.235 NA
HETATM    5  C7  UNL     1      17.648  39.848  36.706  1.00  0.00     0.113 C 
HETATM    6  C8  UNL     1      18.401  39.733  38.021  1.00  0.00     0.016 C 
ENDROOT
BRANCH   4   7
HETATM    7  N2  UNL     1      15.421  39.447  36.003  1.00  0.00    -0.350 N 
ATOM      8  H2  UNL     1      15.736  39.348  35.038  1.00  0.00     0.174 HD
BRANCH   7   9
HETATM    9  C4  UNL     1      14.075  39.165  36.394  1.00  0.00     0.094 A 
HETATM   10  C5  UNL     1      13.562  37.812  35.903  1.00  0.00     0.028 A 
HETATM   11  C6  UNL     1      13.799  38.086  37.374  1.00  0.00     0.028 A 
ENDBRANCH   7   9
ENDBRANCH   4   7
TORSDOF 2
ENDMDL
