MODEL 1
REMARK VINA RESULT: -9.887199679      0.000      0.000
REMARK  12 active torsions:
REMARK  status: ('A' for Active; 'I' for Inactive)
REMARK    1  A    between atoms: C3_3  and  O1_4 
REMARK    2  A    between atoms: C7_10  and  C8_11 
REMARK    3  A    between atoms: C7_10  and  N2_21 
REMARK    4  A    between atoms: C8_11  and  C9_12 
REMARK       I    between atoms: C9_12  and  N1_14 
REMARK    5  A    between atoms: N2_21  and  C16_22 
REMARK    6  A    between atoms: C16_22  and  C17_23 
REMARK    7  A    between atoms: C19_25  and  C20_26 
REMARK    8  A    between atoms: C20_26  and  C21_27 
REMARK    9  A    between atoms: C21_27  and  N3_28 
REMARK   10  A    between atoms: N3_28  and  C22_30 
REMARK   11  A    between atoms: C22_30  and  O4_32 
REMARK   12  A    between atoms: O4_32  and  C23_33 
ROOT
HETATM    1  C1  UNL     1       9.475  25.953   4.908  1.00  0.00     0.100 C 
HETATM    2  C2  UNL     1      10.498  25.265   4.878  1.00  0.00    -0.145 C 
HETATM    3  C3  UNL     1      11.723  24.493   4.784  1.00  0.00     0.160 C 
HETATM    4  C4  UNL     1      11.799  24.014   3.378  1.00  0.00     0.221 C 
HETATM    5  O2  UNL     1      10.852  23.093   3.139  1.00  0.00    -0.387 OA
HETATM    6  C5  UNL     1      10.348  22.394   4.180  1.00  0.00     0.170 C 
HETATM    7  C6  UNL     1      11.205  22.235   5.363  1.00  0.00     0.066 C 
HETATM    8  C7  UNL     1      11.988  23.467   5.816  1.00  0.00     0.104 C 
ENDROOT
BRANCH   3   9
HETATM    9  O1  UNL     1      12.714  25.558   4.932  1.00  0.00    -0.373 OA
ATOM     10  H1  UNL     1      13.308  25.152   5.552  1.00  0.00     0.212 HD
ENDBRANCH   3   9
BRANCH   8  11
HETATM   11  C8  UNL     1      11.569  23.875   7.172  1.00  0.00     0.083 C 
BRANCH  11  12
HETATM   12  C9  UNL     1      10.210  23.896   7.644  1.00  0.00     0.242 C 
HETATM   13  O3  UNL     1       9.404  22.961   7.586  1.00  0.00    -0.269 OA
HETATM   14  N1  UNL     1       9.707  25.102   8.249  1.00  0.00    -0.349 N 
HETATM   15  C10 UNL     1       8.327  25.023   8.689  1.00  0.00     0.126 C 
HETATM   16  C15 UNL     1      10.601  26.236   8.359  1.00  0.00     0.126 C 
HETATM   17  C11 UNL     1       7.509  26.098   7.972  1.00  0.00     0.020 C 
HETATM   18  C12 UNL     1       7.569  27.330   8.860  1.00  0.00     0.002 C 
HETATM   19  C13 UNL     1       8.925  27.984   8.685  1.00  0.00     0.002 C 
HETATM   20  C14 UNL     1      10.019  27.209   9.380  1.00  0.00     0.020 C 
ENDBRANCH  11  12
ENDBRANCH   8  11
BRANCH   8  21
HETATM   21  N2  UNL     1      13.390  23.075   5.863  1.00  0.00    -0.356 N 
HETATM   22  C19 UNL     1      14.085  22.874   7.014  1.00  0.00     0.069 C 
BRANCH  21  23
HETATM   23  C16 UNL     1      14.121  23.152   4.691  1.00  0.00     0.064 C 
BRANCH  23  24
HETATM   24  C17 UNL     1      15.011  21.985   4.345  1.00  0.00     0.040 C 
HETATM   25  C18 UNL     1      14.259  21.058   3.345  1.00  0.00     0.010 C 
ENDBRANCH  23  24
ENDBRANCH  21  23
BRANCH  22  26
HETATM   26  C20 UNL     1      13.977  21.751   7.963  1.00  0.00     0.089 C 
BRANCH  26  27
HETATM   27  C21 UNL     1      15.260  21.154   8.487  1.00  0.00     0.069 C 
BRANCH  27  28
HETATM   28  N3  UNL     1      16.377  21.200   7.634  1.00  0.00    -0.341 N 
ATOM     29  H3  UNL     1      16.613  22.058   7.137  1.00  0.00     0.167 HD
BRANCH  28  30
HETATM   30  C22 UNL     1      17.184  20.013   7.475  1.00  0.00     0.214 C 
HETATM   31  S1  UNL     1      17.550  19.527   5.963  1.00  0.00    -0.033 SA
BRANCH  30  32
HETATM   32  O4  UNL     1      17.640  19.301   8.549  1.00  0.00    -0.321 OA
BRANCH  32  33
HETATM   33  C23 UNL     1      17.313  18.032   8.983  1.00  0.00     0.139 C 
HETATM   34  C24 UNL     1      16.463  18.216  10.252  1.00  0.00     0.016 C 
HETATM   35  C25 UNL     1      15.846  16.918  10.686  1.00  0.00     0.012 C 
HETATM   36  C29 UNL     1      17.331  18.826  11.316  1.00  0.00     0.012 C 
HETATM   37  C26 UNL     1      16.983  15.986  11.040  1.00  0.00    -0.013 C 
HETATM   38  C27 UNL     1      17.754  16.577  12.201  1.00  0.00     0.009 C 
HETATM   39  C32 UNL     1      17.829  15.803   9.824  1.00  0.00     0.012 C 
HETATM   40  C28 UNL     1      18.405  17.845  11.748  1.00  0.00    -0.013 C 
HETATM   41  C30 UNL     1      19.273  17.621  10.518  1.00  0.00     0.012 C 
HETATM   42  C31 UNL     1      18.439  17.134   9.364  1.00  0.00     0.016 C 
ENDBRANCH  32  33
ENDBRANCH  30  32
ENDBRANCH  28  30
ENDBRANCH  27  28
ENDBRANCH  26  27
ENDBRANCH  22  26
ENDBRANCH   8  21
TORSDOF 12
ENDMDL
MODEL 2
REMARK VINA RESULT: -9.617143858      0.928      1.304
REMARK  12 active torsions:
REMARK  status: ('A' for Active; 'I' for Inactive)
REMARK    1  A    between atoms: C3_3  and  O1_4 
REMARK    2  A    between atoms: C7_10  and  C8_11 
REMARK    3  A    between atoms: C7_10  and  N2_21 
REMARK    4  A    between atoms: C8_11  and  C9_12 
REMARK       I    between atoms: C9_12  and  N1_14 
REMARK    5  A    between atoms: N2_21  and  C16_22 
REMARK    6  A    between atoms: C16_22  and  C17_23 
REMARK    7  A    between atoms: C19_25  and  C20_26 
REMARK    8  A    between atoms: C20_26  and  C21_27 
REMARK    9  A    between atoms: C21_27  and  N3_28 
REMARK   10  A    between atoms: N3_28  and  C22_30 
REMARK   11  A    between atoms: C22_30  and  O4_32 
REMARK   12  A    between atoms: O4_32  and  C23_33 
ROOT
HETATM    1  C1  UNL     1       9.501  26.247   5.019  1.00  0.00     0.100 C 
HETATM    2  C2  UNL     1      10.424  25.456   4.810  1.00  0.00    -0.145 C 
HETATM    3  C3  UNL     1      11.531  24.567   4.507  1.00  0.00     0.160 C 
HETATM    4  C4  UNL     1      11.416  24.248   3.059  1.00  0.00     0.221 C 
HETATM    5  O2  UNL     1      10.345  23.473   2.828  1.00  0.00    -0.387 OA
HETATM    6  C5  UNL     1       9.858  22.720   3.839  1.00  0.00     0.170 C 
HETATM    7  C6  UNL     1      10.795  22.330   4.901  1.00  0.00     0.066 C 
HETATM    8  C7  UNL     1      11.762  23.407   5.394  1.00  0.00     0.104 C 
ENDROOT
BRANCH   3   9
HETATM    9  O1  UNL     1      12.655  25.491   4.659  1.00  0.00    -0.373 OA
ATOM     10  H1  UNL     1      12.431  25.895   5.489  1.00  0.00     0.212 HD
ENDBRANCH   3   9
BRANCH   8  11
HETATM   11  C8  UNL     1      11.525  23.699   6.821  1.00  0.00     0.083 C 
BRANCH  11  12
HETATM   12  C9  UNL     1      10.231  23.750   7.449  1.00  0.00     0.242 C 
HETATM   13  O3  UNL     1       9.391  22.843   7.462  1.00  0.00    -0.269 OA
HETATM   14  N1  UNL     1       9.844  24.954   8.138  1.00  0.00    -0.349 N 
HETATM   15  C10 UNL     1       8.522  24.906   8.734  1.00  0.00     0.126 C 
HETATM   16  C15 UNL     1      10.783  26.055   8.171  1.00  0.00     0.126 C 
HETATM   17  C11 UNL     1       7.664  26.027   8.144  1.00  0.00     0.020 C 
HETATM   18  C12 UNL     1       7.870  27.231   9.049  1.00  0.00     0.002 C 
HETATM   19  C13 UNL     1       9.218  27.845   8.734  1.00  0.00     0.002 C 
HETATM   20  C14 UNL     1      10.358  27.016   9.277  1.00  0.00     0.020 C 
ENDBRANCH  11  12
ENDBRANCH   8  11
BRANCH   8  21
HETATM   21  N2  UNL     1      13.103  22.856   5.251  1.00  0.00    -0.356 N 
HETATM   22  C19 UNL     1      14.132  23.131   6.097  1.00  0.00     0.069 C 
BRANCH  21  23
HETATM   23  C16 UNL     1      13.418  22.223   4.062  1.00  0.00     0.064 C 
BRANCH  23  24
HETATM   24  C17 UNL     1      14.717  21.462   3.999  1.00  0.00     0.040 C 
HETATM   25  C18 UNL     1      14.413  19.938   4.108  1.00  0.00     0.010 C 
ENDBRANCH  23  24
ENDBRANCH  21  23
BRANCH  22  26
HETATM   26  C20 UNL     1      14.332  22.655   7.477  1.00  0.00     0.089 C 
BRANCH  26  27
HETATM   27  C21 UNL     1      14.492  21.168   7.686  1.00  0.00     0.069 C 
BRANCH  27  28
HETATM   28  N3  UNL     1      14.973  20.751   8.939  1.00  0.00    -0.341 N 
ATOM     29  H3  UNL     1      14.403  20.864   9.777  1.00  0.00     0.167 HD
BRANCH  28  30
HETATM   30  C22 UNL     1      16.288  20.159   9.021  1.00  0.00     0.214 C 
HETATM   31  S1  UNL     1      17.521  20.911   8.265  1.00  0.00    -0.033 SA
BRANCH  30  32
HETATM   32  O4  UNL     1      16.517  19.001   9.710  1.00  0.00    -0.321 OA
BRANCH  32  33
HETATM   33  C23 UNL     1      17.560  18.101   9.622  1.00  0.00     0.139 C 
HETATM   34  C24 UNL     1      16.923  16.701   9.624  1.00  0.00     0.016 C 
HETATM   35  C25 UNL     1      17.935  15.643   9.294  1.00  0.00     0.012 C 
HETATM   36  C29 UNL     1      16.274  16.480  10.961  1.00  0.00     0.012 C 
HETATM   37  C26 UNL     1      18.971  15.664  10.395  1.00  0.00    -0.013 C 
HETATM   38  C27 UNL     1      18.299  15.310  11.704  1.00  0.00     0.009 C 
HETATM   39  C32 UNL     1      19.595  17.021  10.420  1.00  0.00     0.012 C 
HETATM   40  C28 UNL     1      17.326  16.392  12.050  1.00  0.00    -0.013 C 
HETATM   41  C30 UNL     1      17.995  17.759  12.084  1.00  0.00     0.012 C 
HETATM   42  C31 UNL     1      18.555  18.106  10.731  1.00  0.00     0.016 C 
ENDBRANCH  32  33
ENDBRANCH  30  32
ENDBRANCH  28  30
ENDBRANCH  27  28
ENDBRANCH  26  27
ENDBRANCH  22  26
ENDBRANCH   8  21
TORSDOF 12
ENDMDL
MODEL 3
REMARK VINA RESULT: -8.900390272      2.497      4.760
REMARK  12 active torsions:
REMARK  status: ('A' for Active; 'I' for Inactive)
REMARK    1  A    between atoms: C3_3  and  O1_4 
REMARK    2  A    between atoms: C7_10  and  C8_11 
REMARK    3  A    between atoms: C7_10  and  N2_21 
REMARK    4  A    between atoms: C8_11  and  C9_12 
REMARK       I    between atoms: C9_12  and  N1_14 
REMARK    5  A    between atoms: N2_21  and  C16_22 
REMARK    6  A    between atoms: C16_22  and  C17_23 
REMARK    7  A    between atoms: C19_25  and  C20_26 
REMARK    8  A    between atoms: C20_26  and  C21_27 
REMARK    9  A    between atoms: C21_27  and  N3_28 
REMARK   10  A    between atoms: N3_28  and  C22_30 
REMARK   11  A    between atoms: C22_30  and  O4_32 
REMARK   12  A    between atoms: O4_32  and  C23_33 
ROOT
HETATM    1  C1  UNL     1      14.221  21.459  10.380  1.00  0.00     0.100 C 
HETATM    2  C2  UNL     1      14.729  21.142   9.302  1.00  0.00    -0.145 C 
HETATM    3  C3  UNL     1      15.376  20.728   8.071  1.00  0.00     0.160 C 
HETATM    4  C4  UNL     1      16.826  20.998   8.259  1.00  0.00     0.221 C 
HETATM    5  O2  UNL     1      17.063  22.319   8.285  1.00  0.00    -0.387 OA
HETATM    6  C5  UNL     1      16.181  23.149   7.685  1.00  0.00     0.170 C 
HETATM    7  C6  UNL     1      15.377  22.598   6.586  1.00  0.00     0.066 C 
HETATM    8  C7  UNL     1      14.807  21.194   6.788  1.00  0.00     0.104 C 
ENDROOT
BRANCH   3   9
HETATM    9  O1  UNL     1      15.191  19.279   8.155  1.00  0.00    -0.373 OA
ATOM     10  H1  UNL     1      15.543  19.015   7.312  1.00  0.00     0.212 HD
ENDBRANCH   3   9
BRANCH   8  11
HETATM   11  C8  UNL     1      13.331  21.229   6.776  1.00  0.00     0.083 C 
BRANCH  11  12
HETATM   12  C9  UNL     1      12.533  22.411   6.971  1.00  0.00     0.242 C 
HETATM   13  O3  UNL     1      12.302  22.964   8.052  1.00  0.00    -0.269 OA
HETATM   14  N1  UNL     1      11.931  23.036   5.821  1.00  0.00    -0.349 N 
HETATM   15  C10 UNL     1      11.145  24.217   6.124  1.00  0.00     0.126 C 
HETATM   16  C15 UNL     1      12.167  22.446   4.521  1.00  0.00     0.126 C 
HETATM   17  C11 UNL     1       9.707  23.998   5.648  1.00  0.00     0.020 C 
HETATM   18  C12 UNL     1       9.659  24.508   4.217  1.00  0.00     0.002 C 
HETATM   19  C13 UNL     1      10.309  23.479   3.316  1.00  0.00     0.002 C 
HETATM   20  C14 UNL     1      11.813  23.478   3.454  1.00  0.00     0.020 C 
ENDBRANCH  11  12
ENDBRANCH   8  11
BRANCH   8  21
HETATM   21  N2  UNL     1      15.259  20.396   5.656  1.00  0.00    -0.356 N 
HETATM   22  C19 UNL     1      16.546  20.358   5.218  1.00  0.00     0.069 C 
BRANCH  21  23
HETATM   23  C16 UNL     1      14.297  19.843   4.831  1.00  0.00     0.064 C 
BRANCH  23  24
HETATM   24  C17 UNL     1      14.726  19.401   3.455  1.00  0.00     0.040 C 
HETATM   25  C18 UNL     1      14.711  17.845   3.398  1.00  0.00     0.010 C 
ENDBRANCH  23  24
ENDBRANCH  21  23
BRANCH  22  26
HETATM   26  C20 UNL     1      17.707  19.706   5.848  1.00  0.00     0.089 C 
BRANCH  26  27
HETATM   27  C21 UNL     1      18.121  18.354   5.317  1.00  0.00     0.069 C 
BRANCH  27  28
HETATM   28  N3  UNL     1      17.482  17.231   5.870  1.00  0.00    -0.341 N 
ATOM     29  H3  UNL     1      16.556  16.952   5.547  1.00  0.00     0.167 HD
BRANCH  28  30
HETATM   30  C22 UNL     1      18.157  16.479   6.901  1.00  0.00     0.214 C 
HETATM   31  S1  UNL     1      19.453  15.585   6.480  1.00  0.00    -0.033 SA
BRANCH  30  32
HETATM   32  O4  UNL     1      17.739  16.501   8.202  1.00  0.00    -0.321 OA
BRANCH  32  33
HETATM   33  C23 UNL     1      18.052  17.373   9.226  1.00  0.00     0.139 C 
HETATM   34  C24 UNL     1      19.119  16.669  10.081  1.00  0.00     0.016 C 
HETATM   35  C25 UNL     1      19.715  17.608  11.089  1.00  0.00     0.012 C 
HETATM   36  C29 UNL     1      18.491  15.462  10.719  1.00  0.00     0.012 C 
HETATM   37  C26 UNL     1      18.598  18.023  12.019  1.00  0.00    -0.013 C 
HETATM   38  C27 UNL     1      18.080  16.796  12.737  1.00  0.00     0.009 C 
HETATM   39  C32 UNL     1      17.544  18.700  11.207  1.00  0.00     0.012 C 
HETATM   40  C28 UNL     1      17.446  15.886  11.734  1.00  0.00    -0.013 C 
HETATM   41  C30 UNL     1      16.365  16.600  10.934  1.00  0.00     0.012 C 
HETATM   42  C31 UNL     1      16.952  17.748  10.158  1.00  0.00     0.016 C 
ENDBRANCH  32  33
ENDBRANCH  30  32
ENDBRANCH  28  30
ENDBRANCH  27  28
ENDBRANCH  26  27
ENDBRANCH  22  26
ENDBRANCH   8  21
TORSDOF 12
ENDMDL
MODEL 4
REMARK VINA RESULT: -8.877398521      3.205      5.395
REMARK  12 active torsions:
REMARK  status: ('A' for Active; 'I' for Inactive)
REMARK    1  A    between atoms: C3_3  and  O1_4 
REMARK    2  A    between atoms: C7_10  and  C8_11 
REMARK    3  A    between atoms: C7_10  and  N2_21 
REMARK    4  A    between atoms: C8_11  and  C9_12 
REMARK       I    between atoms: C9_12  and  N1_14 
REMARK    5  A    between atoms: N2_21  and  C16_22 
REMARK    6  A    between atoms: C16_22  and  C17_23 
REMARK    7  A    between atoms: C19_25  and  C20_26 
REMARK    8  A    between atoms: C20_26  and  C21_27 
REMARK    9  A    between atoms: C21_27  and  N3_28 
REMARK   10  A    between atoms: N3_28  and  C22_30 
REMARK   11  A    between atoms: C22_30  and  O4_32 
REMARK   12  A    between atoms: O4_32  and  C23_33 
ROOT
HETATM    1  C1  UNL     1      10.758  24.787   2.168  1.00  0.00     0.100 C 
HETATM    2  C2  UNL     1      11.169  24.610   3.316  1.00  0.00    -0.145 C 
HETATM    3  C3  UNL     1      11.712  24.443   4.652  1.00  0.00     0.160 C 
HETATM    4  C4  UNL     1      13.124  24.012   4.471  1.00  0.00     0.221 C 
HETATM    5  O2  UNL     1      13.180  22.767   3.974  1.00  0.00    -0.387 OA
HETATM    6  C5  UNL     1      12.126  21.943   4.168  1.00  0.00     0.170 C 
HETATM    7  C6  UNL     1      11.277  22.198   5.339  1.00  0.00     0.066 C 
HETATM    8  C7  UNL     1      10.933  23.658   5.634  1.00  0.00     0.104 C 
ENDROOT
BRANCH   3   9
HETATM    9  O1  UNL     1      11.739  25.836   5.098  1.00  0.00    -0.373 OA
ATOM     10  H1  UNL     1      12.566  25.849   5.564  1.00  0.00     0.212 HD
ENDBRANCH   3   9
BRANCH   8  11
HETATM   11  C8  UNL     1       9.476  23.874   5.538  1.00  0.00     0.083 C 
BRANCH  11  12
HETATM   12  C9  UNL     1       8.848  25.125   5.200  1.00  0.00     0.242 C 
HETATM   13  O3  UNL     1       9.080  26.221   5.722  1.00  0.00    -0.269 OA
HETATM   14  N1  UNL     1       7.852  25.139   4.160  1.00  0.00    -0.349 N 
HETATM   15  C10 UNL     1       7.278  26.445   3.897  1.00  0.00     0.126 C 
HETATM   16  C15 UNL     1       7.536  23.891   3.499  1.00  0.00     0.126 C 
HETATM   17  C11 UNL     1       5.765  26.382   4.120  1.00  0.00     0.020 C 
HETATM   18  C12 UNL     1       5.161  26.007   2.776  1.00  0.00     0.002 C 
HETATM   19  C13 UNL     1       5.375  24.525   2.549  1.00  0.00     0.002 C 
HETATM   20  C14 UNL     1       6.809  24.209   2.195  1.00  0.00     0.020 C 
ENDBRANCH  11  12
ENDBRANCH   8  11
BRANCH   8  21
HETATM   21  N2  UNL     1      11.349  23.913   7.006  1.00  0.00    -0.356 N 
HETATM   22  C19 UNL     1      12.286  23.181   7.666  1.00  0.00     0.069 C 
BRANCH  21  23
HETATM   23  C16 UNL     1      10.581  24.781   7.762  1.00  0.00     0.064 C 
BRANCH  23  24
HETATM   24  C17 UNL     1      11.296  25.880   8.506  1.00  0.00     0.040 C 
HETATM   25  C18 UNL     1      10.240  26.878   9.068  1.00  0.00     0.010 C 
ENDBRANCH  23  24
ENDBRANCH  21  23
BRANCH  22  26
HETATM   26  C20 UNL     1      13.746  23.174   7.468  1.00  0.00     0.089 C 
BRANCH  26  27
HETATM   27  C21 UNL     1      14.399  21.852   7.148  1.00  0.00     0.069 C 
BRANCH  27  28
HETATM   28  N3  UNL     1      15.666  21.900   6.540  1.00  0.00    -0.341 N 
ATOM     29  H3  UNL     1      15.951  22.717   6.000  1.00  0.00     0.167 HD
BRANCH  28  30
HETATM   30  C22 UNL     1      16.558  20.774   6.693  1.00  0.00     0.214 C 
HETATM   31  S1  UNL     1      17.611  20.787   7.937  1.00  0.00    -0.033 SA
BRANCH  30  32
HETATM   32  O4  UNL     1      16.537  19.714   5.830  1.00  0.00    -0.321 OA
BRANCH  32  33
HETATM   33  C23 UNL     1      16.530  19.686   4.449  1.00  0.00     0.139 C 
HETATM   34  C24 UNL     1      15.071  19.915   4.021  1.00  0.00     0.016 C 
HETATM   35  C25 UNL     1      14.968  20.144   2.541  1.00  0.00     0.012 C 
HETATM   36  C29 UNL     1      14.255  18.740   4.480  1.00  0.00     0.012 C 
HETATM   37  C26 UNL     1      15.440  18.876   1.865  1.00  0.00    -0.013 C 
HETATM   38  C27 UNL     1      14.514  17.744   2.253  1.00  0.00     0.009 C 
HETATM   39  C32 UNL     1      16.853  18.628   2.277  1.00  0.00     0.012 C 
HETATM   40  C28 UNL     1      14.656  17.490   3.720  1.00  0.00    -0.013 C 
HETATM   41  C30 UNL     1      16.104  17.224   4.105  1.00  0.00     0.012 C 
HETATM   42  C31 UNL     1      16.962  18.420   3.794  1.00  0.00     0.016 C 
ENDBRANCH  32  33
ENDBRANCH  30  32
ENDBRANCH  28  30
ENDBRANCH  27  28
ENDBRANCH  26  27
ENDBRANCH  22  26
ENDBRANCH   8  21
TORSDOF 12
ENDMDL
MODEL 5
REMARK VINA RESULT: -8.871982407      3.427     10.489
REMARK  12 active torsions:
REMARK  status: ('A' for Active; 'I' for Inactive)
REMARK    1  A    between atoms: C3_3  and  O1_4 
REMARK    2  A    between atoms: C7_10  and  C8_11 
REMARK    3  A    between atoms: C7_10  and  N2_21 
REMARK    4  A    between atoms: C8_11  and  C9_12 
REMARK       I    between atoms: C9_12  and  N1_14 
REMARK    5  A    between atoms: N2_21  and  C16_22 
REMARK    6  A    between atoms: C16_22  and  C17_23 
REMARK    7  A    between atoms: C19_25  and  C20_26 
REMARK    8  A    between atoms: C20_26  and  C21_27 
REMARK    9  A    between atoms: C21_27  and  N3_28 
REMARK   10  A    between atoms: N3_28  and  C22_30 
REMARK   11  A    between atoms: C22_30  and  O4_32 
REMARK   12  A    between atoms: O4_32  and  C23_33 
ROOT
HETATM    1  C1  UNL     1      18.270  21.727   8.544  1.00  0.00     0.100 C 
HETATM    2  C2  UNL     1      17.122  21.968   8.164  1.00  0.00    -0.145 C 
HETATM    3  C3  UNL     1      15.768  22.307   7.765  1.00  0.00     0.160 C 
HETATM    4  C4  UNL     1      14.975  22.374   9.021  1.00  0.00     0.221 C 
HETATM    5  O2  UNL     1      14.826  21.151   9.554  1.00  0.00    -0.387 OA
HETATM    6  C5  UNL     1      14.925  20.074   8.744  1.00  0.00     0.170 C 
HETATM    7  C6  UNL     1      14.608  20.267   7.322  1.00  0.00     0.066 C 
HETATM    8  C7  UNL     1      15.147  21.538   6.665  1.00  0.00     0.104 C 
ENDROOT
BRANCH   3   9
HETATM    9  O1  UNL     1      15.969  23.682   7.307  1.00  0.00    -0.373 OA
ATOM     10  H1  UNL     1      15.964  24.140   8.139  1.00  0.00     0.212 HD
ENDBRANCH   3   9
BRANCH   8  11
HETATM   11  C8  UNL     1      16.088  21.199   5.579  1.00  0.00     0.083 C 
BRANCH  11  12
HETATM   12  C9  UNL     1      16.691  19.907   5.384  1.00  0.00     0.242 C 
HETATM   13  O3  UNL     1      17.521  19.371   6.126  1.00  0.00    -0.269 OA
HETATM   14  N1  UNL     1      16.315  19.137   4.226  1.00  0.00    -0.349 N 
HETATM   15  C10 UNL     1      16.980  17.852   4.119  1.00  0.00     0.126 C 
HETATM   16  C15 UNL     1      15.339  19.700   3.318  1.00  0.00     0.126 C 
HETATM   17  C11 UNL     1      17.756  17.797   2.801  1.00  0.00     0.020 C 
HETATM   18  C12 UNL     1      16.795  17.223   1.774  1.00  0.00     0.002 C 
HETATM   19  C13 UNL     1      15.819  18.308   1.368  1.00  0.00     0.002 C 
HETATM   20  C14 UNL     1      14.793  18.576   2.443  1.00  0.00     0.020 C 
ENDBRANCH  11  12
ENDBRANCH   8  11
BRANCH   8  21
HETATM   21  N2  UNL     1      14.000  22.224   6.085  1.00  0.00    -0.356 N 
HETATM   22  C19 UNL     1      12.719  22.054   6.508  1.00  0.00     0.069 C 
BRANCH  21  23
HETATM   23  C16 UNL     1      14.184  22.890   4.887  1.00  0.00     0.064 C 
BRANCH  23  24
HETATM   24  C17 UNL     1      12.957  23.225   4.078  1.00  0.00     0.040 C 
HETATM   25  C18 UNL     1      12.623  24.734   4.272  1.00  0.00     0.010 C 
ENDBRANCH  23  24
ENDBRANCH  21  23
BRANCH  22  26
HETATM   26  C20 UNL     1      12.094  22.544   7.750  1.00  0.00     0.089 C 
BRANCH  26  27
HETATM   27  C21 UNL     1      11.322  23.839   7.678  1.00  0.00     0.069 C 
BRANCH  27  28
HETATM   28  N3  UNL     1      10.185  23.856   6.850  1.00  0.00    -0.341 N 
ATOM     29  H3  UNL     1       9.901  23.018   6.345  1.00  0.00     0.167 HD
BRANCH  28  30
HETATM   30  C22 UNL     1       9.428  25.080   6.728  1.00  0.00     0.214 C 
HETATM   31  S1  UNL     1       9.664  26.247   7.840  1.00  0.00    -0.033 SA
BRANCH  30  32
HETATM   32  O4  UNL     1       8.532  25.276   5.714  1.00  0.00    -0.321 OA
BRANCH  32  33
HETATM   33  C23 UNL     1       8.735  25.676   4.408  1.00  0.00     0.139 C 
HETATM   34  C24 UNL     1       7.481  26.469   4.002  1.00  0.00     0.016 C 
HETATM   35  C25 UNL     1       7.679  27.160   2.684  1.00  0.00     0.012 C 
HETATM   36  C29 UNL     1       6.310  25.527   3.988  1.00  0.00     0.012 C 
HETATM   37  C26 UNL     1       7.882  26.080   1.645  1.00  0.00    -0.013 C 
HETATM   38  C27 UNL     1       6.630  25.233   1.573  1.00  0.00     0.009 C 
HETATM   39  C32 UNL     1       9.088  25.288   2.028  1.00  0.00     0.012 C 
HETATM   40  C28 UNL     1       6.464  24.510   2.873  1.00  0.00    -0.013 C 
HETATM   41  C30 UNL     1       7.704  23.700   3.225  1.00  0.00     0.012 C 
HETATM   42  C31 UNL     1       8.897  24.603   3.388  1.00  0.00     0.016 C 
ENDBRANCH  32  33
ENDBRANCH  30  32
ENDBRANCH  28  30
ENDBRANCH  27  28
ENDBRANCH  26  27
ENDBRANCH  22  26
ENDBRANCH   8  21
TORSDOF 12
ENDMDL
