MODEL 1
REMARK VINA RESULT: -9.844925727      0.000      0.000
REMARK  13 active torsions:
REMARK  status: ('A' for Active; 'I' for Inactive)
REMARK    1  A    between atoms: C2_2  and  C4_4 
REMARK    2  A    between atoms: C4_4  and  C5_5 
REMARK       I    between atoms: C5_5  and  N1_7 
REMARK    3  A    between atoms: N1_7  and  C6_9 
REMARK    4  A    between atoms: C6_9  and  C7_10 
REMARK    5  A    between atoms: C6_9  and  C13_16 
REMARK    6  A    between atoms: N2_18  and  C15_19 
REMARK    7  A    between atoms: C15_19  and  C16_20 
REMARK    8  A    between atoms: C15_19  and  C26_39 
REMARK    9  A    between atoms: C16_20  and  C17_21 
REMARK   10  A    between atoms: C17_21  and  N3_22 
REMARK   11  A    between atoms: C17_21  and  C22_29 
REMARK       I    between atoms: N3_22  and  C18_24 
REMARK   12  A    between atoms: C18_24  and  C19_26 
REMARK       I    between atoms: C22_29  and  N4_31 
REMARK   13  A    between atoms: N4_31  and  C23_33 
ROOT
HETATM    1  C15 UNL     1      12.133  24.095   4.507  1.00  0.00     0.017 C 
ENDROOT
BRANCH   1   2
HETATM    2  N2  UNL     1      12.795  23.166   5.310  1.00  0.00    -0.359 N 
HETATM    3  C14 UNL     1      14.195  23.030   5.155  1.00  0.00     0.166 C 
HETATM    4  C13 UNL     1      14.962  22.291   6.162  1.00  0.00     0.190 C 
HETATM    5  O4  UNL     1      14.372  22.654   7.411  1.00  0.00    -0.373 OA
HETATM    6  C30 UNL     1      13.048  22.333   7.504  1.00  0.00     0.213 C 
HETATM    7  C29 UNL     1      12.263  22.310   6.216  1.00  0.00     0.090 C 
BRANCH   4   8
HETATM    8  C6  UNL     1      15.157  20.842   6.153  1.00  0.00     0.045 C 
BRANCH   8   9
HETATM    9  N1  UNL     1      16.137  20.427   7.162  1.00  0.00    -0.328 N 
HETATM   10  C5  UNL     1      16.045  20.127   8.496  1.00  0.00     0.222 C 
HETATM   11  O1  UNL     1      15.080  20.149   9.291  1.00  0.00    -0.273 OA
ATOM     12  H1  UNL     1      17.085  20.344   6.793  1.00  0.00     0.168 HD
BRANCH  10  13
HETATM   13  C4  UNL     1      17.336  19.672   9.179  1.00  0.00     0.107 C 
BRANCH  13  14
HETATM   14  C2  UNL     1      16.941  18.750  10.304  1.00  0.00    -0.014 C 
HETATM   15  C1  UNL     1      16.977  17.312   9.850  1.00  0.00     0.010 C 
HETATM   16  C3  UNL     1      17.981  18.952  11.424  1.00  0.00     0.010 C 
ENDBRANCH  13  14
ENDBRANCH  10  13
ENDBRANCH   8   9
BRANCH   8  17
HETATM   17  C7  UNL     1      15.363  20.046   4.954  1.00  0.00    -0.055 C 
HETATM   18  C8  UNL     1      16.820  19.678   4.654  1.00  0.00     0.036 C 
HETATM   19  C9  UNL     1      16.827  18.371   3.898  1.00  0.00     0.004 C 
HETATM   20  C10 UNL     1      15.906  18.343   2.722  1.00  0.00     0.001 C 
HETATM   21  C11 UNL     1      14.543  18.934   2.984  1.00  0.00     0.004 C 
HETATM   22  C12 UNL     1      14.710  20.319   3.671  1.00  0.00     0.036 C 
ENDBRANCH   8  17
ENDBRANCH   4   8
ENDBRANCH   1   2
BRANCH   1  23
HETATM   23  C16 UNL     1      11.601  25.366   5.005  1.00  0.00     0.060 C 
BRANCH  23  24
HETATM   24  C17 UNL     1      10.347  25.486   5.726  1.00  0.00     0.105 C 
BRANCH  24  25
HETATM   25  N3  UNL     1      10.398  25.271   7.000  1.00  0.00    -0.322 N 
HETATM   26  C18 UNL     1       9.466  25.187   7.993  1.00  0.00     0.226 C 
HETATM   27  O2  UNL     1       8.847  24.087   8.200  1.00  0.00    -0.273 OA
ATOM     28  H3  UNL     1      11.350  25.133   7.339  1.00  0.00     0.169 HD
BRANCH  26  29
HETATM   29  C19 UNL     1       9.104  26.313   8.888  1.00  0.00     0.078 A 
HETATM   30  C20 UNL     1       7.827  27.086   8.526  1.00  0.00     0.015 A 
HETATM   31  C21 UNL     1       9.203  27.724   8.518  1.00  0.00     0.015 A 
ENDBRANCH  26  29
ENDBRANCH  24  25
BRANCH  24  32
HETATM   32  C22 UNL     1       9.052  25.879   5.250  1.00  0.00     0.274 C 
HETATM   33  O3  UNL     1       8.815  27.111   5.127  1.00  0.00    -0.266 OA
HETATM   34  N4  UNL     1       7.994  25.042   4.900  1.00  0.00    -0.302 N 
ATOM     35  H4  UNL     1       7.830  24.211   5.469  1.00  0.00     0.171 HD
BRANCH  34  36
HETATM   36  C23 UNL     1       7.200  25.260   3.885  1.00  0.00     0.151 A 
HETATM   37  N5  UNL     1       7.584  25.739   2.717  1.00  0.00    -0.346 N 
HETATM   38  C24 UNL     1       6.691  25.918   1.780  1.00  0.00     0.097 A 
ATOM     39  H5  UNL     1       8.564  25.967   2.548  1.00  0.00     0.167 HD
HETATM   40  C25 UNL     1       5.395  25.593   2.066  1.00  0.00     0.070 A 
HETATM   41  S1  UNL     1       5.514  25.041   3.683  1.00  0.00    -0.064 SA
ENDBRANCH  34  36
ENDBRANCH  24  32
ENDBRANCH  23  24
ENDBRANCH   1  23
BRANCH   1  42
HETATM   42  C26 UNL     1      11.351  23.450   3.373  1.00  0.00     0.027 C 
HETATM   43  C27 UNL     1      10.164  22.672   3.747  1.00  0.00     0.016 C 
HETATM   44  C28 UNL     1      10.927  24.478   2.342  1.00  0.00     0.016 C 
ENDBRANCH   1  42
TORSDOF 13
ENDMDL
MODEL 2
REMARK VINA RESULT: -9.718685126      3.899     10.073
REMARK  13 active torsions:
REMARK  status: ('A' for Active; 'I' for Inactive)
REMARK    1  A    between atoms: C2_2  and  C4_4 
REMARK    2  A    between atoms: C4_4  and  C5_5 
REMARK       I    between atoms: C5_5  and  N1_7 
REMARK    3  A    between atoms: N1_7  and  C6_9 
REMARK    4  A    between atoms: C6_9  and  C7_10 
REMARK    5  A    between atoms: C6_9  and  C13_16 
REMARK    6  A    between atoms: N2_18  and  C15_19 
REMARK    7  A    between atoms: C15_19  and  C16_20 
REMARK    8  A    between atoms: C15_19  and  C26_39 
REMARK    9  A    between atoms: C16_20  and  C17_21 
REMARK   10  A    between atoms: C17_21  and  N3_22 
REMARK   11  A    between atoms: C17_21  and  C22_29 
REMARK       I    between atoms: N3_22  and  C18_24 
REMARK   12  A    between atoms: C18_24  and  C19_26 
REMARK       I    between atoms: C22_29  and  N4_31 
REMARK   13  A    between atoms: N4_31  and  C23_33 
ROOT
HETATM    1  C15 UNL     1      15.360  19.871   4.481  1.00  0.00     0.017 C 
ENDROOT
BRANCH   1   2
HETATM    2  N2  UNL     1      14.737  20.967   5.076  1.00  0.00    -0.359 N 
HETATM    3  C14 UNL     1      13.335  20.913   5.268  1.00  0.00     0.166 C 
HETATM    4  C13 UNL     1      12.690  21.900   6.138  1.00  0.00     0.190 C 
HETATM    5  O4  UNL     1      13.596  22.075   7.229  1.00  0.00    -0.373 OA
HETATM    6  C30 UNL     1      14.828  22.523   6.849  1.00  0.00     0.213 C 
HETATM    7  C29 UNL     1      15.293  22.140   5.466  1.00  0.00     0.090 C 
BRANCH   4   8
HETATM    8  C6  UNL     1      12.242  23.220   5.701  1.00  0.00     0.045 C 
BRANCH   8   9
HETATM    9  N1  UNL     1      11.754  24.022   6.828  1.00  0.00    -0.328 N 
HETATM   10  C5  UNL     1      10.961  25.137   6.916  1.00  0.00     0.222 C 
HETATM   11  O1  UNL     1      10.425  25.851   6.040  1.00  0.00    -0.273 OA
ATOM     12  H1  UNL     1      12.070  23.679   7.735  1.00  0.00     0.168 HD
BRANCH  10  13
HETATM   13  C4  UNL     1      10.643  25.633   8.328  1.00  0.00     0.107 C 
BRANCH  13  14
HETATM   14  C2  UNL     1       9.219  26.126   8.314  1.00  0.00    -0.014 C 
HETATM   15  C1  UNL     1       8.278  25.047   8.791  1.00  0.00     0.010 C 
HETATM   16  C3  UNL     1       9.157  27.318   9.290  1.00  0.00     0.010 C 
ENDBRANCH  13  14
ENDBRANCH  10  13
ENDBRANCH   8   9
BRANCH   8  17
HETATM   17  C7  UNL     1      11.377  23.460   4.556  1.00  0.00    -0.055 C 
HETATM   18  C8  UNL     1      10.083  22.640   4.530  1.00  0.00     0.036 C 
HETATM   19  C9  UNL     1       9.040  23.435   3.781  1.00  0.00     0.004 C 
HETATM   20  C10 UNL     1       9.501  23.944   2.454  1.00  0.00     0.001 C 
HETATM   21  C11 UNL     1      10.888  24.538   2.461  1.00  0.00     0.004 C 
HETATM   22  C12 UNL     1      11.860  23.556   3.176  1.00  0.00     0.036 C 
ENDBRANCH   8  17
ENDBRANCH   4   8
ENDBRANCH   1   2
BRANCH   1  23
HETATM   23  C16 UNL     1      16.788  19.827   4.155  1.00  0.00     0.060 C 
BRANCH  23  24
HETATM   24  C17 UNL     1      17.721  18.890   4.753  1.00  0.00     0.105 C 
BRANCH  24  25
HETATM   25  N3  UNL     1      18.167  19.199   5.927  1.00  0.00    -0.322 N 
HETATM   26  C18 UNL     1      17.751  18.954   7.203  1.00  0.00     0.226 C 
HETATM   27  O2  UNL     1      18.057  17.852   7.776  1.00  0.00    -0.273 OA
ATOM     28  H3  UNL     1      19.024  19.751   5.891  1.00  0.00     0.169 HD
BRANCH  26  29
HETATM   29  C19 UNL     1      16.945  19.903   8.010  1.00  0.00     0.078 A 
HETATM   30  C20 UNL     1      17.701  21.100   8.604  1.00  0.00     0.015 A 
HETATM   31  C21 UNL     1      17.042  20.038   9.462  1.00  0.00     0.015 A 
ENDBRANCH  26  29
ENDBRANCH  24  25
BRANCH  24  32
HETATM   32  C22 UNL     1      18.181  17.620   4.269  1.00  0.00     0.274 C 
HETATM   33  O3  UNL     1      18.673  17.571   3.109  1.00  0.00    -0.266 OA
HETATM   34  N4  UNL     1      18.147  16.401   4.942  1.00  0.00    -0.302 N 
ATOM     35  H4  UNL     1      17.328  16.189   5.513  1.00  0.00     0.171 HD
BRANCH  34  36
HETATM   36  C23 UNL     1      19.103  15.511   4.884  1.00  0.00     0.151 A 
HETATM   37  N5  UNL     1      20.254  15.682   4.261  1.00  0.00    -0.346 N 
HETATM   38  C24 UNL     1      21.131  14.713   4.270  1.00  0.00     0.097 A 
ATOM     39  H5  UNL     1      20.457  16.558   3.780  1.00  0.00     0.167 HD
HETATM   40  C25 UNL     1      20.801  13.564   4.933  1.00  0.00     0.070 A 
HETATM   41  S1  UNL     1      19.234  13.927   5.519  1.00  0.00    -0.064 SA
ENDBRANCH  34  36
ENDBRANCH  24  32
ENDBRANCH  23  24
ENDBRANCH   1  23
BRANCH   1  42
HETATM   42  C26 UNL     1      14.444  19.103   3.542  1.00  0.00     0.027 C 
HETATM   43  C27 UNL     1      14.576  19.389   2.108  1.00  0.00     0.016 C 
HETATM   44  C28 UNL     1      14.591  17.605   3.732  1.00  0.00     0.016 C 
ENDBRANCH   1  42
TORSDOF 13
ENDMDL
MODEL 3
REMARK VINA RESULT: -9.715468032      3.439      9.910
REMARK  13 active torsions:
REMARK  status: ('A' for Active; 'I' for Inactive)
REMARK    1  A    between atoms: C2_2  and  C4_4 
REMARK    2  A    between atoms: C4_4  and  C5_5 
REMARK       I    between atoms: C5_5  and  N1_7 
REMARK    3  A    between atoms: N1_7  and  C6_9 
REMARK    4  A    between atoms: C6_9  and  C7_10 
REMARK    5  A    between atoms: C6_9  and  C13_16 
REMARK    6  A    between atoms: N2_18  and  C15_19 
REMARK    7  A    between atoms: C15_19  and  C16_20 
REMARK    8  A    between atoms: C15_19  and  C26_39 
REMARK    9  A    between atoms: C16_20  and  C17_21 
REMARK   10  A    between atoms: C17_21  and  N3_22 
REMARK   11  A    between atoms: C17_21  and  C22_29 
REMARK       I    between atoms: N3_22  and  C18_24 
REMARK   12  A    between atoms: C18_24  and  C19_26 
REMARK       I    between atoms: C22_29  and  N4_31 
REMARK   13  A    between atoms: N4_31  and  C23_33 
ROOT
HETATM    1  C15 UNL     1      14.554  20.603   5.183  1.00  0.00     0.017 C 
ENDROOT
BRANCH   1   2
HETATM    2  N2  UNL     1      13.657  21.532   5.709  1.00  0.00    -0.359 N 
HETATM    3  C14 UNL     1      12.274  21.312   5.506  1.00  0.00     0.166 C 
HETATM    4  C13 UNL     1      11.300  22.090   6.276  1.00  0.00     0.190 C 
HETATM    5  O4  UNL     1      11.864  22.191   7.585  1.00  0.00    -0.373 OA
HETATM    6  C30 UNL     1      13.081  22.810   7.609  1.00  0.00     0.213 C 
HETATM    7  C29 UNL     1      13.932  22.684   6.370  1.00  0.00     0.090 C 
BRANCH   4   8
HETATM    8  C6  UNL     1      10.806  23.410   5.890  1.00  0.00     0.045 C 
BRANCH   8   9
HETATM    9  N1  UNL     1       9.873  23.947   6.887  1.00  0.00    -0.328 N 
HETATM   10  C5  UNL     1       9.955  24.967   7.799  1.00  0.00     0.222 C 
HETATM   11  O1  UNL     1      10.885  25.749   8.094  1.00  0.00    -0.273 OA
ATOM     12  H1  UNL     1       8.977  23.460   6.905  1.00  0.00     0.168 HD
BRANCH  10  13
HETATM   13  C4  UNL     1       8.699  25.235   8.630  1.00  0.00     0.107 C 
BRANCH  13  14
HETATM   14  C2  UNL     1       8.102  26.524   8.127  1.00  0.00    -0.014 C 
HETATM   15  C1  UNL     1       6.648  26.334   7.773  1.00  0.00     0.010 C 
HETATM   16  C3  UNL     1       8.213  27.540   9.282  1.00  0.00     0.010 C 
ENDBRANCH  13  14
ENDBRANCH  10  13
ENDBRANCH   8   9
BRANCH   8  17
HETATM   17  C7  UNL     1      10.310  23.750   4.565  1.00  0.00    -0.055 C 
HETATM   18  C8  UNL     1      11.179  24.733   3.773  1.00  0.00     0.036 C 
HETATM   19  C9  UNL     1      10.983  24.451   2.302  1.00  0.00     0.004 C 
HETATM   20  C10 UNL     1       9.551  24.381   1.882  1.00  0.00     0.001 C 
HETATM   21  C11 UNL     1       8.665  23.596   2.816  1.00  0.00     0.004 C 
HETATM   22  C12 UNL     1       8.911  24.074   4.276  1.00  0.00     0.036 C 
ENDBRANCH   8  17
ENDBRANCH   4   8
ENDBRANCH   1   2
BRANCH   1  23
HETATM   23  C16 UNL     1      16.010  20.730   5.289  1.00  0.00     0.060 C 
BRANCH  23  24
HETATM   24  C17 UNL     1      16.827  19.907   6.162  1.00  0.00     0.105 C 
BRANCH  24  25
HETATM   25  N3  UNL     1      16.659  20.079   7.432  1.00  0.00    -0.322 N 
HETATM   26  C18 UNL     1      17.461  19.952   8.529  1.00  0.00     0.226 C 
HETATM   27  O2  UNL     1      18.234  20.911   8.871  1.00  0.00    -0.273 OA
ATOM     28  H3  UNL     1      15.712  20.376   7.668  1.00  0.00     0.169 HD
BRANCH  26  29
HETATM   29  C19 UNL     1      17.503  18.746   9.391  1.00  0.00     0.078 A 
HETATM   30  C20 UNL     1      16.190  18.362  10.086  1.00  0.00     0.015 A 
HETATM   31  C21 UNL     1      17.433  18.774  10.850  1.00  0.00     0.015 A 
ENDBRANCH  26  29
ENDBRANCH  24  25
BRANCH  24  32
HETATM   32  C22 UNL     1      17.759  18.867   5.831  1.00  0.00     0.274 C 
HETATM   33  O3  UNL     1      18.931  19.201   5.509  1.00  0.00    -0.266 OA
HETATM   34  N4  UNL     1      17.518  17.494   5.821  1.00  0.00    -0.302 N 
ATOM     35  H4  UNL     1      16.616  17.167   5.474  1.00  0.00     0.171 HD
BRANCH  34  36
HETATM   36  C23 UNL     1      18.382  16.602   6.230  1.00  0.00     0.151 A 
HETATM   37  N5  UNL     1      19.421  16.184   5.532  1.00  0.00    -0.346 N 
HETATM   38  C24 UNL     1      20.211  15.281   6.050  1.00  0.00     0.097 A 
ATOM     39  H5  UNL     1      19.606  16.561   4.603  1.00  0.00     0.167 HD
HETATM   40  C25 UNL     1      19.911  14.815   7.300  1.00  0.00     0.070 A 
HETATM   41  S1  UNL     1      18.497  15.701   7.681  1.00  0.00    -0.064 SA
ENDBRANCH  34  36
ENDBRANCH  24  32
ENDBRANCH  23  24
ENDBRANCH   1  23
BRANCH   1  42
HETATM   42  C26 UNL     1      14.039  19.928   3.922  1.00  0.00     0.027 C 
HETATM   43  C27 UNL     1      14.356  20.581   2.646  1.00  0.00     0.016 C 
HETATM   44  C28 UNL     1      14.510  18.489   3.836  1.00  0.00     0.016 C 
ENDBRANCH   1  42
TORSDOF 13
ENDMDL
MODEL 4
REMARK VINA RESULT: -9.583733033      2.195      4.917
REMARK  13 active torsions:
REMARK  status: ('A' for Active; 'I' for Inactive)
REMARK    1  A    between atoms: C2_2  and  C4_4 
REMARK    2  A    between atoms: C4_4  and  C5_5 
REMARK       I    between atoms: C5_5  and  N1_7 
REMARK    3  A    between atoms: N1_7  and  C6_9 
REMARK    4  A    between atoms: C6_9  and  C7_10 
REMARK    5  A    between atoms: C6_9  and  C13_16 
REMARK    6  A    between atoms: N2_18  and  C15_19 
REMARK    7  A    between atoms: C15_19  and  C16_20 
REMARK    8  A    between atoms: C15_19  and  C26_39 
REMARK    9  A    between atoms: C16_20  and  C17_21 
REMARK   10  A    between atoms: C17_21  and  N3_22 
REMARK   11  A    between atoms: C17_21  and  C22_29 
REMARK       I    between atoms: N3_22  and  C18_24 
REMARK   12  A    between atoms: C18_24  and  C19_26 
REMARK       I    between atoms: C22_29  and  N4_31 
REMARK   13  A    between atoms: N4_31  and  C23_33 
ROOT
HETATM    1  C15 UNL     1      10.121  25.066   6.779  1.00  0.00     0.017 C 
ENDROOT
BRANCH   1   2
HETATM    2  N2  UNL     1      11.015  24.023   6.545  1.00  0.00    -0.359 N 
HETATM    3  C14 UNL     1      11.729  23.496   7.648  1.00  0.00     0.166 C 
HETATM    4  C13 UNL     1      12.448  22.227   7.501  1.00  0.00     0.190 C 
HETATM    5  O4  UNL     1      11.594  21.413   6.695  1.00  0.00    -0.373 OA
HETATM    6  C30 UNL     1      11.332  21.947   5.466  1.00  0.00     0.213 C 
HETATM    7  C29 UNL     1      11.348  23.452   5.361  1.00  0.00     0.090 C 
BRANCH   4   8
HETATM    8  C6  UNL     1      13.811  22.105   6.989  1.00  0.00     0.045 C 
BRANCH   8   9
HETATM    9  N1  UNL     1      13.831  21.496   5.655  1.00  0.00    -0.328 N 
HETATM   10  C5  UNL     1      14.486  21.803   4.490  1.00  0.00     0.222 C 
HETATM   11  O1  UNL     1      15.259  22.738   4.189  1.00  0.00    -0.273 OA
ATOM     12  H1  UNL     1      13.233  20.673   5.578  1.00  0.00     0.168 HD
BRANCH  10  13
HETATM   13  C4  UNL     1      14.261  20.848   3.315  1.00  0.00     0.107 C 
BRANCH  13  14
HETATM   14  C2  UNL     1      14.667  19.472   3.778  1.00  0.00    -0.014 C 
HETATM   15  C1  UNL     1      14.609  18.489   2.636  1.00  0.00     0.010 C 
HETATM   16  C3  UNL     1      16.122  19.587   4.274  1.00  0.00     0.010 C 
ENDBRANCH  13  14
ENDBRANCH  10  13
ENDBRANCH   8   9
BRANCH   8  17
HETATM   17  C7  UNL     1      14.934  21.582   7.751  1.00  0.00    -0.055 C 
HETATM   18  C8  UNL     1      14.596  21.093   9.163  1.00  0.00     0.036 C 
HETATM   19  C9  UNL     1      15.577  20.004   9.529  1.00  0.00     0.004 C 
HETATM   20  C10 UNL     1      17.007  20.375   9.307  1.00  0.00     0.001 C 
HETATM   21  C11 UNL     1      17.273  21.075   7.997  1.00  0.00     0.004 C 
HETATM   22  C12 UNL     1      16.247  22.230   7.818  1.00  0.00     0.036 C 
ENDBRANCH   8  17
ENDBRANCH   4   8
ENDBRANCH   1   2
BRANCH   1  23
HETATM   23  C16 UNL     1      10.002  26.244   5.915  1.00  0.00     0.060 C 
BRANCH  23  24
HETATM   24  C17 UNL     1       8.749  26.697   5.342  1.00  0.00     0.105 C 
BRANCH  24  25
HETATM   25  N3  UNL     1       8.679  26.701   4.051  1.00  0.00    -0.322 N 
HETATM   26  C18 UNL     1       7.753  26.277   3.142  1.00  0.00     0.226 C 
HETATM   27  O2  UNL     1       6.766  27.030   2.835  1.00  0.00    -0.273 OA
ATOM     28  H3  UNL     1       9.502  27.113   3.612  1.00  0.00     0.169 HD
BRANCH  26  29
HETATM   29  C19 UNL     1       7.806  24.964   2.454  1.00  0.00     0.078 A 
HETATM   30  C20 UNL     1       7.450  23.736   3.305  1.00  0.00     0.015 A 
HETATM   31  C21 UNL     1       8.826  23.946   2.701  1.00  0.00     0.015 A 
ENDBRANCH  26  29
ENDBRANCH  24  25
BRANCH  24  32
HETATM   32  C22 UNL     1       7.530  27.083   5.994  1.00  0.00     0.274 C 
HETATM   33  O3  UNL     1       7.498  28.201   6.577  1.00  0.00    -0.266 OA
HETATM   34  N4  UNL     1       6.346  26.352   6.066  1.00  0.00    -0.302 N 
ATOM     35  H4  UNL     1       6.412  25.343   6.197  1.00  0.00     0.171 HD
BRANCH  34  36
HETATM   36  C23 UNL     1       5.156  26.885   5.976  1.00  0.00     0.151 A 
HETATM   37  N5  UNL     1       4.819  27.838   5.126  1.00  0.00    -0.346 N 
HETATM   38  C24 UNL     1       3.594  28.293   5.137  1.00  0.00     0.097 A 
ATOM     39  H5  UNL     1       5.505  28.212   4.471  1.00  0.00     0.167 HD
HETATM   40  C25 UNL     1       2.722  27.751   6.039  1.00  0.00     0.070 A 
HETATM   41  S1  UNL     1       3.705  26.600   6.839  1.00  0.00    -0.064 SA
ENDBRANCH  34  36
ENDBRANCH  24  32
ENDBRANCH  23  24
ENDBRANCH   1  23
BRANCH   1  42
HETATM   42  C26 UNL     1       9.857  25.302   8.258  1.00  0.00     0.027 C 
HETATM   43  C27 UNL     1      10.067  26.667   8.757  1.00  0.00     0.016 C 
HETATM   44  C28 UNL     1       8.452  24.879   8.642  1.00  0.00     0.016 C 
ENDBRANCH   1  42
TORSDOF 13
ENDMDL
MODEL 5
REMARK VINA RESULT: -9.498989083      1.350      1.615
REMARK  13 active torsions:
REMARK  status: ('A' for Active; 'I' for Inactive)
REMARK    1  A    between atoms: C2_2  and  C4_4 
REMARK    2  A    between atoms: C4_4  and  C5_5 
REMARK       I    between atoms: C5_5  and  N1_7 
REMARK    3  A    between atoms: N1_7  and  C6_9 
REMARK    4  A    between atoms: C6_9  and  C7_10 
REMARK    5  A    between atoms: C6_9  and  C13_16 
REMARK    6  A    between atoms: N2_18  and  C15_19 
REMARK    7  A    between atoms: C15_19  and  C16_20 
REMARK    8  A    between atoms: C15_19  and  C26_39 
REMARK    9  A    between atoms: C16_20  and  C17_21 
REMARK   10  A    between atoms: C17_21  and  N3_22 
REMARK   11  A    between atoms: C17_21  and  C22_29 
REMARK       I    between atoms: N3_22  and  C18_24 
REMARK   12  A    between atoms: C18_24  and  C19_26 
REMARK       I    between atoms: C22_29  and  N4_31 
REMARK   13  A    between atoms: N4_31  and  C23_33 
ROOT
HETATM    1  C15 UNL     1      12.011  24.123   4.637  1.00  0.00     0.017 C 
ENDROOT
BRANCH   1   2
HETATM    2  N2  UNL     1      12.716  23.201   5.409  1.00  0.00    -0.359 N 
HETATM    3  C14 UNL     1      14.109  23.073   5.188  1.00  0.00     0.166 C 
HETATM    4  C13 UNL     1      14.928  22.342   6.158  1.00  0.00     0.190 C 
HETATM    5  O4  UNL     1      14.396  22.704   7.434  1.00  0.00    -0.373 OA
HETATM    6  C30 UNL     1      13.080  22.375   7.591  1.00  0.00     0.213 C 
HETATM    7  C29 UNL     1      12.234  22.343   6.342  1.00  0.00     0.090 C 
BRANCH   4   8
HETATM    8  C6  UNL     1      15.132  20.895   6.144  1.00  0.00     0.045 C 
BRANCH   8   9
HETATM    9  N1  UNL     1      16.127  20.483   7.139  1.00  0.00    -0.328 N 
HETATM   10  C5  UNL     1      16.047  20.146   8.466  1.00  0.00     0.222 C 
HETATM   11  O1  UNL     1      15.084  20.118   9.263  1.00  0.00    -0.273 OA
ATOM     12  H1  UNL     1      17.076  20.439   6.768  1.00  0.00     0.168 HD
BRANCH  10  13
HETATM   13  C4  UNL     1      17.353  19.713   9.135  1.00  0.00     0.107 C 
BRANCH  13  14
HETATM   14  C2  UNL     1      16.991  18.732  10.221  1.00  0.00    -0.014 C 
HETATM   15  C1  UNL     1      17.143  17.314   9.729  1.00  0.00     0.010 C 
HETATM   16  C3  UNL     1      17.980  18.975  11.379  1.00  0.00     0.010 C 
ENDBRANCH  13  14
ENDBRANCH  10  13
ENDBRANCH   8   9
BRANCH   8  17
HETATM   17  C7  UNL     1      15.329  20.103   4.940  1.00  0.00    -0.055 C 
HETATM   18  C8  UNL     1      16.776  19.678   4.665  1.00  0.00     0.036 C 
HETATM   19  C9  UNL     1      16.744  18.379   3.895  1.00  0.00     0.004 C 
HETATM   20  C10 UNL     1      15.846  18.402   2.701  1.00  0.00     0.001 C 
HETATM   21  C11 UNL     1      14.504  19.046   2.942  1.00  0.00     0.004 C 
HETATM   22  C12 UNL     1      14.714  20.416   3.647  1.00  0.00     0.036 C 
ENDBRANCH   8  17
ENDBRANCH   4   8
ENDBRANCH   1   2
BRANCH   1  23
HETATM   23  C16 UNL     1      11.333  25.297   5.192  1.00  0.00     0.060 C 
BRANCH  23  24
HETATM   24  C17 UNL     1      10.067  25.237   5.897  1.00  0.00     0.105 C 
BRANCH  24  25
HETATM   25  N3  UNL     1      10.122  24.894   7.143  1.00  0.00    -0.322 N 
HETATM   26  C18 UNL     1       9.335  25.123   8.234  1.00  0.00     0.226 C 
HETATM   27  O2  UNL     1       8.314  24.384   8.453  1.00  0.00    -0.273 OA
ATOM     28  H3  UNL     1      10.940  24.325   7.359  1.00  0.00     0.169 HD
BRANCH  26  29
HETATM   29  C19 UNL     1       9.582  26.198   9.225  1.00  0.00     0.078 A 
HETATM   30  C20 UNL     1       9.314  27.634   8.750  1.00  0.00     0.015 A 
HETATM   31  C21 UNL     1      10.693  27.146   9.152  1.00  0.00     0.015 A 
ENDBRANCH  26  29
ENDBRANCH  24  25
BRANCH  24  32
HETATM   32  C22 UNL     1       8.748  25.569   5.441  1.00  0.00     0.274 C 
HETATM   33  O3  UNL     1       8.129  24.718   4.746  1.00  0.00    -0.266 OA
HETATM   34  N4  UNL     1       8.048  26.751   5.677  1.00  0.00    -0.302 N 
ATOM     35  H4  UNL     1       8.568  27.629   5.658  1.00  0.00     0.171 HD
BRANCH  34  36
HETATM   36  C23 UNL     1       6.765  26.801   5.922  1.00  0.00     0.151 A 
HETATM   37  N5  UNL     1       6.185  26.307   7.000  1.00  0.00    -0.346 N 
HETATM   38  C24 UNL     1       4.889  26.415   7.128  1.00  0.00     0.097 A 
ATOM     39  H5  UNL     1       6.740  25.848   7.723  1.00  0.00     0.167 HD
HETATM   40  C25 UNL     1       4.200  27.040   6.126  1.00  0.00     0.070 A 
HETATM   41  S1  UNL     1       5.454  27.450   5.035  1.00  0.00    -0.064 SA
ENDBRANCH  34  36
ENDBRANCH  24  32
ENDBRANCH  23  24
ENDBRANCH   1  23
BRANCH   1  42
HETATM   42  C26 UNL     1      11.355  23.497   3.415  1.00  0.00     0.027 C 
HETATM   43  C27 UNL     1      10.239  22.576   3.663  1.00  0.00     0.016 C 
HETATM   44  C28 UNL     1      10.875  24.558   2.444  1.00  0.00     0.016 C 
ENDBRANCH   1  42
TORSDOF 13
ENDMDL
