MODEL 1
REMARK VINA RESULT: -9.241412418      0.000      0.000
REMARK  12 active torsions:
REMARK  status: ('A' for Active; 'I' for Inactive)
REMARK    1  A    between atoms: C2_2  and  C3_3 
REMARK    2  A    between atoms: C3_3  and  C4_4 
REMARK    3  A    between atoms: C4_4  and  C5_5 
REMARK       I    between atoms: C5_5  and  N1_7 
REMARK    4  A    between atoms: N1_7  and  C6_9 
REMARK    5  A    between atoms: C7_14  and  C8_15 
REMARK    6  A    between atoms: C8_15  and  C9_16 
REMARK    7  A    between atoms: C9_16  and  C10_17 
REMARK    8  A    between atoms: C10_17  and  C11_18 
REMARK    9  A    between atoms: C11_18  and  C12_19 
REMARK   10  A    between atoms: C13_24  and  N6_25 
REMARK       I    between atoms: N6_25  and  C14_27 
REMARK   11  A    between atoms: C14_27  and  C15_29 
REMARK   12  A    between atoms: C15_29  and  N7_32 
ROOT
HETATM    1  C12 UNL     1      11.963  25.608   7.266  1.00  0.00     0.037 A 
HETATM    2  N4  UNL     1      13.111  24.931   7.445  1.00  0.00    -0.302 N 
ATOM      3  H4  UNL     1      13.606  25.027   8.331  1.00  0.00     0.186 HD
HETATM    4  N5  UNL     1      13.619  24.146   6.513  1.00  0.00    -0.284 N 
ATOM      5  H5  UNL     1      14.490  23.637   6.664  1.00  0.00     0.188 HD
HETATM    6  C13 UNL     1      12.931  24.044   5.343  1.00  0.00     0.134 A 
HETATM    7  C22 UNL     1      11.761  24.693   5.079  1.00  0.00     0.028 A 
HETATM    8  C23 UNL     1      11.115  24.536   3.871  1.00  0.00    -0.047 A 
HETATM    9  C24 UNL     1      11.632  23.689   2.805  1.00  0.00     0.049 C 
HETATM   10  C25 UNL     1       9.917  25.261   3.742  1.00  0.00     0.007 A 
HETATM   11  C26 UNL     1       9.399  26.063   4.701  1.00  0.00     0.002 A 
HETATM   12  C27 UNL     1      10.079  26.194   5.901  1.00  0.00     0.014 A 
HETATM   13  C28 UNL     1      11.258  25.514   6.095  1.00  0.00     0.002 A 
ENDROOT
BRANCH   1  14
HETATM   14  C11 UNL     1      11.511  26.495   8.358  1.00  0.00     0.059 C 
BRANCH  14  15
HETATM   15  C10 UNL     1      10.797  25.692   9.426  1.00  0.00     0.006 C 
BRANCH  15  16
HETATM   16  C9  UNL     1       9.379  26.134   9.640  1.00  0.00     0.007 C 
BRANCH  16  17
HETATM   17  C8  UNL     1       9.175  27.562   9.208  1.00  0.00     0.066 C 
BRANCH  17  18
HETATM   18  C7  UNL     1       7.993  27.662   8.273  1.00  0.00     0.069 A 
HETATM   19  N3  UNL     1       7.665  28.707   7.509  1.00  0.00    -0.296 N 
HETATM   20  N2  UNL     1       6.635  28.658   6.781  1.00  0.00    -0.279 N 
ATOM     21  H3  UNL     1       8.246  29.545   7.514  1.00  0.00     0.187 HD
HETATM   22  C6  UNL     1       5.877  27.550   6.781  1.00  0.00     0.167 A 
ATOM     23  H2  UNL     1       6.381  29.454   6.196  1.00  0.00     0.189 HD
HETATM   24  S1  UNL     1       6.738  26.570   7.902  1.00  0.00    -0.038 SA
BRANCH  22  25
HETATM   25  N1  UNL     1       4.796  27.350   6.091  1.00  0.00    -0.306 N 
HETATM   26  C5  UNL     1       5.016  27.189   4.638  1.00  0.00     0.227 C 
HETATM   27  O1  UNL     1       4.437  28.028   3.949  1.00  0.00    -0.273 OA
ATOM     28  H1  UNL     1       3.870  27.308   6.516  1.00  0.00     0.171 HD
BRANCH  26  29
HETATM   29  C4  UNL     1       5.868  26.088   4.278  1.00  0.00     0.130 C 
BRANCH  29  30
HETATM   30  C3  UNL     1       5.381  25.051   3.367  1.00  0.00    -0.022 C 
BRANCH  30  31
HETATM   31  C2  UNL     1       6.156  24.592   2.229  1.00  0.00    -0.034 C 
HETATM   32  C1  UNL     1       7.028  25.452   1.422  1.00  0.00     0.036 C 
ENDBRANCH  30  31
ENDBRANCH  29  30
ENDBRANCH  26  29
ENDBRANCH  22  25
ENDBRANCH  17  18
ENDBRANCH  16  17
ENDBRANCH  15  16
ENDBRANCH  14  15
ENDBRANCH   1  14
BRANCH   6  33
HETATM   33  N6  UNL     1      13.455  23.297   4.468  1.00  0.00    -0.309 N 
HETATM   34  C14 UNL     1      14.702  22.639   4.577  1.00  0.00     0.261 C 
HETATM   35  O2  UNL     1      15.725  23.403   4.499  1.00  0.00    -0.270 OA
ATOM     36  H6  UNL     1      12.930  23.156   3.605  1.00  0.00     0.170 HD
BRANCH  34  37
HETATM   37  C15 UNL     1      14.861  21.183   4.766  1.00  0.00     0.232 C 
HETATM   38  C16 UNL     1      13.490  20.564   4.964  1.00  0.00     0.059 C 
HETATM   39  C17 UNL     1      15.677  20.822   5.988  1.00  0.00     0.059 C 
BRANCH  37  40
HETATM   40  N7  UNL     1      15.537  20.649   3.609  1.00  0.00     0.106 N 
HETATM   41  C18 UNL     1      16.434  19.577   3.879  1.00  0.00     0.274 C 
HETATM   42  C19 UNL     1      16.430  18.736   2.605  1.00  0.00     0.032 C 
HETATM   43  C20 UNL     1      14.996  18.825   2.167  1.00  0.00     0.032 C 
HETATM   44  C21 UNL     1      14.616  20.222   2.576  1.00  0.00     0.274 C 
ENDBRANCH  37  40
ENDBRANCH  34  37
ENDBRANCH   6  33
TORSDOF 12
ENDMDL
MODEL 2
REMARK VINA RESULT: -9.230391200      1.448      2.195
REMARK  12 active torsions:
REMARK  status: ('A' for Active; 'I' for Inactive)
REMARK    1  A    between atoms: C2_2  and  C3_3 
REMARK    2  A    between atoms: C3_3  and  C4_4 
REMARK    3  A    between atoms: C4_4  and  C5_5 
REMARK       I    between atoms: C5_5  and  N1_7 
REMARK    4  A    between atoms: N1_7  and  C6_9 
REMARK    5  A    between atoms: C7_14  and  C8_15 
REMARK    6  A    between atoms: C8_15  and  C9_16 
REMARK    7  A    between atoms: C9_16  and  C10_17 
REMARK    8  A    between atoms: C10_17  and  C11_18 
REMARK    9  A    between atoms: C11_18  and  C12_19 
REMARK   10  A    between atoms: C13_24  and  N6_25 
REMARK       I    between atoms: N6_25  and  C14_27 
REMARK   11  A    between atoms: C14_27  and  C15_29 
REMARK   12  A    between atoms: C15_29  and  N7_32 
ROOT
HETATM    1  C12 UNL     1      12.063  25.529   7.159  1.00  0.00     0.037 A 
HETATM    2  N4  UNL     1      13.186  24.823   7.383  1.00  0.00    -0.302 N 
ATOM      3  H4  UNL     1      13.662  24.927   8.279  1.00  0.00     0.186 HD
HETATM    4  N5  UNL     1      13.692  24.000   6.484  1.00  0.00    -0.284 N 
ATOM      5  H5  UNL     1      14.545  23.470   6.669  1.00  0.00     0.188 HD
HETATM    6  C13 UNL     1      13.031  23.889   5.301  1.00  0.00     0.134 A 
HETATM    7  C22 UNL     1      11.887  24.565   4.991  1.00  0.00     0.028 A 
HETATM    8  C23 UNL     1      11.266  24.396   3.771  1.00  0.00    -0.047 A 
HETATM    9  C24 UNL     1      11.783  23.508   2.740  1.00  0.00     0.049 C 
HETATM   10  C25 UNL     1      10.094  25.153   3.595  1.00  0.00     0.007 A 
HETATM   11  C26 UNL     1       9.577  25.994   4.521  1.00  0.00     0.002 A 
HETATM   12  C27 UNL     1      10.231  26.135   5.733  1.00  0.00     0.014 A 
HETATM   13  C28 UNL     1      11.385  25.426   5.974  1.00  0.00     0.002 A 
ENDROOT
BRANCH   1  14
HETATM   14  C11 UNL     1      11.611  26.456   8.217  1.00  0.00     0.059 C 
BRANCH  14  15
HETATM   15  C10 UNL     1      11.082  25.680   9.406  1.00  0.00     0.006 C 
BRANCH  15  16
HETATM   16  C9  UNL     1       9.613  25.387   9.305  1.00  0.00     0.007 C 
BRANCH  16  17
HETATM   17  C8  UNL     1       8.787  26.629   9.517  1.00  0.00     0.066 C 
BRANCH  17  18
HETATM   18  C7  UNL     1       7.972  26.931   8.283  1.00  0.00     0.069 A 
HETATM   19  N3  UNL     1       7.144  26.097   7.648  1.00  0.00    -0.296 N 
HETATM   20  N2  UNL     1       6.532  26.481   6.613  1.00  0.00    -0.279 N 
ATOM     21  H3  UNL     1       7.005  25.149   7.999  1.00  0.00     0.187 HD
HETATM   22  C6  UNL     1       6.720  27.729   6.159  1.00  0.00     0.167 A 
ATOM     23  H2  UNL     1       5.899  25.847   6.125  1.00  0.00     0.189 HD
HETATM   24  S1  UNL     1       7.840  28.330   7.317  1.00  0.00    -0.038 SA
BRANCH  22  25
HETATM   25  N1  UNL     1       6.166  28.267   5.114  1.00  0.00    -0.306 N 
HETATM   26  C5  UNL     1       4.700  28.428   5.212  1.00  0.00     0.227 C 
HETATM   27  O1  UNL     1       4.073  27.825   4.340  1.00  0.00    -0.273 OA
ATOM     28  H1  UNL     1       6.699  28.554   4.294  1.00  0.00     0.171 HD
BRANCH  26  29
HETATM   29  C4  UNL     1       4.257  29.251   6.303  1.00  0.00     0.130 C 
BRANCH  29  30
HETATM   30  C3  UNL     1       3.300  28.725   7.279  1.00  0.00    -0.022 C 
BRANCH  30  31
HETATM   31  C2  UNL     1       3.343  27.352   7.745  1.00  0.00    -0.034 C 
HETATM   32  C1  UNL     1       2.296  26.358   7.487  1.00  0.00     0.036 C 
ENDBRANCH  30  31
ENDBRANCH  29  30
ENDBRANCH  26  29
ENDBRANCH  22  25
ENDBRANCH  17  18
ENDBRANCH  16  17
ENDBRANCH  15  16
ENDBRANCH  14  15
ENDBRANCH   1  14
BRANCH   6  33
HETATM   33  N6  UNL     1      13.553  23.105   4.458  1.00  0.00    -0.309 N 
HETATM   34  C14 UNL     1      14.827  22.499   4.565  1.00  0.00     0.261 C 
HETATM   35  O2  UNL     1      15.817  23.292   4.402  1.00  0.00    -0.270 OA
ATOM     36  H6  UNL     1      13.006  22.890   3.624  1.00  0.00     0.170 HD
BRANCH  34  37
HETATM   37  C15 UNL     1      15.046  21.065   4.842  1.00  0.00     0.232 C 
HETATM   38  C16 UNL     1      13.709  20.420   5.154  1.00  0.00     0.059 C 
HETATM   39  C17 UNL     1      15.937  20.815   6.038  1.00  0.00     0.059 C 
BRANCH  37  40
HETATM   40  N7  UNL     1      15.679  20.475   3.688  1.00  0.00     0.106 N 
HETATM   41  C18 UNL     1      16.582  19.414   3.975  1.00  0.00     0.274 C 
HETATM   42  C19 UNL     1      16.530  18.514   2.744  1.00  0.00     0.032 C 
HETATM   43  C20 UNL     1      15.082  18.588   2.354  1.00  0.00     0.032 C 
HETATM   44  C21 UNL     1      14.720  20.004   2.710  1.00  0.00     0.274 C 
ENDBRANCH  37  40
ENDBRANCH  34  37
ENDBRANCH   6  33
TORSDOF 12
ENDMDL
MODEL 3
REMARK VINA RESULT: -9.192356251      2.948      9.826
REMARK  12 active torsions:
REMARK  status: ('A' for Active; 'I' for Inactive)
REMARK    1  A    between atoms: C2_2  and  C3_3 
REMARK    2  A    between atoms: C3_3  and  C4_4 
REMARK    3  A    between atoms: C4_4  and  C5_5 
REMARK       I    between atoms: C5_5  and  N1_7 
REMARK    4  A    between atoms: N1_7  and  C6_9 
REMARK    5  A    between atoms: C7_14  and  C8_15 
REMARK    6  A    between atoms: C8_15  and  C9_16 
REMARK    7  A    between atoms: C9_16  and  C10_17 
REMARK    8  A    between atoms: C10_17  and  C11_18 
REMARK    9  A    between atoms: C11_18  and  C12_19 
REMARK   10  A    between atoms: C13_24  and  N6_25 
REMARK       I    between atoms: N6_25  and  C14_27 
REMARK   11  A    between atoms: C14_27  and  C15_29 
REMARK   12  A    between atoms: C15_29  and  N7_32 
ROOT
HETATM    1  C12 UNL     1      11.546  25.124   5.169  1.00  0.00     0.037 A 
HETATM    2  N4  UNL     1      10.827  25.572   4.124  1.00  0.00    -0.302 N 
ATOM      3  H4  UNL     1      11.090  25.280   3.184  1.00  0.00     0.186 HD
HETATM    4  N5  UNL     1       9.792  26.377   4.275  1.00  0.00    -0.284 N 
ATOM      5  H5  UNL     1       9.255  26.709   3.473  1.00  0.00     0.188 HD
HETATM    6  C13 UNL     1       9.471  26.747   5.544  1.00  0.00     0.134 A 
HETATM    7  C22 UNL     1      10.144  26.339   6.659  1.00  0.00     0.028 A 
HETATM    8  C23 UNL     1       9.757  26.750   7.917  1.00  0.00    -0.047 A 
HETATM    9  C24 UNL     1       8.628  27.642   8.142  1.00  0.00     0.049 C 
HETATM   10  C25 UNL     1      10.540  26.245   8.970  1.00  0.00     0.007 A 
HETATM   11  C26 UNL     1      11.598  25.417   8.811  1.00  0.00     0.002 A 
HETATM   12  C27 UNL     1      11.955  25.028   7.531  1.00  0.00     0.014 A 
HETATM   13  C28 UNL     1      11.234  25.485   6.453  1.00  0.00     0.002 A 
ENDROOT
BRANCH   1  14
HETATM   14  C11 UNL     1      12.713  24.265   4.881  1.00  0.00     0.059 C 
BRANCH  14  15
HETATM   15  C10 UNL     1      12.420  23.356   3.704  1.00  0.00     0.006 C 
BRANCH  15  16
HETATM   16  C9  UNL     1      12.832  21.934   3.948  1.00  0.00     0.007 C 
BRANCH  16  17
HETATM   17  C8  UNL     1      14.152  21.621   3.295  1.00  0.00     0.066 C 
BRANCH  17  18
HETATM   18  C7  UNL     1      15.165  21.207   4.335  1.00  0.00     0.069 A 
HETATM   19  N3  UNL     1      16.060  21.995   4.938  1.00  0.00    -0.296 N 
HETATM   20  N2  UNL     1      16.860  21.509   5.784  1.00  0.00    -0.279 N 
ATOM     21  H3  UNL     1      16.096  22.989   4.715  1.00  0.00     0.187 HD
HETATM   22  C6  UNL     1      16.803  20.199   6.071  1.00  0.00     0.167 A 
ATOM     23  H2  UNL     1      17.545  22.107   6.247  1.00  0.00     0.189 HD
HETATM   24  S1  UNL     1      15.519  19.697   5.044  1.00  0.00    -0.038 SA
BRANCH  22  25
HETATM   25  N1  UNL     1      17.555  19.557   6.914  1.00  0.00    -0.306 N 
HETATM   26  C5  UNL     1      17.541  20.102   8.288  1.00  0.00     0.227 C 
HETATM   27  O1  UNL     1      18.645  20.467   8.691  1.00  0.00    -0.273 OA
ATOM     28  H1  UNL     1      18.110  18.743   6.649  1.00  0.00     0.171 HD
BRANCH  26  29
HETATM   29  C4  UNL     1      16.248  20.116   8.916  1.00  0.00     0.130 C 
BRANCH  29  30
HETATM   30  C3  UNL     1      15.675  21.378   9.388  1.00  0.00    -0.022 C 
BRANCH  30  31
HETATM   31  C2  UNL     1      14.936  22.270   8.514  1.00  0.00    -0.034 C 
HETATM   32  C1  UNL     1      13.779  21.866   7.708  1.00  0.00     0.036 C 
ENDBRANCH  30  31
ENDBRANCH  29  30
ENDBRANCH  26  29
ENDBRANCH  22  25
ENDBRANCH  17  18
ENDBRANCH  16  17
ENDBRANCH  15  16
ENDBRANCH  14  15
ENDBRANCH   1  14
BRANCH   6  33
HETATM   33  N6  UNL     1       8.485  27.531   5.649  1.00  0.00    -0.309 N 
HETATM   34  C14 UNL     1       7.410  27.640   4.738  1.00  0.00     0.261 C 
HETATM   35  O2  UNL     1       7.701  28.197   3.623  1.00  0.00    -0.270 OA
ATOM     36  H6  UNL     1       8.464  28.142   6.466  1.00  0.00     0.170 HD
BRANCH  34  37
HETATM   37  C15 UNL     1       6.039  27.162   5.007  1.00  0.00     0.232 C 
HETATM   38  C16 UNL     1       5.119  28.363   5.126  1.00  0.00     0.059 C 
HETATM   39  C17 UNL     1       5.914  26.394   6.304  1.00  0.00     0.059 C 
BRANCH  37  40
HETATM   40  N7  UNL     1       5.648  26.283   3.932  1.00  0.00     0.106 N 
HETATM   41  C18 UNL     1       6.419  25.091   3.821  1.00  0.00     0.274 C 
HETATM   42  C19 UNL     1       5.463  24.063   3.224  1.00  0.00     0.032 C 
HETATM   43  C20 UNL     1       4.160  24.417   3.881  1.00  0.00     0.032 C 
HETATM   44  C21 UNL     1       4.249  25.915   3.997  1.00  0.00     0.274 C 
ENDBRANCH  37  40
ENDBRANCH  34  37
ENDBRANCH   6  33
TORSDOF 12
ENDMDL
MODEL 4
REMARK VINA RESULT: -9.145337557      2.720      9.818
REMARK  12 active torsions:
REMARK  status: ('A' for Active; 'I' for Inactive)
REMARK    1  A    between atoms: C2_2  and  C3_3 
REMARK    2  A    between atoms: C3_3  and  C4_4 
REMARK    3  A    between atoms: C4_4  and  C5_5 
REMARK       I    between atoms: C5_5  and  N1_7 
REMARK    4  A    between atoms: N1_7  and  C6_9 
REMARK    5  A    between atoms: C7_14  and  C8_15 
REMARK    6  A    between atoms: C8_15  and  C9_16 
REMARK    7  A    between atoms: C9_16  and  C10_17 
REMARK    8  A    between atoms: C10_17  and  C11_18 
REMARK    9  A    between atoms: C11_18  and  C12_19 
REMARK   10  A    between atoms: C13_24  and  N6_25 
REMARK       I    between atoms: N6_25  and  C14_27 
REMARK   11  A    between atoms: C14_27  and  C15_29 
REMARK   12  A    between atoms: C15_29  and  N7_32 
ROOT
HETATM    1  C12 UNL     1      11.541  25.179   5.388  1.00  0.00     0.037 A 
HETATM    2  N4  UNL     1      10.858  25.598   4.307  1.00  0.00    -0.302 N 
ATOM      3  H4  UNL     1      11.164  25.295   3.383  1.00  0.00     0.186 HD
HETATM    4  N5  UNL     1       9.805  26.388   4.403  1.00  0.00    -0.284 N 
ATOM      5  H5  UNL     1       9.295  26.697   3.574  1.00  0.00     0.188 HD
HETATM    6  C13 UNL     1       9.426  26.773   5.652  1.00  0.00     0.134 A 
HETATM    7  C22 UNL     1      10.060  26.393   6.799  1.00  0.00     0.028 A 
HETATM    8  C23 UNL     1       9.615  26.817   8.033  1.00  0.00    -0.047 A 
HETATM    9  C24 UNL     1       8.464  27.694   8.198  1.00  0.00     0.049 C 
HETATM   10  C25 UNL     1      10.363  26.342   9.126  1.00  0.00     0.007 A 
HETATM   11  C26 UNL     1      11.440  25.531   9.023  1.00  0.00     0.002 A 
HETATM   12  C27 UNL     1      11.855  25.128   7.765  1.00  0.00     0.014 A 
HETATM   13  C28 UNL     1      11.171  25.555   6.651  1.00  0.00     0.002 A 
ENDROOT
BRANCH   1  14
HETATM   14  C11 UNL     1      12.733  24.335   5.162  1.00  0.00     0.059 C 
BRANCH  14  15
HETATM   15  C10 UNL     1      12.388  23.170   4.256  1.00  0.00     0.006 C 
BRANCH  15  16
HETATM   16  C9  UNL     1      12.336  21.859   4.985  1.00  0.00     0.007 C 
BRANCH  16  17
HETATM   17  C8  UNL     1      13.075  21.926   6.295  1.00  0.00     0.066 C 
BRANCH  17  18
HETATM   18  C7  UNL     1      14.449  21.315   6.152  1.00  0.00     0.069 A 
HETATM   19  N3  UNL     1      14.939  20.280   6.839  1.00  0.00    -0.296 N 
HETATM   20  N2  UNL     1      16.117  19.880   6.624  1.00  0.00    -0.279 N 
ATOM     21  H3  UNL     1      14.361  19.812   7.537  1.00  0.00     0.187 HD
HETATM   22  C6  UNL     1      16.868  20.503   5.703  1.00  0.00     0.167 A 
ATOM     23  H2  UNL     1      16.495  19.091   7.147  1.00  0.00     0.189 HD
HETATM   24  S1  UNL     1      15.774  21.711   5.155  1.00  0.00    -0.038 SA
BRANCH  22  25
HETATM   25  N1  UNL     1      18.089  20.210   5.372  1.00  0.00    -0.306 N 
HETATM   26  C5  UNL     1      18.240  18.926   4.656  1.00  0.00     0.227 C 
HETATM   27  O1  UNL     1      18.968  18.116   5.232  1.00  0.00    -0.273 OA
ATOM     28  H1  UNL     1      18.880  20.817   5.588  1.00  0.00     0.171 HD
BRANCH  26  29
HETATM   29  C4  UNL     1      17.513  18.837   3.419  1.00  0.00     0.130 C 
BRANCH  29  30
HETATM   30  C3  UNL     1      16.330  17.980   3.322  1.00  0.00    -0.022 C 
BRANCH  30  31
HETATM   31  C2  UNL     1      14.996  18.518   3.132  1.00  0.00    -0.034 C 
HETATM   32  C1  UNL     1      14.664  19.589   2.187  1.00  0.00     0.036 C 
ENDBRANCH  30  31
ENDBRANCH  29  30
ENDBRANCH  26  29
ENDBRANCH  22  25
ENDBRANCH  17  18
ENDBRANCH  16  17
ENDBRANCH  15  16
ENDBRANCH  14  15
ENDBRANCH   1  14
BRANCH   6  33
HETATM   33  N6  UNL     1       8.424  27.541   5.704  1.00  0.00    -0.309 N 
HETATM   34  C14 UNL     1       7.394  27.629   4.740  1.00  0.00     0.261 C 
HETATM   35  O2  UNL     1       7.731  28.185   3.638  1.00  0.00    -0.270 OA
ATOM     36  H6  UNL     1       8.353  28.155   6.515  1.00  0.00     0.170 HD
BRANCH  34  37
HETATM   37  C15 UNL     1       6.019  27.130   4.943  1.00  0.00     0.232 C 
HETATM   38  C16 UNL     1       5.077  28.318   5.019  1.00  0.00     0.059 C 
HETATM   39  C17 UNL     1       5.844  26.359   6.232  1.00  0.00     0.059 C 
BRANCH  37  40
HETATM   40  N7  UNL     1       5.693  26.247   3.851  1.00  0.00     0.106 N 
HETATM   41  C18 UNL     1       6.428  25.028   3.824  1.00  0.00     0.274 C 
HETATM   42  C19 UNL     1       5.492  24.023   3.160  1.00  0.00     0.032 C 
HETATM   43  C20 UNL     1       4.151  24.432   3.696  1.00  0.00     0.032 C 
HETATM   44  C21 UNL     1       4.281  25.927   3.798  1.00  0.00     0.274 C 
ENDBRANCH  37  40
ENDBRANCH  34  37
ENDBRANCH   6  33
TORSDOF 12
ENDMDL
MODEL 5
REMARK VINA RESULT: -9.109733591      3.516      7.067
REMARK  12 active torsions:
REMARK  status: ('A' for Active; 'I' for Inactive)
REMARK    1  A    between atoms: C2_2  and  C3_3 
REMARK    2  A    between atoms: C3_3  and  C4_4 
REMARK    3  A    between atoms: C4_4  and  C5_5 
REMARK       I    between atoms: C5_5  and  N1_7 
REMARK    4  A    between atoms: N1_7  and  C6_9 
REMARK    5  A    between atoms: C7_14  and  C8_15 
REMARK    6  A    between atoms: C8_15  and  C9_16 
REMARK    7  A    between atoms: C9_16  and  C10_17 
REMARK    8  A    between atoms: C10_17  and  C11_18 
REMARK    9  A    between atoms: C11_18  and  C12_19 
REMARK   10  A    between atoms: C13_24  and  N6_25 
REMARK       I    between atoms: N6_25  and  C14_27 
REMARK   11  A    between atoms: C14_27  and  C15_29 
REMARK   12  A    between atoms: C15_29  and  N7_32 
ROOT
HETATM    1  C12 UNL     1      15.163  20.831   4.166  1.00  0.00     0.037 A 
HETATM    2  N4  UNL     1      15.319  21.362   5.392  1.00  0.00    -0.302 N 
ATOM      3  H4  UNL     1      14.778  22.189   5.643  1.00  0.00     0.186 HD
HETATM    4  N5  UNL     1      16.150  20.851   6.280  1.00  0.00    -0.284 N 
ATOM      5  H5  UNL     1      16.258  21.264   7.207  1.00  0.00     0.188 HD
HETATM    6  C13 UNL     1      16.858  19.750   5.909  1.00  0.00     0.134 A 
HETATM    7  C22 UNL     1      16.759  19.146   4.689  1.00  0.00     0.028 A 
HETATM    8  C23 UNL     1      17.504  18.027   4.384  1.00  0.00    -0.047 A 
HETATM    9  C24 UNL     1      18.440  17.424   5.323  1.00  0.00     0.049 C 
HETATM   10  C25 UNL     1      17.294  17.511   3.093  1.00  0.00     0.007 A 
HETATM   11  C26 UNL     1      16.439  18.037   2.186  1.00  0.00     0.002 A 
HETATM   12  C27 UNL     1      15.710  19.163   2.531  1.00  0.00     0.014 A 
HETATM   13  C28 UNL     1      15.866  19.722   3.778  1.00  0.00     0.002 A 
ENDROOT
BRANCH   1  14
HETATM   14  C11 UNL     1      14.241  21.513   3.234  1.00  0.00     0.059 C 
BRANCH  14  15
HETATM   15  C10 UNL     1      13.479  22.607   3.955  1.00  0.00     0.006 C 
BRANCH  15  16
HETATM   16  C9  UNL     1      12.013  22.607   3.634  1.00  0.00     0.007 C 
BRANCH  16  17
HETATM   17  C8  UNL     1      11.575  23.924   3.051  1.00  0.00     0.066 C 
BRANCH  17  18
HETATM   18  C7  UNL     1      10.692  24.661   4.030  1.00  0.00     0.069 A 
HETATM   19  N3  UNL     1      10.512  25.983   4.106  1.00  0.00    -0.296 N 
HETATM   20  N2  UNL     1       9.751  26.466   4.988  1.00  0.00    -0.279 N 
ATOM     21  H3  UNL     1      10.991  26.601   3.451  1.00  0.00     0.187 HD
HETATM   22  C6  UNL     1       9.126  25.644   5.845  1.00  0.00     0.167 A 
ATOM     23  H2  UNL     1       9.611  27.475   5.050  1.00  0.00     0.189 HD
HETATM   24  S1  UNL     1       9.701  24.116   5.305  1.00  0.00    -0.038 SA
BRANCH  22  25
HETATM   25  N1  UNL     1       8.317  25.989   6.801  1.00  0.00    -0.306 N 
HETATM   26  C5  UNL     1       8.804  25.674   8.160  1.00  0.00     0.227 C 
HETATM   27  O1  UNL     1       8.069  24.914   8.790  1.00  0.00    -0.273 OA
ATOM     28  H1  UNL     1       7.419  26.440   6.627  1.00  0.00     0.171 HD
BRANCH  26  29
HETATM   29  C4  UNL     1      10.048  26.302   8.514  1.00  0.00     0.130 C 
BRANCH  29  30
HETATM   30  C3  UNL     1      11.227  25.483   8.806  1.00  0.00    -0.022 C 
BRANCH  30  31
HETATM   31  C2  UNL     1      12.282  25.268   7.834  1.00  0.00    -0.034 C 
HETATM   32  C1  UNL     1      12.838  23.953   7.495  1.00  0.00     0.036 C 
ENDBRANCH  30  31
ENDBRANCH  29  30
ENDBRANCH  26  29
ENDBRANCH  22  25
ENDBRANCH  17  18
ENDBRANCH  16  17
ENDBRANCH  15  16
ENDBRANCH  14  15
ENDBRANCH   1  14
BRANCH   6  33
HETATM   33  N6  UNL     1      17.655  19.297   6.779  1.00  0.00    -0.309 N 
HETATM   34  C14 UNL     1      18.054  19.957   7.964  1.00  0.00     0.261 C 
HETATM   35  O2  UNL     1      18.846  20.947   7.790  1.00  0.00    -0.270 OA
ATOM     36  H6  UNL     1      18.047  18.371   6.610  1.00  0.00     0.170 HD
BRANCH  34  37
HETATM   37  C15 UNL     1      17.616  19.571   9.320  1.00  0.00     0.232 C 
HETATM   38  C16 UNL     1      16.340  20.322   9.653  1.00  0.00     0.059 C 
HETATM   39  C17 UNL     1      18.617  19.923  10.397  1.00  0.00     0.059 C 
BRANCH  37  40
HETATM   40  N7  UNL     1      17.426  18.141   9.342  1.00  0.00     0.106 N 
HETATM   41  C18 UNL     1      18.626  17.377   9.402  1.00  0.00     0.274 C 
HETATM   42  C19 UNL     1      18.236  16.098  10.137  1.00  0.00     0.032 C 
HETATM   43  C20 UNL     1      17.256  16.600  11.157  1.00  0.00     0.032 C 
HETATM   44  C21 UNL     1      16.560  17.713  10.422  1.00  0.00     0.274 C 
ENDBRANCH  37  40
ENDBRANCH  34  37
ENDBRANCH   6  33
TORSDOF 12
ENDMDL
