MODEL 1
REMARK VINA RESULT: -8.997051953      0.000      0.000
REMARK  12 active torsions:
REMARK  status: ('A' for Active; 'I' for Inactive)
REMARK    1  A    between atoms: C2_2  and  C3_3 
REMARK    2  A    between atoms: C3_3  and  S1_4 
REMARK    3  A    between atoms: S1_4  and  C4_5 
REMARK    4  A    between atoms: C4_5  and  C5_6 
REMARK       I    between atoms: C5_6  and  N1_8 
REMARK    5  A    between atoms: N1_8  and  C7_10 
REMARK    6  A    between atoms: C7_10  and  C8_11 
REMARK    7  A    between atoms: C7_10  and  C23_35 
REMARK       I    between atoms: C8_11  and  N2_13 
REMARK    8  A    between atoms: N2_13  and  C9_15 
REMARK    9  A    between atoms: C9_15  and  C10_16 
REMARK   10  A    between atoms: C9_15  and  C19_31 
REMARK       I    between atoms: C10_16  and  N3_18 
REMARK   11  A    between atoms: N3_18  and  C11_20 
REMARK   12  A    between atoms: C19_31  and  C21_33 
ROOT
HETATM    1  C8  UNL     1      12.309  22.008   5.633  1.00  0.00     0.265 C 
HETATM    2  O2  UNL     1      12.265  21.122   6.565  1.00  0.00    -0.266 OA
HETATM    3  N2  UNL     1      13.506  22.034   4.867  1.00  0.00    -0.342 N 
ATOM      4  H2  UNL     1      13.594  22.730   4.127  1.00  0.00     0.163 HD
ENDROOT
BRANCH   3   5
HETATM    5  C9  UNL     1      14.601  21.123   5.085  1.00  0.00     0.181 C 
BRANCH   5   6
HETATM    6  C10 UNL     1      15.803  21.827   5.609  1.00  0.00     0.246 C 
HETATM    7  O3  UNL     1      15.773  23.087   5.830  1.00  0.00    -0.271 OA
HETATM    8  N3  UNL     1      17.026  21.198   5.894  1.00  0.00    -0.305 N 
ATOM      9  H3  UNL     1      17.756  21.223   5.181  1.00  0.00     0.171 HD
BRANCH   8  10
HETATM   10  C11 UNL     1      17.287  20.580   7.027  1.00  0.00     0.152 A 
HETATM   11  N4  UNL     1      17.733  19.337   7.194  1.00  0.00    -0.335 N 
HETATM   12  C12 UNL     1      17.937  18.904   8.424  1.00  0.00     0.051 A 
ATOM     13  H4  UNL     1      17.913  18.734   6.391  1.00  0.00     0.168 HD
HETATM   14  C13 UNL     1      18.403  17.623   8.785  1.00  0.00     0.037 A 
HETATM   15  C18 UNL     1      17.674  19.768   9.449  1.00  0.00     0.035 A 
HETATM   16  C14 UNL     1      18.574  17.291  10.087  1.00  0.00    -0.060 A 
HETATM   17  C15 UNL     1      19.073  15.910  10.425  1.00  0.00     0.048 C 
HETATM   18  C16 UNL     1      18.316  18.142  11.138  1.00  0.00     0.008 A 
HETATM   19  C17 UNL     1      17.860  19.395  10.792  1.00  0.00     0.022 A 
HETATM   20  S2  UNL     1      17.147  21.162   8.623  1.00  0.00    -0.052 SA
ENDBRANCH   8  10
ENDBRANCH   5   6
BRANCH   5  21
HETATM   21  C19 UNL     1      14.903  20.195   3.981  1.00  0.00     0.013 C 
HETATM   22  C20 UNL     1      14.506  18.777   4.437  1.00  0.00     0.012 C 
BRANCH  21  23
HETATM   23  C21 UNL     1      14.272  20.497   2.658  1.00  0.00     0.002 C 
HETATM   24  C22 UNL     1      14.979  19.670   1.568  1.00  0.00     0.005 C 
ENDBRANCH  21  23
ENDBRANCH   5  21
ENDBRANCH   3   5
BRANCH   1  25
HETATM   25  C7  UNL     1      11.151  22.872   5.481  1.00  0.00     0.086 C 
BRANCH  25  26
HETATM   26  N1  UNL     1      10.811  23.224   4.123  1.00  0.00    -0.320 N 
HETATM   27  C5  UNL     1      11.169  24.351   3.381  1.00  0.00     0.233 C 
HETATM   28  O1  UNL     1      11.899  25.263   3.781  1.00  0.00    -0.272 OA
HETATM   29  C6  UNL     1       9.922  22.277   3.358  1.00  0.00     0.159 C 
BRANCH  27  30
HETATM   30  C4  UNL     1      10.651  24.514   1.973  1.00  0.00     0.177 C 
BRANCH  30  31
HETATM   31  S1  UNL     1       9.351  25.793   2.008  1.00  0.00    -0.160 SA
BRANCH  31  32
HETATM   32  C3  UNL     1       7.843  25.178   2.763  1.00  0.00     0.074 C 
BRANCH  32  33
HETATM   33  C2  UNL     1       7.772  25.613   4.223  1.00  0.00     0.006 C 
HETATM   34  C1  UNL     1       8.640  26.827   4.420  1.00  0.00     0.006 C 
ENDBRANCH  32  33
ENDBRANCH  31  32
ENDBRANCH  30  31
ENDBRANCH  27  30
ENDBRANCH  25  26
BRANCH  25  35
HETATM   35  C23 UNL     1      11.035  24.032   6.469  1.00  0.00     0.041 C 
HETATM   36  C24 UNL     1       9.677  24.112   7.069  1.00  0.00     0.011 C 
HETATM   37  C25 UNL     1       9.509  25.386   7.888  1.00  0.00     0.001 C 
HETATM   38  C26 UNL     1      10.595  25.457   8.945  1.00  0.00     0.000 C 
HETATM   39  C27 UNL     1      11.947  25.386   8.316  1.00  0.00     0.001 C 
HETATM   40  C28 UNL     1      12.117  24.107   7.480  1.00  0.00     0.011 C 
ENDBRANCH  25  35
ENDBRANCH   1  25
TORSDOF 12
ENDMDL
MODEL 2
REMARK VINA RESULT: -8.910790182      2.175     10.218
REMARK  12 active torsions:
REMARK  status: ('A' for Active; 'I' for Inactive)
REMARK    1  A    between atoms: C2_2  and  C3_3 
REMARK    2  A    between atoms: C3_3  and  S1_4 
REMARK    3  A    between atoms: S1_4  and  C4_5 
REMARK    4  A    between atoms: C4_5  and  C5_6 
REMARK       I    between atoms: C5_6  and  N1_8 
REMARK    5  A    between atoms: N1_8  and  C7_10 
REMARK    6  A    between atoms: C7_10  and  C8_11 
REMARK    7  A    between atoms: C7_10  and  C23_35 
REMARK       I    between atoms: C8_11  and  N2_13 
REMARK    8  A    between atoms: N2_13  and  C9_15 
REMARK    9  A    between atoms: C9_15  and  C10_16 
REMARK   10  A    between atoms: C9_15  and  C19_31 
REMARK       I    between atoms: C10_16  and  N3_18 
REMARK   11  A    between atoms: N3_18  and  C11_20 
REMARK   12  A    between atoms: C19_31  and  C21_33 
ROOT
HETATM    1  C8  UNL     1      12.478  22.025   5.561  1.00  0.00     0.265 C 
HETATM    2  O2  UNL     1      11.352  21.481   5.258  1.00  0.00    -0.266 OA
HETATM    3  N2  UNL     1      12.454  23.438   5.722  1.00  0.00    -0.342 N 
ATOM      4  H2  UNL     1      13.326  23.915   5.946  1.00  0.00     0.163 HD
ENDROOT
BRANCH   3   5
HETATM    5  C9  UNL     1      11.256  24.226   5.582  1.00  0.00     0.181 C 
BRANCH   5   6
HETATM    6  C10 UNL     1      11.271  25.028   4.330  1.00  0.00     0.246 C 
HETATM    7  O3  UNL     1      12.191  24.854   3.457  1.00  0.00    -0.271 OA
HETATM    8  N3  UNL     1      10.317  26.008   4.006  1.00  0.00    -0.305 N 
ATOM      9  H3  UNL     1      10.539  26.981   4.216  1.00  0.00     0.171 HD
BRANCH   8  10
HETATM   10  C11 UNL     1       9.155  25.744   3.447  1.00  0.00     0.152 A 
HETATM   11  N4  UNL     1       8.130  25.076   3.973  1.00  0.00    -0.335 N 
HETATM   12  C12 UNL     1       7.041  24.923   3.242  1.00  0.00     0.051 A 
ATOM     13  H4  UNL     1       8.185  24.693   4.917  1.00  0.00     0.168 HD
HETATM   14  C13 UNL     1       5.868  24.247   3.636  1.00  0.00     0.037 A 
HETATM   15  C18 UNL     1       7.041  25.464   1.988  1.00  0.00     0.035 A 
HETATM   16  C14 UNL     1       4.809  24.154   2.797  1.00  0.00    -0.060 A 
HETATM   17  C15 UNL     1       3.576  23.421   3.260  1.00  0.00     0.048 C 
HETATM   18  C16 UNL     1       4.783  24.689   1.528  1.00  0.00     0.008 A 
HETATM   19  C17 UNL     1       5.927  25.350   1.137  1.00  0.00     0.022 A 
HETATM   20  S2  UNL     1       8.589  26.169   1.896  1.00  0.00    -0.052 SA
ENDBRANCH   8  10
ENDBRANCH   5   6
BRANCH   5  21
HETATM   21  C19 UNL     1      10.849  25.001   6.768  1.00  0.00     0.013 C 
HETATM   22  C20 UNL     1       9.497  24.442   7.254  1.00  0.00     0.012 C 
BRANCH  21  23
HETATM   23  C21 UNL     1      11.818  25.047   7.907  1.00  0.00     0.002 C 
HETATM   24  C22 UNL     1      11.116  25.657   9.135  1.00  0.00     0.005 C 
ENDBRANCH  21  23
ENDBRANCH   5  21
ENDBRANCH   3   5
BRANCH   1  25
HETATM   25  C7  UNL     1      13.626  21.146   5.693  1.00  0.00     0.086 C 
BRANCH  25  26
HETATM   26  N1  UNL     1      14.809  21.748   6.261  1.00  0.00    -0.320 N 
HETATM   27  C5  UNL     1      15.344  21.619   7.544  1.00  0.00     0.233 C 
HETATM   28  O1  UNL     1      14.880  20.906   8.439  1.00  0.00    -0.272 OA
HETATM   29  C6  UNL     1      15.607  22.679   5.385  1.00  0.00     0.159 C 
BRANCH  27  30
HETATM   30  C4  UNL     1      16.586  22.390   7.917  1.00  0.00     0.177 C 
BRANCH  30  31
HETATM   31  S1  UNL     1      17.938  21.185   8.136  1.00  0.00    -0.160 SA
BRANCH  31  32
HETATM   32  C3  UNL     1      17.726  19.758   7.068  1.00  0.00     0.074 C 
BRANCH  32  33
HETATM   33  C2  UNL     1      18.364  20.020   5.709  1.00  0.00     0.006 C 
HETATM   34  C1  UNL     1      18.532  18.714   4.980  1.00  0.00     0.006 C 
ENDBRANCH  32  33
ENDBRANCH  31  32
ENDBRANCH  30  31
ENDBRANCH  27  30
ENDBRANCH  25  26
BRANCH  25  35
HETATM   35  C23 UNL     1      13.911  20.220   4.512  1.00  0.00     0.041 C 
HETATM   36  C24 UNL     1      14.312  20.981   3.298  1.00  0.00     0.011 C 
HETATM   37  C25 UNL     1      14.392  20.073   2.077  1.00  0.00     0.001 C 
HETATM   38  C26 UNL     1      15.343  18.926   2.359  1.00  0.00     0.000 C 
HETATM   39  C27 UNL     1      14.913  18.172   3.574  1.00  0.00     0.001 C 
HETATM   40  C28 UNL     1      14.821  19.086   4.806  1.00  0.00     0.011 C 
ENDBRANCH  25  35
ENDBRANCH   1  25
TORSDOF 12
ENDMDL
MODEL 3
REMARK VINA RESULT: -8.883256930      1.104      1.541
REMARK  12 active torsions:
REMARK  status: ('A' for Active; 'I' for Inactive)
REMARK    1  A    between atoms: C2_2  and  C3_3 
REMARK    2  A    between atoms: C3_3  and  S1_4 
REMARK    3  A    between atoms: S1_4  and  C4_5 
REMARK    4  A    between atoms: C4_5  and  C5_6 
REMARK       I    between atoms: C5_6  and  N1_8 
REMARK    5  A    between atoms: N1_8  and  C7_10 
REMARK    6  A    between atoms: C7_10  and  C8_11 
REMARK    7  A    between atoms: C7_10  and  C23_35 
REMARK       I    between atoms: C8_11  and  N2_13 
REMARK    8  A    between atoms: N2_13  and  C9_15 
REMARK    9  A    between atoms: C9_15  and  C10_16 
REMARK   10  A    between atoms: C9_15  and  C19_31 
REMARK       I    between atoms: C10_16  and  N3_18 
REMARK   11  A    between atoms: N3_18  and  C11_20 
REMARK   12  A    between atoms: C19_31  and  C21_33 
ROOT
HETATM    1  C8  UNL     1      12.077  21.846   5.593  1.00  0.00     0.265 C 
HETATM    2  O2  UNL     1      11.804  20.776   6.252  1.00  0.00    -0.266 OA
HETATM    3  N2  UNL     1      13.410  21.946   5.110  1.00  0.00    -0.342 N 
ATOM      4  H2  UNL     1      13.678  22.784   4.595  1.00  0.00     0.163 HD
ENDROOT
BRANCH   3   5
HETATM    5  C9  UNL     1      14.401  20.920   5.313  1.00  0.00     0.181 C 
BRANCH   5   6
HETATM    6  C10 UNL     1      15.527  21.405   6.156  1.00  0.00     0.246 C 
HETATM    7  O3  UNL     1      15.300  22.099   7.207  1.00  0.00    -0.271 OA
HETATM    8  N3  UNL     1      16.883  21.156   5.885  1.00  0.00    -0.305 N 
ATOM      9  H3  UNL     1      17.411  21.872   5.386  1.00  0.00     0.171 HD
BRANCH   8  10
HETATM   10  C11 UNL     1      17.511  20.055   6.238  1.00  0.00     0.152 A 
HETATM   11  N4  UNL     1      17.545  19.484   7.441  1.00  0.00    -0.335 N 
HETATM   12  C12 UNL     1      18.237  18.370   7.586  1.00  0.00     0.051 A 
ATOM     13  H4  UNL     1      17.049  19.899   8.230  1.00  0.00     0.168 HD
HETATM   14  C13 UNL     1      18.382  17.635   8.781  1.00  0.00     0.037 A 
HETATM   15  C18 UNL     1      18.875  17.874   6.485  1.00  0.00     0.035 A 
HETATM   16  C14 UNL     1      19.120  16.500   8.809  1.00  0.00    -0.060 A 
HETATM   17  C15 UNL     1      19.248  15.748  10.109  1.00  0.00     0.048 C 
HETATM   18  C16 UNL     1      19.773  15.980   7.715  1.00  0.00     0.008 A 
HETATM   19  C17 UNL     1      19.636  16.693   6.545  1.00  0.00     0.022 A 
HETATM   20  S2  UNL     1      18.467  19.013   5.285  1.00  0.00    -0.052 SA
ENDBRANCH   8  10
ENDBRANCH   5   6
BRANCH   5  21
HETATM   21  C19 UNL     1      14.843  20.198   4.107  1.00  0.00     0.013 C 
HETATM   22  C20 UNL     1      14.514  18.705   4.305  1.00  0.00     0.012 C 
BRANCH  21  23
HETATM   23  C21 UNL     1      14.289  20.670   2.800  1.00  0.00     0.002 C 
HETATM   24  C22 UNL     1      14.799  19.745   1.678  1.00  0.00     0.005 C 
ENDBRANCH  21  23
ENDBRANCH   5  21
ENDBRANCH   3   5
BRANCH   1  25
HETATM   25  C7  UNL     1      11.008  22.816   5.429  1.00  0.00     0.086 C 
BRANCH  25  26
HETATM   26  N1  UNL     1      10.720  23.200   4.067  1.00  0.00    -0.320 N 
HETATM   27  C5  UNL     1      11.101  24.345   3.367  1.00  0.00     0.233 C 
HETATM   28  O1  UNL     1      11.811  25.250   3.816  1.00  0.00    -0.272 OA
HETATM   29  C6  UNL     1       9.866  22.268   3.246  1.00  0.00     0.159 C 
BRANCH  27  30
HETATM   30  C4  UNL     1      10.638  24.540   1.944  1.00  0.00     0.177 C 
BRANCH  30  31
HETATM   31  S1  UNL     1       9.335  25.817   1.958  1.00  0.00    -0.160 SA
BRANCH  31  32
HETATM   32  C3  UNL     1       7.825  25.206   2.714  1.00  0.00     0.074 C 
BRANCH  32  33
HETATM   33  C2  UNL     1       7.755  25.642   4.173  1.00  0.00     0.006 C 
HETATM   34  C1  UNL     1       8.582  26.886   4.359  1.00  0.00     0.006 C 
ENDBRANCH  32  33
ENDBRANCH  31  32
ENDBRANCH  30  31
ENDBRANCH  27  30
ENDBRANCH  25  26
BRANCH  25  35
HETATM   35  C23 UNL     1      10.992  23.981   6.416  1.00  0.00     0.041 C 
HETATM   36  C24 UNL     1       9.642  24.189   7.003  1.00  0.00     0.011 C 
HETATM   37  C25 UNL     1       9.586  25.473   7.822  1.00  0.00     0.001 C 
HETATM   38  C26 UNL     1      10.663  25.440   8.890  1.00  0.00     0.000 C 
HETATM   39  C27 UNL     1      12.008  25.243   8.275  1.00  0.00     0.001 C 
HETATM   40  C28 UNL     1      12.066  23.954   7.439  1.00  0.00     0.011 C 
ENDBRANCH  25  35
ENDBRANCH   1  25
TORSDOF 12
ENDMDL
MODEL 4
REMARK VINA RESULT: -8.791403250      0.778      1.303
REMARK  12 active torsions:
REMARK  status: ('A' for Active; 'I' for Inactive)
REMARK    1  A    between atoms: C2_2  and  C3_3 
REMARK    2  A    between atoms: C3_3  and  S1_4 
REMARK    3  A    between atoms: S1_4  and  C4_5 
REMARK    4  A    between atoms: C4_5  and  C5_6 
REMARK       I    between atoms: C5_6  and  N1_8 
REMARK    5  A    between atoms: N1_8  and  C7_10 
REMARK    6  A    between atoms: C7_10  and  C8_11 
REMARK    7  A    between atoms: C7_10  and  C23_35 
REMARK       I    between atoms: C8_11  and  N2_13 
REMARK    8  A    between atoms: N2_13  and  C9_15 
REMARK    9  A    between atoms: C9_15  and  C10_16 
REMARK   10  A    between atoms: C9_15  and  C19_31 
REMARK       I    between atoms: C10_16  and  N3_18 
REMARK   11  A    between atoms: N3_18  and  C11_20 
REMARK   12  A    between atoms: C19_31  and  C21_33 
ROOT
HETATM    1  C8  UNL     1      12.470  22.221   5.874  1.00  0.00     0.265 C 
HETATM    2  O2  UNL     1      12.619  21.575   6.977  1.00  0.00    -0.266 OA
HETATM    3  N2  UNL     1      13.479  22.004   4.896  1.00  0.00    -0.342 N 
ATOM      4  H2  UNL     1      13.413  22.507   4.011  1.00  0.00     0.163 HD
ENDROOT
BRANCH   3   5
HETATM    5  C9  UNL     1      14.590  21.109   5.094  1.00  0.00     0.181 C 
BRANCH   5   6
HETATM    6  C10 UNL     1      15.794  21.830   5.585  1.00  0.00     0.246 C 
HETATM    7  O3  UNL     1      15.757  23.093   5.791  1.00  0.00    -0.271 OA
HETATM    8  N3  UNL     1      17.029  21.217   5.855  1.00  0.00    -0.305 N 
ATOM      9  H3  UNL     1      17.744  21.239   5.128  1.00  0.00     0.171 HD
BRANCH   8  10
HETATM   10  C11 UNL     1      17.318  20.616   6.990  1.00  0.00     0.152 A 
HETATM   11  N4  UNL     1      17.709  19.356   7.170  1.00  0.00    -0.335 N 
HETATM   12  C12 UNL     1      17.954  18.946   8.400  1.00  0.00     0.051 A 
ATOM     13  H4  UNL     1      17.815  18.724   6.376  1.00  0.00     0.168 HD
HETATM   14  C13 UNL     1      18.374  17.652   8.774  1.00  0.00     0.037 A 
HETATM   15  C18 UNL     1      17.790  19.848   9.412  1.00  0.00     0.035 A 
HETATM   16  C14 UNL     1      18.596  17.346  10.074  1.00  0.00    -0.060 A 
HETATM   17  C15 UNL     1      19.042  15.950  10.426  1.00  0.00     0.048 C 
HETATM   18  C16 UNL     1      18.437  18.237  11.112  1.00  0.00     0.008 A 
HETATM   19  C17 UNL     1      18.027  19.502  10.754  1.00  0.00     0.022 A 
HETATM   20  S2  UNL     1      17.291  21.246   8.574  1.00  0.00    -0.052 SA
ENDBRANCH   8  10
ENDBRANCH   5   6
BRANCH   5  21
HETATM   21  C19 UNL     1      14.877  20.177   3.988  1.00  0.00     0.013 C 
HETATM   22  C20 UNL     1      14.471  18.763   4.447  1.00  0.00     0.012 C 
BRANCH  21  23
HETATM   23  C21 UNL     1      14.243  20.484   2.669  1.00  0.00     0.002 C 
HETATM   24  C22 UNL     1      14.973  19.692   1.568  1.00  0.00     0.005 C 
ENDBRANCH  21  23
ENDBRANCH   5  21
ENDBRANCH   3   5
BRANCH   1  25
HETATM   25  C7  UNL     1      11.311  23.089   5.763  1.00  0.00     0.086 C 
BRANCH  25  26
HETATM   26  N1  UNL     1      11.237  23.877   4.556  1.00  0.00    -0.320 N 
HETATM   27  C5  UNL     1      10.427  23.709   3.432  1.00  0.00     0.233 C 
HETATM   28  O1  UNL     1       9.574  22.826   3.297  1.00  0.00    -0.272 OA
HETATM   29  C6  UNL     1      12.170  25.055   4.434  1.00  0.00     0.159 C 
BRANCH  27  30
HETATM   30  C4  UNL     1      10.563  24.655   2.265  1.00  0.00     0.177 C 
BRANCH  30  31
HETATM   31  S1  UNL     1       9.046  25.666   2.194  1.00  0.00    -0.160 SA
BRANCH  31  32
HETATM   32  C3  UNL     1       8.328  25.889   3.824  1.00  0.00     0.074 C 
BRANCH  32  33
HETATM   33  C2  UNL     1       8.958  27.093   4.514  1.00  0.00     0.006 C 
HETATM   34  C1  UNL     1       8.055  27.556   5.626  1.00  0.00     0.006 C 
ENDBRANCH  32  33
ENDBRANCH  31  32
ENDBRANCH  30  31
ENDBRANCH  27  30
ENDBRANCH  25  26
BRANCH  25  35
HETATM   35  C23 UNL     1      10.912  23.852   7.025  1.00  0.00     0.041 C 
HETATM   36  C24 UNL     1      11.969  24.808   7.449  1.00  0.00     0.011 C 
HETATM   37  C25 UNL     1      11.656  25.411   8.813  1.00  0.00     0.001 C 
HETATM   38  C26 UNL     1      10.288  26.066   8.777  1.00  0.00     0.000 C 
HETATM   39  C27 UNL     1       9.245  25.082   8.360  1.00  0.00     0.001 C 
HETATM   40  C28 UNL     1       9.562  24.465   6.989  1.00  0.00     0.011 C 
ENDBRANCH  25  35
ENDBRANCH   1  25
TORSDOF 12
ENDMDL
MODEL 5
REMARK VINA RESULT: -8.790257378      2.132     10.387
REMARK  12 active torsions:
REMARK  status: ('A' for Active; 'I' for Inactive)
REMARK    1  A    between atoms: C2_2  and  C3_3 
REMARK    2  A    between atoms: C3_3  and  S1_4 
REMARK    3  A    between atoms: S1_4  and  C4_5 
REMARK    4  A    between atoms: C4_5  and  C5_6 
REMARK       I    between atoms: C5_6  and  N1_8 
REMARK    5  A    between atoms: N1_8  and  C7_10 
REMARK    6  A    between atoms: C7_10  and  C8_11 
REMARK    7  A    between atoms: C7_10  and  C23_35 
REMARK       I    between atoms: C8_11  and  N2_13 
REMARK    8  A    between atoms: N2_13  and  C9_15 
REMARK    9  A    between atoms: C9_15  and  C10_16 
REMARK   10  A    between atoms: C9_15  and  C19_31 
REMARK       I    between atoms: C10_16  and  N3_18 
REMARK   11  A    between atoms: N3_18  and  C11_20 
REMARK   12  A    between atoms: C19_31  and  C21_33 
ROOT
HETATM    1  C8  UNL     1      12.547  21.831   5.565  1.00  0.00     0.265 C 
HETATM    2  O2  UNL     1      11.398  21.252   5.589  1.00  0.00    -0.266 OA
HETATM    3  N2  UNL     1      12.518  23.245   5.419  1.00  0.00    -0.342 N 
ATOM      4  H2  UNL     1      13.405  23.747   5.379  1.00  0.00     0.163 HD
ENDROOT
BRANCH   3   5
HETATM    5  C9  UNL     1      11.297  24.003   5.326  1.00  0.00     0.181 C 
BRANCH   5   6
HETATM    6  C10 UNL     1      11.156  24.654   3.996  1.00  0.00     0.246 C 
HETATM    7  O3  UNL     1      11.762  24.180   2.973  1.00  0.00    -0.271 OA
HETATM    8  N3  UNL     1      10.380  25.800   3.753  1.00  0.00    -0.305 N 
ATOM      9  H3  UNL     1      10.849  26.706   3.756  1.00  0.00     0.171 HD
BRANCH   8  10
HETATM   10  C11 UNL     1       9.084  25.773   3.522  1.00  0.00     0.152 A 
HETATM   11  N4  UNL     1       8.461  25.370   2.417  1.00  0.00    -0.335 N 
HETATM   12  C12 UNL     1       7.142  25.418   2.388  1.00  0.00     0.051 A 
ATOM     13  H4  UNL     1       8.989  25.032   1.612  1.00  0.00     0.168 HD
HETATM   14  C13 UNL     1       6.322  25.034   1.307  1.00  0.00     0.037 A 
HETATM   15  C18 UNL     1       6.503  25.882   3.503  1.00  0.00     0.035 A 
HETATM   16  C14 UNL     1       4.974  25.130   1.394  1.00  0.00    -0.060 A 
HETATM   17  C15 UNL     1       4.138  24.709   0.213  1.00  0.00     0.048 C 
HETATM   18  C16 UNL     1       4.306  25.594   2.505  1.00  0.00     0.008 A 
HETATM   19  C17 UNL     1       5.101  25.971   3.564  1.00  0.00     0.022 A 
HETATM   20  S2  UNL     1       7.803  26.232   4.548  1.00  0.00    -0.052 SA
ENDBRANCH   8  10
ENDBRANCH   5   6
BRANCH   5  21
HETATM   21  C19 UNL     1      11.007  24.908   6.453  1.00  0.00     0.013 C 
HETATM   22  C20 UNL     1       9.762  24.368   7.182  1.00  0.00     0.012 C 
BRANCH  21  23
HETATM   23  C21 UNL     1      12.113  25.132   7.436  1.00  0.00     0.002 C 
HETATM   24  C22 UNL     1      11.503  25.562   8.783  1.00  0.00     0.005 C 
ENDBRANCH  21  23
ENDBRANCH   5  21
ENDBRANCH   3   5
BRANCH   1  25
HETATM   25  C7  UNL     1      13.721  20.984   5.679  1.00  0.00     0.086 C 
BRANCH  25  26
HETATM   26  N1  UNL     1      14.889  21.612   6.251  1.00  0.00    -0.320 N 
HETATM   27  C5  UNL     1      15.407  21.517   7.543  1.00  0.00     0.233 C 
HETATM   28  O1  UNL     1      14.940  20.817   8.447  1.00  0.00    -0.272 OA
HETATM   29  C6  UNL     1      15.688  22.534   5.365  1.00  0.00     0.159 C 
BRANCH  27  30
HETATM   30  C4  UNL     1      16.635  22.311   7.916  1.00  0.00     0.177 C 
BRANCH  30  31
HETATM   31  S1  UNL     1      17.978  21.123   8.255  1.00  0.00    -0.160 SA
BRANCH  31  32
HETATM   32  C3  UNL     1      17.868  19.684   7.186  1.00  0.00     0.074 C 
BRANCH  32  33
HETATM   33  C2  UNL     1      18.479  19.995   5.825  1.00  0.00     0.006 C 
HETATM   34  C1  UNL     1      18.719  18.706   5.084  1.00  0.00     0.006 C 
ENDBRANCH  32  33
ENDBRANCH  31  32
ENDBRANCH  30  31
ENDBRANCH  27  30
ENDBRANCH  25  26
BRANCH  25  35
HETATM   35  C23 UNL     1      14.026  20.083   4.484  1.00  0.00     0.041 C 
HETATM   36  C24 UNL     1      14.323  20.872   3.259  1.00  0.00     0.011 C 
HETATM   37  C25 UNL     1      14.422  19.975   2.032  1.00  0.00     0.001 C 
HETATM   38  C26 UNL     1      15.464  18.899   2.273  1.00  0.00     0.000 C 
HETATM   39  C27 UNL     1      15.137  18.114   3.500  1.00  0.00     0.001 C 
HETATM   40  C28 UNL     1      15.027  19.017   4.738  1.00  0.00     0.011 C 
ENDBRANCH  25  35
ENDBRANCH   1  25
TORSDOF 12
ENDMDL
