MODEL 1
REMARK VINA RESULT: -8.336635020      0.000      0.000
REMARK  11 active torsions:
REMARK  status: ('A' for Active; 'I' for Inactive)
REMARK    1  A    between atoms: C2_2  and  C3_3 
REMARK    2  A    between atoms: C3_3  and  C4_4 
REMARK    3  A    between atoms: C4_4  and  N1_5 
REMARK       I    between atoms: N1_5  and  C6_7 
REMARK    4  A    between atoms: C6_7  and  C7_9 
REMARK       I    between atoms: N2_13  and  C11_14 
REMARK       I    between atoms: C11_14  and  N3_16 
REMARK    5  A    between atoms: N3_16  and  C12_18 
REMARK    6  A    between atoms: C12_18  and  C13_19 
REMARK    7  A    between atoms: C12_18  and  C15_21 
REMARK    8  A    between atoms: C12_18  and  C27_39 
REMARK    9  A    between atoms: C18_24  and  C19_25 
REMARK   10  A    between atoms: C19_25  and  N4_27 
REMARK   11  A    between atoms: N4_27  and  O3_28 
REMARK       I    between atoms: N4_27  and  C21_30 
REMARK       I    between atoms: C21_30  and  N5_32 
ROOT
HETATM    1  C15 UNL     1       9.949  24.920   7.125  1.00  0.00    -0.009 A 
HETATM    2  C16 UNL     1       9.794  23.683   6.477  1.00  0.00     0.012 A 
HETATM    3  C17 UNL     1      10.780  22.737   6.329  1.00  0.00     0.010 A 
HETATM    4  C18 UNL     1      12.020  22.938   6.821  1.00  0.00    -0.032 A 
HETATM    5  C24 UNL     1      12.251  24.115   7.472  1.00  0.00     0.032 A 
HETATM    6  C25 UNL     1      11.231  25.069   7.614  1.00  0.00     0.054 A 
HETATM    7  C26 UNL     1      11.530  26.173   8.491  1.00  0.00     0.100 C 
HETATM    8  N6  UNL     1      11.776  27.007   9.214  1.00  0.00    -0.191 NA
ENDROOT
BRANCH   1   9
HETATM    9  C12 UNL     1       8.898  25.945   7.187  1.00  0.00     0.066 C 
BRANCH   9  10
HETATM   10  N3  UNL     1       8.012  25.631   6.040  1.00  0.00    -0.329 N 
HETATM   11  C11 UNL     1       6.723  26.007   5.765  1.00  0.00     0.320 C 
HETATM   12  N2  UNL     1       6.035  25.580   4.567  1.00  0.00    -0.321 N 
HETATM   13  O2  UNL     1       6.025  26.739   6.501  1.00  0.00    -0.247 OA
HETATM   14  C7  UNL     1       6.574  24.725   3.536  1.00  0.00     0.181 C 
HETATM   15  C10 UNL     1       4.700  25.937   4.190  1.00  0.00     0.129 C 
HETATM   16  C8  UNL     1       5.336  23.952   3.130  1.00  0.00     0.037 C 
HETATM   17  C9  UNL     1       4.132  24.741   3.510  1.00  0.00     0.022 C 
ATOM     18  H3  UNL     1       8.436  25.031   5.332  1.00  0.00     0.165 HD
BRANCH  14  19
HETATM   19  C6  UNL     1       7.154  25.543   2.465  1.00  0.00     0.242 C 
HETATM   20  N1  UNL     1       8.517  25.759   2.195  1.00  0.00    -0.355 N 
HETATM   21  C5  UNL     1       8.893  26.600   1.074  1.00  0.00     0.152 C 
HETATM   22  O1  UNL     1       6.329  26.125   1.698  1.00  0.00    -0.271 OA
BRANCH  20  23
HETATM   23  C4  UNL     1       9.547  25.183   2.994  1.00  0.00     0.125 C 
BRANCH  23  24
HETATM   24  C3  UNL     1      10.544  24.363   2.247  1.00  0.00     0.019 C 
BRANCH  24  25
HETATM   25  C2  UNL     1      10.673  22.941   2.805  1.00  0.00    -0.003 C 
HETATM   26  C1  UNL     1       9.296  22.288   2.807  1.00  0.00     0.005 C 
ENDBRANCH  24  25
ENDBRANCH  23  24
ENDBRANCH  20  23
ENDBRANCH  14  19
ENDBRANCH   9  10
BRANCH   9  27
HETATM   27  C13 UNL     1       7.933  25.710   8.340  1.00  0.00     0.032 C 
HETATM   28  C14 UNL     1       8.685  25.211   9.525  1.00  0.00     0.008 C 
ENDBRANCH   9  27
BRANCH   9  29
HETATM   29  C27 UNL     1       9.197  27.367   6.939  1.00  0.00     0.010 C 
HETATM   30  C28 UNL     1       9.073  27.652   5.401  1.00  0.00     0.012 C 
HETATM   31  C29 UNL     1       8.618  28.504   7.673  1.00  0.00     0.012 C 
ENDBRANCH   9  29
ENDBRANCH   1   9
BRANCH   4  32
HETATM   32  C19 UNL     1      13.133  21.975   6.698  1.00  0.00     0.148 C 
HETATM   33  C20 UNL     1      14.297  22.390   7.565  1.00  0.00     0.040 C 
BRANCH  32  34
HETATM   34  N4  UNL     1      13.615  21.887   5.338  1.00  0.00    -0.201 N 
HETATM   35  C21 UNL     1      13.973  20.660   4.728  1.00  0.00     0.344 C 
HETATM   36  O4  UNL     1      13.854  19.614   5.456  1.00  0.00    -0.245 OA
HETATM   37  N5  UNL     1      14.439  20.564   3.393  1.00  0.00    -0.341 N 
HETATM   38  C22 UNL     1      14.586  21.704   2.547  1.00  0.00     0.154 C 
HETATM   39  C23 UNL     1      14.774  19.246   2.884  1.00  0.00     0.154 C 
BRANCH  34  40
HETATM   40  O3  UNL     1      13.731  23.018   4.622  1.00  0.00    -0.283 OA
ATOM     41  H3  UNL     1      14.451  23.607   4.815  1.00  0.00     0.245 HD
ENDBRANCH  34  40
ENDBRANCH  32  34
ENDBRANCH   4  32
TORSDOF 11
ENDMDL
MODEL 2
REMARK VINA RESULT: -7.985798355      1.387      2.234
REMARK  11 active torsions:
REMARK  status: ('A' for Active; 'I' for Inactive)
REMARK    1  A    between atoms: C2_2  and  C3_3 
REMARK    2  A    between atoms: C3_3  and  C4_4 
REMARK    3  A    between atoms: C4_4  and  N1_5 
REMARK       I    between atoms: N1_5  and  C6_7 
REMARK    4  A    between atoms: C6_7  and  C7_9 
REMARK       I    between atoms: N2_13  and  C11_14 
REMARK       I    between atoms: C11_14  and  N3_16 
REMARK    5  A    between atoms: N3_16  and  C12_18 
REMARK    6  A    between atoms: C12_18  and  C13_19 
REMARK    7  A    between atoms: C12_18  and  C15_21 
REMARK    8  A    between atoms: C12_18  and  C27_39 
REMARK    9  A    between atoms: C18_24  and  C19_25 
REMARK   10  A    between atoms: C19_25  and  N4_27 
REMARK   11  A    between atoms: N4_27  and  O3_28 
REMARK       I    between atoms: N4_27  and  C21_30 
REMARK       I    between atoms: C21_30  and  N5_32 
ROOT
HETATM    1  C15 UNL     1      10.030  24.872   6.908  1.00  0.00    -0.009 A 
HETATM    2  C16 UNL     1       9.870  23.669   6.202  1.00  0.00     0.012 A 
HETATM    3  C17 UNL     1      10.881  22.797   5.881  1.00  0.00     0.010 A 
HETATM    4  C18 UNL     1      12.158  23.045   6.242  1.00  0.00    -0.032 A 
HETATM    5  C24 UNL     1      12.398  24.193   6.939  1.00  0.00     0.032 A 
HETATM    6  C25 UNL     1      11.350  25.072   7.259  1.00  0.00     0.054 A 
HETATM    7  C26 UNL     1      11.688  26.137   8.168  1.00  0.00     0.100 C 
HETATM    8  N6  UNL     1      11.971  26.941   8.912  1.00  0.00    -0.191 NA
ENDROOT
BRANCH   1   9
HETATM    9  C12 UNL     1       8.939  25.824   7.156  1.00  0.00     0.066 C 
BRANCH   9  10
HETATM   10  N3  UNL     1       7.977  25.574   6.056  1.00  0.00    -0.329 N 
HETATM   11  C11 UNL     1       6.696  26.017   5.858  1.00  0.00     0.320 C 
HETATM   12  N2  UNL     1       5.923  25.645   4.694  1.00  0.00    -0.321 N 
HETATM   13  O2  UNL     1       6.076  26.770   6.642  1.00  0.00    -0.247 OA
HETATM   14  C7  UNL     1       6.362  24.784   3.622  1.00  0.00     0.181 C 
HETATM   15  C10 UNL     1       4.589  26.074   4.396  1.00  0.00     0.129 C 
HETATM   16  C8  UNL     1       5.067  24.079   3.273  1.00  0.00     0.037 C 
HETATM   17  C9  UNL     1       3.926  24.919   3.730  1.00  0.00     0.022 C 
ATOM     18  H3  UNL     1       8.332  24.966   5.317  1.00  0.00     0.165 HD
BRANCH  14  19
HETATM   19  C6  UNL     1       6.923  25.591   2.533  1.00  0.00     0.242 C 
HETATM   20  N1  UNL     1       8.281  25.788   2.225  1.00  0.00    -0.355 N 
HETATM   21  C5  UNL     1       8.637  26.621   1.091  1.00  0.00     0.152 C 
HETATM   22  O1  UNL     1       6.085  26.181   1.787  1.00  0.00    -0.271 OA
BRANCH  20  23
HETATM   23  C4  UNL     1       9.325  25.201   2.997  1.00  0.00     0.125 C 
BRANCH  23  24
HETATM   24  C3  UNL     1       9.965  24.001   2.388  1.00  0.00     0.019 C 
BRANCH  24  25
HETATM   25  C2  UNL     1      11.494  24.029   2.497  1.00  0.00    -0.003 C 
HETATM   26  C1  UNL     1      11.900  25.198   3.386  1.00  0.00     0.005 C 
ENDBRANCH  24  25
ENDBRANCH  23  24
ENDBRANCH  20  23
ENDBRANCH  14  19
ENDBRANCH   9  10
BRANCH   9  27
HETATM   27  C13 UNL     1       8.086  25.421   8.351  1.00  0.00     0.032 C 
HETATM   28  C14 UNL     1       8.955  25.244   9.548  1.00  0.00     0.008 C 
ENDBRANCH   9  27
BRANCH   9  29
HETATM   29  C27 UNL     1       9.146  27.278   7.033  1.00  0.00     0.010 C 
HETATM   30  C28 UNL     1       8.997  27.687   5.526  1.00  0.00     0.012 C 
HETATM   31  C29 UNL     1       8.499  28.308   7.863  1.00  0.00     0.012 C 
ENDBRANCH   9  29
ENDBRANCH   1   9
BRANCH   4  32
HETATM   32  C19 UNL     1      13.300  22.162   5.930  1.00  0.00     0.148 C 
HETATM   33  C20 UNL     1      12.819  20.841   5.377  1.00  0.00     0.040 C 
BRANCH  32  34
HETATM   34  N4  UNL     1      14.091  21.878   7.106  1.00  0.00    -0.201 N 
HETATM   35  C21 UNL     1      15.502  22.005   7.131  1.00  0.00     0.344 C 
HETATM   36  O4  UNL     1      16.052  22.383   6.040  1.00  0.00    -0.245 OA
HETATM   37  N5  UNL     1      16.284  21.735   8.282  1.00  0.00    -0.341 N 
HETATM   38  C22 UNL     1      15.710  21.312   9.519  1.00  0.00     0.154 C 
HETATM   39  C23 UNL     1      17.723  21.904   8.180  1.00  0.00     0.154 C 
BRANCH  34  40
HETATM   40  O3  UNL     1      13.462  21.473   8.223  1.00  0.00    -0.283 OA
ATOM     41  H3  UNL     1      13.660  21.913   9.041  1.00  0.00     0.245 HD
ENDBRANCH  34  40
ENDBRANCH  32  34
ENDBRANCH   4  32
TORSDOF 11
ENDMDL
MODEL 3
REMARK VINA RESULT: -7.705861358      2.098      4.703
REMARK  11 active torsions:
REMARK  status: ('A' for Active; 'I' for Inactive)
REMARK    1  A    between atoms: C2_2  and  C3_3 
REMARK    2  A    between atoms: C3_3  and  C4_4 
REMARK    3  A    between atoms: C4_4  and  N1_5 
REMARK       I    between atoms: N1_5  and  C6_7 
REMARK    4  A    between atoms: C6_7  and  C7_9 
REMARK       I    between atoms: N2_13  and  C11_14 
REMARK       I    between atoms: C11_14  and  N3_16 
REMARK    5  A    between atoms: N3_16  and  C12_18 
REMARK    6  A    between atoms: C12_18  and  C13_19 
REMARK    7  A    between atoms: C12_18  and  C15_21 
REMARK    8  A    between atoms: C12_18  and  C27_39 
REMARK    9  A    between atoms: C18_24  and  C19_25 
REMARK   10  A    between atoms: C19_25  and  N4_27 
REMARK   11  A    between atoms: N4_27  and  O3_28 
REMARK       I    between atoms: N4_27  and  C21_30 
REMARK       I    between atoms: C21_30  and  N5_32 
ROOT
HETATM    1  C15 UNL     1       9.245  25.135   4.259  1.00  0.00    -0.009 A 
HETATM    2  C16 UNL     1       9.007  25.136   5.643  1.00  0.00     0.012 A 
HETATM    3  C17 UNL     1       9.876  24.665   6.597  1.00  0.00     0.010 A 
HETATM    4  C18 UNL     1      11.076  24.150   6.256  1.00  0.00    -0.032 A 
HETATM    5  C24 UNL     1      11.387  24.120   4.927  1.00  0.00     0.032 A 
HETATM    6  C25 UNL     1      10.486  24.607   3.967  1.00  0.00     0.054 A 
HETATM    7  C26 UNL     1      11.003  24.714   2.627  1.00  0.00     0.100 C 
HETATM    8  N6  UNL     1      11.447  24.823   1.592  1.00  0.00    -0.191 NA
ENDROOT
BRANCH   1   9
HETATM    9  C12 UNL     1       8.255  25.564   3.261  1.00  0.00     0.066 C 
BRANCH   9  10
HETATM   10  N3  UNL     1       7.111  26.055   4.067  1.00  0.00    -0.329 N 
HETATM   11  C11 UNL     1       6.924  27.230   4.747  1.00  0.00     0.320 C 
HETATM   12  N2  UNL     1       5.710  27.510   5.481  1.00  0.00    -0.321 N 
HETATM   13  O2  UNL     1       7.760  28.159   4.804  1.00  0.00    -0.247 OA
HETATM   14  C7  UNL     1       4.572  26.631   5.609  1.00  0.00     0.181 C 
HETATM   15  C10 UNL     1       5.420  28.713   6.203  1.00  0.00     0.129 C 
HETATM   16  C8  UNL     1       4.124  26.947   7.021  1.00  0.00     0.037 C 
HETATM   17  C9  UNL     1       4.630  28.297   7.393  1.00  0.00     0.022 C 
ATOM     18  H3  UNL     1       6.327  25.405   4.124  1.00  0.00     0.165 HD
BRANCH  14  19
HETATM   19  C6  UNL     1       3.580  26.947   4.576  1.00  0.00     0.242 C 
HETATM   20  N1  UNL     1       2.491  26.158   4.164  1.00  0.00    -0.355 N 
HETATM   21  C5  UNL     1       1.609  26.654   3.123  1.00  0.00     0.152 C 
HETATM   22  O1  UNL     1       3.726  28.058   3.983  1.00  0.00    -0.271 OA
BRANCH  20  23
HETATM   23  C4  UNL     1       2.226  24.878   4.732  1.00  0.00     0.125 C 
BRANCH  23  24
HETATM   24  C3  UNL     1       2.474  23.720   3.827  1.00  0.00     0.019 C 
BRANCH  24  25
HETATM   25  C2  UNL     1       3.846  23.076   4.057  1.00  0.00    -0.003 C 
HETATM   26  C1  UNL     1       3.649  21.591   4.339  1.00  0.00     0.005 C 
ENDBRANCH  24  25
ENDBRANCH  23  24
ENDBRANCH  20  23
ENDBRANCH  14  19
ENDBRANCH   9  10
BRANCH   9  27
HETATM   27  C13 UNL     1       8.664  26.856   2.566  1.00  0.00     0.032 C 
HETATM   28  C14 UNL     1       8.603  26.668   1.089  1.00  0.00     0.008 C 
ENDBRANCH   9  27
BRANCH   9  29
HETATM   29  C27 UNL     1       7.589  24.595   2.375  1.00  0.00     0.010 C 
HETATM   30  C28 UNL     1       7.778  23.153   2.965  1.00  0.00     0.012 C 
HETATM   31  C29 UNL     1       6.215  24.711   1.858  1.00  0.00     0.012 C 
ENDBRANCH   9  29
ENDBRANCH   1   9
BRANCH   4  32
HETATM   32  C19 UNL     1      12.061  23.620   7.219  1.00  0.00     0.148 C 
HETATM   33  C20 UNL     1      12.515  24.702   8.169  1.00  0.00     0.040 C 
BRANCH  32  34
HETATM   34  N4  UNL     1      13.236  23.106   6.553  1.00  0.00    -0.201 N 
HETATM   35  C21 UNL     1      13.342  21.767   6.105  1.00  0.00     0.344 C 
HETATM   36  O4  UNL     1      12.330  21.017   6.330  1.00  0.00    -0.245 OA
HETATM   37  N5  UNL     1      14.488  21.258   5.444  1.00  0.00    -0.341 N 
HETATM   38  C22 UNL     1      15.637  22.059   5.173  1.00  0.00     0.154 C 
HETATM   39  C23 UNL     1      14.472  19.865   5.033  1.00  0.00     0.154 C 
BRANCH  34  40
HETATM   40  O3  UNL     1      14.276  23.935   6.352  1.00  0.00    -0.283 OA
ATOM     41  H3  UNL     1      15.042  23.602   5.899  1.00  0.00     0.245 HD
ENDBRANCH  34  40
ENDBRANCH  32  34
ENDBRANCH   4  32
TORSDOF 11
ENDMDL
MODEL 4
REMARK VINA RESULT: -7.612414488      1.894      2.860
REMARK  11 active torsions:
REMARK  status: ('A' for Active; 'I' for Inactive)
REMARK    1  A    between atoms: C2_2  and  C3_3 
REMARK    2  A    between atoms: C3_3  and  C4_4 
REMARK    3  A    between atoms: C4_4  and  N1_5 
REMARK       I    between atoms: N1_5  and  C6_7 
REMARK    4  A    between atoms: C6_7  and  C7_9 
REMARK       I    between atoms: N2_13  and  C11_14 
REMARK       I    between atoms: C11_14  and  N3_16 
REMARK    5  A    between atoms: N3_16  and  C12_18 
REMARK    6  A    between atoms: C12_18  and  C13_19 
REMARK    7  A    between atoms: C12_18  and  C15_21 
REMARK    8  A    between atoms: C12_18  and  C27_39 
REMARK    9  A    between atoms: C18_24  and  C19_25 
REMARK   10  A    between atoms: C19_25  and  N4_27 
REMARK   11  A    between atoms: N4_27  and  O3_28 
REMARK       I    between atoms: N4_27  and  C21_30 
REMARK       I    between atoms: C21_30  and  N5_32 
ROOT
HETATM    1  C15 UNL     1       9.570  25.866   6.928  1.00  0.00    -0.009 A 
HETATM    2  C16 UNL     1      10.611  24.990   7.276  1.00  0.00     0.012 A 
HETATM    3  C17 UNL     1      11.554  24.496   6.409  1.00  0.00     0.010 A 
HETATM    4  C18 UNL     1      11.549  24.836   5.103  1.00  0.00    -0.032 A 
HETATM    5  C24 UNL     1      10.572  25.692   4.685  1.00  0.00     0.032 A 
HETATM    6  C25 UNL     1       9.616  26.187   5.586  1.00  0.00     0.054 A 
HETATM    7  C26 UNL     1       8.767  27.235   5.079  1.00  0.00     0.100 C 
HETATM    8  N6  UNL     1       8.140  28.082   4.668  1.00  0.00    -0.191 NA
ENDROOT
BRANCH   1   9
HETATM    9  C12 UNL     1       8.525  26.304   7.864  1.00  0.00     0.066 C 
BRANCH   9  10
HETATM   10  N3  UNL     1       7.264  26.164   7.095  1.00  0.00    -0.329 N 
HETATM   11  C11 UNL     1       6.120  26.918   7.093  1.00  0.00     0.320 C 
HETATM   12  N2  UNL     1       4.989  26.599   6.250  1.00  0.00    -0.321 N 
HETATM   13  O2  UNL     1       5.936  27.933   7.800  1.00  0.00    -0.247 OA
HETATM   14  C7  UNL     1       4.897  25.485   5.336  1.00  0.00     0.181 C 
HETATM   15  C10 UNL     1       3.764  27.337   6.168  1.00  0.00     0.129 C 
HETATM   16  C8  UNL     1       3.429  25.134   5.459  1.00  0.00     0.037 C 
HETATM   17  C9  UNL     1       2.691  26.329   5.953  1.00  0.00     0.022 C 
ATOM     18  H3  UNL     1       7.246  25.368   6.457  1.00  0.00     0.165 HD
BRANCH  14  19
HETATM   19  C6  UNL     1       5.306  25.909   3.992  1.00  0.00     0.242 C 
HETATM   20  N1  UNL     1       5.977  25.145   3.020  1.00  0.00    -0.355 N 
HETATM   21  C5  UNL     1       6.288  25.746   1.737  1.00  0.00     0.152 C 
HETATM   22  O1  UNL     1       5.027  27.104   3.674  1.00  0.00    -0.271 OA
BRANCH  20  23
HETATM   23  C4  UNL     1       6.370  23.796   3.257  1.00  0.00     0.125 C 
BRANCH  23  24
HETATM   24  C3  UNL     1       7.832  23.588   3.457  1.00  0.00     0.019 C 
BRANCH  24  25
HETATM   25  C2  UNL     1       8.536  23.096   2.187  1.00  0.00    -0.003 C 
HETATM   26  C1  UNL     1       9.407  21.897   2.542  1.00  0.00     0.005 C 
ENDBRANCH  24  25
ENDBRANCH  23  24
ENDBRANCH  20  23
ENDBRANCH  14  19
ENDBRANCH   9  10
BRANCH   9  27
HETATM   27  C13 UNL     1       8.277  25.284   8.966  1.00  0.00     0.032 C 
HETATM   28  C14 UNL     1       9.384  25.347   9.962  1.00  0.00     0.008 C 
ENDBRANCH   9  27
BRANCH   9  29
HETATM   29  C27 UNL     1       8.434  27.704   8.314  1.00  0.00     0.010 C 
HETATM   30  C28 UNL     1       8.260  27.726   9.873  1.00  0.00     0.012 C 
HETATM   31  C29 UNL     1       9.355  28.787   7.931  1.00  0.00     0.012 C 
ENDBRANCH   9  29
ENDBRANCH   1   9
BRANCH   4  32
HETATM   32  C19 UNL     1      12.523  24.344   4.108  1.00  0.00     0.148 C 
HETATM   33  C20 UNL     1      11.903  24.294   2.732  1.00  0.00     0.040 C 
BRANCH  32  34
HETATM   34  N4  UNL     1      12.983  23.011   4.425  1.00  0.00    -0.201 N 
HETATM   35  C21 UNL     1      14.332  22.720   4.744  1.00  0.00     0.344 C 
HETATM   36  O4  UNL     1      15.140  23.711   4.730  1.00  0.00    -0.245 OA
HETATM   37  N5  UNL     1      14.790  21.417   5.064  1.00  0.00    -0.341 N 
HETATM   38  C22 UNL     1      13.922  20.284   5.091  1.00  0.00     0.154 C 
HETATM   39  C23 UNL     1      16.198  21.249   5.374  1.00  0.00     0.154 C 
BRANCH  34  40
HETATM   40  O3  UNL     1      12.093  22.004   4.414  1.00  0.00    -0.283 OA
ATOM     41  H3  UNL     1      11.670  21.762   5.230  1.00  0.00     0.245 HD
ENDBRANCH  34  40
ENDBRANCH  32  34
ENDBRANCH   4  32
TORSDOF 11
ENDMDL
MODEL 5
REMARK VINA RESULT: -7.538594480      2.821      5.301
REMARK  11 active torsions:
REMARK  status: ('A' for Active; 'I' for Inactive)
REMARK    1  A    between atoms: C2_2  and  C3_3 
REMARK    2  A    between atoms: C3_3  and  C4_4 
REMARK    3  A    between atoms: C4_4  and  N1_5 
REMARK       I    between atoms: N1_5  and  C6_7 
REMARK    4  A    between atoms: C6_7  and  C7_9 
REMARK       I    between atoms: N2_13  and  C11_14 
REMARK       I    between atoms: C11_14  and  N3_16 
REMARK    5  A    between atoms: N3_16  and  C12_18 
REMARK    6  A    between atoms: C12_18  and  C13_19 
REMARK    7  A    between atoms: C12_18  and  C15_21 
REMARK    8  A    between atoms: C12_18  and  C27_39 
REMARK    9  A    between atoms: C18_24  and  C19_25 
REMARK   10  A    between atoms: C19_25  and  N4_27 
REMARK   11  A    between atoms: N4_27  and  O3_28 
REMARK       I    between atoms: N4_27  and  C21_30 
REMARK       I    between atoms: C21_30  and  N5_32 
ROOT
HETATM    1  C15 UNL     1      13.374  23.285   5.401  1.00  0.00    -0.009 A 
HETATM    2  C16 UNL     1      14.721  23.671   5.306  1.00  0.00     0.012 A 
HETATM    3  C17 UNL     1      15.741  23.186   6.087  1.00  0.00     0.010 A 
HETATM    4  C18 UNL     1      15.511  22.261   7.042  1.00  0.00    -0.032 A 
HETATM    5  C24 UNL     1      14.226  21.828   7.194  1.00  0.00     0.032 A 
HETATM    6  C25 UNL     1      13.196  22.334   6.386  1.00  0.00     0.054 A 
HETATM    7  C26 UNL     1      11.929  21.657   6.496  1.00  0.00     0.100 C 
HETATM    8  N6  UNL     1      10.957  21.084   6.574  1.00  0.00    -0.191 NA
ENDROOT
BRANCH   1   9
HETATM    9  C12 UNL     1      12.293  23.890   4.610  1.00  0.00     0.066 C 
BRANCH   9  10
HETATM   10  N3  UNL     1      11.329  24.383   5.623  1.00  0.00    -0.329 N 
HETATM   11  C11 UNL     1      11.522  25.057   6.800  1.00  0.00     0.320 C 
HETATM   12  N2  UNL     1      10.421  25.449   7.653  1.00  0.00    -0.321 N 
HETATM   13  O2  UNL     1      12.639  25.395   7.251  1.00  0.00    -0.247 OA
HETATM   14  C7  UNL     1       9.022  25.192   7.407  1.00  0.00     0.181 C 
HETATM   15  C10 UNL     1      10.526  26.169   8.886  1.00  0.00     0.129 C 
HETATM   16  C8  UNL     1       8.520  24.970   8.818  1.00  0.00     0.037 C 
HETATM   17  C9  UNL     1       9.457  25.628   9.769  1.00  0.00     0.022 C 
ATOM     18  H3  UNL     1      10.352  24.186   5.405  1.00  0.00     0.165 HD
BRANCH  14  19
HETATM   19  C6  UNL     1       8.417  26.341   6.724  1.00  0.00     0.242 C 
HETATM   20  N1  UNL     1       8.089  26.451   5.360  1.00  0.00    -0.355 N 
HETATM   21  C5  UNL     1       7.483  27.677   4.875  1.00  0.00     0.152 C 
HETATM   22  O1  UNL     1       8.168  27.352   7.447  1.00  0.00    -0.271 OA
BRANCH  20  23
HETATM   23  C4  UNL     1       8.338  25.398   4.434  1.00  0.00     0.125 C 
BRANCH  23  24
HETATM   24  C3  UNL     1       7.182  25.029   3.568  1.00  0.00     0.019 C 
BRANCH  24  25
HETATM   25  C2  UNL     1       7.579  24.861   2.097  1.00  0.00    -0.003 C 
HETATM   26  C1  UNL     1       8.389  26.078   1.665  1.00  0.00     0.005 C 
ENDBRANCH  24  25
ENDBRANCH  23  24
ENDBRANCH  20  23
ENDBRANCH  14  19
ENDBRANCH   9  10
BRANCH   9  27
HETATM   27  C13 UNL     1      12.713  25.211   3.980  1.00  0.00     0.032 C 
HETATM   28  C14 UNL     1      11.959  25.420   2.712  1.00  0.00     0.008 C 
ENDBRANCH   9  27
BRANCH   9  29
HETATM   29  C27 UNL     1      11.418  23.071   3.753  1.00  0.00     0.010 C 
HETATM   30  C28 UNL     1      12.214  21.806   3.275  1.00  0.00     0.012 C 
HETATM   31  C29 UNL     1      10.042  22.662   4.079  1.00  0.00     0.012 C 
ENDBRANCH   9  29
ENDBRANCH   1   9
BRANCH   4  32
HETATM   32  C19 UNL     1      16.551  21.696   7.924  1.00  0.00     0.148 C 
HETATM   33  C20 UNL     1      17.532  22.764   8.347  1.00  0.00     0.040 C 
BRANCH  32  34
HETATM   34  N4  UNL     1      17.303  20.653   7.264  1.00  0.00    -0.201 N 
HETATM   35  C21 UNL     1      17.678  19.450   7.910  1.00  0.00     0.344 C 
HETATM   36  O4  UNL     1      17.319  19.332   9.132  1.00  0.00    -0.245 OA
HETATM   37  N5  UNL     1      18.409  18.420   7.267  1.00  0.00    -0.341 N 
HETATM   38  C22 UNL     1      18.829  18.511   5.905  1.00  0.00     0.154 C 
HETATM   39  C23 UNL     1      18.732  17.233   8.039  1.00  0.00     0.154 C 
BRANCH  34  40
HETATM   40  O3  UNL     1      17.665  20.834   5.982  1.00  0.00    -0.283 OA
ATOM     41  H3  UNL     1      17.316  20.245   5.323  1.00  0.00     0.245 HD
ENDBRANCH  34  40
ENDBRANCH  32  34
ENDBRANCH   4  32
TORSDOF 11
ENDMDL
