MODEL 1
REMARK VINA RESULT: -8.843242682      0.000      0.000
REMARK  12 active torsions:
REMARK  status: ('A' for Active; 'I' for Inactive)
REMARK    1  A    between atoms: C2_2  and  O1_3 
REMARK    2  A    between atoms: O1_3  and  C3_4 
REMARK    3  A    between atoms: C3_4  and  C4_6 
REMARK    4  A    between atoms: N1_14  and  C12_15 
REMARK    5  A    between atoms: C12_15  and  C13_16 
REMARK    6  A    between atoms: C20_24  and  C21_25 
REMARK    7  A    between atoms: C21_25  and  C22_26 
REMARK       I    between atoms: C22_26  and  N2_28 
REMARK    8  A    between atoms: N2_28  and  C23_30 
REMARK    9  A    between atoms: C23_30  and  C24_31 
REMARK   10  A    between atoms: C24_31  and  N3_32 
REMARK   11  A    between atoms: C29_37  and  C30_38 
REMARK   12  A    between atoms: C30_38  and  O5_39 
ROOT
HETATM    1  C4  UNL     1      13.380  22.937   6.846  1.00  0.00     0.091 C 
HETATM    2  C5  UNL     1      12.755  21.568   6.739  1.00  0.00     0.026 C 
HETATM    3  C6  UNL     1      13.469  20.527   5.970  1.00  0.00     0.002 C 
HETATM    4  C7  UNL     1      13.587  20.741   4.490  1.00  0.00     0.000 C 
HETATM    5  C8  UNL     1      15.001  21.099   4.079  1.00  0.00     0.004 C 
HETATM    6  C9  UNL     1      15.230  22.569   3.994  1.00  0.00     0.029 C 
HETATM    7  C10 UNL     1      14.079  23.380   4.448  1.00  0.00    -0.000 C 
HETATM    8  C11 UNL     1      13.318  23.572   5.522  1.00  0.00     0.029 C 
HETATM    9  N1  UNL     1      12.372  24.559   5.091  1.00  0.00    -0.320 N 
HETATM   10  C19 UNL     1      11.641  25.116   6.187  1.00  0.00     0.228 C 
HETATM   11  O3  UNL     1      10.957  26.178   5.965  1.00  0.00    -0.273 OA
HETATM   12  C20 UNL     1      11.580  24.608   7.559  1.00  0.00     0.088 C 
HETATM   13  C31 UNL     1      12.660  23.705   7.950  1.00  0.00     0.040 C 
ENDROOT
BRANCH  12  14
HETATM   14  C21 UNL     1      11.505  25.839   8.479  1.00  0.00     0.117 C 
BRANCH  14  15
HETATM   15  C22 UNL     1      10.137  26.151   8.933  1.00  0.00     0.218 C 
HETATM   16  O4  UNL     1       9.579  25.424   9.787  1.00  0.00    -0.274 OA
HETATM   17  N2  UNL     1       9.510  27.283   8.363  1.00  0.00    -0.359 N 
ATOM     18  H2  UNL     1      10.016  27.839   7.673  1.00  0.00     0.162 HD
BRANCH  17  19
HETATM   19  C23 UNL     1       8.183  27.664   8.735  1.00  0.00     0.152 C 
BRANCH  19  20
HETATM   20  C24 UNL     1       7.175  27.033   7.823  1.00  0.00     0.292 C 
BRANCH  20  21
HETATM   21  N3  UNL     1       6.642  28.043   6.929  1.00  0.00     0.096 N 
HETATM   22  C25 UNL     1       7.276  27.924   5.620  1.00  0.00     0.273 C 
HETATM   23  C26 UNL     1       6.883  26.646   4.938  1.00  0.00     0.030 C 
HETATM   24  C27 UNL     1       5.405  26.407   4.952  1.00  0.00     0.004 C 
HETATM   25  C28 UNL     1       4.773  26.656   6.291  1.00  0.00     0.038 C 
HETATM   26  C29 UNL     1       5.218  28.003   6.842  1.00  0.00     0.246 C 
BRANCH  26  27
HETATM   27  C30 UNL     1       4.719  29.087   5.902  1.00  0.00     0.199 C 
BRANCH  27  28
HETATM   28  O5  UNL     1       4.957  30.332   6.522  1.00  0.00    -0.399 OA
ATOM     29  H5  UNL     1       5.493  30.849   5.932  1.00  0.00     0.209 HD
ENDBRANCH  27  28
ENDBRANCH  26  27
ENDBRANCH  20  21
ENDBRANCH  19  20
ENDBRANCH  17  19
ENDBRANCH  14  15
ENDBRANCH  12  14
BRANCH   9  30
HETATM   30  C12 UNL     1      12.144  24.939   3.729  1.00  0.00     0.136 C 
BRANCH  30  31
HETATM   31  C13 UNL     1      11.402  23.991   2.843  1.00  0.00     0.004 C 
HETATM   32  C14 UNL     1      10.757  24.835   1.745  1.00  0.00     0.006 C 
HETATM   33  C15 UNL     1       9.476  25.477   2.183  1.00  0.00     0.000 C 
HETATM   34  C16 UNL     1       8.514  24.330   2.525  1.00  0.00     0.000 C 
HETATM   35  C17 UNL     1       9.075  23.672   3.747  1.00  0.00     0.000 C 
HETATM   36  C18 UNL     1      10.455  23.119   3.551  1.00  0.00     0.006 C 
ENDBRANCH  30  31
ENDBRANCH   9  30
BRANCH   1  37
HETATM   37  C3  UNL     1      14.767  22.857   7.365  1.00  0.00     0.273 C 
HETATM   38  O2  UNL     1      15.583  23.769   7.202  1.00  0.00    -0.264 OA
BRANCH  37  39
HETATM   39  O1  UNL     1      15.159  21.722   8.048  1.00  0.00    -0.321 OA
BRANCH  39  40
HETATM   40  C2  UNL     1      16.507  21.373   8.160  1.00  0.00     0.174 C 
HETATM   41  C1  UNL     1      17.044  20.469   7.108  1.00  0.00     0.034 C 
ENDBRANCH  39  40
ENDBRANCH  37  39
ENDBRANCH   1  37
TORSDOF 12
ENDMDL
MODEL 2
REMARK VINA RESULT: -8.813793821      1.014      1.373
REMARK  12 active torsions:
REMARK  status: ('A' for Active; 'I' for Inactive)
REMARK    1  A    between atoms: C2_2  and  O1_3 
REMARK    2  A    between atoms: O1_3  and  C3_4 
REMARK    3  A    between atoms: C3_4  and  C4_6 
REMARK    4  A    between atoms: N1_14  and  C12_15 
REMARK    5  A    between atoms: C12_15  and  C13_16 
REMARK    6  A    between atoms: C20_24  and  C21_25 
REMARK    7  A    between atoms: C21_25  and  C22_26 
REMARK       I    between atoms: C22_26  and  N2_28 
REMARK    8  A    between atoms: N2_28  and  C23_30 
REMARK    9  A    between atoms: C23_30  and  C24_31 
REMARK   10  A    between atoms: C24_31  and  N3_32 
REMARK   11  A    between atoms: C29_37  and  C30_38 
REMARK   12  A    between atoms: C30_38  and  O5_39 
ROOT
HETATM    1  C4  UNL     1      13.377  22.973   6.781  1.00  0.00     0.091 C 
HETATM    2  C5  UNL     1      12.745  21.605   6.713  1.00  0.00     0.026 C 
HETATM    3  C6  UNL     1      13.409  20.561   5.904  1.00  0.00     0.002 C 
HETATM    4  C7  UNL     1      13.438  20.774   4.419  1.00  0.00     0.000 C 
HETATM    5  C8  UNL     1      14.825  21.129   3.924  1.00  0.00     0.004 C 
HETATM    6  C9  UNL     1      15.051  22.599   3.823  1.00  0.00     0.029 C 
HETATM    7  C10 UNL     1      13.930  23.411   4.345  1.00  0.00    -0.000 C 
HETATM    8  C11 UNL     1      13.236  23.607   5.463  1.00  0.00     0.029 C 
HETATM    9  N1  UNL     1      12.267  24.595   5.089  1.00  0.00    -0.320 N 
HETATM   10  C19 UNL     1      11.605  25.154   6.226  1.00  0.00     0.228 C 
HETATM   11  O3  UNL     1      10.910  26.217   6.044  1.00  0.00    -0.273 OA
HETATM   12  C20 UNL     1      11.626  24.647   7.599  1.00  0.00     0.088 C 
HETATM   13  C31 UNL     1      12.727  23.744   7.926  1.00  0.00     0.040 C 
ENDROOT
BRANCH  12  14
HETATM   14  C21 UNL     1      11.609  25.880   8.521  1.00  0.00     0.117 C 
BRANCH  14  15
HETATM   15  C22 UNL     1      10.308  26.104   9.179  1.00  0.00     0.218 C 
HETATM   16  O4  UNL     1       9.771  25.181   9.835  1.00  0.00    -0.274 OA
HETATM   17  N2  UNL     1       9.720  27.379   9.028  1.00  0.00    -0.359 N 
ATOM     18  H2  UNL     1      10.205  28.092   8.483  1.00  0.00     0.162 HD
BRANCH  17  19
HETATM   19  C23 UNL     1       8.458  27.692   9.624  1.00  0.00     0.152 C 
BRANCH  19  20
HETATM   20  C24 UNL     1       7.503  28.222   8.596  1.00  0.00     0.292 C 
BRANCH  20  21
HETATM   21  N3  UNL     1       7.699  27.507   7.351  1.00  0.00     0.096 N 
HETATM   22  C25 UNL     1       6.860  26.312   7.334  1.00  0.00     0.273 C 
HETATM   23  C26 UNL     1       5.404  26.670   7.278  1.00  0.00     0.030 C 
HETATM   24  C27 UNL     1       5.090  27.682   6.220  1.00  0.00     0.004 C 
HETATM   25  C28 UNL     1       6.049  28.836   6.195  1.00  0.00     0.038 C 
HETATM   26  C29 UNL     1       7.484  28.330   6.204  1.00  0.00     0.246 C 
BRANCH  26  27
HETATM   27  C30 UNL     1       7.712  27.531   4.933  1.00  0.00     0.199 C 
BRANCH  27  28
HETATM   28  O5  UNL     1       8.957  27.926   4.398  1.00  0.00    -0.399 OA
ATOM     29  H5  UNL     1       9.225  28.718   4.850  1.00  0.00     0.209 HD
ENDBRANCH  27  28
ENDBRANCH  26  27
ENDBRANCH  20  21
ENDBRANCH  19  20
ENDBRANCH  17  19
ENDBRANCH  14  15
ENDBRANCH  12  14
BRANCH   9  30
HETATM   30  C12 UNL     1      11.958  24.973   3.742  1.00  0.00     0.136 C 
BRANCH  30  31
HETATM   31  C13 UNL     1      11.196  24.009   2.892  1.00  0.00     0.004 C 
HETATM   32  C14 UNL     1      10.674  24.801   1.694  1.00  0.00     0.006 C 
HETATM   33  C15 UNL     1       9.423  25.564   2.004  1.00  0.00     0.000 C 
HETATM   34  C16 UNL     1       8.362  24.518   2.378  1.00  0.00     0.000 C 
HETATM   35  C17 UNL     1       8.807  23.926   3.679  1.00  0.00     0.000 C 
HETATM   36  C18 UNL     1      10.151  23.266   3.608  1.00  0.00     0.006 C 
ENDBRANCH  30  31
ENDBRANCH   9  30
BRANCH   1  37
HETATM   37  C3  UNL     1      14.793  22.891   7.215  1.00  0.00     0.273 C 
HETATM   38  O2  UNL     1      15.614  23.772   6.945  1.00  0.00    -0.264 OA
BRANCH  37  39
HETATM   39  O1  UNL     1      15.205  21.789   7.940  1.00  0.00    -0.321 OA
BRANCH  39  40
HETATM   40  C2  UNL     1      16.547  21.403   7.970  1.00  0.00     0.174 C 
HETATM   41  C1  UNL     1      16.995  20.493   6.883  1.00  0.00     0.034 C 
ENDBRANCH  39  40
ENDBRANCH  37  39
ENDBRANCH   1  37
TORSDOF 12
ENDMDL
MODEL 3
REMARK VINA RESULT: -8.731531089      4.010     10.765
REMARK  12 active torsions:
REMARK  status: ('A' for Active; 'I' for Inactive)
REMARK    1  A    between atoms: C2_2  and  O1_3 
REMARK    2  A    between atoms: O1_3  and  C3_4 
REMARK    3  A    between atoms: C3_4  and  C4_6 
REMARK    4  A    between atoms: N1_14  and  C12_15 
REMARK    5  A    between atoms: C12_15  and  C13_16 
REMARK    6  A    between atoms: C20_24  and  C21_25 
REMARK    7  A    between atoms: C21_25  and  C22_26 
REMARK       I    between atoms: C22_26  and  N2_28 
REMARK    8  A    between atoms: N2_28  and  C23_30 
REMARK    9  A    between atoms: C23_30  and  C24_31 
REMARK   10  A    between atoms: C24_31  and  N3_32 
REMARK   11  A    between atoms: C29_37  and  C30_38 
REMARK   12  A    between atoms: C30_38  and  O5_39 
ROOT
HETATM    1  C4  UNL     1      12.303  22.657   4.599  1.00  0.00     0.091 C 
HETATM    2  C5  UNL     1      11.350  22.097   5.626  1.00  0.00     0.026 C 
HETATM    3  C6  UNL     1      10.543  23.042   6.427  1.00  0.00     0.002 C 
HETATM    4  C7  UNL     1      11.288  23.917   7.392  1.00  0.00     0.000 C 
HETATM    5  C8  UNL     1      11.338  25.359   6.929  1.00  0.00     0.004 C 
HETATM    6  C9  UNL     1      12.575  25.685   6.164  1.00  0.00     0.029 C 
HETATM    7  C10 UNL     1      13.440  24.513   5.902  1.00  0.00    -0.000 C 
HETATM    8  C11 UNL     1      13.403  23.322   5.312  1.00  0.00     0.029 C 
HETATM    9  N1  UNL     1      14.714  22.791   5.545  1.00  0.00    -0.320 N 
HETATM   10  C19 UNL     1      14.975  21.634   4.745  1.00  0.00     0.228 C 
HETATM   11  O3  UNL     1      16.189  21.226   4.673  1.00  0.00    -0.273 OA
HETATM   12  C20 UNL     1      14.003  20.848   3.985  1.00  0.00     0.088 C 
HETATM   13  C31 UNL     1      12.740  21.518   3.683  1.00  0.00     0.040 C 
ENDROOT
BRANCH  12  14
HETATM   14  C21 UNL     1      14.721  20.382   2.705  1.00  0.00     0.117 C 
BRANCH  14  15
HETATM   15  C22 UNL     1      15.296  19.029   2.814  1.00  0.00     0.218 C 
HETATM   16  O4  UNL     1      14.558  18.054   3.087  1.00  0.00    -0.274 OA
HETATM   17  N2  UNL     1      16.687  18.900   2.600  1.00  0.00    -0.359 N 
ATOM     18  H2  UNL     1      17.237  19.730   2.378  1.00  0.00     0.162 HD
BRANCH  17  19
HETATM   19  C23 UNL     1      17.339  17.630   2.688  1.00  0.00     0.152 C 
BRANCH  19  20
HETATM   20  C24 UNL     1      17.504  17.217   4.119  1.00  0.00     0.292 C 
BRANCH  20  21
HETATM   21  N3  UNL     1      18.911  17.258   4.468  1.00  0.00     0.096 N 
HETATM   22  C25 UNL     1      19.150  18.344   5.414  1.00  0.00     0.273 C 
HETATM   23  C26 UNL     1      18.495  18.069   6.735  1.00  0.00     0.030 C 
HETATM   24  C27 UNL     1      18.785  16.697   7.258  1.00  0.00     0.004 C 
HETATM   25  C28 UNL     1      18.642  15.621   6.221  1.00  0.00     0.038 C 
HETATM   26  C29 UNL     1      19.393  16.006   4.955  1.00  0.00     0.246 C 
BRANCH  26  27
HETATM   27  C30 UNL     1      20.871  16.108   5.294  1.00  0.00     0.199 C 
BRANCH  27  28
HETATM   28  O5  UNL     1      21.599  15.813   4.121  1.00  0.00    -0.399 OA
ATOM     29  H5  UNL     1      21.208  16.307   3.409  1.00  0.00     0.209 HD
ENDBRANCH  27  28
ENDBRANCH  26  27
ENDBRANCH  20  21
ENDBRANCH  19  20
ENDBRANCH  17  19
ENDBRANCH  14  15
ENDBRANCH  12  14
BRANCH   9  30
HETATM   30  C12 UNL     1      15.658  23.318   6.484  1.00  0.00     0.136 C 
BRANCH  30  31
HETATM   31  C13 UNL     1      15.470  23.003   7.933  1.00  0.00     0.004 C 
HETATM   32  C14 UNL     1      16.865  22.949   8.553  1.00  0.00     0.006 C 
HETATM   33  C15 UNL     1      17.551  21.637   8.325  1.00  0.00     0.000 C 
HETATM   34  C16 UNL     1      16.686  20.573   9.015  1.00  0.00     0.000 C 
HETATM   35  C17 UNL     1      15.412  20.504   8.230  1.00  0.00     0.000 C 
HETATM   36  C18 UNL     1      14.663  21.802   8.190  1.00  0.00     0.006 C 
ENDBRANCH  30  31
ENDBRANCH   9  30
BRANCH   1  37
HETATM   37  C3  UNL     1      11.609  23.572   3.662  1.00  0.00     0.273 C 
HETATM   38  O2  UNL     1      12.214  24.202   2.790  1.00  0.00    -0.264 OA
BRANCH  37  39
HETATM   39  O1  UNL     1      10.240  23.728   3.773  1.00  0.00    -0.321 OA
BRANCH  39  40
HETATM   40  C2  UNL     1       9.384  23.385   2.723  1.00  0.00     0.174 C 
HETATM   41  C1  UNL     1       9.291  21.938   2.395  1.00  0.00     0.034 C 
ENDBRANCH  39  40
ENDBRANCH  37  39
ENDBRANCH   1  37
TORSDOF 12
ENDMDL
MODEL 4
REMARK VINA RESULT: -8.666862899      2.598      5.715
REMARK  12 active torsions:
REMARK  status: ('A' for Active; 'I' for Inactive)
REMARK    1  A    between atoms: C2_2  and  O1_3 
REMARK    2  A    between atoms: O1_3  and  C3_4 
REMARK    3  A    between atoms: C3_4  and  C4_6 
REMARK    4  A    between atoms: N1_14  and  C12_15 
REMARK    5  A    between atoms: C12_15  and  C13_16 
REMARK    6  A    between atoms: C20_24  and  C21_25 
REMARK    7  A    between atoms: C21_25  and  C22_26 
REMARK       I    between atoms: C22_26  and  N2_28 
REMARK    8  A    between atoms: N2_28  and  C23_30 
REMARK    9  A    between atoms: C23_30  and  C24_31 
REMARK   10  A    between atoms: C24_31  and  N3_32 
REMARK   11  A    between atoms: C29_37  and  C30_38 
REMARK   12  A    between atoms: C30_38  and  O5_39 
ROOT
HETATM    1  C4  UNL     1       9.455  25.294   5.644  1.00  0.00     0.091 C 
HETATM    2  C5  UNL     1       9.226  24.541   6.931  1.00  0.00     0.026 C 
HETATM    3  C6  UNL     1      10.095  24.841   8.088  1.00  0.00     0.002 C 
HETATM    4  C7  UNL     1      11.542  24.463   7.962  1.00  0.00     0.000 C 
HETATM    5  C8  UNL     1      12.434  25.677   7.799  1.00  0.00     0.004 C 
HETATM    6  C9  UNL     1      12.720  26.005   6.373  1.00  0.00     0.029 C 
HETATM    7  C10 UNL     1      11.978  25.164   5.408  1.00  0.00    -0.000 C 
HETATM    8  C11 UNL     1      10.732  24.843   5.072  1.00  0.00     0.029 C 
HETATM    9  N1  UNL     1      10.903  23.907   4.000  1.00  0.00    -0.320 N 
HETATM   10  C19 UNL     1       9.679  23.655   3.306  1.00  0.00     0.228 C 
HETATM   11  O3  UNL     1       9.751  23.043   2.180  1.00  0.00    -0.273 OA
HETATM   12  C20 UNL     1       8.328  24.021   3.735  1.00  0.00     0.088 C 
HETATM   13  C31 UNL     1       8.245  25.077   4.741  1.00  0.00     0.040 C 
ENDROOT
BRANCH  12  14
HETATM   14  C21 UNL     1       7.547  24.387   2.459  1.00  0.00     0.117 C 
BRANCH  14  15
HETATM   15  C22 UNL     1       6.166  24.831   2.723  1.00  0.00     0.218 C 
HETATM   16  O4  UNL     1       5.761  25.925   2.264  1.00  0.00    -0.274 OA
HETATM   17  N2  UNL     1       5.351  23.977   3.499  1.00  0.00    -0.359 N 
ATOM     18  H2  UNL     1       5.736  23.097   3.843  1.00  0.00     0.162 HD
BRANCH  17  19
HETATM   19  C23 UNL     1       3.999  24.321   3.813  1.00  0.00     0.152 C 
BRANCH  19  20
HETATM   20  C24 UNL     1       3.925  25.038   5.128  1.00  0.00     0.292 C 
BRANCH  20  21
HETATM   21  N3  UNL     1       4.337  26.415   4.943  1.00  0.00     0.096 N 
HETATM   22  C25 UNL     1       3.186  27.298   5.106  1.00  0.00     0.273 C 
HETATM   23  C26 UNL     1       2.693  27.293   6.523  1.00  0.00     0.030 C 
HETATM   24  C27 UNL     1       3.789  27.487   7.524  1.00  0.00     0.004 C 
HETATM   25  C28 UNL     1       5.003  26.647   7.251  1.00  0.00     0.038 C 
HETATM   26  C29 UNL     1       5.421  26.784   5.794  1.00  0.00     0.246 C 
BRANCH  26  27
HETATM   27  C30 UNL     1       5.813  28.231   5.549  1.00  0.00     0.199 C 
BRANCH  27  28
HETATM   28  O5  UNL     1       6.527  28.280   4.332  1.00  0.00    -0.399 OA
ATOM     29  H5  UNL     1       7.420  28.533   4.533  1.00  0.00     0.209 HD
ENDBRANCH  27  28
ENDBRANCH  26  27
ENDBRANCH  20  21
ENDBRANCH  19  20
ENDBRANCH  17  19
ENDBRANCH  14  15
ENDBRANCH  12  14
BRANCH   9  30
HETATM   30  C12 UNL     1      12.137  23.262   3.663  1.00  0.00     0.136 C 
BRANCH  30  31
HETATM   31  C13 UNL     1      12.243  21.785   3.863  1.00  0.00     0.004 C 
HETATM   32  C14 UNL     1      11.939  21.521   5.336  1.00  0.00     0.006 C 
HETATM   33  C15 UNL     1      13.122  21.756   6.224  1.00  0.00     0.000 C 
HETATM   34  C16 UNL     1      14.201  20.759   5.778  1.00  0.00     0.000 C 
HETATM   35  C17 UNL     1      14.628  21.198   4.412  1.00  0.00     0.000 C 
HETATM   36  C18 UNL     1      13.514  21.203   3.409  1.00  0.00     0.006 C 
ENDBRANCH  30  31
ENDBRANCH   9  30
BRANCH   1  37
HETATM   37  C3  UNL     1       9.428  26.760   5.867  1.00  0.00     0.273 C 
HETATM   38  O2  UNL     1       9.271  27.562   4.941  1.00  0.00    -0.264 OA
BRANCH  37  39
HETATM   39  O1  UNL     1       9.591  27.243   7.151  1.00  0.00    -0.321 OA
BRANCH  39  40
HETATM   40  C2  UNL     1       8.706  28.180   7.690  1.00  0.00     0.174 C 
HETATM   41  C1  UNL     1       8.137  27.857   9.026  1.00  0.00     0.034 C 
ENDBRANCH  39  40
ENDBRANCH  37  39
ENDBRANCH   1  37
TORSDOF 12
ENDMDL
MODEL 5
REMARK VINA RESULT: -8.543410263      2.065      4.857
REMARK  12 active torsions:
REMARK  status: ('A' for Active; 'I' for Inactive)
REMARK    1  A    between atoms: C2_2  and  O1_3 
REMARK    2  A    between atoms: O1_3  and  C3_4 
REMARK    3  A    between atoms: C3_4  and  C4_6 
REMARK    4  A    between atoms: N1_14  and  C12_15 
REMARK    5  A    between atoms: C12_15  and  C13_16 
REMARK    6  A    between atoms: C20_24  and  C21_25 
REMARK    7  A    between atoms: C21_25  and  C22_26 
REMARK       I    between atoms: C22_26  and  N2_28 
REMARK    8  A    between atoms: N2_28  and  C23_30 
REMARK    9  A    between atoms: C23_30  and  C24_31 
REMARK   10  A    between atoms: C24_31  and  N3_32 
REMARK   11  A    between atoms: C29_37  and  C30_38 
REMARK   12  A    between atoms: C30_38  and  O5_39 
ROOT
HETATM    1  C4  UNL     1      12.390  23.474   5.968  1.00  0.00     0.091 C 
HETATM    2  C5  UNL     1      12.459  22.576   7.178  1.00  0.00     0.026 C 
HETATM    3  C6  UNL     1      13.667  22.629   8.027  1.00  0.00     0.002 C 
HETATM    4  C7  UNL     1      14.945  22.136   7.416  1.00  0.00     0.000 C 
HETATM    5  C8  UNL     1      15.901  23.270   7.105  1.00  0.00     0.004 C 
HETATM    6  C9  UNL     1      15.787  23.762   5.703  1.00  0.00     0.029 C 
HETATM    7  C10 UNL     1      14.684  23.138   4.939  1.00  0.00    -0.000 C 
HETATM    8  C11 UNL     1      13.364  22.987   4.981  1.00  0.00     0.029 C 
HETATM    9  N1  UNL     1      13.079  22.196   3.819  1.00  0.00    -0.320 N 
HETATM   10  C19 UNL     1      11.681  22.161   3.523  1.00  0.00     0.228 C 
HETATM   11  O3  UNL     1      11.329  21.706   2.376  1.00  0.00    -0.273 OA
HETATM   12  C20 UNL     1      10.582  22.591   4.390  1.00  0.00     0.088 C 
HETATM   13  C31 UNL     1      10.947  23.501   5.473  1.00  0.00     0.040 C 
ENDROOT
BRANCH  12  14
HETATM   14  C21 UNL     1       9.511  23.203   3.469  1.00  0.00     0.117 C 
BRANCH  14  15
HETATM   15  C22 UNL     1       9.590  24.673   3.371  1.00  0.00     0.218 C 
HETATM   16  O4  UNL     1      10.348  25.204   2.526  1.00  0.00    -0.274 OA
HETATM   17  N2  UNL     1       8.787  25.422   4.259  1.00  0.00    -0.359 N 
ATOM     18  H2  UNL     1       8.187  24.933   4.924  1.00  0.00     0.162 HD
BRANCH  17  19
HETATM   19  C23 UNL     1       8.797  26.853   4.245  1.00  0.00     0.152 C 
BRANCH  19  20
HETATM   20  C24 UNL     1       7.468  27.396   4.675  1.00  0.00     0.292 C 
BRANCH  20  21
HETATM   21  N3  UNL     1       7.642  28.180   5.882  1.00  0.00     0.096 N 
HETATM   22  C25 UNL     1       6.371  28.792   6.257  1.00  0.00     0.273 C 
HETATM   23  C26 UNL     1       5.373  27.756   6.683  1.00  0.00     0.030 C 
HETATM   24  C27 UNL     1       5.928  26.784   7.678  1.00  0.00     0.004 C 
HETATM   25  C28 UNL     1       7.290  26.269   7.313  1.00  0.00     0.038 C 
HETATM   26  C29 UNL     1       8.211  27.425   6.951  1.00  0.00     0.246 C 
BRANCH  26  27
HETATM   27  C30 UNL     1       8.377  28.299   8.182  1.00  0.00     0.199 C 
BRANCH  27  28
HETATM   28  O5  UNL     1       9.615  28.968   8.066  1.00  0.00    -0.399 OA
ATOM     29  H5  UNL     1      10.142  28.729   8.820  1.00  0.00     0.209 HD
ENDBRANCH  27  28
ENDBRANCH  26  27
ENDBRANCH  20  21
ENDBRANCH  19  20
ENDBRANCH  17  19
ENDBRANCH  14  15
ENDBRANCH  12  14
BRANCH   9  30
HETATM   30  C12 UNL     1      14.057  21.489   3.048  1.00  0.00     0.136 C 
BRANCH  30  31
HETATM   31  C13 UNL     1      14.083  19.997   3.131  1.00  0.00     0.004 C 
HETATM   32  C14 UNL     1      14.694  19.646   4.487  1.00  0.00     0.006 C 
HETATM   33  C15 UNL     1      16.191  19.702   4.481  1.00  0.00     0.000 C 
HETATM   34  C16 UNL     1      16.658  18.650   3.465  1.00  0.00     0.000 C 
HETATM   35  C17 UNL     1      16.229  19.154   2.122  1.00  0.00     0.000 C 
HETATM   36  C18 UNL     1      14.747  19.340   1.997  1.00  0.00     0.006 C 
ENDBRANCH  30  31
ENDBRANCH   9  30
BRANCH   1  37
HETATM   37  C3  UNL     1      12.627  24.892   6.336  1.00  0.00     0.273 C 
HETATM   38  O2  UNL     1      12.776  25.774   5.485  1.00  0.00    -0.264 OA
BRANCH  37  39
HETATM   39  O1  UNL     1      12.689  25.232   7.673  1.00  0.00    -0.321 OA
BRANCH  39  40
HETATM   40  C2  UNL     1      11.723  26.058   8.256  1.00  0.00     0.174 C 
HETATM   41  C1  UNL     1      10.597  25.372   8.942  1.00  0.00     0.034 C 
ENDBRANCH  39  40
ENDBRANCH  37  39
ENDBRANCH   1  37
TORSDOF 12
ENDMDL
