MODEL 1
REMARK VINA RESULT: -9.528127341      0.000      0.000
REMARK  10 active torsions:
REMARK  status: ('A' for Active; 'I' for Inactive)
REMARK    1  A    between atoms: C2_2  and  C3_3 
REMARK    2  A    between atoms: C3_3  and  C4_4 
REMARK    3  A    between atoms: C4_4  and  C5_5 
REMARK    4  A    between atoms: C5_5  and  C6_6 
REMARK       I    between atoms: C6_6  and  N1_8 
REMARK    5  A    between atoms: N1_8  and  C7_9 
REMARK    6  A    between atoms: N1_8  and  C12_17 
REMARK       I    between atoms: N3_20  and  C15_21 
REMARK    7  A    between atoms: C15_21  and  C16_23 
REMARK    8  A    between atoms: C18_25  and  C19_26 
REMARK    9  A    between atoms: C22_29  and  C23_30 
REMARK   10  A    between atoms: C23_30  and  C24_31 
ROOT
HETATM    1  C12 UNL     1      11.391  23.018   6.622  1.00  0.00     0.090 C 
HETATM    2  C13 UNL     1      11.690  21.801   5.786  1.00  0.00     0.045 C 
HETATM    3  C14 UNL     1      13.108  21.305   5.982  1.00  0.00     0.128 C 
HETATM    4  N3  UNL     1      14.069  22.338   5.808  1.00  0.00    -0.348 N 
HETATM    5  C15 UNL     1      15.230  22.109   5.030  1.00  0.00     0.255 C 
HETATM    6  O2  UNL     1      16.106  22.990   4.855  1.00  0.00    -0.267 OA
HETATM    7  C30 UNL     1      13.859  23.612   6.421  1.00  0.00     0.128 C 
HETATM    8  C31 UNL     1      12.570  23.711   7.188  1.00  0.00     0.045 C 
ENDROOT
BRANCH   5   9
HETATM    9  C16 UNL     1      15.466  20.808   4.377  1.00  0.00     0.054 A 
HETATM   10  C17 UNL     1      16.303  19.915   4.996  1.00  0.00     0.028 A 
HETATM   11  C18 UNL     1      16.550  18.681   4.426  1.00  0.00    -0.038 A 
HETATM   12  C27 UNL     1      15.908  18.416   3.213  1.00  0.00     0.095 A 
HETATM   13  N4  UNL     1      15.095  19.322   2.639  1.00  0.00    -0.368 N 
HETATM   14  C28 UNL     1      14.853  20.520   3.192  1.00  0.00     0.021 A 
ATOM     15  H4  UNL     1      14.646  19.089   1.753  1.00  0.00     0.165 HD
HETATM   16  C29 UNL     1      13.943  21.451   2.481  1.00  0.00     0.069 C 
BRANCH  11  17
HETATM   17  C19 UNL     1      17.441  17.669   5.046  1.00  0.00     0.020 C 
HETATM   18  C20 UNL     1      18.347  17.095   3.964  1.00  0.00     0.010 C 
HETATM   19  C21 UNL     1      19.001  15.859   4.484  1.00  0.00     0.006 C 
HETATM   20  C22 UNL     1      19.021  15.932   6.002  1.00  0.00    -0.005 C 
HETATM   21  C25 UNL     1      19.379  17.323   6.470  1.00  0.00     0.006 C 
HETATM   22  C26 UNL     1      18.316  18.333   6.083  1.00  0.00     0.010 C 
BRANCH  20  23
HETATM   23  C23 UNL     1      20.133  15.000   6.515  1.00  0.00     0.117 C 
BRANCH  23  24
HETATM   24  C24 UNL     1      19.617  14.176   7.642  1.00  0.00     0.172 C 
HETATM   25  O3  UNL     1      20.222  14.247   8.766  1.00  0.00    -0.648 OA
HETATM   26  O4  UNL     1      18.514  13.346   7.514  1.00  0.00    -0.648 OA
ENDBRANCH  23  24
ENDBRANCH  20  23
ENDBRANCH  11  17
ENDBRANCH   5   9
BRANCH   1  27
HETATM   27  N1  UNL     1      10.489  23.829   5.853  1.00  0.00    -0.343 N 
HETATM   28  C6  UNL     1       9.624  24.707   6.548  1.00  0.00     0.220 C 
HETATM   29  O1  UNL     1       8.790  25.451   5.975  1.00  0.00    -0.273 OA
BRANCH  28  30
HETATM   30  C5  UNL     1       9.654  24.803   8.039  1.00  0.00     0.103 C 
BRANCH  30  31
HETATM   31  C4  UNL     1       8.513  25.612   8.570  1.00  0.00     0.009 C 
BRANCH  31  32
HETATM   32  C3  UNL     1       8.967  26.431   9.735  1.00  0.00     0.000 C 
BRANCH  32  33
HETATM   33  C2  UNL     1       8.684  27.906   9.565  1.00  0.00    -0.005 C 
HETATM   34  C1  UNL     1       9.141  28.362   8.184  1.00  0.00     0.005 C 
ENDBRANCH  32  33
ENDBRANCH  31  32
ENDBRANCH  30  31
ENDBRANCH  28  30
BRANCH  27  35
HETATM   35  C7  UNL     1      10.419  23.778   4.400  1.00  0.00     0.090 C 
HETATM   36  C8  UNL     1       9.044  23.810   3.846  1.00  0.00     0.053 C 
HETATM   37  C9  UNL     1       8.635  24.943   2.994  1.00  0.00     0.234 C 
HETATM   38  N2  UNL     1       9.635  25.696   2.331  1.00  0.00    -0.075 N 
HETATM   39  C10 UNL     1      10.911  25.053   2.311  1.00  0.00     0.234 C 
ATOM     40  H22 UNL     1       9.338  25.938   1.386  1.00  0.00     0.277 HD
ATOM     41  H21 UNL     1       9.708  26.631   2.730  1.00  0.00     0.277 HD
HETATM   42  C11 UNL     1      11.303  24.799   3.778  1.00  0.00     0.053 C 
ENDBRANCH  27  35
ENDBRANCH   1  27
TORSDOF 10
ENDMDL
MODEL 2
REMARK VINA RESULT: -9.516805382      3.365     12.196
REMARK  10 active torsions:
REMARK  status: ('A' for Active; 'I' for Inactive)
REMARK    1  A    between atoms: C2_2  and  C3_3 
REMARK    2  A    between atoms: C3_3  and  C4_4 
REMARK    3  A    between atoms: C4_4  and  C5_5 
REMARK    4  A    between atoms: C5_5  and  C6_6 
REMARK       I    between atoms: C6_6  and  N1_8 
REMARK    5  A    between atoms: N1_8  and  C7_9 
REMARK    6  A    between atoms: N1_8  and  C12_17 
REMARK       I    between atoms: N3_20  and  C15_21 
REMARK    7  A    between atoms: C15_21  and  C16_23 
REMARK    8  A    between atoms: C18_25  and  C19_26 
REMARK    9  A    between atoms: C22_29  and  C23_30 
REMARK   10  A    between atoms: C23_30  and  C24_31 
ROOT
HETATM    1  C12 UNL     1      12.755  21.281   5.400  1.00  0.00     0.090 C 
HETATM    2  C13 UNL     1      11.963  21.850   6.548  1.00  0.00     0.045 C 
HETATM    3  C14 UNL     1      10.920  22.847   6.086  1.00  0.00     0.128 C 
HETATM    4  N3  UNL     1      11.471  23.855   5.250  1.00  0.00    -0.348 N 
HETATM    5  C15 UNL     1      11.140  25.216   5.459  1.00  0.00     0.255 C 
HETATM    6  O2  UNL     1      11.599  26.137   4.741  1.00  0.00    -0.267 OA
HETATM    7  C30 UNL     1      12.366  23.491   4.196  1.00  0.00     0.128 C 
HETATM    8  C31 UNL     1      12.644  22.016   4.119  1.00  0.00     0.045 C 
ENDROOT
BRANCH   5   9
HETATM    9  C16 UNL     1      10.229  25.621   6.545  1.00  0.00     0.054 A 
HETATM   10  C17 UNL     1       8.919  25.880   6.230  1.00  0.00     0.028 A 
HETATM   11  C18 UNL     1       8.027  26.256   7.215  1.00  0.00    -0.038 A 
HETATM   12  C27 UNL     1       8.535  26.352   8.513  1.00  0.00     0.095 A 
HETATM   13  N4  UNL     1       9.829  26.089   8.779  1.00  0.00    -0.368 N 
HETATM   14  C28 UNL     1      10.697  25.723   7.823  1.00  0.00     0.021 A 
ATOM     15  H4  UNL     1      10.160  26.170   9.740  1.00  0.00     0.165 HD
HETATM   16  C29 UNL     1      12.102  25.456   8.216  1.00  0.00     0.069 C 
BRANCH  11  17
HETATM   17  C19 UNL     1       6.597  26.547   6.941  1.00  0.00     0.020 C 
HETATM   18  C20 UNL     1       6.253  27.898   7.553  1.00  0.00     0.010 C 
HETATM   19  C21 UNL     1       4.768  28.052   7.587  1.00  0.00     0.006 C 
HETATM   20  C22 UNL     1       4.171  27.151   6.519  1.00  0.00    -0.005 C 
HETATM   21  C25 UNL     1       4.985  27.209   5.248  1.00  0.00     0.006 C 
HETATM   22  C26 UNL     1       6.377  26.641   5.450  1.00  0.00     0.010 C 
BRANCH  20  23
HETATM   23  C23 UNL     1       2.772  27.685   6.165  1.00  0.00     0.117 C 
BRANCH  23  24
HETATM   24  C24 UNL     1       1.868  27.543   7.340  1.00  0.00     0.172 C 
HETATM   25  O3  UNL     1       1.574  26.364   7.734  1.00  0.00    -0.648 OA
HETATM   26  O4  UNL     1       1.345  28.636   8.013  1.00  0.00    -0.648 OA
ENDBRANCH  23  24
ENDBRANCH  20  23
ENDBRANCH  11  17
ENDBRANCH   5   9
BRANCH   1  27
HETATM   27  N1  UNL     1      14.087  21.065   5.892  1.00  0.00    -0.343 N 
HETATM   28  C6  UNL     1      14.884  20.086   5.251  1.00  0.00     0.220 C 
HETATM   29  O1  UNL     1      16.056  19.809   5.608  1.00  0.00    -0.273 OA
BRANCH  28  30
HETATM   30  C5  UNL     1      14.365  19.308   4.085  1.00  0.00     0.103 C 
BRANCH  30  31
HETATM   31  C4  UNL     1      15.258  18.158   3.739  1.00  0.00     0.009 C 
BRANCH  31  32
HETATM   32  C3  UNL     1      15.809  18.337   2.361  1.00  0.00     0.000 C 
BRANCH  32  33
HETATM   33  C2  UNL     1      17.111  17.602   2.147  1.00  0.00    -0.005 C 
HETATM   34  C1  UNL     1      18.121  18.022   3.209  1.00  0.00     0.005 C 
ENDBRANCH  32  33
ENDBRANCH  31  32
ENDBRANCH  30  31
ENDBRANCH  28  30
BRANCH  27  35
HETATM   35  C7  UNL     1      14.644  21.795   7.021  1.00  0.00     0.090 C 
HETATM   36  C8  UNL     1      15.234  20.940   8.079  1.00  0.00     0.053 C 
HETATM   37  C9  UNL     1      16.677  21.044   8.371  1.00  0.00     0.234 C 
HETATM   38  N2  UNL     1      17.360  22.235   8.022  1.00  0.00    -0.075 N 
HETATM   39  C10 UNL     1      16.486  23.326   7.723  1.00  0.00     0.234 C 
ATOM     40  H22 UNL     1      18.027  22.495   8.747  1.00  0.00     0.277 HD
ATOM     41  H21 UNL     1      18.006  22.068   7.250  1.00  0.00     0.277 HD
HETATM   42  C11 UNL     1      15.576  22.862   6.571  1.00  0.00     0.053 C 
ENDBRANCH  27  35
ENDBRANCH   1  27
TORSDOF 10
ENDMDL
MODEL 3
REMARK VINA RESULT: -9.228935541      3.318     12.124
REMARK  10 active torsions:
REMARK  status: ('A' for Active; 'I' for Inactive)
REMARK    1  A    between atoms: C2_2  and  C3_3 
REMARK    2  A    between atoms: C3_3  and  C4_4 
REMARK    3  A    between atoms: C4_4  and  C5_5 
REMARK    4  A    between atoms: C5_5  and  C6_6 
REMARK       I    between atoms: C6_6  and  N1_8 
REMARK    5  A    between atoms: N1_8  and  C7_9 
REMARK    6  A    between atoms: N1_8  and  C12_17 
REMARK       I    between atoms: N3_20  and  C15_21 
REMARK    7  A    between atoms: C15_21  and  C16_23 
REMARK    8  A    between atoms: C18_25  and  C19_26 
REMARK    9  A    between atoms: C22_29  and  C23_30 
REMARK   10  A    between atoms: C23_30  and  C24_31 
ROOT
HETATM    1  C12 UNL     1      12.980  21.155   5.480  1.00  0.00     0.090 C 
HETATM    2  C13 UNL     1      12.235  21.904   6.554  1.00  0.00     0.045 C 
HETATM    3  C14 UNL     1      11.278  22.929   5.980  1.00  0.00     0.128 C 
HETATM    4  N3  UNL     1      11.912  23.795   5.049  1.00  0.00    -0.348 N 
HETATM    5  C15 UNL     1      11.694  25.193   5.111  1.00  0.00     0.255 C 
HETATM    6  O2  UNL     1      12.229  25.993   4.305  1.00  0.00    -0.267 OA
HETATM    7  C30 UNL     1      12.776  23.250   4.048  1.00  0.00     0.128 C 
HETATM    8  C31 UNL     1      12.931  21.757   4.129  1.00  0.00     0.045 C 
ENDROOT
BRANCH   5   9
HETATM    9  C16 UNL     1      10.818  25.783   6.139  1.00  0.00     0.054 A 
HETATM   10  C17 UNL     1       9.551  26.159   5.774  1.00  0.00     0.028 A 
HETATM   11  C18 UNL     1       8.692  26.711   6.704  1.00  0.00    -0.038 A 
HETATM   12  C27 UNL     1       9.188  26.854   8.003  1.00  0.00     0.095 A 
HETATM   13  N4  UNL     1      10.440  26.472   8.319  1.00  0.00    -0.368 N 
HETATM   14  C28 UNL     1      11.276  25.935   7.417  1.00  0.00     0.021 A 
ATOM     15  H4  UNL     1      10.764  26.594   9.278  1.00  0.00     0.165 HD
HETATM   16  C29 UNL     1      12.636  25.548   7.863  1.00  0.00     0.069 C 
BRANCH  11  17
HETATM   17  C19 UNL     1       7.308  27.135   6.374  1.00  0.00     0.020 C 
HETATM   18  C20 UNL     1       6.852  26.374   5.136  1.00  0.00     0.010 C 
HETATM   19  C21 UNL     1       5.619  27.020   4.596  1.00  0.00     0.006 C 
HETATM   20  C22 UNL     1       4.941  27.774   5.728  1.00  0.00    -0.005 C 
HETATM   21  C25 UNL     1       4.968  26.968   7.005  1.00  0.00     0.006 C 
HETATM   22  C26 UNL     1       6.384  26.771   7.512  1.00  0.00     0.010 C 
BRANCH  20  23
HETATM   23  C23 UNL     1       3.459  27.962   5.362  1.00  0.00     0.117 C 
BRANCH  23  24
HETATM   24  C24 UNL     1       3.272  29.274   4.682  1.00  0.00     0.172 C 
HETATM   25  O3  UNL     1       3.265  29.293   3.404  1.00  0.00    -0.648 OA
HETATM   26  O4  UNL     1       3.104  30.458   5.382  1.00  0.00    -0.648 OA
ENDBRANCH  23  24
ENDBRANCH  20  23
ENDBRANCH  11  17
ENDBRANCH   5   9
BRANCH   1  27
HETATM   27  N1  UNL     1      14.288  20.883   6.005  1.00  0.00    -0.343 N 
HETATM   28  C6  UNL     1      15.093  19.932   5.333  1.00  0.00     0.220 C 
HETATM   29  O1  UNL     1      16.245  19.611   5.714  1.00  0.00    -0.273 OA
BRANCH  28  30
HETATM   30  C5  UNL     1      14.605  19.239   4.102  1.00  0.00     0.103 C 
BRANCH  30  31
HETATM   31  C4  UNL     1      15.430  18.033   3.776  1.00  0.00     0.009 C 
BRANCH  31  32
HETATM   32  C3  UNL     1      16.012  18.169   2.406  1.00  0.00     0.000 C 
BRANCH  32  33
HETATM   33  C2  UNL     1      17.517  18.026   2.389  1.00  0.00    -0.005 C 
HETATM   34  C1  UNL     1      17.975  17.254   3.620  1.00  0.00     0.005 C 
ENDBRANCH  32  33
ENDBRANCH  31  32
ENDBRANCH  30  31
ENDBRANCH  28  30
BRANCH  27  35
HETATM   35  C7  UNL     1      14.814  21.530   7.198  1.00  0.00     0.090 C 
HETATM   36  C8  UNL     1      15.234  20.598   8.272  1.00  0.00     0.053 C 
HETATM   37  C9  UNL     1      16.652  20.560   8.681  1.00  0.00     0.234 C 
HETATM   38  N2  UNL     1      17.467  21.690   8.426  1.00  0.00    -0.075 N 
HETATM   39  C10 UNL     1      16.724  22.864   8.093  1.00  0.00     0.234 C 
ATOM     40  H22 UNL     1      18.093  21.869   9.210  1.00  0.00     0.277 HD
ATOM     41  H21 UNL     1      18.157  21.483   7.703  1.00  0.00     0.277 HD
HETATM   42  C11 UNL     1      15.873  22.516   6.859  1.00  0.00     0.053 C 
ENDBRANCH  27  35
ENDBRANCH   1  27
TORSDOF 10
ENDMDL
MODEL 4
REMARK VINA RESULT: -8.975240235      2.204      4.756
REMARK  10 active torsions:
REMARK  status: ('A' for Active; 'I' for Inactive)
REMARK    1  A    between atoms: C2_2  and  C3_3 
REMARK    2  A    between atoms: C3_3  and  C4_4 
REMARK    3  A    between atoms: C4_4  and  C5_5 
REMARK    4  A    between atoms: C5_5  and  C6_6 
REMARK       I    between atoms: C6_6  and  N1_8 
REMARK    5  A    between atoms: N1_8  and  C7_9 
REMARK    6  A    between atoms: N1_8  and  C12_17 
REMARK       I    between atoms: N3_20  and  C15_21 
REMARK    7  A    between atoms: C15_21  and  C16_23 
REMARK    8  A    between atoms: C18_25  and  C19_26 
REMARK    9  A    between atoms: C22_29  and  C23_30 
REMARK   10  A    between atoms: C23_30  and  C24_31 
ROOT
HETATM    1  C12 UNL     1      10.319  25.658   4.694  1.00  0.00     0.090 C 
HETATM    2  C13 UNL     1      11.686  25.540   5.316  1.00  0.00     0.045 C 
HETATM    3  C14 UNL     1      12.314  24.184   5.066  1.00  0.00     0.128 C 
HETATM    4  N3  UNL     1      11.452  23.115   5.433  1.00  0.00    -0.348 N 
HETATM    5  C15 UNL     1      11.949  22.022   6.185  1.00  0.00     0.255 C 
HETATM    6  O2  UNL     1      11.225  21.056   6.525  1.00  0.00    -0.267 OA
HETATM    7  C30 UNL     1      10.077  23.147   5.043  1.00  0.00     0.128 C 
HETATM    8  C31 UNL     1       9.693  24.383   4.278  1.00  0.00     0.045 C 
ENDROOT
BRANCH   5   9
HETATM    9  C16 UNL     1      13.359  21.968   6.610  1.00  0.00     0.054 A 
HETATM   10  C17 UNL     1      14.166  21.005   6.061  1.00  0.00     0.028 A 
HETATM   11  C18 UNL     1      15.496  20.919   6.424  1.00  0.00    -0.038 A 
HETATM   12  C27 UNL     1      15.948  21.854   7.360  1.00  0.00     0.095 A 
HETATM   13  N4  UNL     1      15.122  22.783   7.875  1.00  0.00    -0.368 N 
HETATM   14  C28 UNL     1      13.830  22.868   7.523  1.00  0.00     0.021 A 
ATOM     15  H4  UNL     1      15.491  23.447   8.556  1.00  0.00     0.165 HD
HETATM   16  C29 UNL     1      13.000  23.927   8.148  1.00  0.00     0.069 C 
BRANCH  11  17
HETATM   17  C19 UNL     1      16.422  19.903   5.864  1.00  0.00     0.020 C 
HETATM   18  C20 UNL     1      16.485  20.086   4.354  1.00  0.00     0.010 C 
HETATM   19  C21 UNL     1      17.129  18.885   3.745  1.00  0.00     0.006 C 
HETATM   20  C22 UNL     1      17.994  18.220   4.803  1.00  0.00    -0.005 C 
HETATM   21  C25 UNL     1      18.748  19.251   5.609  1.00  0.00     0.006 C 
HETATM   22  C26 UNL     1      17.809  20.124   6.419  1.00  0.00     0.010 C 
BRANCH  20  23
HETATM   23  C23 UNL     1      19.054  17.363   4.090  1.00  0.00     0.117 C 
BRANCH  23  24
HETATM   24  C24 UNL     1      19.389  16.179   4.928  1.00  0.00     0.172 C 
HETATM   25  O3  UNL     1      20.585  15.731   4.887  1.00  0.00    -0.648 OA
HETATM   26  O4  UNL     1      18.457  15.556   5.744  1.00  0.00    -0.648 OA
ENDBRANCH  23  24
ENDBRANCH  20  23
ENDBRANCH  11  17
ENDBRANCH   5   9
BRANCH   1  27
HETATM   27  N1  UNL     1       9.543  26.488   5.572  1.00  0.00    -0.343 N 
HETATM   28  C6  UNL     1       8.581  27.352   4.996  1.00  0.00     0.220 C 
HETATM   29  O1  UNL     1       7.858  28.127   5.669  1.00  0.00    -0.273 OA
BRANCH  28  30
HETATM   30  C5  UNL     1       8.366  27.393   3.517  1.00  0.00     0.103 C 
BRANCH  30  31
HETATM   31  C4  UNL     1       7.197  26.556   3.100  1.00  0.00     0.009 C 
BRANCH  31  32
HETATM   32  C3  UNL     1       7.504  25.854   1.817  1.00  0.00     0.000 C 
BRANCH  32  33
HETATM   33  C2  UNL     1       6.735  24.564   1.652  1.00  0.00    -0.005 C 
HETATM   34  C1  UNL     1       6.104  24.167   2.981  1.00  0.00     0.005 C 
ENDBRANCH  32  33
ENDBRANCH  31  32
ENDBRANCH  30  31
ENDBRANCH  28  30
BRANCH  27  35
HETATM   35  C7  UNL     1       9.709  26.487   7.018  1.00  0.00     0.090 C 
HETATM   36  C8  UNL     1       9.922  27.827   7.615  1.00  0.00     0.053 C 
HETATM   37  C9  UNL     1       8.928  28.360   8.567  1.00  0.00     0.234 C 
HETATM   38  N2  UNL     1       8.086  27.452   9.255  1.00  0.00    -0.075 N 
HETATM   39  C10 UNL     1       8.532  26.096   9.184  1.00  0.00     0.234 C 
ATOM     40  H22 UNL     1       7.959  27.740  10.225  1.00  0.00     0.277 HD
ATOM     41  H21 UNL     1       7.123  27.533   8.928  1.00  0.00     0.277 HD
HETATM   42  C11 UNL     1       8.617  25.736   7.690  1.00  0.00     0.053 C 
ENDBRANCH  27  35
ENDBRANCH   1  27
TORSDOF 10
ENDMDL
MODEL 5
REMARK VINA RESULT: -8.927232489      2.909      3.521
REMARK  10 active torsions:
REMARK  status: ('A' for Active; 'I' for Inactive)
REMARK    1  A    between atoms: C2_2  and  C3_3 
REMARK    2  A    between atoms: C3_3  and  C4_4 
REMARK    3  A    between atoms: C4_4  and  C5_5 
REMARK    4  A    between atoms: C5_5  and  C6_6 
REMARK       I    between atoms: C6_6  and  N1_8 
REMARK    5  A    between atoms: N1_8  and  C7_9 
REMARK    6  A    between atoms: N1_8  and  C12_17 
REMARK       I    between atoms: N3_20  and  C15_21 
REMARK    7  A    between atoms: C15_21  and  C16_23 
REMARK    8  A    between atoms: C18_25  and  C19_26 
REMARK    9  A    between atoms: C22_29  and  C23_30 
REMARK   10  A    between atoms: C23_30  and  C24_31 
ROOT
HETATM    1  C12 UNL     1       9.581  25.270   6.430  1.00  0.00     0.090 C 
HETATM    2  C13 UNL     1      10.018  23.833   6.313  1.00  0.00     0.045 C 
HETATM    3  C14 UNL     1      11.480  23.647   6.662  1.00  0.00     0.128 C 
HETATM    4  N3  UNL     1      12.323  24.535   5.940  1.00  0.00    -0.348 N 
HETATM    5  C15 UNL     1      13.507  24.056   5.328  1.00  0.00     0.255 C 
HETATM    6  O2  UNL     1      14.282  24.806   4.687  1.00  0.00    -0.267 OA
HETATM    7  C30 UNL     1      11.970  25.917   5.831  1.00  0.00     0.128 C 
HETATM    8  C31 UNL     1      10.674  26.266   6.507  1.00  0.00     0.045 C 
ENDROOT
BRANCH   5   9
HETATM    9  C16 UNL     1      13.889  22.635   5.414  1.00  0.00     0.054 A 
HETATM   10  C17 UNL     1      14.764  22.258   6.401  1.00  0.00     0.028 A 
HETATM   11  C18 UNL     1      15.146  20.936   6.526  1.00  0.00    -0.038 A 
HETATM   12  C27 UNL     1      14.596  20.039   5.605  1.00  0.00     0.095 A 
HETATM   13  N4  UNL     1      13.741  20.452   4.651  1.00  0.00    -0.368 N 
HETATM   14  C28 UNL     1      13.368  21.736   4.529  1.00  0.00     0.021 A 
ATOM     15  H4  UNL     1      13.363  19.766   3.998  1.00  0.00     0.165 HD
HETATM   16  C29 UNL     1      12.422  22.092   3.444  1.00  0.00     0.069 C 
BRANCH  11  17
HETATM   17  C19 UNL     1      16.085  20.462   7.573  1.00  0.00     0.020 C 
HETATM   18  C20 UNL     1      17.156  21.525   7.779  1.00  0.00     0.010 C 
HETATM   19  C21 UNL     1      18.280  20.936   8.564  1.00  0.00     0.006 C 
HETATM   20  C22 UNL     1      17.741  19.759   9.359  1.00  0.00    -0.005 C 
HETATM   21  C25 UNL     1      16.390  20.083   9.953  1.00  0.00     0.006 C 
HETATM   22  C26 UNL     1      15.342  20.290   8.877  1.00  0.00     0.010 C 
BRANCH  20  23
HETATM   23  C23 UNL     1      18.688  19.503  10.544  1.00  0.00     0.117 C 
BRANCH  23  24
HETATM   24  C24 UNL     1      19.076  18.066  10.576  1.00  0.00     0.172 C 
HETATM   25  O3  UNL     1      18.235  17.226  11.047  1.00  0.00    -0.648 OA
HETATM   26  O4  UNL     1      20.303  17.615  10.116  1.00  0.00    -0.648 OA
ENDBRANCH  23  24
ENDBRANCH  20  23
ENDBRANCH  11  17
ENDBRANCH   5   9
BRANCH   1  27
HETATM   27  N1  UNL     1       8.601  25.483   5.403  1.00  0.00    -0.343 N 
HETATM   28  C6  UNL     1       7.384  26.110   5.762  1.00  0.00     0.220 C 
HETATM   29  O1  UNL     1       6.455  26.333   4.947  1.00  0.00    -0.273 OA
BRANCH  28  30
HETATM   30  C5  UNL     1       7.127  26.552   7.167  1.00  0.00     0.103 C 
BRANCH  30  31
HETATM   31  C4  UNL     1       7.313  28.028   7.330  1.00  0.00     0.009 C 
BRANCH  31  32
HETATM   32  C3  UNL     1       8.513  28.301   8.178  1.00  0.00     0.000 C 
BRANCH  32  33
HETATM   33  C2  UNL     1       8.322  27.891   9.619  1.00  0.00    -0.005 C 
HETATM   34  C1  UNL     1       9.129  26.631   9.908  1.00  0.00     0.005 C 
ENDBRANCH  32  33
ENDBRANCH  31  32
ENDBRANCH  30  31
ENDBRANCH  28  30
BRANCH  27  35
HETATM   35  C7  UNL     1       8.799  25.075   4.020  1.00  0.00     0.090 C 
HETATM   36  C8  UNL     1       7.858  24.033   3.543  1.00  0.00     0.053 C 
HETATM   37  C9  UNL     1       6.928  24.350   2.442  1.00  0.00     0.234 C 
HETATM   38  N2  UNL     1       7.252  25.408   1.557  1.00  0.00    -0.075 N 
HETATM   39  C10 UNL     1       8.615  25.829   1.648  1.00  0.00     0.234 C 
ATOM     40  H22 UNL     1       7.014  25.162   0.596  1.00  0.00     0.277 HD
ATOM     41  H21 UNL     1       6.620  26.198   1.691  1.00  0.00     0.277 HD
HETATM   42  C11 UNL     1       8.852  26.249   3.110  1.00  0.00     0.053 C 
ENDBRANCH  27  35
ENDBRANCH   1  27
TORSDOF 10
ENDMDL
