MODEL 1
REMARK VINA RESULT: -5.881799332      0.000      0.000
REMARK  13 active torsions:
REMARK  status: ('A' for Active; 'I' for Inactive)
REMARK    1  A    between atoms: C2_2  and  C3_3 
REMARK    2  A    between atoms: C3_3  and  N1_4 
REMARK    3  A    between atoms: N1_4  and  C4_7 
REMARK    4  A    between atoms: C6_9  and  C7_10 
REMARK    5  A    between atoms: C7_10  and  O1_11 
REMARK    6  A    between atoms: C10_16  and  C11_17 
REMARK    7  A    between atoms: C13_19  and  O3_20 
REMARK    8  A    between atoms: O3_20  and  C14_21 
REMARK    9  A    between atoms: C15_23  and  C16_24 
REMARK   10  A    between atoms: C16_24  and  N2_25 
REMARK   11  A    between atoms: C17_29  and  O5_30 
REMARK   12  A    between atoms: C18_32  and  O6_33 
REMARK   13  A    between atoms: C19_35  and  O7_36 
ROOT
HETATM    1  C4  UNL     1      55.105  14.470  24.821  1.00  0.00     0.237 C 
HETATM    2  C5  UNL     1      56.034  15.613  25.168  1.00  0.00     0.082 C 
HETATM    3  C6  UNL     1      57.144  14.739  24.579  1.00  0.00     0.007 C 
HETATM    4  C8  UNL     1      57.117  14.901  23.111  1.00  0.00     0.084 C 
HETATM    5  C9  UNL     1      55.691  14.910  22.629  1.00  0.00     0.271 C 
HETATM    6  O2  UNL     1      55.367  16.206  22.292  1.00  0.00    -0.353 OA
HETATM    7  C10 UNL     1      56.517  16.784  21.759  1.00  0.00     0.154 C 
HETATM    8  C13 UNL     1      57.661  16.183  22.578  1.00  0.00     0.163 C 
HETATM    9  O8  UNL     1      54.769  14.425  23.495  1.00  0.00    -0.322 OA
HETATM   10  C20 UNL     1      56.298  13.550  25.021  1.00  0.00     0.021 C 
HETATM   11  C21 UNL     1      56.322  12.346  24.146  1.00  0.00     0.020 C 
HETATM   12  C22 UNL     1      56.527  13.177  26.467  1.00  0.00     0.020 C 
ENDROOT
BRANCH   8  13
HETATM   13  O3  UNL     1      58.691  15.989  21.629  1.00  0.00    -0.350 OA
BRANCH  13  14
HETATM   14  C14 UNL     1      59.928  16.437  22.073  1.00  0.00     0.292 C 
HETATM   15  O4  UNL     1      60.377  17.523  21.292  1.00  0.00    -0.349 OA
HETATM   16  C15 UNL     1      61.591  17.921  21.863  1.00  0.00     0.181 C 
HETATM   17  C17 UNL     1      62.679  16.933  21.470  1.00  0.00     0.180 C 
HETATM   18  C18 UNL     1      62.073  15.572  21.176  1.00  0.00     0.183 C 
HETATM   19  C19 UNL     1      60.888  15.301  22.085  1.00  0.00     0.204 C 
BRANCH  16  20
HETATM   20  C16 UNL     1      61.945  19.337  21.483  1.00  0.00     0.264 C 
BRANCH  20  21
HETATM   21  N2  UNL     1      61.443  19.562  20.129  1.00  0.00    -0.077 N 
ATOM     22  H23 UNL     1      62.131  19.349  19.407  1.00  0.00     0.274 HD
ATOM     23  H22 UNL     1      60.740  18.879  19.846  1.00  0.00     0.274 HD
ATOM     24  H21 UNL     1      61.105  20.524  20.087  1.00  0.00     0.274 HD
ENDBRANCH  20  21
ENDBRANCH  16  20
BRANCH  17  25
HETATM   25  O5  UNL     1      63.258  17.391  20.290  1.00  0.00    -0.390 OA
ATOM     26  H5  UNL     1      62.559  17.527  19.660  1.00  0.00     0.210 HD
ENDBRANCH  17  25
BRANCH  18  27
HETATM   27  O6  UNL     1      61.708  15.522  19.857  1.00  0.00    -0.390 OA
ATOM     28  H6  UNL     1      61.121  14.787  19.727  1.00  0.00     0.210 HD
ENDBRANCH  18  27
BRANCH  19  29
HETATM   29  O7  UNL     1      61.383  15.074  23.372  1.00  0.00    -0.388 OA
ATOM     30  H7  UNL     1      60.865  14.422  23.827  1.00  0.00     0.210 HD
ENDBRANCH  19  29
ENDBRANCH  13  14
ENDBRANCH   8  13
BRANCH   7  31
HETATM   31  C11 UNL     1      56.632  16.338  20.313  1.00  0.00     0.030 C 
HETATM   32  C12 UNL     1      55.620  17.091  19.474  1.00  0.00     0.007 C 
ENDBRANCH   7  31
BRANCH   3  33
HETATM   33  C7  UNL     1      58.429  14.789  25.321  1.00  0.00     0.175 C 
BRANCH  33  34
HETATM   34  O1  UNL     1      59.405  13.923  24.811  1.00  0.00    -0.400 OA
ATOM     35  H1  UNL     1      59.437  13.084  25.255  1.00  0.00     0.209 HD
ENDBRANCH  33  34
ENDBRANCH   3  33
BRANCH   1  36
HETATM   36  N1  UNL     1      54.034  14.346  25.763  1.00  0.00    -0.039 N 
ATOM     37  H12 UNL     1      53.948  15.146  26.390  1.00  0.00     0.281 HD
ATOM     38  H11 UNL     1      54.205  13.644  26.483  1.00  0.00     0.281 HD
BRANCH  36  39
HETATM   39  C3  UNL     1      52.820  14.089  24.969  1.00  0.00     0.262 C 
BRANCH  39  40
HETATM   40  C2  UNL     1      51.628  14.308  25.793  1.00  0.00    -0.010 C 
HETATM   41  C1  UNL     1      51.753  14.432  27.107  1.00  0.00     0.008 C 
ENDBRANCH  39  40
ENDBRANCH  36  39
ENDBRANCH   1  36
TORSDOF 13
ENDMDL
MODEL 2
REMARK VINA RESULT: -5.873571178      3.709      5.973
REMARK  13 active torsions:
REMARK  status: ('A' for Active; 'I' for Inactive)
REMARK    1  A    between atoms: C2_2  and  C3_3 
REMARK    2  A    between atoms: C3_3  and  N1_4 
REMARK    3  A    between atoms: N1_4  and  C4_7 
REMARK    4  A    between atoms: C6_9  and  C7_10 
REMARK    5  A    between atoms: C7_10  and  O1_11 
REMARK    6  A    between atoms: C10_16  and  C11_17 
REMARK    7  A    between atoms: C13_19  and  O3_20 
REMARK    8  A    between atoms: O3_20  and  C14_21 
REMARK    9  A    between atoms: C15_23  and  C16_24 
REMARK   10  A    between atoms: C16_24  and  N2_25 
REMARK   11  A    between atoms: C17_29  and  O5_30 
REMARK   12  A    between atoms: C18_32  and  O6_33 
REMARK   13  A    between atoms: C19_35  and  O7_36 
ROOT
HETATM    1  C4  UNL     1      58.694  12.313  25.066  1.00  0.00     0.237 C 
HETATM    2  C5  UNL     1      58.735  13.482  24.106  1.00  0.00     0.082 C 
HETATM    3  C6  UNL     1      57.952  12.578  23.150  1.00  0.00     0.007 C 
HETATM    4  C8  UNL     1      56.527  12.642  23.533  1.00  0.00     0.084 C 
HETATM    5  C9  UNL     1      56.402  12.610  25.033  1.00  0.00     0.271 C 
HETATM    6  O2  UNL     1      56.073  13.879  25.456  1.00  0.00    -0.353 OA
HETATM    7  C10 UNL     1      55.243  14.427  24.480  1.00  0.00     0.154 C 
HETATM    8  C13 UNL     1      55.798  13.889  23.161  1.00  0.00     0.163 C 
HETATM    9  O8  UNL     1      57.494  12.178  25.708  1.00  0.00    -0.322 OA
HETATM   10  C20 UNL     1      58.658  11.416  23.839  1.00  0.00     0.021 C 
HETATM   11  C21 UNL     1      57.882  10.156  24.000  1.00  0.00     0.020 C 
HETATM   12  C22 UNL     1      60.027  11.140  23.262  1.00  0.00     0.020 C 
ENDROOT
BRANCH   8  13
HETATM   13  O3  UNL     1      54.643  13.639  22.385  1.00  0.00    -0.350 OA
BRANCH  13  14
HETATM   14  C14 UNL     1      54.651  14.312  21.170  1.00  0.00     0.292 C 
HETATM   15  O4  UNL     1      55.972  14.482  20.701  1.00  0.00    -0.349 OA
HETATM   16  C15 UNL     1      55.851  15.113  19.458  1.00  0.00     0.181 C 
HETATM   17  C17 UNL     1      55.526  16.584  19.670  1.00  0.00     0.180 C 
HETATM   18  C18 UNL     1      54.821  16.781  21.000  1.00  0.00     0.183 C 
HETATM   19  C19 UNL     1      53.921  15.600  21.315  1.00  0.00     0.204 C 
BRANCH  16  20
HETATM   20  C16 UNL     1      57.087  14.920  18.616  1.00  0.00     0.264 C 
BRANCH  20  21
HETATM   21  N2  UNL     1      56.972  13.615  17.968  1.00  0.00    -0.077 N 
ATOM     22  H23 UNL     1      57.570  12.905  18.392  1.00  0.00     0.274 HD
ATOM     23  H22 UNL     1      56.078  13.158  18.148  1.00  0.00     0.274 HD
ATOM     24  H21 UNL     1      57.158  13.752  16.974  1.00  0.00     0.274 HD
ENDBRANCH  20  21
ENDBRANCH  16  20
BRANCH  17  25
HETATM   25  O5  UNL     1      56.732  17.277  19.735  1.00  0.00    -0.390 OA
ATOM     26  H5  UNL     1      56.748  17.748  20.560  1.00  0.00     0.210 HD
ENDBRANCH  17  25
BRANCH  18  27
HETATM   27  O6  UNL     1      55.761  16.963  21.980  1.00  0.00    -0.390 OA
ATOM     28  H6  UNL     1      55.355  16.825  22.827  1.00  0.00     0.210 HD
ENDBRANCH  18  27
BRANCH  19  29
HETATM   29  O7  UNL     1      52.827  15.658  20.448  1.00  0.00    -0.388 OA
ATOM     30  H7  UNL     1      52.362  16.481  20.539  1.00  0.00     0.210 HD
ENDBRANCH  19  29
ENDBRANCH  13  14
ENDBRANCH   8  13
BRANCH   7  31
HETATM   31  C11 UNL     1      53.843  13.887  24.706  1.00  0.00     0.030 C 
HETATM   32  C12 UNL     1      53.254  14.523  25.949  1.00  0.00     0.007 C 
ENDBRANCH   7  31
BRANCH   3  33
HETATM   33  C7  UNL     1      58.358  12.685  21.726  1.00  0.00     0.175 C 
BRANCH  33  34
HETATM   34  O1  UNL     1      57.461  12.074  20.841  1.00  0.00    -0.400 OA
ATOM     35  H1  UNL     1      57.846  11.855  20.000  1.00  0.00     0.209 HD
ENDBRANCH  33  34
ENDBRANCH   3  33
BRANCH   1  36
HETATM   36  N1  UNL     1      59.873  12.245  25.876  1.00  0.00    -0.039 N 
ATOM     37  H12 UNL     1      60.275  13.158  26.086  1.00  0.00     0.281 HD
ATOM     38  H11 UNL     1      60.682  11.863  25.386  1.00  0.00     0.281 HD
BRANCH  36  39
HETATM   39  C3  UNL     1      59.498  11.479  27.076  1.00  0.00     0.262 C 
BRANCH  39  40
HETATM   40  C2  UNL     1      60.446  10.380  27.286  1.00  0.00    -0.010 C 
HETATM   41  C1  UNL     1      60.222   9.205  26.715  1.00  0.00     0.008 C 
ENDBRANCH  39  40
ENDBRANCH  36  39
ENDBRANCH   1  36
TORSDOF 13
ENDMDL
MODEL 3
REMARK VINA RESULT: -5.681743109      3.280      5.329
REMARK  13 active torsions:
REMARK  status: ('A' for Active; 'I' for Inactive)
REMARK    1  A    between atoms: C2_2  and  C3_3 
REMARK    2  A    between atoms: C3_3  and  N1_4 
REMARK    3  A    between atoms: N1_4  and  C4_7 
REMARK    4  A    between atoms: C6_9  and  C7_10 
REMARK    5  A    between atoms: C7_10  and  O1_11 
REMARK    6  A    between atoms: C10_16  and  C11_17 
REMARK    7  A    between atoms: C13_19  and  O3_20 
REMARK    8  A    between atoms: O3_20  and  C14_21 
REMARK    9  A    between atoms: C15_23  and  C16_24 
REMARK   10  A    between atoms: C16_24  and  N2_25 
REMARK   11  A    between atoms: C17_29  and  O5_30 
REMARK   12  A    between atoms: C18_32  and  O6_33 
REMARK   13  A    between atoms: C19_35  and  O7_36 
ROOT
HETATM    1  C4  UNL     1      57.354  14.799  26.559  1.00  0.00     0.237 C 
HETATM    2  C5  UNL     1      57.246  15.734  25.373  1.00  0.00     0.082 C 
HETATM    3  C6  UNL     1      57.360  14.473  24.513  1.00  0.00     0.007 C 
HETATM    4  C8  UNL     1      56.022  13.852  24.441  1.00  0.00     0.084 C 
HETATM    5  C9  UNL     1      55.364  13.906  25.794  1.00  0.00     0.271 C 
HETATM    6  O2  UNL     1      54.385  14.874  25.749  1.00  0.00    -0.353 OA
HETATM    7  C10 UNL     1      53.840  14.837  24.467  1.00  0.00     0.154 C 
HETATM    8  C13 UNL     1      55.028  14.526  23.556  1.00  0.00     0.163 C 
HETATM    9  O8  UNL     1      56.187  14.145  26.843  1.00  0.00    -0.322 OA
HETATM   10  C20 UNL     1      58.179  13.892  25.660  1.00  0.00     0.021 C 
HETATM   11  C21 UNL     1      58.027  12.435  25.924  1.00  0.00     0.020 C 
HETATM   12  C22 UNL     1      59.636  14.284  25.593  1.00  0.00     0.020 C 
ENDROOT
BRANCH   8  13
HETATM   13  O3  UNL     1      54.486  13.659  22.580  1.00  0.00    -0.350 OA
BRANCH  13  14
HETATM   14  C14 UNL     1      54.552  14.182  21.295  1.00  0.00     0.292 C 
HETATM   15  O4  UNL     1      55.894  14.304  20.872  1.00  0.00    -0.349 OA
HETATM   16  C15 UNL     1      55.833  14.781  19.558  1.00  0.00     0.181 C 
HETATM   17  C17 UNL     1      55.498  16.264  19.578  1.00  0.00     0.180 C 
HETATM   18  C18 UNL     1      54.730  16.614  20.840  1.00  0.00     0.183 C 
HETATM   19  C19 UNL     1      53.816  15.474  21.250  1.00  0.00     0.204 C 
BRANCH  16  20
HETATM   20  C16 UNL     1      57.108  14.496  18.805  1.00  0.00     0.264 C 
BRANCH  20  21
HETATM   21  N2  UNL     1      57.761  13.369  19.467  1.00  0.00    -0.077 N 
ATOM     22  H23 UNL     1      57.393  13.187  20.401  1.00  0.00     0.274 HD
ATOM     23  H22 UNL     1      57.519  12.469  19.052  1.00  0.00     0.274 HD
ATOM     24  H21 UNL     1      58.764  13.554  19.462  1.00  0.00     0.274 HD
ENDBRANCH  20  21
ENDBRANCH  16  20
BRANCH  17  25
HETATM   25  O5  UNL     1      56.699  16.967  19.617  1.00  0.00    -0.390 OA
ATOM     26  H5  UNL     1      56.915  17.116  20.530  1.00  0.00     0.210 HD
ENDBRANCH  17  25
BRANCH  18  27
HETATM   27  O6  UNL     1      55.622  16.918  21.835  1.00  0.00    -0.390 OA
ATOM     28  H6  UNL     1      55.330  16.515  22.644  1.00  0.00     0.210 HD
ENDBRANCH  18  27
BRANCH  19  29
HETATM   29  O7  UNL     1      52.764  15.422  20.332  1.00  0.00    -0.388 OA
ATOM     30  H7  UNL     1      52.717  16.222  19.821  1.00  0.00     0.210 HD
ENDBRANCH  19  29
ENDBRANCH  13  14
ENDBRANCH   8  13
BRANCH   7  31
HETATM   31  C11 UNL     1      52.843  13.695  24.420  1.00  0.00     0.030 C 
HETATM   32  C12 UNL     1      51.611  14.069  25.219  1.00  0.00     0.007 C 
ENDBRANCH   7  31
BRANCH   3  33
HETATM   33  C7  UNL     1      58.186  14.632  23.290  1.00  0.00     0.175 C 
BRANCH  33  34
HETATM   34  O1  UNL     1      58.091  13.550  22.405  1.00  0.00    -0.400 OA
ATOM     35  H1  UNL     1      57.770  12.754  22.811  1.00  0.00     0.209 HD
ENDBRANCH  33  34
ENDBRANCH   3  33
BRANCH   1  36
HETATM   36  N1  UNL     1      58.039  15.407  27.659  1.00  0.00    -0.039 N 
ATOM     37  H12 UNL     1      58.560  16.246  27.400  1.00  0.00     0.281 HD
ATOM     38  H11 UNL     1      58.836  14.865  27.991  1.00  0.00     0.281 HD
BRANCH  36  39
HETATM   39  C3  UNL     1      57.019  15.646  28.693  1.00  0.00     0.262 C 
BRANCH  39  40
HETATM   40  C2  UNL     1      56.670  17.069  28.733  1.00  0.00    -0.010 C 
HETATM   41  C1  UNL     1      55.499  17.470  28.259  1.00  0.00     0.008 C 
ENDBRANCH  39  40
ENDBRANCH  36  39
ENDBRANCH   1  36
TORSDOF 13
ENDMDL
MODEL 4
REMARK VINA RESULT: -5.588267150      1.787      2.124
REMARK  13 active torsions:
REMARK  status: ('A' for Active; 'I' for Inactive)
REMARK    1  A    between atoms: C2_2  and  C3_3 
REMARK    2  A    between atoms: C3_3  and  N1_4 
REMARK    3  A    between atoms: N1_4  and  C4_7 
REMARK    4  A    between atoms: C6_9  and  C7_10 
REMARK    5  A    between atoms: C7_10  and  O1_11 
REMARK    6  A    between atoms: C10_16  and  C11_17 
REMARK    7  A    between atoms: C13_19  and  O3_20 
REMARK    8  A    between atoms: O3_20  and  C14_21 
REMARK    9  A    between atoms: C15_23  and  C16_24 
REMARK   10  A    between atoms: C16_24  and  N2_25 
REMARK   11  A    between atoms: C17_29  and  O5_30 
REMARK   12  A    between atoms: C18_32  and  O6_33 
REMARK   13  A    between atoms: C19_35  and  O7_36 
ROOT
HETATM    1  C4  UNL     1      54.003  14.272  23.317  1.00  0.00     0.237 C 
HETATM    2  C5  UNL     1      54.495  15.692  23.138  1.00  0.00     0.082 C 
HETATM    3  C6  UNL     1      55.865  15.149  23.553  1.00  0.00     0.007 C 
HETATM    4  C8  UNL     1      56.488  14.536  22.363  1.00  0.00     0.084 C 
HETATM    5  C9  UNL     1      55.456  13.753  21.597  1.00  0.00     0.271 C 
HETATM    6  O2  UNL     1      55.139  14.470  20.463  1.00  0.00    -0.353 OA
HETATM    7  C10 UNL     1      56.309  15.098  20.043  1.00  0.00     0.154 C 
HETATM    8  C13 UNL     1      57.025  15.479  21.340  1.00  0.00     0.163 C 
HETATM    9  O8  UNL     1      54.321  13.450  22.271  1.00  0.00    -0.322 OA
HETATM   10  C20 UNL     1      55.091  14.117  24.367  1.00  0.00     0.021 C 
HETATM   11  C21 UNL     1      55.685  12.756  24.465  1.00  0.00     0.020 C 
HETATM   12  C22 UNL     1      54.685  14.632  25.728  1.00  0.00     0.020 C 
ENDROOT
BRANCH   8  13
HETATM   13  O3  UNL     1      58.390  15.254  21.050  1.00  0.00    -0.350 OA
BRANCH  13  14
HETATM   14  C14 UNL     1      59.230  15.590  22.105  1.00  0.00     0.292 C 
HETATM   15  O4  UNL     1      59.991  16.737  21.793  1.00  0.00    -0.349 OA
HETATM   16  C15 UNL     1      60.747  17.010  22.939  1.00  0.00     0.181 C 
HETATM   17  C17 UNL     1      61.902  16.023  23.024  1.00  0.00     0.180 C 
HETATM   18  C18 UNL     1      61.550  14.735  22.302  1.00  0.00     0.183 C 
HETATM   19  C19 UNL     1      60.074  14.416  22.456  1.00  0.00     0.204 C 
BRANCH  16  20
HETATM   20  C16 UNL     1      61.219  18.441  22.963  1.00  0.00     0.264 C 
BRANCH  20  21
HETATM   21  N2  UNL     1      61.454  18.846  21.579  1.00  0.00    -0.077 N 
ATOM     22  H23 UNL     1      62.350  18.520  21.215  1.00  0.00     0.274 HD
ATOM     23  H22 UNL     1      60.855  18.356  20.914  1.00  0.00     0.274 HD
ATOM     24  H21 UNL     1      61.352  19.860  21.538  1.00  0.00     0.274 HD
ENDBRANCH  20  21
ENDBRANCH  16  20
BRANCH  17  25
HETATM   25  O5  UNL     1      62.988  16.586  22.358  1.00  0.00    -0.390 OA
ATOM     26  H5  UNL     1      63.656  16.776  23.006  1.00  0.00     0.210 HD
ENDBRANCH  17  25
BRANCH  18  27
HETATM   27  O6  UNL     1      61.897  14.854  20.983  1.00  0.00    -0.390 OA
ATOM     28  H6  UNL     1      61.901  13.991  20.585  1.00  0.00     0.210 HD
ENDBRANCH  18  27
BRANCH  19  29
HETATM   29  O7  UNL     1      59.861  14.021  23.779  1.00  0.00    -0.388 OA
ATOM     30  H7  UNL     1      60.592  13.511  24.105  1.00  0.00     0.210 HD
ENDBRANCH  19  29
ENDBRANCH  13  14
ENDBRANCH   8  13
BRANCH   7  31
HETATM   31  C11 UNL     1      57.135  14.079  19.281  1.00  0.00     0.030 C 
HETATM   32  C12 UNL     1      57.025  14.353  17.795  1.00  0.00     0.007 C 
ENDBRANCH   7  31
BRANCH   3  33
HETATM   33  C7  UNL     1      56.646  16.052  24.436  1.00  0.00     0.175 C 
BRANCH  33  34
HETATM   34  O1  UNL     1      57.810  15.465  24.949  1.00  0.00    -0.400 OA
ATOM     35  H1  UNL     1      58.444  15.233  24.281  1.00  0.00     0.209 HD
ENDBRANCH  33  34
ENDBRANCH   3  33
BRANCH   1  36
HETATM   36  N1  UNL     1      52.650  14.230  23.785  1.00  0.00    -0.039 N 
ATOM     37  H12 UNL     1      52.082  15.013  23.460  1.00  0.00     0.281 HD
ATOM     38  H11 UNL     1      52.559  14.417  24.783  1.00  0.00     0.281 HD
BRANCH  36  39
HETATM   39  C3  UNL     1      52.121  12.916  23.383  1.00  0.00     0.262 C 
BRANCH  39  40
HETATM   40  C2  UNL     1      50.732  12.777  23.829  1.00  0.00    -0.010 C 
HETATM   41  C1  UNL     1      49.851  12.168  23.047  1.00  0.00     0.008 C 
ENDBRANCH  39  40
ENDBRANCH  36  39
ENDBRANCH   1  36
TORSDOF 13
ENDMDL
MODEL 5
REMARK VINA RESULT: -5.374255311      2.192      3.805
REMARK  13 active torsions:
REMARK  status: ('A' for Active; 'I' for Inactive)
REMARK    1  A    between atoms: C2_2  and  C3_3 
REMARK    2  A    between atoms: C3_3  and  N1_4 
REMARK    3  A    between atoms: N1_4  and  C4_7 
REMARK    4  A    between atoms: C6_9  and  C7_10 
REMARK    5  A    between atoms: C7_10  and  O1_11 
REMARK    6  A    between atoms: C10_16  and  C11_17 
REMARK    7  A    between atoms: C13_19  and  O3_20 
REMARK    8  A    between atoms: O3_20  and  C14_21 
REMARK    9  A    between atoms: C15_23  and  C16_24 
REMARK   10  A    between atoms: C16_24  and  N2_25 
REMARK   11  A    between atoms: C17_29  and  O5_30 
REMARK   12  A    between atoms: C18_32  and  O6_33 
REMARK   13  A    between atoms: C19_35  and  O7_36 
ROOT
HETATM    1  C4  UNL     1      55.403  13.781  22.318  1.00  0.00     0.237 C 
HETATM    2  C5  UNL     1      56.483  13.871  21.260  1.00  0.00     0.082 C 
HETATM    3  C6  UNL     1      57.137  14.906  22.177  1.00  0.00     0.007 C 
HETATM    4  C8  UNL     1      57.892  14.178  23.218  1.00  0.00     0.084 C 
HETATM    5  C9  UNL     1      57.086  13.001  23.697  1.00  0.00     0.271 C 
HETATM    6  O2  UNL     1      57.652  11.859  23.172  1.00  0.00    -0.353 OA
HETATM    7  C10 UNL     1      59.028  12.072  23.134  1.00  0.00     0.154 C 
HETATM    8  C13 UNL     1      59.176  13.554  22.786  1.00  0.00     0.163 C 
HETATM    9  O8  UNL     1      55.764  13.027  23.400  1.00  0.00    -0.322 OA
HETATM   10  C20 UNL     1      55.722  15.231  22.645  1.00  0.00     0.021 C 
HETATM   11  C21 UNL     1      55.557  15.607  24.076  1.00  0.00     0.020 C 
HETATM   12  C22 UNL     1      55.020  16.215  21.740  1.00  0.00     0.020 C 
ENDROOT
BRANCH   8  13
HETATM   13  O3  UNL     1      60.279  13.975  23.563  1.00  0.00    -0.350 OA
BRANCH  13  14
HETATM   14  C14 UNL     1      61.381  14.324  22.794  1.00  0.00     0.292 C 
HETATM   15  O4  UNL     1      61.184  15.577  22.175  1.00  0.00    -0.349 OA
HETATM   16  C15 UNL     1      62.369  15.847  21.483  1.00  0.00     0.181 C 
HETATM   17  C17 UNL     1      62.412  15.006  20.216  1.00  0.00     0.180 C 
HETATM   18  C18 UNL     1      61.581  13.747  20.390  1.00  0.00     0.183 C 
HETATM   19  C19 UNL     1      61.665  13.238  21.817  1.00  0.00     0.204 C 
BRANCH  16  20
HETATM   20  C16 UNL     1      62.520  17.319  21.193  1.00  0.00     0.264 C 
BRANCH  20  21
HETATM   21  N2  UNL     1      61.207  17.934  21.373  1.00  0.00    -0.077 N 
ATOM     22  H23 UNL     1      60.955  18.566  20.613  1.00  0.00     0.274 HD
ATOM     23  H22 UNL     1      60.438  17.274  21.256  1.00  0.00     0.274 HD
ATOM     24  H21 UNL     1      61.208  18.389  22.286  1.00  0.00     0.274 HD
ENDBRANCH  20  21
ENDBRANCH  16  20
BRANCH  17  25
HETATM   25  O5  UNL     1      61.825  15.750  19.196  1.00  0.00    -0.390 OA
ATOM     26  H5  UNL     1      62.325  15.596  18.403  1.00  0.00     0.210 HD
ENDBRANCH  17  25
BRANCH  18  27
HETATM   27  O6  UNL     1      60.286  14.015  20.033  1.00  0.00    -0.390 OA
ATOM     28  H6  UNL     1      60.269  14.799  19.497  1.00  0.00     0.210 HD
ENDBRANCH  18  27
BRANCH  19  29
HETATM   29  O7  UNL     1      62.946  12.713  22.007  1.00  0.00    -0.388 OA
ATOM     30  H7  UNL     1      63.240  12.845  22.900  1.00  0.00     0.210 HD
ENDBRANCH  19  29
ENDBRANCH  13  14
ENDBRANCH   8  13
BRANCH   7  31
HETATM   31  C11 UNL     1      59.575  11.815  24.526  1.00  0.00     0.030 C 
HETATM   32  C12 UNL     1      60.524  10.635  24.483  1.00  0.00     0.007 C 
ENDBRANCH   7  31
BRANCH   3  33
HETATM   33  C7  UNL     1      57.747  16.061  21.471  1.00  0.00     0.175 C 
BRANCH  33  34
HETATM   34  O1  UNL     1      58.559  16.855  22.291  1.00  0.00    -0.400 OA
ATOM     35  H1  UNL     1      58.620  16.539  23.184  1.00  0.00     0.209 HD
ENDBRANCH  33  34
ENDBRANCH   3  33
BRANCH   1  36
HETATM   36  N1  UNL     1      54.116  13.521  21.748  1.00  0.00    -0.039 N 
ATOM     37  H12 UNL     1      54.147  12.900  20.939  1.00  0.00     0.281 HD
ATOM     38  H11 UNL     1      53.713  14.326  21.270  1.00  0.00     0.281 HD
BRANCH  36  39
HETATM   39  C3  UNL     1      53.280  13.010  22.847  1.00  0.00     0.262 C 
BRANCH  39  40
HETATM   40  C2  UNL     1      52.127  12.286  22.304  1.00  0.00    -0.010 C 
HETATM   41  C1  UNL     1      50.960  12.352  22.930  1.00  0.00     0.008 C 
ENDBRANCH  39  40
ENDBRANCH  36  39
ENDBRANCH   1  36
TORSDOF 13
ENDMDL
