MODEL 1
REMARK VINA RESULT: -7.341117356      0.000      0.000
REMARK  9 active torsions:
REMARK  status: ('A' for Active; 'I' for Inactive)
REMARK    1  A    between atoms: C2_2  and  N1_3 
REMARK    2  A    between atoms: N1_3  and  C3_6 
REMARK    3  A    between atoms: C3_6  and  C4_7 
REMARK    4  A    between atoms: C4_7  and  C5_9 
REMARK    5  A    between atoms: C5_9  and  N2_10 
REMARK    6  A    between atoms: C5_9  and  N4_16 
REMARK    7  A    between atoms: N2_10  and  O2_12 
REMARK    8  A    between atoms: O2_12  and  C6_13 
REMARK       I    between atoms: N4_16  and  C7_18 
REMARK    9  A    between atoms: C7_18  and  C8_20 
ROOT
HETATM    1  N4  UNL     1      56.965  15.725  21.160  1.00  0.00    -0.307 N 
ATOM      2  H4  UNL     1      56.939  14.832  20.669  1.00  0.00     0.170 HD
HETATM    3  C7  UNL     1      58.170  15.783  21.829  1.00  0.00     0.245 C 
HETATM    4  O4  UNL     1      58.628  16.757  22.438  1.00  0.00    -0.271 OA
ENDROOT
BRANCH   3   5
HETATM    5  C8  UNL     1      59.079  14.535  21.866  1.00  0.00     0.169 C 
HETATM    6  C9  UNL     1      58.185  13.447  21.400  1.00  0.00     0.034 C 
HETATM    7  C10 UNL     1      57.395  12.924  22.642  1.00  0.00     0.002 C 
HETATM    8  C11 UNL     1      58.078  11.773  23.279  1.00  0.00     0.002 C 
HETATM    9  C12 UNL     1      58.109  11.790  24.775  1.00  0.00     0.026 C 
HETATM   10  C13 UNL     1      59.487  12.209  25.310  1.00  0.00     0.167 C 
HETATM   11  O5  UNL     1      60.480  11.413  24.729  1.00  0.00    -0.391 OA
HETATM   12  C14 UNL     1      60.801  10.322  25.513  1.00  0.00     0.169 C 
HETATM   13  C15 UNL     1      61.904   9.533  24.871  1.00  0.00     0.052 C 
HETATM   14  C16 UNL     1      62.572  10.224  23.719  1.00  0.00     0.169 C 
HETATM   15  O6  UNL     1      62.211   9.709  22.486  1.00  0.00    -0.389 OA
HETATM   16  C17 UNL     1      63.000  10.293  21.492  1.00  0.00     0.193 C 
HETATM   17  C18 UNL     1      62.242  10.628  20.252  1.00  0.00     0.193 C 
HETATM   18  O7  UNL     1      62.244  12.010  19.950  1.00  0.00    -0.387 OA
HETATM   19  C19 UNL     1      61.435  12.671  20.908  1.00  0.00     0.186 C 
HETATM   20  C20 UNL     1      60.794  13.875  20.335  1.00  0.00     0.141 C 
HETATM   21  N5  UNL     1      60.323  14.790  21.365  1.00  0.00    -0.407 N 
ATOM     22  H5  UNL     1      60.888  15.573  21.693  1.00  0.00     0.154 HD
ENDBRANCH   3   5
BRANCH   1  23
HETATM   23  C5  UNL     1      55.783  16.371  20.881  1.00  0.00     0.176 C 
BRANCH  23  24
HETATM   24  C4  UNL     1      54.468  15.987  21.409  1.00  0.00     0.220 C 
HETATM   25  O1  UNL     1      53.486  16.541  20.819  1.00  0.00    -0.287 OA
BRANCH  24  26
HETATM   26  C3  UNL     1      54.068  15.080  22.468  1.00  0.00     0.319 C 
BRANCH  26  27
HETATM   27  N1  UNL     1      53.554  13.820  21.832  1.00  0.00    -0.069 N 
ATOM     28  H12 UNL     1      54.263  13.337  21.282  1.00  0.00     0.277 HD
ATOM     29  H11 UNL     1      52.894  14.000  21.075  1.00  0.00     0.277 HD
BRANCH  27  30
HETATM   30  C2  UNL     1      53.003  13.004  22.863  1.00  0.00     0.228 C 
HETATM   31  C1  UNL     1      51.818  12.223  22.362  1.00  0.00     0.034 C 
ENDBRANCH  27  30
ENDBRANCH  26  27
ENDBRANCH  24  26
ENDBRANCH  23  24
BRANCH  23  32
HETATM   32  N2  UNL     1      55.985  17.792  20.916  1.00  0.00    -0.237 N 
ATOM     33  H2  UNL     1      55.835  18.303  21.787  1.00  0.00     0.197 HD
BRANCH  32  34
HETATM   34  O2  UNL     1      56.361  18.444  19.836  1.00  0.00    -0.182 OA
BRANCH  34  35
HETATM   35  C6  UNL     1      55.463  19.433  19.343  1.00  0.00     0.394 C 
HETATM   36  N3  UNL     1      55.409  19.724  17.955  1.00  0.00    -0.031 NA
HETATM   37  O3  UNL     1      54.713  20.043  20.148  1.00  0.00    -0.240 OA
ENDBRANCH  34  35
ENDBRANCH  32  34
ENDBRANCH  23  32
ENDBRANCH   1  23
TORSDOF 9
ENDMDL
MODEL 2
REMARK VINA RESULT: -7.091991922      2.827      4.482
REMARK  9 active torsions:
REMARK  status: ('A' for Active; 'I' for Inactive)
REMARK    1  A    between atoms: C2_2  and  N1_3 
REMARK    2  A    between atoms: N1_3  and  C3_6 
REMARK    3  A    between atoms: C3_6  and  C4_7 
REMARK    4  A    between atoms: C4_7  and  C5_9 
REMARK    5  A    between atoms: C5_9  and  N2_10 
REMARK    6  A    between atoms: C5_9  and  N4_16 
REMARK    7  A    between atoms: N2_10  and  O2_12 
REMARK    8  A    between atoms: O2_12  and  C6_13 
REMARK       I    between atoms: N4_16  and  C7_18 
REMARK    9  A    between atoms: C7_18  and  C8_20 
ROOT
HETATM    1  N4  UNL     1      57.049  15.983  21.925  1.00  0.00    -0.307 N 
ATOM      2  H4  UNL     1      56.578  15.161  22.300  1.00  0.00     0.170 HD
HETATM    3  C7  UNL     1      58.088  16.278  22.784  1.00  0.00     0.245 C 
HETATM    4  O4  UNL     1      58.968  17.131  22.610  1.00  0.00    -0.271 OA
ENDROOT
BRANCH   3   5
HETATM    5  C8  UNL     1      58.213  15.510  24.117  1.00  0.00     0.169 C 
HETATM    6  C9  UNL     1      59.576  14.927  24.050  1.00  0.00     0.034 C 
HETATM    7  C10 UNL     1      59.470  13.579  23.268  1.00  0.00     0.002 C 
HETATM    8  C11 UNL     1      59.276  12.430  24.185  1.00  0.00     0.002 C 
HETATM    9  C12 UNL     1      58.273  11.413  23.740  1.00  0.00     0.026 C 
HETATM   10  C13 UNL     1      56.947  11.550  24.505  1.00  0.00     0.167 C 
HETATM   11  O5  UNL     1      57.196  11.541  25.882  1.00  0.00    -0.391 OA
HETATM   12  C14 UNL     1      57.074  10.277  26.427  1.00  0.00     0.169 C 
HETATM   13  C15 UNL     1      57.297  10.332  27.910  1.00  0.00     0.052 C 
HETATM   14  C16 UNL     1      57.324  11.719  28.482  1.00  0.00     0.169 C 
HETATM   15  O6  UNL     1      58.596  12.152  28.815  1.00  0.00    -0.389 OA
HETATM   16  C17 UNL     1      58.508  13.371  29.488  1.00  0.00     0.193 C 
HETATM   17  C18 UNL     1      59.561  14.350  29.089  1.00  0.00     0.193 C 
HETATM   18  O7  UNL     1      59.039  15.535  28.520  1.00  0.00    -0.387 OA
HETATM   19  C19 UNL     1      58.513  15.216  27.243  1.00  0.00     0.186 C 
HETATM   20  C20 UNL     1      58.614  16.364  26.316  1.00  0.00     0.141 C 
HETATM   21  N5  UNL     1      57.724  16.227  25.172  1.00  0.00    -0.407 N 
ATOM     22  H5  UNL     1      56.792  16.640  25.158  1.00  0.00     0.154 HD
ENDBRANCH   3   5
BRANCH   1  23
HETATM   23  C5  UNL     1      56.385  16.338  20.774  1.00  0.00     0.176 C 
BRANCH  23  24
HETATM   24  C4  UNL     1      55.263  15.596  20.186  1.00  0.00     0.220 C 
HETATM   25  O1  UNL     1      55.590  14.831  19.222  1.00  0.00    -0.287 OA
BRANCH  24  26
HETATM   26  C3  UNL     1      53.849  15.553  20.503  1.00  0.00     0.319 C 
BRANCH  26  27
HETATM   27  N1  UNL     1      53.704  15.074  21.919  1.00  0.00    -0.069 N 
ATOM     28  H12 UNL     1      52.770  15.233  22.297  1.00  0.00     0.277 HD
ATOM     29  H11 UNL     1      54.220  15.648  22.586  1.00  0.00     0.277 HD
BRANCH  27  30
HETATM   30  C2  UNL     1      54.088  13.702  21.958  1.00  0.00     0.228 C 
HETATM   31  C1  UNL     1      52.987  12.846  22.523  1.00  0.00     0.034 C 
ENDBRANCH  27  30
ENDBRANCH  26  27
ENDBRANCH  24  26
ENDBRANCH  23  24
BRANCH  23  32
HETATM   32  N2  UNL     1      56.162  17.756  20.757  1.00  0.00    -0.237 N 
ATOM     33  H2  UNL     1      55.757  18.214  21.574  1.00  0.00     0.197 HD
BRANCH  32  34
HETATM   34  O2  UNL     1      56.476  18.473  19.698  1.00  0.00    -0.182 OA
BRANCH  34  35
HETATM   35  C6  UNL     1      55.524  19.449  19.284  1.00  0.00     0.394 C 
HETATM   36  N3  UNL     1      55.358  19.748  17.907  1.00  0.00    -0.031 NA
HETATM   37  O3  UNL     1      54.829  20.039  20.150  1.00  0.00    -0.240 OA
ENDBRANCH  34  35
ENDBRANCH  32  34
ENDBRANCH  23  32
ENDBRANCH   1  23
TORSDOF 9
ENDMDL
MODEL 3
REMARK VINA RESULT: -7.091185348      3.104      4.578
REMARK  9 active torsions:
REMARK  status: ('A' for Active; 'I' for Inactive)
REMARK    1  A    between atoms: C2_2  and  N1_3 
REMARK    2  A    between atoms: N1_3  and  C3_6 
REMARK    3  A    between atoms: C3_6  and  C4_7 
REMARK    4  A    between atoms: C4_7  and  C5_9 
REMARK    5  A    between atoms: C5_9  and  N2_10 
REMARK    6  A    between atoms: C5_9  and  N4_16 
REMARK    7  A    between atoms: N2_10  and  O2_12 
REMARK    8  A    between atoms: O2_12  and  C6_13 
REMARK       I    between atoms: N4_16  and  C7_18 
REMARK    9  A    between atoms: C7_18  and  C8_20 
ROOT
HETATM    1  N4  UNL     1      57.053  15.867  21.982  1.00  0.00    -0.307 N 
ATOM      2  H4  UNL     1      56.755  14.910  22.171  1.00  0.00     0.170 HD
HETATM    3  C7  UNL     1      57.889  16.240  23.014  1.00  0.00     0.245 C 
HETATM    4  O4  UNL     1      58.551  17.283  23.085  1.00  0.00    -0.271 OA
ENDROOT
BRANCH   3   5
HETATM    5  C8  UNL     1      58.048  15.311  24.237  1.00  0.00     0.169 C 
HETATM    6  C9  UNL     1      56.765  14.567  24.270  1.00  0.00     0.034 C 
HETATM    7  C10 UNL     1      55.735  15.442  25.053  1.00  0.00     0.002 C 
HETATM    8  C11 UNL     1      55.706  15.093  26.493  1.00  0.00     0.002 C 
HETATM    9  C12 UNL     1      55.636  16.254  27.435  1.00  0.00     0.026 C 
HETATM   10  C13 UNL     1      56.998  16.539  28.087  1.00  0.00     0.167 C 
HETATM   11  O5  UNL     1      57.498  15.365  28.664  1.00  0.00    -0.391 OA
HETATM   12  C14 UNL     1      57.176  15.263  30.003  1.00  0.00     0.169 C 
HETATM   13  C15 UNL     1      57.779  14.018  30.584  1.00  0.00     0.052 C 
HETATM   14  C16 UNL     1      58.781  13.341  29.695  1.00  0.00     0.169 C 
HETATM   15  O6  UNL     1      58.299  12.187  29.102  1.00  0.00    -0.389 OA
HETATM   16  C17 UNL     1      59.341  11.541  28.434  1.00  0.00     0.193 C 
HETATM   17  C18 UNL     1      58.940  10.975  27.113  1.00  0.00     0.193 C 
HETATM   18  O7  UNL     1      59.653  11.531  26.026  1.00  0.00    -0.387 OA
HETATM   19  C19 UNL     1      59.218  12.869  25.853  1.00  0.00     0.186 C 
HETATM   20  C20 UNL     1      59.306  13.286  24.436  1.00  0.00     0.141 C 
HETATM   21  N5  UNL     1      59.284  14.734  24.288  1.00  0.00    -0.407 N 
ATOM     22  H5  UNL     1      60.141  15.285  24.225  1.00  0.00     0.154 HD
ENDBRANCH   3   5
BRANCH   1  23
HETATM   23  C5  UNL     1      56.454  16.249  20.804  1.00  0.00     0.176 C 
BRANCH  23  24
HETATM   24  C4  UNL     1      55.310  15.572  20.182  1.00  0.00     0.220 C 
HETATM   25  O1  UNL     1      55.619  14.805  19.214  1.00  0.00    -0.287 OA
BRANCH  24  26
HETATM   26  C3  UNL     1      53.888  15.595  20.469  1.00  0.00     0.319 C 
BRANCH  26  27
HETATM   27  N1  UNL     1      53.693  15.152  21.891  1.00  0.00    -0.069 N 
ATOM     28  H12 UNL     1      52.784  15.419  22.266  1.00  0.00     0.277 HD
ATOM     29  H11 UNL     1      54.271  15.674  22.550  1.00  0.00     0.277 HD
BRANCH  27  30
HETATM   30  C2  UNL     1      53.924  13.747  21.947  1.00  0.00     0.228 C 
HETATM   31  C1  UNL     1      53.238  13.132  23.137  1.00  0.00     0.034 C 
ENDBRANCH  27  30
ENDBRANCH  26  27
ENDBRANCH  24  26
ENDBRANCH  23  24
BRANCH  23  32
HETATM   32  N2  UNL     1      56.321  17.679  20.766  1.00  0.00    -0.237 N 
ATOM     33  H2  UNL     1      56.063  18.184  21.615  1.00  0.00     0.197 HD
BRANCH  32  34
HETATM   34  O2  UNL     1      56.527  18.343  19.649  1.00  0.00    -0.182 OA
BRANCH  34  35
HETATM   35  C6  UNL     1      55.574  19.349  19.320  1.00  0.00     0.394 C 
HETATM   36  N3  UNL     1      55.366  19.724  17.968  1.00  0.00    -0.031 NA
HETATM   37  O3  UNL     1      54.914  19.898  20.239  1.00  0.00    -0.240 OA
ENDBRANCH  34  35
ENDBRANCH  32  34
ENDBRANCH  23  32
ENDBRANCH   1  23
TORSDOF 9
ENDMDL
MODEL 4
REMARK VINA RESULT: -6.982118694      1.785      2.708
REMARK  9 active torsions:
REMARK  status: ('A' for Active; 'I' for Inactive)
REMARK    1  A    between atoms: C2_2  and  N1_3 
REMARK    2  A    between atoms: N1_3  and  C3_6 
REMARK    3  A    between atoms: C3_6  and  C4_7 
REMARK    4  A    between atoms: C4_7  and  C5_9 
REMARK    5  A    between atoms: C5_9  and  N2_10 
REMARK    6  A    between atoms: C5_9  and  N4_16 
REMARK    7  A    between atoms: N2_10  and  O2_12 
REMARK    8  A    between atoms: O2_12  and  C6_13 
REMARK       I    between atoms: N4_16  and  C7_18 
REMARK    9  A    between atoms: C7_18  and  C8_20 
ROOT
HETATM    1  N4  UNL     1      57.330  15.853  21.689  1.00  0.00    -0.307 N 
ATOM      2  H4  UNL     1      57.151  14.891  21.976  1.00  0.00     0.170 HD
HETATM    3  C7  UNL     1      58.640  16.135  22.017  1.00  0.00     0.245 C 
HETATM    4  O4  UNL     1      59.271  17.156  21.719  1.00  0.00    -0.271 OA
ENDROOT
BRANCH   3   5
HETATM    5  C8  UNL     1      59.450  15.117  22.849  1.00  0.00     0.169 C 
HETATM    6  C9  UNL     1      60.532  14.702  21.922  1.00  0.00     0.034 C 
HETATM    7  C10 UNL     1      59.970  13.547  21.034  1.00  0.00     0.002 C 
HETATM    8  C11 UNL     1      60.273  12.216  21.612  1.00  0.00     0.002 C 
HETATM    9  C12 UNL     1      59.157  11.221  21.557  1.00  0.00     0.026 C 
HETATM   10  C13 UNL     1      58.473  11.058  22.923  1.00  0.00     0.167 C 
HETATM   11  O5  UNL     1      59.436  10.781  23.901  1.00  0.00    -0.391 OA
HETATM   12  C14 UNL     1      59.590   9.425  24.113  1.00  0.00     0.169 C 
HETATM   13  C15 UNL     1      60.592   9.186  25.204  1.00  0.00     0.052 C 
HETATM   14  C16 UNL     1      60.975  10.414  25.976  1.00  0.00     0.169 C 
HETATM   15  O6  UNL     1      62.234  10.893  25.658  1.00  0.00    -0.389 OA
HETATM   16  C17 UNL     1      62.571  11.926  26.535  1.00  0.00     0.193 C 
HETATM   17  C18 UNL     1      63.264  13.068  25.871  1.00  0.00     0.193 C 
HETATM   18  O7  UNL     1      62.555  14.288  25.969  1.00  0.00    -0.387 OA
HETATM   19  C19 UNL     1      61.406  14.197  25.146  1.00  0.00     0.186 C 
HETATM   20  C20 UNL     1      61.019  15.520  24.609  1.00  0.00     0.141 C 
HETATM   21  N5  UNL     1      59.644  15.540  24.133  1.00  0.00    -0.407 N 
ATOM     22  H5  UNL     1      58.872  15.851  24.722  1.00  0.00     0.154 HD
ENDBRANCH   3   5
BRANCH   1  23
HETATM   23  C5  UNL     1      56.165  16.331  21.135  1.00  0.00     0.176 C 
BRANCH  23  24
HETATM   24  C4  UNL     1      54.813  15.904  21.518  1.00  0.00     0.220 C 
HETATM   25  O1  UNL     1      53.882  16.451  20.844  1.00  0.00    -0.287 OA
BRANCH  24  26
HETATM   26  C3  UNL     1      54.332  14.962  22.510  1.00  0.00     0.319 C 
BRANCH  26  27
HETATM   27  N1  UNL     1      53.327  14.063  21.849  1.00  0.00    -0.069 N 
ATOM     28  H12 UNL     1      53.606  13.781  20.910  1.00  0.00     0.277 HD
ATOM     29  H11 UNL     1      52.467  14.550  21.595  1.00  0.00     0.277 HD
BRANCH  27  30
HETATM   30  C2  UNL     1      53.099  12.953  22.713  1.00  0.00     0.228 C 
HETATM   31  C1  UNL     1      51.858  12.200  22.314  1.00  0.00     0.034 C 
ENDBRANCH  27  30
ENDBRANCH  26  27
ENDBRANCH  24  26
ENDBRANCH  23  24
BRANCH  23  32
HETATM   32  N2  UNL     1      56.254  17.754  20.964  1.00  0.00    -0.237 N 
ATOM     33  H2  UNL     1      56.157  18.366  21.775  1.00  0.00     0.197 HD
BRANCH  32  34
HETATM   34  O2  UNL     1      56.459  18.276  19.774  1.00  0.00    -0.182 OA
BRANCH  34  35
HETATM   35  C6  UNL     1      55.562  19.304  19.365  1.00  0.00     0.394 C 
HETATM   36  N3  UNL     1      55.434  19.638  17.992  1.00  0.00    -0.031 NA
HETATM   37  O3  UNL     1      54.881  19.908  20.231  1.00  0.00    -0.240 OA
ENDBRANCH  34  35
ENDBRANCH  32  34
ENDBRANCH  23  32
ENDBRANCH   1  23
TORSDOF 9
ENDMDL
MODEL 5
REMARK VINA RESULT: -6.904502363      2.770      3.062
REMARK  9 active torsions:
REMARK  status: ('A' for Active; 'I' for Inactive)
REMARK    1  A    between atoms: C2_2  and  N1_3 
REMARK    2  A    between atoms: N1_3  and  C3_6 
REMARK    3  A    between atoms: C3_6  and  C4_7 
REMARK    4  A    between atoms: C4_7  and  C5_9 
REMARK    5  A    between atoms: C5_9  and  N2_10 
REMARK    6  A    between atoms: C5_9  and  N4_16 
REMARK    7  A    between atoms: N2_10  and  O2_12 
REMARK    8  A    between atoms: O2_12  and  C6_13 
REMARK       I    between atoms: N4_16  and  C7_18 
REMARK    9  A    between atoms: C7_18  and  C8_20 
ROOT
HETATM    1  N4  UNL     1      57.089  15.799  21.913  1.00  0.00    -0.307 N 
ATOM      2  H4  UNL     1      58.025  15.499  21.640  1.00  0.00     0.170 HD
HETATM    3  C7  UNL     1      56.986  15.604  23.275  1.00  0.00     0.245 C 
HETATM    4  O4  UNL     1      56.050  15.961  24.001  1.00  0.00    -0.271 OA
ENDROOT
BRANCH   3   5
HETATM    5  C8  UNL     1      58.115  14.864  24.025  1.00  0.00     0.169 C 
HETATM    6  C9  UNL     1      58.472  13.760  23.101  1.00  0.00     0.034 C 
HETATM    7  C10 UNL     1      57.493  12.577  23.383  1.00  0.00     0.002 C 
HETATM    8  C11 UNL     1      58.057  11.624  24.368  1.00  0.00     0.002 C 
HETATM    9  C12 UNL     1      57.098  11.122  25.402  1.00  0.00     0.026 C 
HETATM   10  C13 UNL     1      57.312  11.811  26.758  1.00  0.00     0.167 C 
HETATM   11  O5  UNL     1      58.657  11.708  27.131  1.00  0.00    -0.391 OA
HETATM   12  C14 UNL     1      58.891  10.618  27.946  1.00  0.00     0.169 C 
HETATM   13  C15 UNL     1      60.333  10.584  28.359  1.00  0.00     0.052 C 
HETATM   14  C16 UNL     1      61.100  11.833  28.039  1.00  0.00     0.169 C 
HETATM   15  O6  UNL     1      61.959  11.691  26.964  1.00  0.00    -0.389 OA
HETATM   16  C17 UNL     1      62.746  12.838  26.846  1.00  0.00     0.193 C 
HETATM   17  C18 UNL     1      62.949  13.278  25.435  1.00  0.00     0.193 C 
HETATM   18  O7  UNL     1      62.435  14.569  25.170  1.00  0.00    -0.387 OA
HETATM   19  C19 UNL     1      61.021  14.493  25.193  1.00  0.00     0.186 C 
HETATM   20  C20 UNL     1      60.411  15.484  24.281  1.00  0.00     0.141 C 
HETATM   21  N5  UNL     1      59.009  15.728  24.590  1.00  0.00    -0.407 N 
ATOM     22  H5  UNL     1      58.713  16.496  25.191  1.00  0.00     0.154 HD
ENDBRANCH   3   5
BRANCH   1  23
HETATM   23  C5  UNL     1      56.454  16.228  20.771  1.00  0.00     0.176 C 
BRANCH  23  24
HETATM   24  C4  UNL     1      55.298  15.570  20.151  1.00  0.00     0.220 C 
HETATM   25  O1  UNL     1      55.592  14.808  19.174  1.00  0.00    -0.287 OA
BRANCH  24  26
HETATM   26  C3  UNL     1      53.879  15.607  20.448  1.00  0.00     0.319 C 
BRANCH  26  27
HETATM   27  N1  UNL     1      53.695  15.222  21.888  1.00  0.00    -0.069 N 
ATOM     28  H12 UNL     1      52.821  15.570  22.281  1.00  0.00     0.277 HD
ATOM     29  H11 UNL     1      54.331  15.716  22.514  1.00  0.00     0.277 HD
BRANCH  27  30
HETATM   30  C2  UNL     1      53.817  13.805  21.981  1.00  0.00     0.228 C 
HETATM   31  C1  UNL     1      53.777  13.351  23.415  1.00  0.00     0.034 C 
ENDBRANCH  27  30
ENDBRANCH  26  27
ENDBRANCH  24  26
ENDBRANCH  23  24
BRANCH  23  32
HETATM   32  N2  UNL     1      56.310  17.657  20.802  1.00  0.00    -0.237 N 
ATOM     33  H2  UNL     1      56.005  18.115  21.661  1.00  0.00     0.197 HD
BRANCH  32  34
HETATM   34  O2  UNL     1      56.567  18.381  19.733  1.00  0.00    -0.182 OA
BRANCH  34  35
HETATM   35  C6  UNL     1      55.581  19.339  19.360  1.00  0.00     0.394 C 
HETATM   36  N3  UNL     1      55.391  19.678  17.996  1.00  0.00    -0.031 NA
HETATM   37  O3  UNL     1      54.877  19.879  20.251  1.00  0.00    -0.240 OA
ENDBRANCH  34  35
ENDBRANCH  32  34
ENDBRANCH  23  32
ENDBRANCH   1  23
TORSDOF 9
ENDMDL
