MODEL 1
REMARK VINA RESULT: -6.194842581      0.000      0.000
REMARK  11 active torsions:
REMARK  status: ('A' for Active; 'I' for Inactive)
REMARK    1  A    between atoms: C4_6  and  C5_7 
REMARK    2  A    between atoms: C5_7  and  N1_8 
REMARK    3  A    between atoms: N1_8  and  C6_10 
REMARK    4  A    between atoms: C7_11  and  O3_12 
REMARK    5  A    between atoms: C8_14  and  C9_15 
REMARK    6  A    between atoms: C9_15  and  N2_16 
REMARK    7  A    between atoms: N2_16  and  C10_18 
REMARK    8  A    between atoms: C15_23  and  O4_24 
REMARK    9  A    between atoms: C16_27  and  C17_28 
REMARK   10  A    between atoms: C21_33  and  O7_34 
REMARK   11  A    between atoms: C22_36  and  O8_37 
ROOT
HETATM    1  C6  UNL     1      57.992  12.618  22.019  1.00  0.00     0.139 C 
HETATM    2  C7  UNL     1      57.092  12.724  23.207  1.00  0.00     0.173 C 
HETATM    3  C8  UNL     1      57.187  14.003  23.985  1.00  0.00     0.170 C 
HETATM    4  O5  UNL     1      58.455  14.464  24.162  1.00  0.00    -0.371 OA
HETATM    5  C16 UNL     1      59.497  13.706  23.678  1.00  0.00     0.181 C 
HETATM    6  C21 UNL     1      59.185  13.489  22.189  1.00  0.00     0.174 C 
ENDROOT
BRANCH   1   7
HETATM    7  N1  UNL     1      57.366  12.633  20.748  1.00  0.00    -0.410 N 
ATOM      8  H1  UNL     1      56.917  11.807  20.352  1.00  0.00     0.153 HD
BRANCH   7   9
HETATM    9  C5  UNL     1      57.405  13.888  20.055  1.00  0.00     0.149 C 
BRANCH   9  10
HETATM   10  C4  UNL     1      56.292  14.837  20.453  1.00  0.00     0.172 C 
HETATM   11  O2  UNL     1      55.269  14.987  19.553  1.00  0.00    -0.357 OA
HETATM   12  C3  UNL     1      54.221  15.606  20.283  1.00  0.00     0.339 C 
HETATM   13  O1  UNL     1      54.681  16.291  21.400  1.00  0.00    -0.359 OA
HETATM   14  C2  UNL     1      55.772  17.123  21.125  1.00  0.00     0.151 C 
HETATM   15  C1  UNL     1      55.422  18.184  20.104  1.00  0.00     0.042 C 
HETATM   16  C22 UNL     1      56.899  16.248  20.625  1.00  0.00     0.177 C 
BRANCH  16  17
HETATM   17  O8  UNL     1      57.905  16.243  21.569  1.00  0.00    -0.390 OA
ATOM     18  H8  UNL     1      58.248  15.360  21.643  1.00  0.00     0.210 HD
ENDBRANCH  16  17
ENDBRANCH   9  10
ENDBRANCH   7   9
ENDBRANCH   1   7
BRANCH   2  19
HETATM   19  O3  UNL     1      57.325  11.662  24.113  1.00  0.00    -0.391 OA
ATOM     20  H3  UNL     1      56.735  11.714  24.855  1.00  0.00     0.210 HD
ENDBRANCH   2  19
BRANCH   6  21
HETATM   21  O7  UNL     1      60.302  12.816  21.683  1.00  0.00    -0.391 OA
ATOM     22  H7  UNL     1      60.669  12.279  22.375  1.00  0.00     0.210 HD
ENDBRANCH   6  21
BRANCH   3  23
HETATM   23  C9  UNL     1      56.610  13.724  25.384  1.00  0.00     0.149 C 
BRANCH  23  24
HETATM   24  N2  UNL     1      55.264  13.361  25.259  1.00  0.00    -0.412 N 
ATOM     25  H2  UNL     1      54.977  12.406  25.043  1.00  0.00     0.153 HD
BRANCH  24  26
HETATM   26  C10 UNL     1      54.287  14.447  25.461  1.00  0.00     0.105 C 
HETATM   27  C11 UNL     1      54.192  14.845  26.885  1.00  0.00     0.027 C 
HETATM   28  C12 UNL     1      52.854  15.249  27.396  1.00  0.00     0.002 C 
HETATM   29  C13 UNL     1      51.843  14.217  26.902  1.00  0.00     0.003 C 
HETATM   30  C14 UNL     1      51.763  14.430  25.427  1.00  0.00     0.034 C 
HETATM   31  C15 UNL     1      53.056  14.200  24.706  1.00  0.00     0.140 C 
BRANCH  31  32
HETATM   32  O4  UNL     1      52.958  15.008  23.542  1.00  0.00    -0.394 OA
ATOM     33  H4  UNL     1      52.070  15.300  23.373  1.00  0.00     0.210 HD
ENDBRANCH  31  32
ENDBRANCH  24  26
ENDBRANCH  23  24
ENDBRANCH   3  23
BRANCH   5  34
HETATM   34  C17 UNL     1      60.747  14.601  23.663  1.00  0.00     0.153 C 
HETATM   35  C18 UNL     1      60.764  15.481  24.874  1.00  0.00     0.036 C 
HETATM   36  C19 UNL     1      61.312  16.794  24.279  1.00  0.00     0.029 C 
HETATM   37  C20 UNL     1      61.811  16.309  22.938  1.00  0.00     0.168 C 
HETATM   38  O6  UNL     1      60.729  15.473  22.566  1.00  0.00    -0.383 OA
ENDBRANCH   5  34
TORSDOF 11
ENDMDL
MODEL 2
REMARK VINA RESULT: -5.859124320      2.705      5.424
REMARK  11 active torsions:
REMARK  status: ('A' for Active; 'I' for Inactive)
REMARK    1  A    between atoms: C4_6  and  C5_7 
REMARK    2  A    between atoms: C5_7  and  N1_8 
REMARK    3  A    between atoms: N1_8  and  C6_10 
REMARK    4  A    between atoms: C7_11  and  O3_12 
REMARK    5  A    between atoms: C8_14  and  C9_15 
REMARK    6  A    between atoms: C9_15  and  N2_16 
REMARK    7  A    between atoms: N2_16  and  C10_18 
REMARK    8  A    between atoms: C15_23  and  O4_24 
REMARK    9  A    between atoms: C16_27  and  C17_28 
REMARK   10  A    between atoms: C21_33  and  O7_34 
REMARK   11  A    between atoms: C22_36  and  O8_37 
ROOT
HETATM    1  C6  UNL     1      58.587  12.801  22.005  1.00  0.00     0.139 C 
HETATM    2  C7  UNL     1      58.055  12.817  23.402  1.00  0.00     0.173 C 
HETATM    3  C8  UNL     1      56.721  13.477  23.583  1.00  0.00     0.170 C 
HETATM    4  O5  UNL     1      56.560  14.629  22.877  1.00  0.00    -0.371 OA
HETATM    5  C16 UNL     1      57.623  15.094  22.136  1.00  0.00     0.181 C 
HETATM    6  C21 UNL     1      58.018  13.927  21.217  1.00  0.00     0.174 C 
ENDROOT
BRANCH   1   7
HETATM    7  N1  UNL     1      58.646  11.539  21.365  1.00  0.00    -0.410 N 
ATOM      8  H1  UNL     1      57.993  11.271  20.628  1.00  0.00     0.153 HD
BRANCH   7   9
HETATM    9  C5  UNL     1      59.686  10.663  21.822  1.00  0.00     0.149 C 
BRANCH   9  10
HETATM   10  C4  UNL     1      59.173   9.342  22.362  1.00  0.00     0.172 C 
HETATM   11  O2  UNL     1      59.994   8.683  23.239  1.00  0.00    -0.357 OA
HETATM   12  C3  UNL     1      59.169   7.707  23.857  1.00  0.00     0.339 C 
HETATM   13  O1  UNL     1      58.058   7.385  23.089  1.00  0.00    -0.359 OA
HETATM   14  C2  UNL     1      58.371   7.122  21.751  1.00  0.00     0.151 C 
HETATM   15  C1  UNL     1      59.319   5.950  21.620  1.00  0.00     0.042 C 
HETATM   16  C22 UNL     1      58.983   8.376  21.171  1.00  0.00     0.177 C 
BRANCH  16  17
HETATM   17  O8  UNL     1      58.111   8.901  20.240  1.00  0.00    -0.390 OA
ATOM     18  H8  UNL     1      58.070   8.312  19.496  1.00  0.00     0.210 HD
ENDBRANCH  16  17
ENDBRANCH   9  10
ENDBRANCH   7   9
ENDBRANCH   1   7
BRANCH   2  19
HETATM   19  O3  UNL     1      58.964  13.454  24.280  1.00  0.00    -0.391 OA
ATOM     20  H3  UNL     1      59.035  12.977  25.098  1.00  0.00     0.210 HD
ENDBRANCH   2  19
BRANCH   6  21
HETATM   21  O7  UNL     1      59.023  14.444  20.393  1.00  0.00    -0.391 OA
ATOM     22  H7  UNL     1      58.630  14.712  19.570  1.00  0.00     0.210 HD
ENDBRANCH   6  21
BRANCH   3  23
HETATM   23  C9  UNL     1      56.597  13.842  25.073  1.00  0.00     0.149 C 
BRANCH  23  24
HETATM   24  N2  UNL     1      55.339  13.440  25.539  1.00  0.00    -0.412 N 
ATOM     25  H2  UNL     1      55.147  12.478  25.822  1.00  0.00     0.153 HD
BRANCH  24  26
HETATM   26  C10 UNL     1      54.310  14.494  25.594  1.00  0.00     0.105 C 
HETATM   27  C11 UNL     1      53.948  14.838  26.989  1.00  0.00     0.027 C 
HETATM   28  C12 UNL     1      52.528  15.191  27.261  1.00  0.00     0.002 C 
HETATM   29  C13 UNL     1      51.655  14.155  26.559  1.00  0.00     0.003 C 
HETATM   30  C14 UNL     1      51.836  14.419  25.102  1.00  0.00     0.034 C 
HETATM   31  C15 UNL     1      53.244  14.246  24.621  1.00  0.00     0.140 C 
BRANCH  31  32
HETATM   32  O4  UNL     1      53.334  15.093  23.484  1.00  0.00    -0.394 OA
ATOM     33  H4  UNL     1      52.706  14.866  22.809  1.00  0.00     0.210 HD
ENDBRANCH  31  32
ENDBRANCH  24  26
ENDBRANCH  23  24
ENDBRANCH   3  23
BRANCH   5  34
HETATM   34  C17 UNL     1      57.077  16.154  21.166  1.00  0.00     0.153 C 
HETATM   35  C18 UNL     1      55.940  16.894  21.799  1.00  0.00     0.036 C 
HETATM   36  C19 UNL     1      54.992  17.067  20.594  1.00  0.00     0.029 C 
HETATM   37  C20 UNL     1      55.913  16.696  19.456  1.00  0.00     0.168 C 
HETATM   38  O6  UNL     1      56.543  15.558  20.016  1.00  0.00    -0.383 OA
ENDBRANCH   5  34
TORSDOF 11
ENDMDL
MODEL 3
REMARK VINA RESULT: -5.754208475      2.894      5.674
REMARK  11 active torsions:
REMARK  status: ('A' for Active; 'I' for Inactive)
REMARK    1  A    between atoms: C4_6  and  C5_7 
REMARK    2  A    between atoms: C5_7  and  N1_8 
REMARK    3  A    between atoms: N1_8  and  C6_10 
REMARK    4  A    between atoms: C7_11  and  O3_12 
REMARK    5  A    between atoms: C8_14  and  C9_15 
REMARK    6  A    between atoms: C9_15  and  N2_16 
REMARK    7  A    between atoms: N2_16  and  C10_18 
REMARK    8  A    between atoms: C15_23  and  O4_24 
REMARK    9  A    between atoms: C16_27  and  C17_28 
REMARK   10  A    between atoms: C21_33  and  O7_34 
REMARK   11  A    between atoms: C22_36  and  O8_37 
ROOT
HETATM    1  C6  UNL     1      58.472  12.362  21.774  1.00  0.00     0.139 C 
HETATM    2  C7  UNL     1      58.069  12.534  23.203  1.00  0.00     0.173 C 
HETATM    3  C8  UNL     1      56.685  13.063  23.430  1.00  0.00     0.170 C 
HETATM    4  O5  UNL     1      56.319  14.068  22.589  1.00  0.00    -0.371 OA
HETATM    5  C16 UNL     1      57.245  14.527  21.680  1.00  0.00     0.181 C 
HETATM    6  C21 UNL     1      57.699  13.283  20.899  1.00  0.00     0.174 C 
ENDROOT
BRANCH   1   7
HETATM    7  N1  UNL     1      58.631  11.030  21.317  1.00  0.00    -0.410 N 
ATOM      8  H1  UNL     1      58.339  10.736  20.385  1.00  0.00     0.153 HD
BRANCH   7   9
HETATM    9  C5  UNL     1      59.229  10.123  22.254  1.00  0.00     0.149 C 
BRANCH   9  10
HETATM   10  C4  UNL     1      59.991   8.989  21.598  1.00  0.00     0.172 C 
HETATM   11  O2  UNL     1      61.172   9.321  20.987  1.00  0.00    -0.357 OA
HETATM   12  C3  UNL     1      61.845   8.088  20.784  1.00  0.00     0.339 C 
HETATM   13  O1  UNL     1      60.977   7.005  20.765  1.00  0.00    -0.359 OA
HETATM   14  C2  UNL     1      59.865   7.204  19.941  1.00  0.00     0.151 C 
HETATM   15  C1  UNL     1      60.270   7.436  18.502  1.00  0.00     0.042 C 
HETATM   16  C22 UNL     1      59.104   8.393  20.482  1.00  0.00     0.177 C 
BRANCH  16  17
HETATM   17  O8  UNL     1      57.899   7.951  20.989  1.00  0.00    -0.390 OA
ATOM     18  H8  UNL     1      57.571   8.600  21.601  1.00  0.00     0.210 HD
ENDBRANCH  16  17
ENDBRANCH   9  10
ENDBRANCH   7   9
ENDBRANCH   1   7
BRANCH   2  19
HETATM   19  O3  UNL     1      58.966  13.395  23.880  1.00  0.00    -0.391 OA
ATOM     20  H3  UNL     1      58.534  14.202  24.133  1.00  0.00     0.210 HD
ENDBRANCH   2  19
BRANCH   6  21
HETATM   21  O7  UNL     1      58.553  13.775  19.907  1.00  0.00    -0.391 OA
ATOM     22  H7  UNL     1      59.019  13.043  19.521  1.00  0.00     0.210 HD
ENDBRANCH   6  21
BRANCH   3  23
HETATM   23  C9  UNL     1      56.650  13.637  24.858  1.00  0.00     0.149 C 
BRANCH  23  24
HETATM   24  N2  UNL     1      55.420  13.321  25.448  1.00  0.00    -0.412 N 
ATOM     25  H2  UNL     1      55.223  12.395  25.830  1.00  0.00     0.153 HD
BRANCH  24  26
HETATM   26  C10 UNL     1      54.428  14.411  25.482  1.00  0.00     0.105 C 
HETATM   27  C11 UNL     1      54.060  14.776  26.870  1.00  0.00     0.027 C 
HETATM   28  C12 UNL     1      52.650  15.181  27.121  1.00  0.00     0.002 C 
HETATM   29  C13 UNL     1      51.750  14.172  26.413  1.00  0.00     0.003 C 
HETATM   30  C14 UNL     1      51.960  14.420  24.957  1.00  0.00     0.034 C 
HETATM   31  C15 UNL     1      53.367  14.194  24.496  1.00  0.00     0.140 C 
BRANCH  31  32
HETATM   32  O4  UNL     1      53.503  15.030  23.356  1.00  0.00    -0.394 OA
ATOM     33  H4  UNL     1      52.779  15.639  23.261  1.00  0.00     0.210 HD
ENDBRANCH  31  32
ENDBRANCH  24  26
ENDBRANCH  23  24
ENDBRANCH   3  23
BRANCH   5  34
HETATM   34  C17 UNL     1      56.487  15.358  20.633  1.00  0.00     0.153 C 
HETATM   35  C18 UNL     1      56.492  16.804  21.022  1.00  0.00     0.036 C 
HETATM   36  C19 UNL     1      55.069  17.229  20.604  1.00  0.00     0.029 C 
HETATM   37  C20 UNL     1      54.658  16.044  19.761  1.00  0.00     0.168 C 
HETATM   38  O6  UNL     1      55.136  14.990  20.578  1.00  0.00    -0.383 OA
ENDBRANCH   5  34
TORSDOF 11
ENDMDL
MODEL 4
REMARK VINA RESULT: -5.697162578      2.521      5.260
REMARK  11 active torsions:
REMARK  status: ('A' for Active; 'I' for Inactive)
REMARK    1  A    between atoms: C4_6  and  C5_7 
REMARK    2  A    between atoms: C5_7  and  N1_8 
REMARK    3  A    between atoms: N1_8  and  C6_10 
REMARK    4  A    between atoms: C7_11  and  O3_12 
REMARK    5  A    between atoms: C8_14  and  C9_15 
REMARK    6  A    between atoms: C9_15  and  N2_16 
REMARK    7  A    between atoms: N2_16  and  C10_18 
REMARK    8  A    between atoms: C15_23  and  O4_24 
REMARK    9  A    between atoms: C16_27  and  C17_28 
REMARK   10  A    between atoms: C21_33  and  O7_34 
REMARK   11  A    between atoms: C22_36  and  O8_37 
ROOT
HETATM    1  C6  UNL     1      56.842  15.057  20.224  1.00  0.00     0.139 C 
HETATM    2  C7  UNL     1      57.736  13.861  20.165  1.00  0.00     0.173 C 
HETATM    3  C8  UNL     1      58.299  13.403  21.477  1.00  0.00     0.170 C 
HETATM    4  O5  UNL     1      58.711  14.408  22.297  1.00  0.00    -0.371 OA
HETATM    5  C16 UNL     1      58.630  15.702  21.833  1.00  0.00     0.181 C 
HETATM    6  C21 UNL     1      57.163  15.891  21.412  1.00  0.00     0.174 C 
ENDROOT
BRANCH   1   7
HETATM    7  N1  UNL     1      55.469  14.835  19.952  1.00  0.00    -0.410 N 
ATOM      8  H1  UNL     1      55.152  14.340  19.117  1.00  0.00     0.153 HD
BRANCH   7   9
HETATM    9  C5  UNL     1      54.555  15.353  20.928  1.00  0.00     0.149 C 
BRANCH   9  10
HETATM   10  C4  UNL     1      54.053  14.307  21.904  1.00  0.00     0.172 C 
HETATM   11  O2  UNL     1      52.839  13.739  21.617  1.00  0.00    -0.357 OA
HETATM   12  C3  UNL     1      52.768  12.581  22.436  1.00  0.00     0.339 C 
HETATM   13  O1  UNL     1      53.599  12.663  23.545  1.00  0.00    -0.359 OA
HETATM   14  C2  UNL     1      53.481  13.874  24.235  1.00  0.00     0.151 C 
HETATM   15  C1  UNL     1      52.076  14.086  24.754  1.00  0.00     0.042 C 
HETATM   16  C22 UNL     1      53.875  14.981  23.284  1.00  0.00     0.177 C 
BRANCH  16  17
HETATM   17  O8  UNL     1      55.060  15.536  23.720  1.00  0.00    -0.390 OA
ATOM     18  H8  UNL     1      55.761  15.244  23.149  1.00  0.00     0.210 HD
ENDBRANCH  16  17
ENDBRANCH   9  10
ENDBRANCH   7   9
ENDBRANCH   1   7
BRANCH   2  19
HETATM   19  O3  UNL     1      58.828  14.090  19.294  1.00  0.00    -0.391 OA
ATOM     20  H3  UNL     1      59.627  13.716  19.648  1.00  0.00     0.210 HD
ENDBRANCH   2  19
BRANCH   6  21
HETATM   21  O7  UNL     1      57.066  17.239  21.049  1.00  0.00    -0.391 OA
ATOM     22  H7  UNL     1      56.258  17.362  20.565  1.00  0.00     0.210 HD
ENDBRANCH   6  21
BRANCH   3  23
HETATM   23  C9  UNL     1      59.536  12.544  21.162  1.00  0.00     0.149 C 
BRANCH  23  24
HETATM   24  N2  UNL     1      59.718  11.611  22.190  1.00  0.00    -0.412 N 
ATOM     25  H2  UNL     1      60.549  11.611  22.782  1.00  0.00     0.153 HD
BRANCH  24  26
HETATM   26  C10 UNL     1      58.633  10.628  22.361  1.00  0.00     0.105 C 
HETATM   27  C11 UNL     1      58.167  10.561  23.766  1.00  0.00     0.027 C 
HETATM   28  C12 UNL     1      57.752   9.231  24.288  1.00  0.00     0.002 C 
HETATM   29  C13 UNL     1      58.815   8.220  23.867  1.00  0.00     0.003 C 
HETATM   30  C14 UNL     1      58.675   8.104  22.386  1.00  0.00     0.034 C 
HETATM   31  C15 UNL     1      58.927   9.382  21.648  1.00  0.00     0.140 C 
BRANCH  31  32
HETATM   32  O4  UNL     1      58.178   9.250  20.449  1.00  0.00    -0.394 OA
ATOM     33  H4  UNL     1      57.510   8.577  20.508  1.00  0.00     0.210 HD
ENDBRANCH  31  32
ENDBRANCH  24  26
ENDBRANCH  23  24
ENDBRANCH   3  23
BRANCH   5  34
HETATM   34  C17 UNL     1      58.784  16.635  23.045  1.00  0.00     0.153 C 
HETATM   35  C18 UNL     1      59.876  16.136  23.941  1.00  0.00     0.036 C 
HETATM   36  C19 UNL     1      59.278  16.433  25.331  1.00  0.00     0.029 C 
HETATM   37  C20 UNL     1      58.127  17.338  24.955  1.00  0.00     0.168 C 
HETATM   38  O6  UNL     1      57.625  16.635  23.832  1.00  0.00    -0.383 OA
ENDBRANCH   5  34
TORSDOF 11
ENDMDL
MODEL 5
REMARK VINA RESULT: -5.678886469      3.659      6.637
REMARK  11 active torsions:
REMARK  status: ('A' for Active; 'I' for Inactive)
REMARK    1  A    between atoms: C4_6  and  C5_7 
REMARK    2  A    between atoms: C5_7  and  N1_8 
REMARK    3  A    between atoms: N1_8  and  C6_10 
REMARK    4  A    between atoms: C7_11  and  O3_12 
REMARK    5  A    between atoms: C8_14  and  C9_15 
REMARK    6  A    between atoms: C9_15  and  N2_16 
REMARK    7  A    between atoms: N2_16  and  C10_18 
REMARK    8  A    between atoms: C15_23  and  O4_24 
REMARK    9  A    between atoms: C16_27  and  C17_28 
REMARK   10  A    between atoms: C21_33  and  O7_34 
REMARK   11  A    between atoms: C22_36  and  O8_37 
ROOT
HETATM    1  C6  UNL     1      59.623  11.034  21.608  1.00  0.00     0.139 C 
HETATM    2  C7  UNL     1      58.342  11.800  21.689  1.00  0.00     0.173 C 
HETATM    3  C8  UNL     1      58.248  13.005  20.801  1.00  0.00     0.170 C 
HETATM    4  O5  UNL     1      59.382  13.755  20.743  1.00  0.00    -0.371 OA
HETATM    5  C16 UNL     1      60.451  13.381  21.525  1.00  0.00     0.181 C 
HETATM    6  C21 UNL     1      60.732  11.916  21.155  1.00  0.00     0.174 C 
ENDROOT
BRANCH   1   7
HETATM    7  N1  UNL     1      59.553   9.745  21.024  1.00  0.00    -0.410 N 
ATOM      8  H1  UNL     1      60.295   9.376  20.428  1.00  0.00     0.153 HD
BRANCH   7   9
HETATM    9  C5  UNL     1      58.369   8.994  21.326  1.00  0.00     0.149 C 
BRANCH   9  10
HETATM   10  C4  UNL     1      58.627   7.776  22.190  1.00  0.00     0.172 C 
HETATM   11  O2  UNL     1      59.935   7.517  22.504  1.00  0.00    -0.357 OA
HETATM   12  C3  UNL     1      59.884   6.588  23.576  1.00  0.00     0.339 C 
HETATM   13  O1  UNL     1      58.687   5.886  23.615  1.00  0.00    -0.359 OA
HETATM   14  C2  UNL     1      58.314   5.364  22.372  1.00  0.00     0.151 C 
HETATM   15  C1  UNL     1      59.347   4.393  21.841  1.00  0.00     0.042 C 
HETATM   16  C22 UNL     1      58.134   6.527  21.424  1.00  0.00     0.177 C 
BRANCH  16  17
HETATM   17  O8  UNL     1      56.795   6.635  21.109  1.00  0.00    -0.390 OA
ATOM     18  H8  UNL     1      56.476   7.472  21.424  1.00  0.00     0.210 HD
ENDBRANCH  16  17
ENDBRANCH   9  10
ENDBRANCH   7   9
ENDBRANCH   1   7
BRANCH   2  19
HETATM   19  O3  UNL     1      58.096  12.232  23.014  1.00  0.00    -0.391 OA
ATOM     20  H3  UNL     1      57.167  12.209  23.210  1.00  0.00     0.210 HD
ENDBRANCH   2  19
BRANCH   6  21
HETATM   21  O7  UNL     1      61.886  11.580  21.870  1.00  0.00    -0.391 OA
ATOM     22  H7  UNL     1      62.141  10.696  21.633  1.00  0.00     0.210 HD
ENDBRANCH   6  21
BRANCH   3  23
HETATM   23  C9  UNL     1      57.142  13.906  21.381  1.00  0.00     0.149 C 
BRANCH  23  24
HETATM   24  N2  UNL     1      55.925  13.589  20.765  1.00  0.00    -0.412 N 
ATOM     25  H2  UNL     1      55.534  12.647  20.789  1.00  0.00     0.153 HD
BRANCH  24  26
HETATM   26  C10 UNL     1      55.244  14.704  20.081  1.00  0.00     0.105 C 
HETATM   27  C11 UNL     1      56.208  15.615  19.421  1.00  0.00     0.027 C 
HETATM   28  C12 UNL     1      55.880  17.067  19.410  1.00  0.00     0.002 C 
HETATM   29  C13 UNL     1      55.428  17.446  20.818  1.00  0.00     0.003 C 
HETATM   30  C14 UNL     1      54.113  16.765  20.999  1.00  0.00     0.034 C 
HETATM   31  C15 UNL     1      54.184  15.271  20.918  1.00  0.00     0.140 C 
BRANCH  31  32
HETATM   32  O4  UNL     1      52.886  14.879  20.493  1.00  0.00    -0.394 OA
ATOM     33  H4  UNL     1      52.346  14.567  21.210  1.00  0.00     0.210 HD
ENDBRANCH  31  32
ENDBRANCH  24  26
ENDBRANCH  23  24
ENDBRANCH   3  23
BRANCH   5  34
HETATM   34  C17 UNL     1      61.686  14.132  21.003  1.00  0.00     0.153 C 
HETATM   35  C18 UNL     1      62.006  15.286  21.902  1.00  0.00     0.036 C 
HETATM   36  C19 UNL     1      62.436  16.353  20.875  1.00  0.00     0.029 C 
HETATM   37  C20 UNL     1      62.599  15.502  19.637  1.00  0.00     0.168 C 
HETATM   38  O6  UNL     1      61.439  14.695  19.744  1.00  0.00    -0.383 OA
ENDBRANCH   5  34
TORSDOF 11
ENDMDL
