MODEL 1
REMARK VINA RESULT: -6.152889471      0.000      0.000
REMARK  10 active torsions:
REMARK  status: ('A' for Active; 'I' for Inactive)
REMARK    1  A    between atoms: O1_2  and  C2_3 
REMARK    2  A    between atoms: C2_3  and  C3_4 
REMARK    3  A    between atoms: C3_4  and  C5_6 
REMARK    4  A    between atoms: C5_6  and  O2_7 
REMARK    5  A    between atoms: O2_7  and  N1_8 
REMARK    6  A    between atoms: N1_8  and  C6_10 
REMARK    7  A    between atoms: C6_10  and  O3_11 
REMARK    8  A    between atoms: C6_10  and  C7_13 
REMARK    9  A    between atoms: C7_13  and  C8_14 
REMARK   10  A    between atoms: C8_14  and  C9_15 
ROOT
HETATM    1  C6  UNL     1      23.076  68.270  -4.035  1.00  0.00     0.238 C 
ENDROOT
BRANCH   1   2
HETATM    2  N1  UNL     1      22.186  69.349  -3.812  1.00  0.00    -0.274 N 
ATOM      3  H1  UNL     1      21.197  69.166  -3.640  1.00  0.00     0.190 HD
BRANCH   2   4
HETATM    4  O2  UNL     1      22.632  70.582  -3.828  1.00  0.00    -0.282 OA
BRANCH   4   5
HETATM    5  C5  UNL     1      22.065  71.510  -4.635  1.00  0.00     0.207 C 
BRANCH   5   6
HETATM    6  C3  UNL     1      23.093  72.204  -5.535  1.00  0.00     0.032 C 
HETATM    7  C4  UNL     1      22.903  71.744  -6.948  1.00  0.00     0.014 C 
BRANCH   6   8
HETATM    8  C2  UNL     1      24.483  72.003  -5.045  1.00  0.00     0.173 C 
BRANCH   8   9
HETATM    9  O1  UNL     1      24.829  72.925  -4.085  1.00  0.00    -0.396 OA
HETATM   10  C1  UNL     1      24.842  74.234  -4.473  1.00  0.00     0.201 C 
ENDBRANCH   8   9
ENDBRANCH   6   8
ENDBRANCH   5   6
ENDBRANCH   4   5
ENDBRANCH   2   4
ENDBRANCH   1   2
BRANCH   1  11
HETATM   11  O3  UNL     1      22.601  67.055  -3.622  1.00  0.00    -0.375 OA
ATOM     12  H3  UNL     1      23.120  66.314  -3.911  1.00  0.00     0.212 HD
ENDBRANCH   1  11
BRANCH   1  13
HETATM   13  C7  UNL     1      23.706  68.280  -5.407  1.00  0.00     0.056 C 
BRANCH  13  14
HETATM   14  C8  UNL     1      22.785  68.038  -6.542  1.00  0.00     0.009 C 
BRANCH  14  15
HETATM   15  C9  UNL     1      23.395  67.806  -7.879  1.00  0.00    -0.014 C 
HETATM   16  C10 UNL     1      24.209  66.510  -7.762  1.00  0.00     0.004 C 
HETATM   17  C11 UNL     1      23.301  65.323  -7.867  1.00  0.00     0.000 C 
HETATM   18  C12 UNL     1      22.765  65.318  -9.291  1.00  0.00     0.000 C 
HETATM   19  C13 UNL     1      21.860  66.496  -9.410  1.00  0.00     0.000 C 
HETATM   20  C14 UNL     1      22.452  67.809  -9.028  1.00  0.00     0.004 C 
ENDBRANCH  14  15
ENDBRANCH  13  14
ENDBRANCH   1  13
TORSDOF 10
ENDMDL
MODEL 2
REMARK VINA RESULT: -6.072759347      1.980      4.548
REMARK  10 active torsions:
REMARK  status: ('A' for Active; 'I' for Inactive)
REMARK    1  A    between atoms: O1_2  and  C2_3 
REMARK    2  A    between atoms: C2_3  and  C3_4 
REMARK    3  A    between atoms: C3_4  and  C5_6 
REMARK    4  A    between atoms: C5_6  and  O2_7 
REMARK    5  A    between atoms: O2_7  and  N1_8 
REMARK    6  A    between atoms: N1_8  and  C6_10 
REMARK    7  A    between atoms: C6_10  and  O3_11 
REMARK    8  A    between atoms: C6_10  and  C7_13 
REMARK    9  A    between atoms: C7_13  and  C8_14 
REMARK   10  A    between atoms: C8_14  and  C9_15 
ROOT
HETATM    1  C6  UNL     1      22.372  69.754  -4.916  1.00  0.00     0.238 C 
ENDROOT
BRANCH   1   2
HETATM    2  N1  UNL     1      22.224  68.691  -3.993  1.00  0.00    -0.274 N 
ATOM      3  H1  UNL     1      21.562  67.938  -4.184  1.00  0.00     0.190 HD
BRANCH   2   4
HETATM    4  O2  UNL     1      22.936  68.673  -2.891  1.00  0.00    -0.282 OA
BRANCH   4   5
HETATM    5  C5  UNL     1      23.308  67.499  -2.329  1.00  0.00     0.207 C 
BRANCH   5   6
HETATM    6  C3  UNL     1      23.123  66.314  -3.282  1.00  0.00     0.032 C 
HETATM    7  C4  UNL     1      22.306  65.256  -2.603  1.00  0.00     0.014 C 
BRANCH   6   8
HETATM    8  C2  UNL     1      24.424  65.801  -3.786  1.00  0.00     0.173 C 
BRANCH   8   9
HETATM    9  O1  UNL     1      24.479  64.427  -3.768  1.00  0.00    -0.396 OA
HETATM   10  C1  UNL     1      24.800  63.813  -4.945  1.00  0.00     0.201 C 
ENDBRANCH   8   9
ENDBRANCH   6   8
ENDBRANCH   5   6
ENDBRANCH   4   5
ENDBRANCH   2   4
ENDBRANCH   1   2
BRANCH   1  11
HETATM   11  O3  UNL     1      23.314  70.680  -4.561  1.00  0.00    -0.375 OA
ATOM     12  H3  UNL     1      23.050  71.581  -4.705  1.00  0.00     0.212 HD
ENDBRANCH   1  11
BRANCH   1  13
HETATM   13  C7  UNL     1      22.428  69.300  -6.355  1.00  0.00     0.056 C 
BRANCH  13  14
HETATM   14  C8  UNL     1      23.126  68.017  -6.601  1.00  0.00     0.009 C 
BRANCH  14  15
HETATM   15  C9  UNL     1      23.598  67.751  -7.987  1.00  0.00    -0.014 C 
HETATM   16  C10 UNL     1      24.275  66.373  -7.954  1.00  0.00     0.004 C 
HETATM   17  C11 UNL     1      23.239  65.292  -8.000  1.00  0.00     0.000 C 
HETATM   18  C12 UNL     1      22.593  65.376  -9.375  1.00  0.00     0.000 C 
HETATM   19  C13 UNL     1      21.813  66.646  -9.403  1.00  0.00     0.000 C 
HETATM   20  C14 UNL     1      22.572  67.879  -9.054  1.00  0.00     0.004 C 
ENDBRANCH  14  15
ENDBRANCH  13  14
ENDBRANCH   1  13
TORSDOF 10
ENDMDL
MODEL 3
REMARK VINA RESULT: -6.026302817      1.997      4.676
REMARK  10 active torsions:
REMARK  status: ('A' for Active; 'I' for Inactive)
REMARK    1  A    between atoms: O1_2  and  C2_3 
REMARK    2  A    between atoms: C2_3  and  C3_4 
REMARK    3  A    between atoms: C3_4  and  C5_6 
REMARK    4  A    between atoms: C5_6  and  O2_7 
REMARK    5  A    between atoms: O2_7  and  N1_8 
REMARK    6  A    between atoms: N1_8  and  C6_10 
REMARK    7  A    between atoms: C6_10  and  O3_11 
REMARK    8  A    between atoms: C6_10  and  C7_13 
REMARK    9  A    between atoms: C7_13  and  C8_14 
REMARK   10  A    between atoms: C8_14  and  C9_15 
ROOT
HETATM    1  C6  UNL     1      22.256  69.962  -4.766  1.00  0.00     0.238 C 
ENDROOT
BRANCH   1   2
HETATM    2  N1  UNL     1      22.234  68.755  -4.026  1.00  0.00    -0.274 N 
ATOM      3  H1  UNL     1      21.371  68.216  -3.957  1.00  0.00     0.190 HD
BRANCH   2   4
HETATM    4  O2  UNL     1      23.322  68.330  -3.429  1.00  0.00    -0.282 OA
BRANCH   4   5
HETATM    5  C5  UNL     1      23.280  67.263  -2.596  1.00  0.00     0.207 C 
BRANCH   5   6
HETATM    6  C3  UNL     1      23.939  66.022  -3.206  1.00  0.00     0.032 C 
HETATM    7  C4  UNL     1      24.817  66.439  -4.347  1.00  0.00     0.014 C 
BRANCH   6   8
HETATM    8  C2  UNL     1      22.935  64.997  -3.596  1.00  0.00     0.173 C 
BRANCH   8   9
HETATM    9  O1  UNL     1      22.971  63.900  -2.768  1.00  0.00    -0.396 OA
HETATM   10  C1  UNL     1      24.030  63.816  -1.911  1.00  0.00     0.201 C 
ENDBRANCH   8   9
ENDBRANCH   6   8
ENDBRANCH   5   6
ENDBRANCH   4   5
ENDBRANCH   2   4
ENDBRANCH   1   2
BRANCH   1  11
HETATM   11  O3  UNL     1      22.905  70.992  -4.142  1.00  0.00    -0.375 OA
ATOM     12  H3  UNL     1      22.405  71.798  -4.096  1.00  0.00     0.212 HD
ENDBRANCH   1  11
BRANCH   1  13
HETATM   13  C7  UNL     1      22.607  69.771  -6.222  1.00  0.00     0.056 C 
BRANCH  13  14
HETATM   14  C8  UNL     1      22.476  68.390  -6.742  1.00  0.00     0.009 C 
BRANCH  14  15
HETATM   15  C9  UNL     1      23.112  68.091  -8.054  1.00  0.00    -0.014 C 
HETATM   16  C10 UNL     1      24.082  66.927  -7.808  1.00  0.00     0.004 C 
HETATM   17  C11 UNL     1      23.331  65.632  -7.771  1.00  0.00     0.000 C 
HETATM   18  C12 UNL     1      22.800  65.405  -9.179  1.00  0.00     0.000 C 
HETATM   19  C13 UNL     1      21.755  66.441  -9.414  1.00  0.00     0.000 C 
HETATM   20  C14 UNL     1      22.177  67.851  -9.184  1.00  0.00     0.004 C 
ENDBRANCH  14  15
ENDBRANCH  13  14
ENDBRANCH   1  13
TORSDOF 10
ENDMDL
MODEL 4
REMARK VINA RESULT: -5.922941286      2.954      5.788
REMARK  10 active torsions:
REMARK  status: ('A' for Active; 'I' for Inactive)
REMARK    1  A    between atoms: O1_2  and  C2_3 
REMARK    2  A    between atoms: C2_3  and  C3_4 
REMARK    3  A    between atoms: C3_4  and  C5_6 
REMARK    4  A    between atoms: C5_6  and  O2_7 
REMARK    5  A    between atoms: O2_7  and  N1_8 
REMARK    6  A    between atoms: N1_8  and  C6_10 
REMARK    7  A    between atoms: C6_10  and  O3_11 
REMARK    8  A    between atoms: C6_10  and  C7_13 
REMARK    9  A    between atoms: C7_13  and  C8_14 
REMARK   10  A    between atoms: C8_14  and  C9_15 
ROOT
HETATM    1  C6  UNL     1      23.006  68.834  -6.071  1.00  0.00     0.238 C 
ENDROOT
BRANCH   1   2
HETATM    2  N1  UNL     1      23.808  68.762  -7.236  1.00  0.00    -0.274 N 
ATOM      3  H1  UNL     1      24.020  69.610  -7.762  1.00  0.00     0.190 HD
BRANCH   2   4
HETATM    4  O2  UNL     1      24.276  67.605  -7.641  1.00  0.00    -0.282 OA
BRANCH   4   5
HETATM    5  C5  UNL     1      23.944  67.114  -8.858  1.00  0.00     0.207 C 
BRANCH   5   6
HETATM    6  C3  UNL     1      22.695  66.227  -8.806  1.00  0.00     0.032 C 
HETATM    7  C4  UNL     1      23.002  64.904  -9.440  1.00  0.00     0.014 C 
BRANCH   6   8
HETATM    8  C2  UNL     1      21.515  66.897  -9.413  1.00  0.00     0.173 C 
BRANCH   8   9
HETATM    9  O1  UNL     1      21.293  68.140  -8.870  1.00  0.00    -0.396 OA
HETATM   10  C1  UNL     1      21.122  69.170  -9.750  1.00  0.00     0.201 C 
ENDBRANCH   8   9
ENDBRANCH   6   8
ENDBRANCH   5   6
ENDBRANCH   4   5
ENDBRANCH   2   4
ENDBRANCH   1   2
BRANCH   1  11
HETATM   11  O3  UNL     1      21.812  69.477  -6.249  1.00  0.00    -0.375 OA
ATOM     12  H3  UNL     1      21.450  69.855  -5.456  1.00  0.00     0.212 HD
ENDBRANCH   1  11
BRANCH   1  13
HETATM   13  C7  UNL     1      22.927  67.532  -5.311  1.00  0.00     0.056 C 
BRANCH  13  14
HETATM   14  C8  UNL     1      23.326  67.590  -3.886  1.00  0.00     0.009 C 
BRANCH  14  15
HETATM   15  C9  UNL     1      24.291  66.566  -3.404  1.00  0.00    -0.014 C 
HETATM   16  C10 UNL     1      23.955  66.316  -1.927  1.00  0.00     0.004 C 
HETATM   17  C11 UNL     1      22.779  65.394  -1.818  1.00  0.00     0.000 C 
HETATM   18  C12 UNL     1      23.243  64.044  -2.344  1.00  0.00     0.000 C 
HETATM   19  C13 UNL     1      23.458  64.208  -3.810  1.00  0.00     0.000 C 
HETATM   20  C14 UNL     1      24.366  65.319  -4.211  1.00  0.00     0.004 C 
ENDBRANCH  14  15
ENDBRANCH  13  14
ENDBRANCH   1  13
TORSDOF 10
ENDMDL
MODEL 5
REMARK VINA RESULT: -5.853017241      1.711      3.018
REMARK  10 active torsions:
REMARK  status: ('A' for Active; 'I' for Inactive)
REMARK    1  A    between atoms: O1_2  and  C2_3 
REMARK    2  A    between atoms: C2_3  and  C3_4 
REMARK    3  A    between atoms: C3_4  and  C5_6 
REMARK    4  A    between atoms: C5_6  and  O2_7 
REMARK    5  A    between atoms: O2_7  and  N1_8 
REMARK    6  A    between atoms: N1_8  and  C6_10 
REMARK    7  A    between atoms: C6_10  and  O3_11 
REMARK    8  A    between atoms: C6_10  and  C7_13 
REMARK    9  A    between atoms: C7_13  and  C8_14 
REMARK   10  A    between atoms: C8_14  and  C9_15 
ROOT
HETATM    1  C6  UNL     1      24.624  70.353  -6.241  1.00  0.00     0.238 C 
ENDROOT
BRANCH   1   2
HETATM    2  N1  UNL     1      24.286  71.571  -5.602  1.00  0.00    -0.274 N 
ATOM      3  H1  UNL     1      24.637  72.455  -5.972  1.00  0.00     0.190 HD
BRANCH   2   4
HETATM    4  O2  UNL     1      23.524  71.564  -4.534  1.00  0.00    -0.282 OA
BRANCH   4   5
HETATM    5  C5  UNL     1      22.178  71.657  -4.648  1.00  0.00     0.207 C 
BRANCH   5   6
HETATM    6  C3  UNL     1      21.461  70.423  -4.090  1.00  0.00     0.032 C 
HETATM    7  C4  UNL     1      20.144  70.839  -3.507  1.00  0.00     0.014 C 
BRANCH   6   8
HETATM    8  C2  UNL     1      22.311  69.679  -3.123  1.00  0.00     0.173 C 
BRANCH   8   9
HETATM    9  O1  UNL     1      22.915  68.588  -3.701  1.00  0.00    -0.396 OA
HETATM   10  C1  UNL     1      23.247  67.560  -2.867  1.00  0.00     0.201 C 
ENDBRANCH   8   9
ENDBRANCH   6   8
ENDBRANCH   5   6
ENDBRANCH   4   5
ENDBRANCH   2   4
ENDBRANCH   1   2
BRANCH   1  11
HETATM   11  O3  UNL     1      25.178  69.418  -5.411  1.00  0.00    -0.375 OA
ATOM     12  H3  UNL     1      24.578  69.064  -4.765  1.00  0.00     0.212 HD
ENDBRANCH   1  11
BRANCH   1  13
HETATM   13  C7  UNL     1      23.544  69.835  -7.161  1.00  0.00     0.056 C 
BRANCH  13  14
HETATM   14  C8  UNL     1      23.423  68.362  -7.249  1.00  0.00     0.009 C 
BRANCH  14  15
HETATM   15  C9  UNL     1      23.705  67.731  -8.567  1.00  0.00    -0.014 C 
HETATM   16  C10 UNL     1      24.368  66.380  -8.265  1.00  0.00     0.004 C 
HETATM   17  C11 UNL     1      23.326  65.368  -7.898  1.00  0.00     0.000 C 
HETATM   18  C12 UNL     1      22.504  65.125  -9.155  1.00  0.00     0.000 C 
HETATM   19  C13 UNL     1      21.738  66.377  -9.412  1.00  0.00     0.000 C 
HETATM   20  C14 UNL     1      22.546  67.625  -9.493  1.00  0.00     0.004 C 
ENDBRANCH  14  15
ENDBRANCH  13  14
ENDBRANCH   1  13
TORSDOF 10
ENDMDL
