MODEL 1
REMARK VINA RESULT: -5.916188978      0.000      0.000
REMARK  11 active torsions:
REMARK  status: ('A' for Active; 'I' for Inactive)
REMARK    1  A    between atoms: C2_2  and  C3_3 
REMARK    2  A    between atoms: C3_3  and  C4_4 
REMARK    3  A    between atoms: C4_4  and  C5_5 
REMARK    4  A    between atoms: C5_5  and  C6_6 
REMARK    5  A    between atoms: C7_7  and  C8_8 
REMARK    6  A    between atoms: C8_8  and  C9_9 
REMARK    7  A    between atoms: C10_11  and  C11_12 
REMARK    8  A    between atoms: C11_12  and  O2_13 
REMARK    9  A    between atoms: C11_12  and  C12_15 
REMARK   10  A    between atoms: C12_15  and  O3_16 
REMARK   11  A    between atoms: C12_15  and  C13_18 
ROOT
HETATM    1  C9  UNL     1      23.349  66.224  -9.233  1.00  0.00     0.157 A 
HETATM    2  O1  UNL     1      24.226  67.362  -9.037  1.00  0.00    -0.372 OA
HETATM    3  C10 UNL     1      22.862  67.590  -9.302  1.00  0.00     0.182 A 
ENDROOT
BRANCH   3   4
HETATM    4  C11 UNL     1      21.966  68.177  -8.271  1.00  0.00     0.178 C 
BRANCH   4   5
HETATM    5  O2  UNL     1      20.869  68.821  -8.868  1.00  0.00    -0.390 OA
ATOM      6  H2  UNL     1      20.100  68.764  -8.313  1.00  0.00     0.210 HD
ENDBRANCH   4   5
BRANCH   4   7
HETATM    7  C12 UNL     1      22.686  69.099  -7.313  1.00  0.00     0.152 C 
BRANCH   7   8
HETATM    8  O3  UNL     1      21.935  70.273  -7.241  1.00  0.00    -0.393 OA
ATOM      9  H3  UNL     1      21.972  70.567  -6.339  1.00  0.00     0.210 HD
ENDBRANCH   7   8
BRANCH   7  10
HETATM   10  C13 UNL     1      22.787  68.539  -5.923  1.00  0.00     0.009 C 
HETATM   11  C14 UNL     1      24.175  68.514  -5.376  1.00  0.00     0.012 C 
HETATM   12  C15 UNL     1      21.946  69.418  -5.019  1.00  0.00     0.012 C 
ENDBRANCH   7  10
ENDBRANCH   4   7
ENDBRANCH   3   4
BRANCH   1  13
HETATM   13  C8  UNL     1      23.338  65.366  -8.000  1.00  0.00     0.061 C 
BRANCH  13  14
HETATM   14  C7  UNL     1      24.621  65.448  -7.277  1.00  0.00    -0.028 C 
HETATM   15  C6  UNL     1      24.844  64.917  -6.109  1.00  0.00    -0.031 C 
BRANCH  15  16
HETATM   16  C5  UNL     1      23.833  64.158  -5.352  1.00  0.00     0.027 C 
BRANCH  16  17
HETATM   17  C4  UNL     1      23.924  64.552  -3.894  1.00  0.00     0.007 C 
BRANCH  17  18
HETATM   18  C3  UNL     1      22.607  65.094  -3.428  1.00  0.00     0.026 C 
BRANCH  18  19
HETATM   19  C2  UNL     1      22.831  66.300  -2.606  1.00  0.00    -0.037 C 
HETATM   20  C1  UNL     1      24.054  66.605  -2.211  1.00  0.00     0.007 C 
ENDBRANCH  18  19
ENDBRANCH  17  18
ENDBRANCH  16  17
ENDBRANCH  15  16
ENDBRANCH  13  14
ENDBRANCH   1  13
TORSDOF 11
ENDMDL
MODEL 2
REMARK VINA RESULT: -5.908765103      1.974      4.292
REMARK  11 active torsions:
REMARK  status: ('A' for Active; 'I' for Inactive)
REMARK    1  A    between atoms: C2_2  and  C3_3 
REMARK    2  A    between atoms: C3_3  and  C4_4 
REMARK    3  A    between atoms: C4_4  and  C5_5 
REMARK    4  A    between atoms: C5_5  and  C6_6 
REMARK    5  A    between atoms: C7_7  and  C8_8 
REMARK    6  A    between atoms: C8_8  and  C9_9 
REMARK    7  A    between atoms: C10_11  and  C11_12 
REMARK    8  A    between atoms: C11_12  and  O2_13 
REMARK    9  A    between atoms: C11_12  and  C12_15 
REMARK   10  A    between atoms: C12_15  and  O3_16 
REMARK   11  A    between atoms: C12_15  and  C13_18 
ROOT
HETATM    1  C9  UNL     1      24.455  67.677  -5.014  1.00  0.00     0.157 A 
HETATM    2  O1  UNL     1      23.547  68.578  -4.332  1.00  0.00    -0.372 OA
HETATM    3  C10 UNL     1      24.309  69.066  -5.411  1.00  0.00     0.182 A 
ENDROOT
BRANCH   3   4
HETATM    4  C11 UNL     1      23.664  69.474  -6.686  1.00  0.00     0.178 C 
BRANCH   4   5
HETATM    5  O2  UNL     1      24.622  69.917  -7.614  1.00  0.00    -0.390 OA
ATOM      6  H2  UNL     1      24.209  70.177  -8.430  1.00  0.00     0.210 HD
ENDBRANCH   4   5
BRANCH   4   7
HETATM    7  C12 UNL     1      22.571  70.502  -6.497  1.00  0.00     0.152 C 
BRANCH   7   8
HETATM    8  O3  UNL     1      21.489  69.838  -5.917  1.00  0.00    -0.393 OA
ATOM      9  H3  UNL     1      20.855  70.503  -5.679  1.00  0.00     0.210 HD
ENDBRANCH   7   8
BRANCH   7  10
HETATM   10  C13 UNL     1      22.967  71.617  -5.572  1.00  0.00     0.009 C 
HETATM   11  C14 UNL     1      23.332  72.885  -6.270  1.00  0.00     0.012 C 
HETATM   12  C15 UNL     1      21.781  71.904  -4.674  1.00  0.00     0.012 C 
ENDBRANCH   7  10
ENDBRANCH   4   7
ENDBRANCH   3   4
BRANCH   1  13
HETATM   13  C8  UNL     1      23.690  66.528  -5.604  1.00  0.00     0.061 C 
BRANCH  13  14
HETATM   14  C7  UNL     1      24.598  65.518  -6.182  1.00  0.00    -0.028 C 
HETATM   15  C6  UNL     1      24.826  65.373  -7.456  1.00  0.00    -0.031 C 
BRANCH  15  16
HETATM   16  C5  UNL     1      24.201  66.211  -8.496  1.00  0.00     0.027 C 
BRANCH  16  17
HETATM   17  C4  UNL     1      23.174  65.380  -9.232  1.00  0.00     0.007 C 
BRANCH  17  18
HETATM   18  C3  UNL     1      21.915  66.171  -9.421  1.00  0.00     0.026 C 
BRANCH  18  19
HETATM   19  C2  UNL     1      22.220  67.613  -9.345  1.00  0.00    -0.037 C 
HETATM   20  C1  UNL     1      21.234  68.492  -9.334  1.00  0.00     0.007 C 
ENDBRANCH  18  19
ENDBRANCH  17  18
ENDBRANCH  16  17
ENDBRANCH  15  16
ENDBRANCH  13  14
ENDBRANCH   1  13
TORSDOF 11
ENDMDL
MODEL 3
REMARK VINA RESULT: -5.822301257      1.197      3.763
REMARK  11 active torsions:
REMARK  status: ('A' for Active; 'I' for Inactive)
REMARK    1  A    between atoms: C2_2  and  C3_3 
REMARK    2  A    between atoms: C3_3  and  C4_4 
REMARK    3  A    between atoms: C4_4  and  C5_5 
REMARK    4  A    between atoms: C5_5  and  C6_6 
REMARK    5  A    between atoms: C7_7  and  C8_8 
REMARK    6  A    between atoms: C8_8  and  C9_9 
REMARK    7  A    between atoms: C10_11  and  C11_12 
REMARK    8  A    between atoms: C11_12  and  O2_13 
REMARK    9  A    between atoms: C11_12  and  C12_15 
REMARK   10  A    between atoms: C12_15  and  O3_16 
REMARK   11  A    between atoms: C12_15  and  C13_18 
ROOT
HETATM    1  C9  UNL     1      23.005  69.046  -4.950  1.00  0.00     0.157 A 
HETATM    2  O1  UNL     1      21.767  69.562  -5.502  1.00  0.00    -0.372 OA
HETATM    3  C10 UNL     1      22.923  69.560  -6.305  1.00  0.00     0.182 A 
ENDROOT
BRANCH   3   4
HETATM    4  C11 UNL     1      23.026  68.687  -7.505  1.00  0.00     0.178 C 
BRANCH   4   5
HETATM    5  O2  UNL     1      24.028  69.147  -8.376  1.00  0.00    -0.390 OA
ATOM      6  H2  UNL     1      23.655  69.429  -9.203  1.00  0.00     0.210 HD
ENDBRANCH   4   5
BRANCH   4   7
HETATM    7  C12 UNL     1      21.709  68.514  -8.228  1.00  0.00     0.152 C 
BRANCH   7   8
HETATM    8  O3  UNL     1      21.331  69.777  -8.684  1.00  0.00    -0.393 OA
ATOM      9  H3  UNL     1      20.471  69.953  -8.322  1.00  0.00     0.210 HD
ENDBRANCH   7   8
BRANCH   7  10
HETATM   10  C13 UNL     1      21.810  67.611  -9.424  1.00  0.00     0.009 C 
HETATM   11  C14 UNL     1      22.237  66.218  -9.100  1.00  0.00     0.012 C 
HETATM   12  C15 UNL     1      20.435  67.541 -10.056  1.00  0.00     0.012 C 
ENDBRANCH   7  10
ENDBRANCH   4   7
ENDBRANCH   3   4
BRANCH   1  13
HETATM   13  C8  UNL     1      22.832  67.605  -4.564  1.00  0.00     0.061 C 
BRANCH  13  14
HETATM   14  C7  UNL     1      23.309  67.356  -3.190  1.00  0.00    -0.028 C 
HETATM   15  C6  UNL     1      23.197  66.218  -2.565  1.00  0.00    -0.031 C 
BRANCH  15  16
HETATM   16  C5  UNL     1      22.574  65.021  -3.158  1.00  0.00     0.027 C 
BRANCH  16  17
HETATM   17  C4  UNL     1      23.666  64.043  -3.529  1.00  0.00     0.007 C 
BRANCH  17  18
HETATM   18  C3  UNL     1      23.737  63.895  -5.019  1.00  0.00     0.026 C 
BRANCH  18  19
HETATM   19  C2  UNL     1      24.919  64.615  -5.532  1.00  0.00    -0.037 C 
HETATM   20  C1  UNL     1      24.836  65.287  -6.666  1.00  0.00     0.007 C 
ENDBRANCH  18  19
ENDBRANCH  17  18
ENDBRANCH  16  17
ENDBRANCH  15  16
ENDBRANCH  13  14
ENDBRANCH   1  13
TORSDOF 11
ENDMDL
MODEL 4
REMARK VINA RESULT: -5.802348312      2.299      5.228
REMARK  11 active torsions:
REMARK  status: ('A' for Active; 'I' for Inactive)
REMARK    1  A    between atoms: C2_2  and  C3_3 
REMARK    2  A    between atoms: C3_3  and  C4_4 
REMARK    3  A    between atoms: C4_4  and  C5_5 
REMARK    4  A    between atoms: C5_5  and  C6_6 
REMARK    5  A    between atoms: C7_7  and  C8_8 
REMARK    6  A    between atoms: C8_8  and  C9_9 
REMARK    7  A    between atoms: C10_11  and  C11_12 
REMARK    8  A    between atoms: C11_12  and  O2_13 
REMARK    9  A    between atoms: C11_12  and  C12_15 
REMARK   10  A    between atoms: C12_15  and  O3_16 
REMARK   11  A    between atoms: C12_15  and  C13_18 
ROOT
HETATM    1  C9  UNL     1      23.554  67.948  -4.753  1.00  0.00     0.157 A 
HETATM    2  O1  UNL     1      24.683  68.240  -5.614  1.00  0.00    -0.372 OA
HETATM    3  C10 UNL     1      24.440  66.905  -5.238  1.00  0.00     0.182 A 
ENDROOT
BRANCH   3   4
HETATM    4  C11 UNL     1      24.016  65.889  -6.238  1.00  0.00     0.178 C 
BRANCH   4   5
HETATM    5  O2  UNL     1      24.543  64.625  -5.923  1.00  0.00    -0.390 OA
ATOM      6  H2  UNL     1      24.185  63.957  -6.495  1.00  0.00     0.210 HD
ENDBRANCH   4   5
BRANCH   4   7
HETATM    7  C12 UNL     1      24.347  66.281  -7.660  1.00  0.00     0.152 C 
BRANCH   7   8
HETATM    8  O3  UNL     1      25.142  65.261  -8.184  1.00  0.00    -0.393 OA
ATOM      9  H3  UNL     1      25.755  65.671  -8.783  1.00  0.00     0.210 HD
ENDBRANCH   7   8
BRANCH   7  10
HETATM   10  C13 UNL     1      23.131  66.404  -8.534  1.00  0.00     0.009 C 
HETATM   11  C14 UNL     1      23.141  67.601  -9.425  1.00  0.00     0.012 C 
HETATM   12  C15 UNL     1      23.078  65.170  -9.412  1.00  0.00     0.012 C 
ENDBRANCH   7  10
ENDBRANCH   4   7
ENDBRANCH   3   4
BRANCH   1  13
HETATM   13  C8  UNL     1      22.277  68.372  -5.420  1.00  0.00     0.061 C 
BRANCH  13  14
HETATM   14  C7  UNL     1      22.489  69.543  -6.292  1.00  0.00    -0.028 C 
HETATM   15  C6  UNL     1      22.500  70.778  -5.878  1.00  0.00    -0.031 C 
BRANCH  15  16
HETATM   16  C5  UNL     1      22.301  71.168  -4.471  1.00  0.00     0.027 C 
BRANCH  16  17
HETATM   17  C4  UNL     1      20.852  71.558  -4.279  1.00  0.00     0.007 C 
BRANCH  17  18
HETATM   18  C3  UNL     1      20.265  70.796  -3.130  1.00  0.00     0.026 C 
BRANCH  18  19
HETATM   19  C2  UNL     1      21.349  70.203  -2.323  1.00  0.00    -0.037 C 
HETATM   20  C1  UNL     1      21.274  70.229  -1.004  1.00  0.00     0.007 C 
ENDBRANCH  18  19
ENDBRANCH  17  18
ENDBRANCH  16  17
ENDBRANCH  15  16
ENDBRANCH  13  14
ENDBRANCH   1  13
TORSDOF 11
ENDMDL
MODEL 5
REMARK VINA RESULT: -5.765400937      2.568      5.226
REMARK  11 active torsions:
REMARK  status: ('A' for Active; 'I' for Inactive)
REMARK    1  A    between atoms: C2_2  and  C3_3 
REMARK    2  A    between atoms: C3_3  and  C4_4 
REMARK    3  A    between atoms: C4_4  and  C5_5 
REMARK    4  A    between atoms: C5_5  and  C6_6 
REMARK    5  A    between atoms: C7_7  and  C8_8 
REMARK    6  A    between atoms: C8_8  and  C9_9 
REMARK    7  A    between atoms: C10_11  and  C11_12 
REMARK    8  A    between atoms: C11_12  and  O2_13 
REMARK    9  A    between atoms: C11_12  and  C12_15 
REMARK   10  A    between atoms: C12_15  and  O3_16 
REMARK   11  A    between atoms: C12_15  and  C13_18 
ROOT
HETATM    1  C9  UNL     1      23.575  67.808  -5.722  1.00  0.00     0.157 A 
HETATM    2  O1  UNL     1      24.814  67.838  -4.968  1.00  0.00    -0.372 OA
HETATM    3  C10 UNL     1      23.648  68.371  -4.385  1.00  0.00     0.182 A 
ENDROOT
BRANCH   3   4
HETATM    4  C11 UNL     1      23.014  67.725  -3.205  1.00  0.00     0.178 C 
BRANCH   4   5
HETATM    5  O2  UNL     1      22.540  68.690  -2.300  1.00  0.00    -0.390 OA
ATOM      6  H2  UNL     1      22.415  68.313  -1.438  1.00  0.00     0.210 HD
ENDBRANCH   4   5
BRANCH   4   7
HETATM    7  C12 UNL     1      23.918  66.727  -2.517  1.00  0.00     0.152 C 
BRANCH   7   8
HETATM    8  O3  UNL     1      24.072  67.164  -1.201  1.00  0.00    -0.393 OA
ATOM      9  H3  UNL     1      24.177  66.387  -0.665  1.00  0.00     0.210 HD
ENDBRANCH   7   8
BRANCH   7  10
HETATM   10  C13 UNL     1      23.338  65.343  -2.471  1.00  0.00     0.009 C 
HETATM   11  C14 UNL     1      24.248  64.321  -1.876  1.00  0.00     0.012 C 
HETATM   12  C15 UNL     1      22.086  65.405  -1.619  1.00  0.00     0.012 C 
ENDBRANCH   7  10
ENDBRANCH   4   7
ENDBRANCH   3   4
BRANCH   1  13
HETATM   13  C8  UNL     1      23.203  66.389  -6.040  1.00  0.00     0.061 C 
BRANCH  13  14
HETATM   14  C7  UNL     1      24.384  65.599  -6.436  1.00  0.00    -0.028 C 
HETATM   15  C6  UNL     1      24.849  65.525  -7.651  1.00  0.00    -0.031 C 
BRANCH  15  16
HETATM   16  C5  UNL     1      24.248  66.231  -8.797  1.00  0.00     0.027 C 
BRANCH  16  17
HETATM   17  C4  UNL     1      23.112  65.392  -9.339  1.00  0.00     0.007 C 
BRANCH  17  18
HETATM   18  C3  UNL     1      21.863  66.215  -9.423  1.00  0.00     0.026 C 
BRANCH  18  19
HETATM   19  C2  UNL     1      22.213  67.649  -9.425  1.00  0.00    -0.037 C 
HETATM   20  C1  UNL     1      21.313  68.544  -9.058  1.00  0.00     0.007 C 
ENDBRANCH  18  19
ENDBRANCH  17  18
ENDBRANCH  16  17
ENDBRANCH  15  16
ENDBRANCH  13  14
ENDBRANCH   1  13
TORSDOF 11
ENDMDL
