MODEL 1
REMARK VINA RESULT: -6.329283668      0.000      0.000
REMARK  3 active torsions:
REMARK  status: ('A' for Active; 'I' for Inactive)
REMARK    1  A    between atoms: C2_2  and  C3_3 
REMARK    2  A    between atoms: C3_3  and  C4_4 
REMARK    3  A    between atoms: C4_4  and  C5_5 
ROOT
HETATM    1  C5  UNL     1       8.328 -49.432  36.210  1.00  0.00    -0.010 C 
HETATM    2  C6  UNL     1       9.341 -48.555  35.495  1.00  0.00     0.039 C 
HETATM    3  C7  UNL     1      10.053 -49.299  34.388  1.00  0.00     0.211 C 
HETATM    4  C8  UNL     1      11.444 -49.681  34.895  1.00  0.00     0.265 C 
HETATM    5  N1  UNL     1      11.263 -50.140  36.258  1.00  0.00    -0.067 N 
ATOM      6  H11 UNL     1      11.149 -49.362  36.909  1.00  0.00     0.277 HD
ATOM      7  H12 UNL     1      12.121 -50.536  36.641  1.00  0.00     0.277 HD
HETATM    8  C9  UNL     1      10.171 -51.062  36.337  1.00  0.00     0.211 C 
HETATM    9  C10 UNL     1       9.763 -51.612  34.976  1.00  0.00     0.265 C 
HETATM   10  N2  UNL     1       9.341 -50.527  34.157  1.00  0.00    -0.067 N 
ATOM     11  H21 UNL     1       9.386 -50.786  33.171  1.00  0.00     0.277 HD
ATOM     12  H22 UNL     1       8.336 -50.379  34.253  1.00  0.00     0.277 HD
HETATM   13  C11 UNL     1       9.013 -50.461  37.068  1.00  0.00     0.039 C 
ENDROOT
BRANCH   1  14
HETATM   14  C4  UNL     1       7.344 -48.588  36.972  1.00  0.00     0.005 C 
BRANCH  14  15
HETATM   15  C3  UNL     1       6.359 -49.407  37.765  1.00  0.00     0.000 C 
BRANCH  15  16
HETATM   16  C2  UNL     1       6.247 -48.811  39.145  1.00  0.00    -0.005 C 
HETATM   17  C1  UNL     1       7.004 -47.523  39.286  1.00  0.00     0.005 C 
ENDBRANCH  15  16
ENDBRANCH  14  15
ENDBRANCH   1  14
TORSDOF 3
ENDMDL
MODEL 2
REMARK VINA RESULT: -6.276081297      0.822      2.186
REMARK  3 active torsions:
REMARK  status: ('A' for Active; 'I' for Inactive)
REMARK    1  A    between atoms: C2_2  and  C3_3 
REMARK    2  A    between atoms: C3_3  and  C4_4 
REMARK    3  A    between atoms: C4_4  and  C5_5 
ROOT
HETATM    1  C5  UNL     1       8.938 -49.993  37.413  1.00  0.00    -0.010 C 
HETATM    2  C6  UNL     1       9.535 -51.278  36.864  1.00  0.00     0.039 C 
HETATM    3  C7  UNL     1      10.793 -51.020  36.066  1.00  0.00     0.211 C 
HETATM    4  C8  UNL     1      10.436 -51.107  34.582  1.00  0.00     0.265 C 
HETATM    5  N1  UNL     1       9.170 -50.417  34.433  1.00  0.00    -0.067 N 
ATOM      6  H11 UNL     1       8.385 -50.993  34.739  1.00  0.00     0.277 HD
ATOM      7  H12 UNL     1       8.909 -50.313  33.452  1.00  0.00     0.277 HD
HETATM    8  C9  UNL     1       9.201 -49.157  35.111  1.00  0.00     0.211 C 
HETATM    9  C10 UNL     1      10.616 -48.703  35.450  1.00  0.00     0.265 C 
HETATM   10  N2  UNL     1      11.203 -49.665  36.319  1.00  0.00    -0.067 N 
ATOM     11  H21 UNL     1      12.221 -49.590  36.298  1.00  0.00     0.277 HD
ATOM     12  H22 UNL     1      11.031 -49.417  37.293  1.00  0.00     0.277 HD
HETATM   13  C11 UNL     1       8.315 -49.175  36.316  1.00  0.00     0.039 C 
ENDROOT
BRANCH   1  14
HETATM   14  C4  UNL     1       7.986 -50.293  38.539  1.00  0.00     0.005 C 
BRANCH  14  15
HETATM   15  C3  UNL     1       6.583 -49.817  38.264  1.00  0.00     0.000 C 
BRANCH  15  16
HETATM   16  C2  UNL     1       6.175 -48.879  39.370  1.00  0.00    -0.005 C 
HETATM   17  C1  UNL     1       6.904 -47.568  39.321  1.00  0.00     0.005 C 
ENDBRANCH  15  16
ENDBRANCH  14  15
ENDBRANCH   1  14
TORSDOF 3
ENDMDL
MODEL 3
REMARK VINA RESULT: -6.151941070      0.956      2.380
REMARK  3 active torsions:
REMARK  status: ('A' for Active; 'I' for Inactive)
REMARK    1  A    between atoms: C2_2  and  C3_3 
REMARK    2  A    between atoms: C3_3  and  C4_4 
REMARK    3  A    between atoms: C4_4  and  C5_5 
ROOT
HETATM    1  C5  UNL     1       9.783 -49.760  36.932  1.00  0.00    -0.010 C 
HETATM    2  C6  UNL     1       9.717 -51.248  36.636  1.00  0.00     0.039 C 
HETATM    3  C7  UNL     1      10.780 -51.676  35.649  1.00  0.00     0.211 C 
HETATM    4  C8  UNL     1      10.112 -51.853  34.286  1.00  0.00     0.265 C 
HETATM    5  N1  UNL     1       9.202 -50.735  34.134  1.00  0.00    -0.067 N 
ATOM      6  H11 UNL     1       8.342 -50.872  34.665  1.00  0.00     0.277 HD
ATOM      7  H12 UNL     1       8.800 -50.699  33.198  1.00  0.00     0.277 HD
HETATM    8  C9  UNL     1       9.852 -49.509  34.483  1.00  0.00     0.211 C 
HETATM    9  C10 UNL     1      11.370 -49.635  34.524  1.00  0.00     0.265 C 
HETATM   10  N2  UNL     1      11.717 -50.593  35.518  1.00  0.00    -0.067 N 
ATOM     11  H21 UNL     1      12.657 -50.953  35.352  1.00  0.00     0.277 HD
ATOM     12  H22 UNL     1      11.861 -50.136  36.418  1.00  0.00     0.277 HD
HETATM   13  C11 UNL     1       9.301 -48.953  35.757  1.00  0.00     0.039 C 
ENDROOT
BRANCH   1  14
HETATM   14  C4  UNL     1       9.049 -49.442  38.207  1.00  0.00     0.005 C 
BRANCH  14  15
HETATM   15  C3  UNL     1       8.021 -50.483  38.567  1.00  0.00     0.000 C 
BRANCH  15  16
HETATM   16  C2  UNL     1       6.654 -49.923  38.271  1.00  0.00    -0.005 C 
HETATM   17  C1  UNL     1       6.241 -48.853  39.239  1.00  0.00     0.005 C 
ENDBRANCH  15  16
ENDBRANCH  14  15
ENDBRANCH   1  14
TORSDOF 3
ENDMDL
MODEL 4
REMARK VINA RESULT: -6.131557777      0.845      1.119
REMARK  3 active torsions:
REMARK  status: ('A' for Active; 'I' for Inactive)
REMARK    1  A    between atoms: C2_2  and  C3_3 
REMARK    2  A    between atoms: C3_3  and  C4_4 
REMARK    3  A    between atoms: C4_4  and  C5_5 
ROOT
HETATM    1  C5  UNL     1       9.104 -49.936  36.177  1.00  0.00    -0.010 C 
HETATM    2  C6  UNL     1       9.929 -48.982  35.330  1.00  0.00     0.039 C 
HETATM    3  C7  UNL     1      10.247 -49.563  33.971  1.00  0.00     0.211 C 
HETATM    4  C8  UNL     1      11.696 -50.051  33.994  1.00  0.00     0.265 C 
HETATM    5  N1  UNL     1      11.879 -50.710  35.272  1.00  0.00    -0.067 N 
ATOM      6  H11 UNL     1      12.006 -50.039  36.030  1.00  0.00     0.277 HD
ATOM      7  H12 UNL     1      12.782 -51.180  35.330  1.00  0.00     0.277 HD
HETATM    8  C9  UNL     1      10.795 -51.608  35.533  1.00  0.00     0.211 C 
HETATM    9  C10 UNL     1       9.983 -51.932  34.286  1.00  0.00     0.265 C 
HETATM   10  N2  UNL     1       9.419 -50.724  33.786  1.00  0.00    -0.067 N 
ATOM     11  H21 UNL     1       9.166 -50.829  32.803  1.00  0.00     0.277 HD
ATOM     12  H22 UNL     1       8.495 -50.570  34.189  1.00  0.00     0.277 HD
HETATM   13  C11 UNL     1       9.934 -51.100  36.645  1.00  0.00     0.039 C 
ENDROOT
BRANCH   1  14
HETATM   14  C4  UNL     1       8.434 -49.198  37.303  1.00  0.00     0.005 C 
BRANCH  14  15
HETATM   15  C3  UNL     1       7.100 -48.617  36.913  1.00  0.00     0.000 C 
BRANCH  15  16
HETATM   16  C2  UNL     1       6.037 -49.246  37.775  1.00  0.00    -0.005 C 
HETATM   17  C1  UNL     1       6.215 -48.941  39.234  1.00  0.00     0.005 C 
ENDBRANCH  15  16
ENDBRANCH  14  15
ENDBRANCH   1  14
TORSDOF 3
ENDMDL
MODEL 5
REMARK VINA RESULT: -5.958054269      1.163      1.507
REMARK  3 active torsions:
REMARK  status: ('A' for Active; 'I' for Inactive)
REMARK    1  A    between atoms: C2_2  and  C3_3 
REMARK    2  A    between atoms: C3_3  and  C4_4 
REMARK    3  A    between atoms: C4_4  and  C5_5 
ROOT
HETATM    1  C5  UNL     1       8.664 -50.342  37.239  1.00  0.00    -0.010 C 
HETATM    2  C6  UNL     1       8.136 -49.714  35.960  1.00  0.00     0.039 C 
HETATM    3  C7  UNL     1       8.989 -50.067  34.763  1.00  0.00     0.211 C 
HETATM    4  C8  UNL     1       9.867 -48.858  34.438  1.00  0.00     0.265 C 
HETATM    5  N1  UNL     1      10.343 -48.353  35.710  1.00  0.00    -0.067 N 
ATOM      6  H11 UNL     1       9.628 -47.807  36.192  1.00  0.00     0.277 HD
ATOM      7  H12 UNL     1      11.040 -47.618  35.588  1.00  0.00     0.277 HD
HETATM    8  C9  UNL     1      10.834 -49.422  36.523  1.00  0.00     0.211 C 
HETATM    9  C10 UNL     1      11.099 -50.696  35.729  1.00  0.00     0.265 C 
HETATM   10  N2  UNL     1       9.873 -51.132  35.153  1.00  0.00    -0.067 N 
ATOM     11  H21 UNL     1      10.052 -51.755  34.364  1.00  0.00     0.277 HD
ATOM     12  H22 UNL     1       9.395 -51.779  35.780  1.00  0.00     0.277 HD
HETATM   13  C11 UNL     1       9.931 -49.668  37.689  1.00  0.00     0.039 C 
ENDROOT
BRANCH   1  14
HETATM   14  C4  UNL     1       7.596 -50.361  38.298  1.00  0.00     0.005 C 
BRANCH  14  15
HETATM   15  C3  UNL     1       6.450 -49.432  37.993  1.00  0.00     0.000 C 
BRANCH  15  16
HETATM   16  C2  UNL     1       6.151 -48.624  39.229  1.00  0.00    -0.005 C 
HETATM   17  C1  UNL     1       7.021 -47.407  39.354  1.00  0.00     0.005 C 
ENDBRANCH  15  16
ENDBRANCH  14  15
ENDBRANCH   1  14
TORSDOF 3
ENDMDL
