MODEL 1
REMARK VINA RESULT: -5.514495129      0.000      0.000
REMARK  3 active torsions:
REMARK  status: ('A' for Active; 'I' for Inactive)
REMARK    1  A    between atoms: C2_2  and  N1_3 
REMARK    2  A    between atoms: N1_3  and  C3_5 
REMARK    3  A    between atoms: C3_5  and  C4_6 
ROOT
HETATM    1  C4  UNL     1       7.970 -49.862  36.406  1.00  0.00     0.009 C 
HETATM    2  C5  UNL     1       8.673 -49.439  35.148  1.00  0.00     0.009 C 
HETATM    3  C6  UNL     1       9.843 -48.513  35.466  1.00  0.00     0.033 C 
HETATM    4  C7  UNL     1      10.749 -49.125  36.489  1.00  0.00     0.186 C 
HETATM    5  C8  UNL     1       9.975 -49.228  37.787  1.00  0.00     0.039 C 
HETATM    6  C9  UNL     1       8.969 -50.317  37.421  1.00  0.00     0.019 C 
HETATM    7  C10 UNL     1       9.913 -51.293  36.731  1.00  0.00     0.237 C 
HETATM    8  N2  UNL     1      11.004 -50.523  36.184  1.00  0.00    -0.070 N 
ATOM      9  H21 UNL     1      11.917 -50.842  36.510  1.00  0.00     0.277 HD
ATOM     10  H22 UNL     1      11.150 -50.693  35.189  1.00  0.00     0.277 HD
ENDROOT
BRANCH   1  11
HETATM   11  C3  UNL     1       7.105 -48.810  36.996  1.00  0.00     0.118 C 
BRANCH  11  12
HETATM   12  N1  UNL     1       6.020 -49.239  37.803  1.00  0.00    -0.421 N 
ATOM     13  H1  UNL     1       5.237 -49.763  37.412  1.00  0.00     0.153 HD
BRANCH  12  14
HETATM   14  C2  UNL     1       6.078 -48.903  39.187  1.00  0.00     0.109 C 
HETATM   15  C1  UNL     1       6.943 -47.642  39.289  1.00  0.00     0.026 C 
ENDBRANCH  12  14
ENDBRANCH  11  12
ENDBRANCH   1  11
TORSDOF 3
ENDMDL
MODEL 2
REMARK VINA RESULT: -5.395488593      1.283      4.515
REMARK  3 active torsions:
REMARK  status: ('A' for Active; 'I' for Inactive)
REMARK    1  A    between atoms: C2_2  and  N1_3 
REMARK    2  A    between atoms: N1_3  and  C3_5 
REMARK    3  A    between atoms: C3_5  and  C4_6 
ROOT
HETATM    1  C4  UNL     1       8.479 -49.742  37.022  1.00  0.00     0.009 C 
HETATM    2  C5  UNL     1       7.922 -50.885  37.821  1.00  0.00     0.009 C 
HETATM    3  C6  UNL     1       7.507 -50.420  39.214  1.00  0.00     0.033 C 
HETATM    4  C7  UNL     1       6.596 -49.235  39.136  1.00  0.00     0.186 C 
HETATM    5  C8  UNL     1       7.392 -48.079  38.564  1.00  0.00     0.039 C 
HETATM    6  C9  UNL     1       7.575 -48.556  37.126  1.00  0.00     0.019 C 
HETATM    7  C10 UNL     1       6.156 -49.035  36.850  1.00  0.00     0.237 C 
HETATM    8  N2  UNL     1       5.581 -49.429  38.113  1.00  0.00    -0.070 N 
ATOM      9  H21 UNL     1       4.708 -48.943  38.321  1.00  0.00     0.277 HD
ATOM     10  H22 UNL     1       5.206 -50.378  38.100  1.00  0.00     0.277 HD
ENDROOT
BRANCH   1  11
HETATM   11  C3  UNL     1       9.858 -49.351  37.410  1.00  0.00     0.118 C 
BRANCH  11  12
HETATM   12  N1  UNL     1      10.757 -49.020  36.363  1.00  0.00    -0.421 N 
ATOM     13  H1  UNL     1      11.035 -48.056  36.182  1.00  0.00     0.153 HD
BRANCH  12  14
HETATM   14  C2  UNL     1      11.252 -50.101  35.577  1.00  0.00     0.109 C 
HETATM   15  C1  UNL     1      10.716 -49.883  34.158  1.00  0.00     0.026 C 
ENDBRANCH  12  14
ENDBRANCH  11  12
ENDBRANCH   1  11
TORSDOF 3
ENDMDL
MODEL 3
REMARK VINA RESULT: -5.207931944      1.165      2.286
REMARK  3 active torsions:
REMARK  status: ('A' for Active; 'I' for Inactive)
REMARK    1  A    between atoms: C2_2  and  N1_3 
REMARK    2  A    between atoms: N1_3  and  C3_5 
REMARK    3  A    between atoms: C3_5  and  C4_6 
ROOT
HETATM    1  C4  UNL     1       9.238 -48.968  36.121  1.00  0.00     0.009 C 
HETATM    2  C5  UNL     1       9.850 -49.703  37.279  1.00  0.00     0.009 C 
HETATM    3  C6  UNL     1       9.799 -51.211  37.053  1.00  0.00     0.033 C 
HETATM    4  C7  UNL     1      10.389 -51.574  35.725  1.00  0.00     0.186 C 
HETATM    5  C8  UNL     1       9.495 -50.992  34.649  1.00  0.00     0.039 C 
HETATM    6  C9  UNL     1       9.777 -49.503  34.833  1.00  0.00     0.019 C 
HETATM    7  C10 UNL     1      11.294 -49.560  34.960  1.00  0.00     0.237 C 
HETATM    8  N2  UNL     1      11.632 -50.856  35.496  1.00  0.00    -0.070 N 
ATOM      9  H21 UNL     1      12.286 -51.372  34.907  1.00  0.00     0.277 HD
ATOM     10  H22 UNL     1      12.217 -50.800  36.330  1.00  0.00     0.277 HD
ENDROOT
BRANCH   1  11
HETATM   11  C3  UNL     1       7.754 -49.014  36.096  1.00  0.00     0.118 C 
BRANCH  11  12
HETATM   12  N1  UNL     1       7.070 -48.456  37.207  1.00  0.00    -0.421 N 
ATOM     13  H1  UNL     1       7.250 -47.503  37.522  1.00  0.00     0.153 HD
BRANCH  12  14
HETATM   14  C2  UNL     1       6.118 -49.293  37.860  1.00  0.00     0.109 C 
HETATM   15  C1  UNL     1       6.158 -48.913  39.344  1.00  0.00     0.026 C 
ENDBRANCH  12  14
ENDBRANCH  11  12
ENDBRANCH   1  11
TORSDOF 3
ENDMDL
MODEL 4
REMARK VINA RESULT: -5.149939494      1.463      2.348
REMARK  3 active torsions:
REMARK  status: ('A' for Active; 'I' for Inactive)
REMARK    1  A    between atoms: C2_2  and  N1_3 
REMARK    2  A    between atoms: N1_3  and  C3_5 
REMARK    3  A    between atoms: C3_5  and  C4_6 
ROOT
HETATM    1  C4  UNL     1      10.123 -50.164  37.004  1.00  0.00     0.009 C 
HETATM    2  C5  UNL     1       9.626 -51.198  36.034  1.00  0.00     0.009 C 
HETATM    3  C6  UNL     1       8.986 -50.536  34.817  1.00  0.00     0.033 C 
HETATM    4  C7  UNL     1       9.911 -49.529  34.207  1.00  0.00     0.186 C 
HETATM    5  C8  UNL     1      10.091 -48.405  35.207  1.00  0.00     0.039 C 
HETATM    6  C9  UNL     1      10.909 -49.120  36.279  1.00  0.00     0.019 C 
HETATM    7  C10 UNL     1      11.907 -49.838  35.380  1.00  0.00     0.237 C 
HETATM    8  N2  UNL     1      11.261 -50.057  34.109  1.00  0.00    -0.070 N 
ATOM      9  H21 UNL     1      11.785 -49.667  33.325  1.00  0.00     0.277 HD
ATOM     10  H22 UNL     1      11.286 -51.033  33.814  1.00  0.00     0.277 HD
ENDROOT
BRANCH   1  11
HETATM   11  C3  UNL     1       9.048 -49.517  37.797  1.00  0.00     0.118 C 
BRANCH  11  12
HETATM   12  N1  UNL     1       8.073 -50.366  38.381  1.00  0.00    -0.421 N 
ATOM     13  H1  UNL     1       8.325 -51.260  38.803  1.00  0.00     0.153 HD
BRANCH  12  14
HETATM   14  C2  UNL     1       6.723 -49.908  38.350  1.00  0.00     0.109 C 
HETATM   15  C1  UNL     1       6.651 -48.854  37.241  1.00  0.00     0.026 C 
ENDBRANCH  12  14
ENDBRANCH  11  12
ENDBRANCH   1  11
TORSDOF 3
ENDMDL
MODEL 5
REMARK VINA RESULT: -5.146783993      1.413      2.209
REMARK  3 active torsions:
REMARK  status: ('A' for Active; 'I' for Inactive)
REMARK    1  A    between atoms: C2_2  and  N1_3 
REMARK    2  A    between atoms: N1_3  and  C3_5 
REMARK    3  A    between atoms: C3_5  and  C4_6 
ROOT
HETATM    1  C4  UNL     1       8.948 -49.176  35.402  1.00  0.00     0.009 C 
HETATM    2  C5  UNL     1      10.240 -48.431  35.590  1.00  0.00     0.009 C 
HETATM    3  C6  UNL     1      11.332 -49.363  36.107  1.00  0.00     0.033 C 
HETATM    4  C7  UNL     1      11.454 -50.578  35.241  1.00  0.00     0.186 C 
HETATM    5  C8  UNL     1      10.172 -51.373  35.379  1.00  0.00     0.039 C 
HETATM    6  C9  UNL     1       9.196 -50.448  34.657  1.00  0.00     0.019 C 
HETATM    7  C10 UNL     1      10.043 -50.109  33.438  1.00  0.00     0.237 C 
HETATM    8  N2  UNL     1      11.427 -50.216  33.833  1.00  0.00    -0.070 N 
ATOM      9  H21 UNL     1      11.959 -50.859  33.246  1.00  0.00     0.277 HD
ATOM     10  H22 UNL     1      11.964 -49.373  33.629  1.00  0.00     0.277 HD
ENDROOT
BRANCH   1  11
HETATM   11  C3  UNL     1       8.234 -49.472  36.670  1.00  0.00     0.118 C 
BRANCH  11  12
HETATM   12  N1  UNL     1       7.185 -48.593  37.043  1.00  0.00    -0.421 N 
ATOM     13  H1  UNL     1       7.240 -47.589  36.868  1.00  0.00     0.153 HD
BRANCH  12  14
HETATM   14  C2  UNL     1       6.051 -49.180  37.676  1.00  0.00     0.109 C 
HETATM   15  C1  UNL     1       6.214 -48.922  39.177  1.00  0.00     0.026 C 
ENDBRANCH  12  14
ENDBRANCH  11  12
ENDBRANCH   1  11
TORSDOF 3
ENDMDL
