MODEL 1
REMARK VINA RESULT: -6.099890632      0.000      0.000
REMARK  4 active torsions:
REMARK  status: ('A' for Active; 'I' for Inactive)
REMARK    1  A    between atoms: C4_4  and  C5_5 
REMARK    2  A    between atoms: C5_5  and  C6_6 
REMARK    3  A    between atoms: C6_6  and  N1_7 
REMARK    4  A    between atoms: N1_7  and  C7_9 
ROOT
HETATM    1  N1  UNL     1      10.316 -51.172  36.299  1.00  0.00    -0.396 N 
ATOM      2  H1  UNL     1      10.206 -51.935  36.967  1.00  0.00     0.155 HD
ENDROOT
BRANCH   1   3
HETATM    3  C6  UNL     1      10.439 -49.819  36.721  1.00  0.00     0.116 C 
BRANCH   3   4
HETATM    4  C5  UNL     1       9.563 -49.503  37.878  1.00  0.00     0.024 C 
BRANCH   4   5
HETATM    5  C4  UNL     1       8.112 -49.820  37.663  1.00  0.00    -0.013 C 
HETATM    6  C3  UNL     1       7.352 -50.253  38.868  1.00  0.00     0.005 C 
HETATM    7  C2  UNL     1       6.174 -49.245  38.943  1.00  0.00     0.000 C 
HETATM    8  C1  UNL     1       5.927 -49.040  37.449  1.00  0.00     0.000 C 
HETATM    9  C11 UNL     1       7.365 -48.695  37.007  1.00  0.00     0.005 C 
ENDBRANCH   4   5
ENDBRANCH   3   4
ENDBRANCH   1   3
BRANCH   1  10
HETATM   10  C7  UNL     1      10.355 -51.403  34.912  1.00  0.00     0.279 C 
HETATM   11  C8  UNL     1       9.439 -50.439  34.153  1.00  0.00     0.055 C 
HETATM   12  C9  UNL     1      10.294 -49.915  33.043  1.00  0.00     0.031 C 
HETATM   13  C10 UNL     1      11.562 -50.751  33.029  1.00  0.00     0.235 C 
HETATM   14  N2  UNL     1      11.664 -51.274  34.361  1.00  0.00    -0.055 N 
ATOM     15  H22 UNL     1      12.281 -50.716  34.951  1.00  0.00     0.279 HD
ATOM     16  H21 UNL     1      12.188 -52.149  34.396  1.00  0.00     0.279 HD
ENDBRANCH   1  10
TORSDOF 4
ENDMDL
MODEL 2
REMARK VINA RESULT: -6.078734846      1.100      1.416
REMARK  4 active torsions:
REMARK  status: ('A' for Active; 'I' for Inactive)
REMARK    1  A    between atoms: C4_4  and  C5_5 
REMARK    2  A    between atoms: C5_5  and  C6_6 
REMARK    3  A    between atoms: C6_6  and  N1_7 
REMARK    4  A    between atoms: N1_7  and  C7_9 
ROOT
HETATM    1  N1  UNL     1      11.414 -49.681  36.176  1.00  0.00    -0.396 N 
ATOM      2  H1  UNL     1      12.311 -49.705  36.662  1.00  0.00     0.155 HD
ENDROOT
BRANCH   1   3
HETATM    3  C6  UNL     1      10.259 -49.095  36.766  1.00  0.00     0.116 C 
BRANCH   3   4
HETATM    4  C5  UNL     1       9.610 -49.989  37.757  1.00  0.00     0.024 C 
BRANCH   4   5
HETATM    5  C4  UNL     1       8.120 -50.093  37.618  1.00  0.00    -0.013 C 
HETATM    6  C3  UNL     1       7.364 -50.375  38.870  1.00  0.00     0.005 C 
HETATM    7  C2  UNL     1       6.352 -49.201  38.962  1.00  0.00     0.000 C 
HETATM    8  C1  UNL     1       6.065 -49.003  37.474  1.00  0.00     0.000 C 
HETATM    9  C11 UNL     1       7.514 -48.889  36.957  1.00  0.00     0.005 C 
ENDBRANCH   4   5
ENDBRANCH   3   4
ENDBRANCH   1   3
BRANCH   1  10
HETATM   10  C7  UNL     1      11.254 -50.225  34.889  1.00  0.00     0.279 C 
HETATM   11  C8  UNL     1      11.055 -51.742  34.938  1.00  0.00     0.055 C 
HETATM   12  C9  UNL     1       9.867 -51.986  34.061  1.00  0.00     0.031 C 
HETATM   13  C10 UNL     1       9.573 -50.681  33.342  1.00  0.00     0.235 C 
HETATM   14  N2  UNL     1      10.148 -49.669  34.181  1.00  0.00    -0.055 N 
ATOM     15  H22 UNL     1       9.461 -49.246  34.805  1.00  0.00     0.279 HD
ATOM     16  H21 UNL     1      10.403 -48.831  33.660  1.00  0.00     0.279 HD
ENDBRANCH   1  10
TORSDOF 4
ENDMDL
MODEL 3
REMARK VINA RESULT: -6.025382673      1.045      1.332
REMARK  4 active torsions:
REMARK  status: ('A' for Active; 'I' for Inactive)
REMARK    1  A    between atoms: C4_4  and  C5_5 
REMARK    2  A    between atoms: C5_5  and  C6_6 
REMARK    3  A    between atoms: C6_6  and  N1_7 
REMARK    4  A    between atoms: N1_7  and  C7_9 
ROOT
HETATM    1  N1  UNL     1      10.379 -51.186  36.150  1.00  0.00    -0.396 N 
ATOM      2  H1  UNL     1       9.860 -51.912  36.645  1.00  0.00     0.155 HD
ENDROOT
BRANCH   1   3
HETATM    3  C6  UNL     1      10.429 -49.846  36.627  1.00  0.00     0.116 C 
BRANCH   3   4
HETATM    4  C5  UNL     1       9.601 -49.644  37.843  1.00  0.00     0.024 C 
BRANCH   4   5
HETATM    5  C4  UNL     1       8.138 -49.916  37.651  1.00  0.00    -0.013 C 
HETATM    6  C3  UNL     1       7.380 -50.309  38.871  1.00  0.00     0.005 C 
HETATM    7  C2  UNL     1       6.236 -49.262  38.947  1.00  0.00     0.000 C 
HETATM    8  C1  UNL     1       5.976 -49.069  37.454  1.00  0.00     0.000 C 
HETATM    9  C11 UNL     1       7.418 -48.776  36.989  1.00  0.00     0.005 C 
ENDBRANCH   4   5
ENDBRANCH   3   4
ENDBRANCH   1   3
BRANCH   1  10
HETATM   10  C7  UNL     1      11.081 -51.456  34.962  1.00  0.00     0.279 C 
HETATM   11  C8  UNL     1      11.680 -50.183  34.358  1.00  0.00     0.055 C 
HETATM   12  C9  UNL     1      13.099 -50.551  34.059  1.00  0.00     0.031 C 
HETATM   13  C10 UNL     1      13.216 -52.053  34.249  1.00  0.00     0.235 C 
HETATM   14  N2  UNL     1      12.144 -52.388  35.141  1.00  0.00    -0.055 N 
ATOM     15  H22 UNL     1      12.451 -52.446  36.112  1.00  0.00     0.279 HD
ATOM     16  H21 UNL     1      11.836 -53.355  35.032  1.00  0.00     0.279 HD
ENDBRANCH   1  10
TORSDOF 4
ENDMDL
MODEL 4
REMARK VINA RESULT: -5.790686060      0.689      1.307
REMARK  4 active torsions:
REMARK  status: ('A' for Active; 'I' for Inactive)
REMARK    1  A    between atoms: C4_4  and  C5_5 
REMARK    2  A    between atoms: C5_5  and  C6_6 
REMARK    3  A    between atoms: C6_6  and  N1_7 
REMARK    4  A    between atoms: N1_7  and  C7_9 
ROOT
HETATM    1  N1  UNL     1      10.657 -51.584  35.835  1.00  0.00    -0.396 N 
ATOM      2  H1  UNL     1      11.261 -52.295  36.247  1.00  0.00     0.155 HD
ENDROOT
BRANCH   1   3
HETATM    3  C6  UNL     1      10.206 -50.460  36.583  1.00  0.00     0.116 C 
BRANCH   3   4
HETATM    4  C5  UNL     1       9.234 -50.836  37.641  1.00  0.00     0.024 C 
BRANCH   4   5
HETATM    5  C4  UNL     1       8.336 -49.718  38.085  1.00  0.00    -0.013 C 
HETATM    6  C3  UNL     1       7.750 -48.880  37.003  1.00  0.00     0.005 C 
HETATM    7  C2  UNL     1       6.220 -48.977  37.249  1.00  0.00     0.000 C 
HETATM    8  C1  UNL     1       6.218 -49.036  38.776  1.00  0.00     0.000 C 
HETATM    9  C11 UNL     1       7.225 -50.188  38.979  1.00  0.00     0.005 C 
ENDBRANCH   4   5
ENDBRANCH   3   4
ENDBRANCH   1   3
BRANCH   1  10
HETATM   10  C7  UNL     1      10.226 -51.661  34.498  1.00  0.00     0.279 C 
HETATM   11  C8  UNL     1       9.539 -50.369  34.050  1.00  0.00     0.055 C 
HETATM   12  C9  UNL     1      10.181 -50.046  32.738  1.00  0.00     0.031 C 
HETATM   13  C10 UNL     1      11.013 -51.254  32.344  1.00  0.00     0.235 C 
HETATM   14  N2  UNL     1      11.288 -51.923  33.583  1.00  0.00    -0.055 N 
ATOM     15  H22 UNL     1      12.200 -51.673  33.966  1.00  0.00     0.279 HD
ATOM     16  H21 UNL     1      11.455 -52.921  33.457  1.00  0.00     0.279 HD
ENDBRANCH   1  10
TORSDOF 4
ENDMDL
MODEL 5
REMARK VINA RESULT: -5.765848063      1.152      1.830
REMARK  4 active torsions:
REMARK  status: ('A' for Active; 'I' for Inactive)
REMARK    1  A    between atoms: C4_4  and  C5_5 
REMARK    2  A    between atoms: C5_5  and  C6_6 
REMARK    3  A    between atoms: C6_6  and  N1_7 
REMARK    4  A    between atoms: N1_7  and  C7_9 
ROOT
HETATM    1  N1  UNL     1      10.981 -50.255  36.325  1.00  0.00    -0.396 N 
ATOM      2  H1  UNL     1      11.638 -50.113  37.092  1.00  0.00     0.155 HD
ENDROOT
BRANCH   1   3
HETATM    3  C6  UNL     1       9.771 -50.984  36.500  1.00  0.00     0.116 C 
BRANCH   3   4
HETATM    4  C5  UNL     1       9.264 -50.916  37.894  1.00  0.00     0.024 C 
BRANCH   4   5
HETATM    5  C4  UNL     1       8.367 -49.746  38.173  1.00  0.00    -0.013 C 
HETATM    6  C3  UNL     1       7.914 -48.971  36.986  1.00  0.00     0.005 C 
HETATM    7  C2  UNL     1       6.365 -49.008  37.090  1.00  0.00     0.000 C 
HETATM    8  C1  UNL     1       6.218 -48.959  38.610  1.00  0.00     0.000 C 
HETATM    9  C11 UNL     1       7.162 -50.121  38.986  1.00  0.00     0.005 C 
ENDBRANCH   4   5
ENDBRANCH   3   4
ENDBRANCH   1   3
BRANCH   1  10
HETATM   10  C7  UNL     1      11.223 -49.741  35.037  1.00  0.00     0.279 C 
HETATM   11  C8  UNL     1      12.351 -50.498  34.331  1.00  0.00     0.055 C 
HETATM   12  C9  UNL     1      11.795 -50.805  32.976  1.00  0.00     0.031 C 
HETATM   13  C10 UNL     1      10.500 -50.021  32.841  1.00  0.00     0.235 C 
HETATM   14  N2  UNL     1      10.076 -49.790  34.192  1.00  0.00    -0.055 N 
ATOM     15  H22 UNL     1       9.391 -50.477  34.506  1.00  0.00     0.279 HD
ATOM     16  H21 UNL     1       9.494 -48.957  34.279  1.00  0.00     0.279 HD
ENDBRANCH   1  10
TORSDOF 4
ENDMDL
