MODEL 1
REMARK VINA RESULT: -3.778173261      0.000      0.000
REMARK  5 active torsions:
REMARK  status: ('A' for Active; 'I' for Inactive)
REMARK    1  A    between atoms: N1_1  and  C1_5 
REMARK    2  A    between atoms: C1_5  and  N2_6 
REMARK    3  A    between atoms: C1_5  and  C2_10 
REMARK    4  A    between atoms: C2_10  and  N3_11 
REMARK    5  A    between atoms: C2_10  and  C3_15 
ROOT
HETATM    1  C2  UNL     1       9.543  -2.090  16.526  1.00  0.00     0.245 C 
ENDROOT
BRANCH   1   2
HETATM    2  C1  UNL     1       9.028  -1.722  15.183  1.00  0.00     0.408 C 
BRANCH   2   3
HETATM    3  N1  UNL     1       8.862  -2.843  14.295  1.00  0.00    -0.048 N 
ATOM      4  H13 UNL     1       8.125  -3.486  14.587  1.00  0.00     0.276 HD
ATOM      5  H12 UNL     1       8.457  -2.590  13.393  1.00  0.00     0.276 HD
ATOM      6  H11 UNL     1       9.778  -3.285  14.217  1.00  0.00     0.276 HD
ENDBRANCH   2   3
BRANCH   2   7
HETATM    7  N2  UNL     1      10.028  -0.845  14.557  1.00  0.00    -0.048 N 
ATOM      8  H23 UNL     1      10.838  -0.667  15.151  1.00  0.00     0.276 HD
ATOM      9  H22 UNL     1      10.531  -1.287  13.788  1.00  0.00     0.276 HD
ATOM     10  H21 UNL     1       9.534   0.004  14.283  1.00  0.00     0.276 HD
ENDBRANCH   2   7
ENDBRANCH   1   2
BRANCH   1  11
HETATM   11  N3  UNL     1       9.530  -3.532  16.663  1.00  0.00    -0.071 N 
ATOM     12  H33 UNL     1      10.354  -3.882  17.152  1.00  0.00     0.274 HD
ATOM     13  H32 UNL     1       8.823  -3.851  17.325  1.00  0.00     0.274 HD
ATOM     14  H31 UNL     1       9.416  -3.955  15.742  1.00  0.00     0.274 HD
ENDBRANCH   1  11
BRANCH   1  15
HETATM   15  C3  UNL     1       8.858  -1.459  17.682  1.00  0.00     0.023 C 
HETATM   16  C4  UNL     1       9.812  -0.997  18.759  1.00  0.00     0.034 C 
HETATM   17  C5  UNL     1       9.023  -0.013  19.623  1.00  0.00     0.232 C 
HETATM   18  N4  UNL     1       8.010  -0.806  20.291  1.00  0.00    -0.075 N 
HETATM   19  C6  UNL     1       7.100  -1.399  19.347  1.00  0.00     0.232 C 
ATOM     20  H42 UNL     1       8.427  -1.509  20.900  1.00  0.00     0.277 HD
ATOM     21  H41 UNL     1       7.513  -0.261  20.996  1.00  0.00     0.277 HD
HETATM   22  C7  UNL     1       7.819  -2.313  18.347  1.00  0.00     0.034 C 
ENDBRANCH   1  15
TORSDOF 5
ENDMDL
MODEL 2
REMARK VINA RESULT: -3.698406091      4.487      5.999
REMARK  5 active torsions:
REMARK  status: ('A' for Active; 'I' for Inactive)
REMARK    1  A    between atoms: N1_1  and  C1_5 
REMARK    2  A    between atoms: C1_5  and  N2_6 
REMARK    3  A    between atoms: C1_5  and  C2_10 
REMARK    4  A    between atoms: C2_10  and  N3_11 
REMARK    5  A    between atoms: C2_10  and  C3_15 
ROOT
HETATM    1  C2  UNL     1       7.110  -1.019  21.354  1.00  0.00     0.245 C 
ENDROOT
BRANCH   1   2
HETATM    2  C1  UNL     1       7.673   0.353  21.425  1.00  0.00     0.408 C 
BRANCH   2   3
HETATM    3  N1  UNL     1       8.795   0.570  20.548  1.00  0.00    -0.048 N 
ATOM      4  H13 UNL     1       9.191   1.507  20.621  1.00  0.00     0.276 HD
ATOM      5  H12 UNL     1       9.632   0.057  20.826  1.00  0.00     0.276 HD
ATOM      6  H11 UNL     1       8.472   0.338  19.609  1.00  0.00     0.276 HD
ENDBRANCH   2   3
BRANCH   2   7
HETATM    7  N2  UNL     1       8.176   0.548  22.793  1.00  0.00    -0.048 N 
ATOM      8  H23 UNL     1       8.789  -0.204  23.110  1.00  0.00     0.276 HD
ATOM      9  H22 UNL     1       8.855   1.305  22.872  1.00  0.00     0.276 HD
ATOM     10  H21 UNL     1       7.355   0.677  23.385  1.00  0.00     0.276 HD
ENDBRANCH   2   7
ENDBRANCH   1   2
BRANCH   1  11
HETATM   11  N3  UNL     1       7.105  -1.461  19.975  1.00  0.00    -0.071 N 
ATOM     12  H33 UNL     1       6.211  -1.284  19.515  1.00  0.00     0.274 HD
ATOM     13  H32 UNL     1       7.692  -0.877  19.379  1.00  0.00     0.274 HD
ATOM     14  H31 UNL     1       7.372  -2.444  19.936  1.00  0.00     0.274 HD
ENDBRANCH   1  11
BRANCH   1  15
HETATM   15  C3  UNL     1       5.766  -1.203  21.958  1.00  0.00     0.023 C 
HETATM   16  C4  UNL     1       5.676  -2.423  22.845  1.00  0.00     0.034 C 
HETATM   17  C5  UNL     1       4.425  -2.225  23.703  1.00  0.00     0.232 C 
HETATM   18  N4  UNL     1       3.306  -2.305  22.785  1.00  0.00    -0.075 N 
HETATM   19  C6  UNL     1       3.349  -1.250  21.808  1.00  0.00     0.232 C 
ATOM     20  H42 UNL     1       3.252  -3.223  22.342  1.00  0.00     0.277 HD
ATOM     21  H41 UNL     1       2.415  -2.318  23.282  1.00  0.00     0.277 HD
HETATM   22  C7  UNL     1       4.635  -1.286  20.974  1.00  0.00     0.034 C 
ENDBRANCH   1  15
TORSDOF 5
ENDMDL
MODEL 3
REMARK VINA RESULT: -3.497167696      2.301      5.531
REMARK  5 active torsions:
REMARK  status: ('A' for Active; 'I' for Inactive)
REMARK    1  A    between atoms: N1_1  and  C1_5 
REMARK    2  A    between atoms: C1_5  and  N2_6 
REMARK    3  A    between atoms: C1_5  and  C2_10 
REMARK    4  A    between atoms: C2_10  and  N3_11 
REMARK    5  A    between atoms: C2_10  and  C3_15 
ROOT
HETATM    1  C2  UNL     1       6.975  -0.405  21.323  1.00  0.00     0.245 C 
ENDROOT
BRANCH   1   2
HETATM    2  C1  UNL     1       7.494   0.650  22.229  1.00  0.00     0.408 C 
BRANCH   2   3
HETATM    3  N1  UNL     1       8.307   0.146  23.306  1.00  0.00    -0.048 N 
ATOM      4  H13 UNL     1       8.399   0.800  24.083  1.00  0.00     0.276 HD
ATOM      5  H12 UNL     1       7.864  -0.609  23.828  1.00  0.00     0.276 HD
ATOM      6  H11 UNL     1       9.200  -0.119  22.890  1.00  0.00     0.276 HD
ENDBRANCH   2   3
BRANCH   2   7
HETATM    7  N2  UNL     1       6.332   1.297  22.857  1.00  0.00    -0.048 N 
ATOM      8  H23 UNL     1       5.441   1.002  22.457  1.00  0.00     0.276 HD
ATOM      9  H22 UNL     1       6.155   0.977  23.809  1.00  0.00     0.276 HD
ATOM     10  H21 UNL     1       6.493   2.302  22.791  1.00  0.00     0.276 HD
ENDBRANCH   2   7
ENDBRANCH   1   2
BRANCH   1  11
HETATM   11  N3  UNL     1       6.457  -1.501  22.115  1.00  0.00    -0.071 N 
ATOM     12  H33 UNL     1       7.068  -2.318  22.091  1.00  0.00     0.274 HD
ATOM     13  H32 UNL     1       6.508  -1.312  23.116  1.00  0.00     0.274 HD
ATOM     14  H31 UNL     1       5.508  -1.717  21.810  1.00  0.00     0.274 HD
ENDBRANCH   1  11
BRANCH   1  15
HETATM   15  C3  UNL     1       7.927  -0.913  20.303  1.00  0.00     0.023 C 
HETATM   16  C4  UNL     1       8.894   0.141  19.815  1.00  0.00     0.034 C 
HETATM   17  C5  UNL     1      10.037  -0.620  19.141  1.00  0.00     0.232 C 
HETATM   18  N4  UNL     1       9.459  -1.222  17.956  1.00  0.00    -0.075 N 
HETATM   19  C6  UNL     1       8.431  -2.170  18.294  1.00  0.00     0.232 C 
ATOM     20  H42 UNL     1       9.115  -0.514  17.307  1.00  0.00     0.277 HD
ATOM     21  H41 UNL     1      10.175  -1.644  17.364  1.00  0.00     0.277 HD
HETATM   22  C7  UNL     1       7.290  -1.525  19.090  1.00  0.00     0.034 C 
ENDBRANCH   1  15
TORSDOF 5
ENDMDL
MODEL 4
REMARK VINA RESULT: -3.476466845      2.654      4.259
REMARK  5 active torsions:
REMARK  status: ('A' for Active; 'I' for Inactive)
REMARK    1  A    between atoms: N1_1  and  C1_5 
REMARK    2  A    between atoms: C1_5  and  N2_6 
REMARK    3  A    between atoms: C1_5  and  C2_10 
REMARK    4  A    between atoms: C2_10  and  N3_11 
REMARK    5  A    between atoms: C2_10  and  C3_15 
ROOT
HETATM    1  C2  UNL     1       7.954  -0.559  19.720  1.00  0.00     0.245 C 
ENDROOT
BRANCH   1   2
HETATM    2  C1  UNL     1       8.136  -1.738  18.835  1.00  0.00     0.408 C 
BRANCH   2   3
HETATM    3  N1  UNL     1       9.296  -1.655  17.985  1.00  0.00    -0.048 N 
ATOM      4  H13 UNL     1       9.407  -0.744  17.540  1.00  0.00     0.276 HD
ATOM      5  H12 UNL     1      10.176  -1.653  18.500  1.00  0.00     0.276 HD
ATOM      6  H11 UNL     1       9.218  -2.425  17.320  1.00  0.00     0.276 HD
ENDBRANCH   2   3
BRANCH   2   7
HETATM    7  N2  UNL     1       6.971  -1.794  17.939  1.00  0.00    -0.048 N 
ATOM      8  H23 UNL     1       7.112  -1.296  17.060  1.00  0.00     0.276 HD
ATOM      9  H22 UNL     1       6.814  -2.718  17.537  1.00  0.00     0.276 HD
ATOM     10  H21 UNL     1       6.178  -1.447  18.478  1.00  0.00     0.276 HD
ENDBRANCH   2   7
ENDBRANCH   1   2
BRANCH   1  11
HETATM   11  N3  UNL     1       9.208   0.159  19.820  1.00  0.00    -0.071 N 
ATOM     12  H33 UNL     1       9.781   0.056  18.982  1.00  0.00     0.274 HD
ATOM     13  H32 UNL     1       9.078   1.170  19.783  1.00  0.00     0.274 HD
ATOM     14  H31 UNL     1       9.698  -0.137  20.664  1.00  0.00     0.274 HD
ENDBRANCH   1  11
BRANCH   1  15
HETATM   15  C3  UNL     1       7.414  -0.840  21.074  1.00  0.00     0.023 C 
HETATM   16  C4  UNL     1       5.929  -1.120  21.075  1.00  0.00     0.034 C 
HETATM   17  C5  UNL     1       5.632  -1.801  22.412  1.00  0.00     0.232 C 
HETATM   18  N4  UNL     1       5.854  -0.786  23.423  1.00  0.00    -0.075 N 
HETATM   19  C6  UNL     1       7.225  -0.349  23.439  1.00  0.00     0.232 C 
ATOM     20  H42 UNL     1       5.213  -0.000  23.311  1.00  0.00     0.277 HD
ATOM     21  H41 UNL     1       5.553  -1.104  24.344  1.00  0.00     0.277 HD
HETATM   22  C7  UNL     1       7.661   0.237  22.091  1.00  0.00     0.034 C 
ENDBRANCH   1  15
TORSDOF 5
ENDMDL
MODEL 5
REMARK VINA RESULT: -3.464871337      5.579      7.090
REMARK  5 active torsions:
REMARK  status: ('A' for Active; 'I' for Inactive)
REMARK    1  A    between atoms: N1_1  and  C1_5 
REMARK    2  A    between atoms: C1_5  and  N2_6 
REMARK    3  A    between atoms: C1_5  and  C2_10 
REMARK    4  A    between atoms: C2_10  and  N3_11 
REMARK    5  A    between atoms: C2_10  and  C3_15 
ROOT
HETATM    1  C2  UNL     1       6.234   0.544  22.441  1.00  0.00     0.245 C 
ENDROOT
BRANCH   1   2
HETATM    2  C1  UNL     1       7.611  -0.011  22.473  1.00  0.00     0.408 C 
BRANCH   2   3
HETATM    3  N1  UNL     1       8.402   0.455  23.583  1.00  0.00    -0.048 N 
ATOM      4  H13 UNL     1       9.389   0.575  23.356  1.00  0.00     0.276 HD
ATOM      5  H12 UNL     1       8.213   1.425  23.836  1.00  0.00     0.276 HD
ATOM      6  H11 UNL     1       8.238  -0.201  24.346  1.00  0.00     0.276 HD
ENDBRANCH   2   3
BRANCH   2   7
HETATM    7  N2  UNL     1       8.296   0.451  21.256  1.00  0.00    -0.048 N 
ATOM      8  H23 UNL     1       9.292   0.231  21.244  1.00  0.00     0.276 HD
ATOM      9  H22 UNL     1       8.041  -0.077  20.422  1.00  0.00     0.276 HD
ATOM     10  H21 UNL     1       8.101   1.449  21.179  1.00  0.00     0.276 HD
ENDBRANCH   2   7
ENDBRANCH   1   2
BRANCH   1  11
HETATM   11  N3  UNL     1       6.180   1.733  23.265  1.00  0.00    -0.071 N 
ATOM     12  H33 UNL     1       5.721   2.512  22.792  1.00  0.00     0.274 HD
ATOM     13  H32 UNL     1       5.529   1.634  24.044  1.00  0.00     0.274 HD
ATOM     14  H31 UNL     1       7.122   1.969  23.577  1.00  0.00     0.274 HD
ENDBRANCH   1  11
BRANCH   1  15
HETATM   15  C3  UNL     1       5.146  -0.393  22.818  1.00  0.00     0.023 C 
HETATM   16  C4  UNL     1       5.571  -1.843  22.782  1.00  0.00     0.034 C 
HETATM   17  C5  UNL     1       4.523  -2.606  23.593  1.00  0.00     0.232 C 
HETATM   18  N4  UNL     1       3.298  -2.522  22.823  1.00  0.00    -0.075 N 
HETATM   19  C6  UNL     1       2.853  -1.161  22.688  1.00  0.00     0.232 C 
ATOM     20  H42 UNL     1       3.396  -2.975  21.915  1.00  0.00     0.277 HD
ATOM     21  H41 UNL     1       2.568  -3.116  23.217  1.00  0.00     0.277 HD
HETATM   22  C7  UNL     1       3.897  -0.278  21.995  1.00  0.00     0.034 C 
ENDBRANCH   1  15
TORSDOF 5
ENDMDL
