MODEL 1
REMARK VINA RESULT: -4.399938009      0.000      0.000
REMARK  5 active torsions:
REMARK  status: ('A' for Active; 'I' for Inactive)
REMARK    1  A    between atoms: N1_1  and  N2_4 
REMARK    2  A    between atoms: C1_6  and  N3_7 
REMARK    3  A    between atoms: N3_7  and  N4_9 
REMARK    4  A    between atoms: N4_9  and  C2_11 
REMARK    5  A    between atoms: N6_16  and  N7_18 
ROOT
HETATM    1  C2  UNL     1       7.260   0.611  22.958  1.00  0.00     0.124 C 
HETATM    2  C3  UNL     1       7.561   0.202  24.381  1.00  0.00     0.148 C 
HETATM    3  N5  UNL     1       7.296  -1.234  24.353  1.00  0.00    -0.377 N 
ATOM      4  H5  UNL     1       7.823  -1.973  24.819  1.00  0.00     0.160 HD
HETATM    5  C4  UNL     1       6.142  -1.377  23.535  1.00  0.00     0.093 C 
HETATM    6  N6  UNL     1       5.313  -2.381  23.584  1.00  0.00    -0.296 N 
ATOM      7  H6  UNL     1       5.478  -3.135  24.250  1.00  0.00     0.187 HD
HETATM    8  C5  UNL     1       6.033  -0.201  22.618  1.00  0.00     0.105 C 
ENDROOT
BRANCH   1   9
HETATM    9  N4  UNL     1       8.367   0.313  22.140  1.00  0.00    -0.329 N 
ATOM     10  H4  UNL     1       9.164  -0.205  22.510  1.00  0.00     0.180 HD
BRANCH   9  11
HETATM   11  N3  UNL     1       8.348   0.730  20.856  1.00  0.00    -0.299 N 
ATOM     12  H3  UNL     1       7.919   1.620  20.604  1.00  0.00     0.187 HD
BRANCH  11  13
HETATM   13  C1  UNL     1       8.943  -0.107  19.854  1.00  0.00     0.212 C 
HETATM   14  N2  UNL     1      10.162   0.028  19.522  1.00  0.00    -0.301 N 
ATOM     15  H2  UNL     1      10.726   0.746  19.976  1.00  0.00     0.187 HD
BRANCH  14  16
HETATM   16  N1  UNL     1      10.740  -0.776  18.557  1.00  0.00    -0.344 N 
ATOM     17  H12 UNL     1      10.291  -1.665  18.337  1.00  0.00     0.176 HD
ATOM     18  H11 UNL     1      11.593  -0.496  18.073  1.00  0.00     0.176 HD
ENDBRANCH  14  16
ENDBRANCH  11  13
ENDBRANCH   9  11
ENDBRANCH   1   9
BRANCH   6  19
HETATM   19  N7  UNL     1       4.209  -2.439  22.747  1.00  0.00    -0.344 N 
ATOM     20  H72 UNL     1       4.357  -2.666  21.763  1.00  0.00     0.176 HD
ATOM     21  H71 UNL     1       3.270  -2.260  23.100  1.00  0.00     0.176 HD
ENDBRANCH   6  19
TORSDOF 5
ENDMDL
MODEL 2
REMARK VINA RESULT: -4.268180960      1.007      1.136
REMARK  5 active torsions:
REMARK  status: ('A' for Active; 'I' for Inactive)
REMARK    1  A    between atoms: N1_1  and  N2_4 
REMARK    2  A    between atoms: C1_6  and  N3_7 
REMARK    3  A    between atoms: N3_7  and  N4_9 
REMARK    4  A    between atoms: N4_9  and  C2_11 
REMARK    5  A    between atoms: N6_16  and  N7_18 
ROOT
HETATM    1  C2  UNL     1       6.349  -0.137  22.454  1.00  0.00     0.124 C 
HETATM    2  C3  UNL     1       7.069  -0.805  23.601  1.00  0.00     0.148 C 
HETATM    3  N5  UNL     1       6.552  -2.170  23.539  1.00  0.00    -0.377 N 
ATOM      4  H5  UNL     1       7.068  -3.037  23.690  1.00  0.00     0.160 HD
HETATM    5  C4  UNL     1       5.174  -2.025  23.224  1.00  0.00     0.093 C 
HETATM    6  N6  UNL     1       4.251  -2.903  23.494  1.00  0.00    -0.296 N 
ATOM      7  H6  UNL     1       4.507  -3.770  23.967  1.00  0.00     0.187 HD
HETATM    8  C5  UNL     1       4.955  -0.713  22.540  1.00  0.00     0.105 C 
ENDROOT
BRANCH   1   9
HETATM    9  N4  UNL     1       7.003  -0.445  21.246  1.00  0.00    -0.329 N 
ATOM     10  H4  UNL     1       6.623  -1.147  20.611  1.00  0.00     0.180 HD
BRANCH   9  11
HETATM   11  N3  UNL     1       8.144   0.211  20.948  1.00  0.00    -0.299 N 
ATOM     12  H3  UNL     1       8.482   0.966  21.545  1.00  0.00     0.187 HD
BRANCH  11  13
HETATM   13  C1  UNL     1       8.872  -0.177  19.773  1.00  0.00     0.212 C 
HETATM   14  N2  UNL     1      10.138  -0.077  19.720  1.00  0.00    -0.301 N 
ATOM     15  H2  UNL     1      10.644   0.286  20.527  1.00  0.00     0.187 HD
BRANCH  14  16
HETATM   16  N1  UNL     1      10.843  -0.450  18.591  1.00  0.00    -0.344 N 
ATOM     17  H12 UNL     1      11.722   0.028  18.390  1.00  0.00     0.176 HD
ATOM     18  H11 UNL     1      10.503  -1.183  17.968  1.00  0.00     0.176 HD
ENDBRANCH  14  16
ENDBRANCH  11  13
ENDBRANCH   9  11
ENDBRANCH   1   9
BRANCH   6  19
HETATM   19  N7  UNL     1       2.927  -2.679  23.150  1.00  0.00    -0.344 N 
ATOM     20  H72 UNL     1       2.386  -2.015  23.705  1.00  0.00     0.176 HD
ATOM     21  H71 UNL     1       2.498  -3.164  22.362  1.00  0.00     0.176 HD
ENDBRANCH   6  19
TORSDOF 5
ENDMDL
MODEL 3
REMARK VINA RESULT: -4.219599855      2.206      3.159
REMARK  5 active torsions:
REMARK  status: ('A' for Active; 'I' for Inactive)
REMARK    1  A    between atoms: N1_1  and  N2_4 
REMARK    2  A    between atoms: C1_6  and  N3_7 
REMARK    3  A    between atoms: N3_7  and  N4_9 
REMARK    4  A    between atoms: N4_9  and  C2_11 
REMARK    5  A    between atoms: N6_16  and  N7_18 
ROOT
HETATM    1  C2  UNL     1       7.140   0.018  22.834  1.00  0.00     0.124 C 
HETATM    2  C3  UNL     1       5.685  -0.180  23.189  1.00  0.00     0.148 C 
HETATM    3  N5  UNL     1       5.161   1.181  23.116  1.00  0.00    -0.377 N 
ATOM      4  H5  UNL     1       4.257   1.480  22.748  1.00  0.00     0.160 HD
HETATM    5  C4  UNL     1       6.183   1.997  23.671  1.00  0.00     0.093 C 
HETATM    6  N6  UNL     1       5.993   3.172  24.201  1.00  0.00    -0.296 N 
ATOM      7  H6  UNL     1       5.051   3.561  24.235  1.00  0.00     0.187 HD
HETATM    8  C5  UNL     1       7.499   1.298  23.550  1.00  0.00     0.105 C 
ENDROOT
BRANCH   1   9
HETATM    9  N4  UNL     1       7.273   0.109  21.435  1.00  0.00    -0.329 N 
ATOM     10  H4  UNL     1       6.499  -0.142  20.820  1.00  0.00     0.180 HD
BRANCH   9  11
HETATM   11  N3  UNL     1       8.448   0.537  20.927  1.00  0.00    -0.299 N 
ATOM     12  H3  UNL     1       8.933   1.335  21.338  1.00  0.00     0.187 HD
BRANCH  11  13
HETATM   13  C1  UNL     1       9.001  -0.156  19.798  1.00  0.00     0.212 C 
HETATM   14  N2  UNL     1      10.243  -0.101  19.535  1.00  0.00    -0.301 N 
ATOM     15  H2  UNL     1      10.857   0.446  20.139  1.00  0.00     0.187 HD
BRANCH  14  16
HETATM   16  N1  UNL     1      10.780  -0.767  18.449  1.00  0.00    -0.344 N 
ATOM     17  H12 UNL     1      10.154  -1.322  17.866  1.00  0.00     0.176 HD
ATOM     18  H11 UNL     1      11.774  -0.710  18.229  1.00  0.00     0.176 HD
ENDBRANCH  14  16
ENDBRANCH  11  13
ENDBRANCH   9  11
ENDBRANCH   1   9
BRANCH   6  19
HETATM   19  N7  UNL     1       7.052   3.902  24.720  1.00  0.00    -0.344 N 
ATOM     20  H72 UNL     1       7.958   3.842  24.255  1.00  0.00     0.176 HD
ATOM     21  H71 UNL     1       6.933   4.487  25.547  1.00  0.00     0.176 HD
ENDBRANCH   6  19
TORSDOF 5
ENDMDL
MODEL 4
REMARK VINA RESULT: -4.186291817      1.996      2.267
REMARK  5 active torsions:
REMARK  status: ('A' for Active; 'I' for Inactive)
REMARK    1  A    between atoms: N1_1  and  N2_4 
REMARK    2  A    between atoms: C1_6  and  N3_7 
REMARK    3  A    between atoms: N3_7  and  N4_9 
REMARK    4  A    between atoms: N4_9  and  C2_11 
REMARK    5  A    between atoms: N6_16  and  N7_18 
ROOT
HETATM    1  C2  UNL     1       6.244  -0.841  21.264  1.00  0.00     0.124 C 
HETATM    2  C3  UNL     1       6.924  -0.913  22.611  1.00  0.00     0.148 C 
HETATM    3  N5  UNL     1       6.372  -2.143  23.172  1.00  0.00    -0.377 N 
ATOM      4  H5  UNL     1       6.860  -2.850  23.722  1.00  0.00     0.160 HD
HETATM    5  C4  UNL     1       5.004  -2.139  22.786  1.00  0.00     0.093 C 
HETATM    6  N6  UNL     1       4.052  -2.778  23.405  1.00  0.00    -0.296 N 
ATOM      7  H6  UNL     1       4.275  -3.331  24.232  1.00  0.00     0.187 HD
HETATM    8  C5  UNL     1       4.834  -1.290  21.566  1.00  0.00     0.105 C 
ENDROOT
BRANCH   1   9
HETATM    9  N4  UNL     1       6.912  -1.684  20.355  1.00  0.00    -0.329 N 
ATOM     10  H4  UNL     1       6.743  -2.690  20.356  1.00  0.00     0.180 HD
BRANCH   9  11
HETATM   11  N3  UNL     1       7.779  -1.129  19.483  1.00  0.00    -0.299 N 
ATOM     12  H3  UNL     1       8.246  -0.249  19.701  1.00  0.00     0.187 HD
BRANCH  11  13
HETATM   13  C1  UNL     1       8.029  -1.803  18.241  1.00  0.00     0.212 C 
HETATM   14  N2  UNL     1       9.193  -1.837  17.732  1.00  0.00    -0.301 N 
ATOM     15  H2  UNL     1       9.963  -1.376  18.217  1.00  0.00     0.187 HD
BRANCH  14  16
HETATM   16  N1  UNL     1       9.439  -2.486  16.536  1.00  0.00    -0.344 N 
ATOM     17  H12 UNL     1       8.860  -3.289  16.295  1.00  0.00     0.176 HD
ATOM     18  H11 UNL     1      10.178  -2.176  15.905  1.00  0.00     0.176 HD
ENDBRANCH  14  16
ENDBRANCH  11  13
ENDBRANCH   9  11
ENDBRANCH   1   9
BRANCH   6  19
HETATM   19  N7  UNL     1       2.741  -2.718  22.957  1.00  0.00    -0.344 N 
ATOM     20  H72 UNL     1       2.015  -2.439  23.617  1.00  0.00     0.176 HD
ATOM     21  H71 UNL     1       2.503  -2.948  21.993  1.00  0.00     0.176 HD
ENDBRANCH   6  19
TORSDOF 5
ENDMDL
MODEL 5
REMARK VINA RESULT: -4.050948717      1.257      1.289
REMARK  5 active torsions:
REMARK  status: ('A' for Active; 'I' for Inactive)
REMARK    1  A    between atoms: N1_1  and  N2_4 
REMARK    2  A    between atoms: C1_6  and  N3_7 
REMARK    3  A    between atoms: N3_7  and  N4_9 
REMARK    4  A    between atoms: N4_9  and  C2_11 
REMARK    5  A    between atoms: N6_16  and  N7_18 
ROOT
HETATM    1  C2  UNL     1       7.155   0.652  22.106  1.00  0.00     0.124 C 
HETATM    2  C3  UNL     1       7.265   1.053  23.558  1.00  0.00     0.148 C 
HETATM    3  N5  UNL     1       7.252  -0.240  24.238  1.00  0.00    -0.377 N 
ATOM      4  H5  UNL     1       7.806  -0.522  25.047  1.00  0.00     0.160 HD
HETATM    5  C4  UNL     1       6.300  -1.018  23.525  1.00  0.00     0.093 C 
HETATM    6  N6  UNL     1       5.654  -2.038  24.015  1.00  0.00    -0.296 N 
ATOM      7  H6  UNL     1       5.823  -2.322  24.980  1.00  0.00     0.187 HD
HETATM    8  C5  UNL     1       6.160  -0.483  22.136  1.00  0.00     0.105 C 
ENDROOT
BRANCH   1   9
HETATM    9  N4  UNL     1       8.422   0.266  21.628  1.00  0.00    -0.329 N 
ATOM     10  H4  UNL     1       9.062  -0.266  22.217  1.00  0.00     0.180 HD
BRANCH   9  11
HETATM   11  N3  UNL     1       8.769   0.618  20.371  1.00  0.00    -0.299 N 
ATOM     12  H3  UNL     1       8.857   1.601  20.111  1.00  0.00     0.187 HD
BRANCH  11  13
HETATM   13  C1  UNL     1       9.012  -0.419  19.410  1.00  0.00     0.212 C 
HETATM   14  N2  UNL     1       8.075  -1.178  19.009  1.00  0.00    -0.301 N 
ATOM     15  H2  UNL     1       7.134  -1.047  19.379  1.00  0.00     0.187 HD
BRANCH  14  16
HETATM   16  N1  UNL     1       8.305  -2.179  18.083  1.00  0.00    -0.344 N 
ATOM     17  H12 UNL     1       8.766  -1.930  17.208  1.00  0.00     0.176 HD
ATOM     18  H11 UNL     1       8.024  -3.143  18.261  1.00  0.00     0.176 HD
ENDBRANCH  14  16
ENDBRANCH  11  13
ENDBRANCH   9  11
ENDBRANCH   1   9
BRANCH   6  19
HETATM   19  N7  UNL     1       4.740  -2.742  23.246  1.00  0.00    -0.344 N 
ATOM     20  H72 UNL     1       4.322  -2.277  22.440  1.00  0.00     0.176 HD
ATOM     21  H71 UNL     1       4.487  -3.703  23.477  1.00  0.00     0.176 HD
ENDBRANCH   6  19
TORSDOF 5
ENDMDL
