MODEL 1
REMARK VINA RESULT: -4.747072547      0.000      0.000
REMARK  4 active torsions:
REMARK  status: ('A' for Active; 'I' for Inactive)
REMARK    1  A    between atoms: N1_2  and  C2_5 
REMARK    2  A    between atoms: C2_5  and  N2_6 
REMARK    3  A    between atoms: C2_5  and  C3_10 
REMARK    4  A    between atoms: N2_6  and  N3_7 
ROOT
HETATM    1  C2  UNL     1       7.581  -0.121  20.740  1.00  0.00     0.348 C 
ENDROOT
BRANCH   1   2
HETATM    2  N1  UNL     1       8.385   0.565  21.721  1.00  0.00    -0.054 N 
HETATM    3  C1  UNL     1       7.563   0.791  22.892  1.00  0.00     0.269 C 
ATOM      4  H12 UNL     1       8.803   1.423  21.360  1.00  0.00     0.279 HD
ATOM      5  H11 UNL     1       9.252   0.072  21.936  1.00  0.00     0.279 HD
ENDBRANCH   1   2
BRANCH   1   6
HETATM    6  N2  UNL     1       6.835  -1.212  21.342  1.00  0.00    -0.108 NA
BRANCH   6   7
HETATM    7  N3  UNL     1       5.473  -1.126  21.098  1.00  0.00    -0.346 N 
ATOM      8  H32 UNL     1       5.080  -0.558  20.346  1.00  0.00     0.172 HD
ATOM      9  H31 UNL     1       4.922  -1.687  21.747  1.00  0.00     0.172 HD
ENDBRANCH   6   7
ENDBRANCH   1   6
BRANCH   1  10
HETATM   10  C3  UNL     1       8.416  -0.678  19.642  1.00  0.00     0.088 A 
HETATM   11  C4  UNL     1       8.002  -1.568  18.665  1.00  0.00     0.137 A 
HETATM   12  N4  UNL     1       9.029  -1.850  17.840  1.00  0.00    -0.289 N 
HETATM   13  C5  UNL     1       9.004  -2.736  16.695  1.00  0.00     0.174 C 
HETATM   14  N5  UNL     1      10.060  -1.155  18.287  1.00  0.00    -0.021 NA
HETATM   15  N6  UNL     1       9.710  -0.447  19.365  1.00  0.00    -0.283 N 
ATOM     16  H6  UNL     1      10.328   0.169  19.894  1.00  0.00     0.184 HD
ENDBRANCH   1  10
TORSDOF 4
ENDMDL
MODEL 2
REMARK VINA RESULT: -4.720025835      1.184      4.590
REMARK  4 active torsions:
REMARK  status: ('A' for Active; 'I' for Inactive)
REMARK    1  A    between atoms: N1_2  and  C2_5 
REMARK    2  A    between atoms: C2_5  and  N2_6 
REMARK    3  A    between atoms: C2_5  and  C3_10 
REMARK    4  A    between atoms: N2_6  and  N3_7 
ROOT
HETATM    1  C2  UNL     1       9.084  -0.910  18.644  1.00  0.00     0.348 C 
ENDROOT
BRANCH   1   2
HETATM    2  N1  UNL     1       8.487  -2.085  18.058  1.00  0.00    -0.054 N 
HETATM    3  C1  UNL     1       9.007  -2.226  16.713  1.00  0.00     0.269 C 
ATOM      4  H12 UNL     1       7.467  -2.066  18.087  1.00  0.00     0.279 HD
ATOM      5  H11 UNL     1       8.624  -2.922  18.624  1.00  0.00     0.279 HD
ENDBRANCH   1   2
BRANCH   1   6
HETATM    6  N2  UNL     1      10.463  -1.158  19.028  1.00  0.00    -0.108 NA
BRANCH   6   7
HETATM    7  N3  UNL     1      11.310  -0.118  18.675  1.00  0.00    -0.346 N 
ATOM      8  H32 UNL     1      12.222  -0.269  18.244  1.00  0.00     0.172 HD
ATOM      9  H31 UNL     1      10.918   0.798  18.895  1.00  0.00     0.172 HD
ENDBRANCH   6   7
ENDBRANCH   1   6
BRANCH   1  10
HETATM   10  C3  UNL     1       8.338  -0.462  19.850  1.00  0.00     0.088 A 
HETATM   11  C4  UNL     1       7.179  -1.027  20.357  1.00  0.00     0.137 A 
HETATM   12  N4  UNL     1       6.789  -0.358  21.459  1.00  0.00    -0.289 N 
HETATM   13  C5  UNL     1       5.628  -0.637  22.278  1.00  0.00     0.174 C 
HETATM   14  N5  UNL     1       7.680   0.600  21.641  1.00  0.00    -0.021 NA
HETATM   15  N6  UNL     1       8.615   0.552  20.686  1.00  0.00    -0.283 N 
ATOM     16  H6  UNL     1       9.411   1.185  20.605  1.00  0.00     0.184 HD
ENDBRANCH   1  10
TORSDOF 4
ENDMDL
MODEL 3
REMARK VINA RESULT: -4.698732087      1.096      1.887
REMARK  4 active torsions:
REMARK  status: ('A' for Active; 'I' for Inactive)
REMARK    1  A    between atoms: N1_2  and  C2_5 
REMARK    2  A    between atoms: C2_5  and  N2_6 
REMARK    3  A    between atoms: C2_5  and  C3_10 
REMARK    4  A    between atoms: N2_6  and  N3_7 
ROOT
HETATM    1  C2  UNL     1       7.404  -0.901  20.596  1.00  0.00     0.348 C 
ENDROOT
BRANCH   1   2
HETATM    2  N1  UNL     1       6.013  -1.197  20.358  1.00  0.00    -0.054 N 
HETATM    3  C1  UNL     1       5.344  -1.253  21.642  1.00  0.00     0.269 C 
ATOM      4  H12 UNL     1       5.878  -2.044  19.805  1.00  0.00     0.279 HD
ATOM      5  H11 UNL     1       5.573  -0.541  19.712  1.00  0.00     0.279 HD
ENDBRANCH   1   2
BRANCH   1   6
HETATM    6  N2  UNL     1       7.588   0.490  20.974  1.00  0.00    -0.108 NA
BRANCH   6   7
HETATM    7  N3  UNL     1       8.253   0.630  22.182  1.00  0.00    -0.346 N 
ATOM      8  H32 UNL     1       9.242   0.869  22.245  1.00  0.00     0.172 HD
ATOM      9  H31 UNL     1       7.645   0.468  22.985  1.00  0.00     0.172 HD
ENDBRANCH   6   7
ENDBRANCH   1   6
BRANCH   1  10
HETATM   10  C3  UNL     1       8.232  -1.168  19.390  1.00  0.00     0.088 A 
HETATM   11  C4  UNL     1       7.853  -1.902  18.278  1.00  0.00     0.137 A 
HETATM   12  N4  UNL     1       8.861  -1.932  17.385  1.00  0.00    -0.289 N 
HETATM   13  C5  UNL     1       8.861  -2.594  16.097  1.00  0.00     0.174 C 
HETATM   14  N5  UNL     1       9.847  -1.235  17.921  1.00  0.00    -0.021 NA
HETATM   15  N6  UNL     1       9.488  -0.770  19.122  1.00  0.00    -0.283 N 
ATOM     16  H6  UNL     1      10.073  -0.204  19.737  1.00  0.00     0.184 HD
ENDBRANCH   1  10
TORSDOF 4
ENDMDL
MODEL 4
REMARK VINA RESULT: -4.680695679      1.504      2.220
REMARK  4 active torsions:
REMARK  status: ('A' for Active; 'I' for Inactive)
REMARK    1  A    between atoms: N1_2  and  C2_5 
REMARK    2  A    between atoms: C2_5  and  N2_6 
REMARK    3  A    between atoms: C2_5  and  C3_10 
REMARK    4  A    between atoms: N2_6  and  N3_7 
ROOT
HETATM    1  C2  UNL     1       6.930  -0.354  21.840  1.00  0.00     0.348 C 
ENDROOT
BRANCH   1   2
HETATM    2  N1  UNL     1       5.510  -0.517  21.647  1.00  0.00    -0.054 N 
HETATM    3  C1  UNL     1       5.060  -1.577  22.526  1.00  0.00     0.269 C 
ATOM      4  H12 UNL     1       5.260  -0.680  20.672  1.00  0.00     0.279 HD
ATOM      5  H11 UNL     1       4.991   0.352  21.778  1.00  0.00     0.279 HD
ENDBRANCH   1   2
BRANCH   1   6
HETATM    6  N2  UNL     1       7.249   0.993  22.280  1.00  0.00    -0.108 NA
BRANCH   6   7
HETATM    7  N3  UNL     1       8.146   1.011  23.337  1.00  0.00    -0.346 N 
ATOM      8  H32 UNL     1       8.657   0.183  23.643  1.00  0.00     0.172 HD
ATOM      9  H31 UNL     1       8.230   1.933  23.764  1.00  0.00     0.172 HD
ENDBRANCH   6   7
ENDBRANCH   1   6
BRANCH   1  10
HETATM   10  C3  UNL     1       7.685  -0.625  20.588  1.00  0.00     0.088 A 
HETATM   11  C4  UNL     1       7.335  -1.526  19.595  1.00  0.00     0.137 A 
HETATM   12  N4  UNL     1       8.255  -1.503  18.612  1.00  0.00    -0.289 N 
HETATM   13  C5  UNL     1       8.251  -2.295  17.400  1.00  0.00     0.174 C 
HETATM   14  N5  UNL     1       9.159  -0.611  18.977  1.00  0.00    -0.021 NA
HETATM   15  N6  UNL     1       8.833  -0.076  20.157  1.00  0.00    -0.283 N 
ATOM     16  H6  UNL     1       9.370   0.636  20.653  1.00  0.00     0.184 HD
ENDBRANCH   1  10
TORSDOF 4
ENDMDL
MODEL 5
REMARK VINA RESULT: -4.679431248      1.621      2.139
REMARK  4 active torsions:
REMARK  status: ('A' for Active; 'I' for Inactive)
REMARK    1  A    between atoms: N1_2  and  C2_5 
REMARK    2  A    between atoms: C2_5  and  N2_6 
REMARK    3  A    between atoms: C2_5  and  C3_10 
REMARK    4  A    between atoms: N2_6  and  N3_7 
ROOT
HETATM    1  C2  UNL     1       7.450   0.695  22.630  1.00  0.00     0.348 C 
ENDROOT
BRANCH   1   2
HETATM    2  N1  UNL     1       8.385   0.308  23.657  1.00  0.00    -0.054 N 
HETATM    3  C1  UNL     1       7.666  -0.473  24.643  1.00  0.00     0.269 C 
ATOM      4  H12 UNL     1       8.876   1.104  24.065  1.00  0.00     0.279 HD
ATOM      5  H11 UNL     1       9.201  -0.180  23.286  1.00  0.00     0.279 HD
ENDBRANCH   1   2
BRANCH   1   6
HETATM    6  N2  UNL     1       6.125   0.164  22.898  1.00  0.00    -0.108 NA
BRANCH   6   7
HETATM    7  N3  UNL     1       5.129   1.116  22.745  1.00  0.00    -0.346 N 
ATOM      8  H32 UNL     1       4.529   1.162  21.921  1.00  0.00     0.172 HD
ATOM      9  H31 UNL     1       5.069   1.753  23.540  1.00  0.00     0.172 HD
ENDBRANCH   6   7
ENDBRANCH   1   6
BRANCH   1  10
HETATM   10  C3  UNL     1       7.881   0.214  21.290  1.00  0.00     0.088 A 
HETATM   11  C4  UNL     1       7.310  -0.819  20.564  1.00  0.00     0.137 A 
HETATM   12  N4  UNL     1       7.963  -0.972  19.396  1.00  0.00    -0.289 N 
HETATM   13  C5  UNL     1       7.674  -1.941  18.360  1.00  0.00     0.174 C 
HETATM   14  N5  UNL     1       8.919  -0.059  19.388  1.00  0.00    -0.021 NA
HETATM   15  N6  UNL     1       8.884   0.659  20.514  1.00  0.00    -0.283 N 
ATOM     16  H6  UNL     1       9.517   1.424  20.748  1.00  0.00     0.184 HD
ENDBRANCH   1  10
TORSDOF 4
ENDMDL
