MODEL 1
REMARK VINA RESULT: -5.041049539      0.000      0.000
REMARK  4 active torsions:
REMARK  status: ('A' for Active; 'I' for Inactive)
REMARK    1  A    between atoms: C2_2  and  N1_3 
REMARK    2  A    between atoms: C2_2  and  N2_7 
REMARK    3  A    between atoms: N2_7  and  N3_9 
REMARK    4  A    between atoms: C3_11  and  C4_12 
ROOT
HETATM    1  N3  UNL     1       8.822  -0.030  20.098  1.00  0.00    -0.311 N 
ATOM      2  H3  UNL     1       9.738   0.195  19.711  1.00  0.00     0.185 HD
HETATM    3  C3  UNL     1       8.152  -0.921  19.497  1.00  0.00     0.156 C 
ENDROOT
BRANCH   1   4
HETATM    4  N2  UNL     1       8.434   0.665  21.223  1.00  0.00    -0.307 N 
ATOM      5  H2  UNL     1       8.669   1.657  21.265  1.00  0.00     0.182 HD
BRANCH   4   6
HETATM    6  C2  UNL     1       7.729   0.110  22.337  1.00  0.00     0.292 C 
HETATM    7  C1  UNL     1       6.299   0.588  22.381  1.00  0.00     0.064 C 
BRANCH   6   8
HETATM    8  N1  UNL     1       8.406   0.309  23.606  1.00  0.00    -0.058 N 
ATOM      9  H13 UNL     1       7.782   0.722  24.299  1.00  0.00     0.276 HD
ATOM     10  H12 UNL     1       8.593  -0.581  24.070  1.00  0.00     0.276 HD
ATOM     11  H11 UNL     1       9.259   0.859  23.500  1.00  0.00     0.276 HD
ENDBRANCH   6   8
ENDBRANCH   4   6
ENDBRANCH   1   4
BRANCH   3  12
HETATM   12  C4  UNL     1       8.761  -1.543  18.301  1.00  0.00     0.138 A 
HETATM   13  N4  UNL     1       8.257  -2.558  17.574  1.00  0.00    -0.335 N 
HETATM   14  C5  UNL     1       9.106  -2.830  16.572  1.00  0.00     0.199 A 
ATOM     15  H4  UNL     1       7.376  -3.040  17.755  1.00  0.00     0.168 HD
HETATM   16  N5  UNL     1      10.144  -1.983  16.672  1.00  0.00    -0.295 N 
HETATM   17  N6  UNL     1       9.923  -1.213  17.718  1.00  0.00    -0.283 N 
ATOM     18  H5  UNL     1      10.953  -1.943  16.053  1.00  0.00     0.187 HD
ATOM     19  H6  UNL     1      10.547  -0.473  18.039  1.00  0.00     0.188 HD
ENDBRANCH   3  12
TORSDOF 4
ENDMDL
MODEL 2
REMARK VINA RESULT: -4.892254144      1.225      5.606
REMARK  4 active torsions:
REMARK  status: ('A' for Active; 'I' for Inactive)
REMARK    1  A    between atoms: C2_2  and  N1_3 
REMARK    2  A    between atoms: C2_2  and  N2_7 
REMARK    3  A    between atoms: N2_7  and  N3_9 
REMARK    4  A    between atoms: C3_11  and  C4_12 
ROOT
HETATM    1  N3  UNL     1       9.476  -1.306  17.971  1.00  0.00    -0.311 N 
ATOM      2  H3  UNL     1      10.124  -0.686  18.456  1.00  0.00     0.185 HD
HETATM    3  C3  UNL     1       8.348  -1.493  18.515  1.00  0.00     0.156 C 
ENDROOT
BRANCH   1   4
HETATM    4  N2  UNL     1       9.915  -1.858  16.786  1.00  0.00    -0.307 N 
ATOM      5  H2  UNL     1      10.789  -2.384  16.810  1.00  0.00     0.182 HD
BRANCH   4   6
HETATM    6  C2  UNL     1       9.244  -1.754  15.526  1.00  0.00     0.292 C 
HETATM    7  C1  UNL     1       8.809  -3.105  15.018  1.00  0.00     0.064 C 
BRANCH   6   8
HETATM    8  N1  UNL     1      10.001  -1.018  14.529  1.00  0.00    -0.058 N 
ATOM      9  H13 UNL     1      10.727  -0.447  14.962  1.00  0.00     0.276 HD
ATOM     10  H12 UNL     1      10.593  -1.640  13.980  1.00  0.00     0.276 HD
ATOM     11  H11 UNL     1       9.396  -0.456  13.930  1.00  0.00     0.276 HD
ENDBRANCH   6   8
ENDBRANCH   4   6
ENDBRANCH   1   4
BRANCH   3  12
HETATM   12  C4  UNL     1       8.083  -0.798  19.793  1.00  0.00     0.138 A 
HETATM   13  N4  UNL     1       7.054  -1.017  20.633  1.00  0.00    -0.335 N 
HETATM   14  C5  UNL     1       7.170  -0.187  21.680  1.00  0.00     0.199 A 
ATOM     15  H4  UNL     1       6.309  -1.701  20.495  1.00  0.00     0.168 HD
HETATM   16  N5  UNL     1       8.275   0.554  21.495  1.00  0.00    -0.295 N 
HETATM   17  N6  UNL     1       8.816   0.175  20.355  1.00  0.00    -0.283 N 
ATOM     18  H5  UNL     1       8.631   1.276  22.121  1.00  0.00     0.187 HD
ATOM     19  H6  UNL     1       9.669   0.566  19.956  1.00  0.00     0.188 HD
ENDBRANCH   3  12
TORSDOF 4
ENDMDL
MODEL 3
REMARK VINA RESULT: -4.742016283      1.140      5.528
REMARK  4 active torsions:
REMARK  status: ('A' for Active; 'I' for Inactive)
REMARK    1  A    between atoms: C2_2  and  N1_3 
REMARK    2  A    between atoms: C2_2  and  N2_7 
REMARK    3  A    between atoms: N2_7  and  N3_9 
REMARK    4  A    between atoms: C3_11  and  C4_12 
ROOT
HETATM    1  N3  UNL     1       8.160  -1.635  18.535  1.00  0.00    -0.311 N 
ATOM      2  H3  UNL     1       9.010  -1.108  18.736  1.00  0.00     0.185 HD
HETATM    3  C3  UNL     1       7.229  -1.562  19.390  1.00  0.00     0.156 C 
ENDROOT
BRANCH   1   4
HETATM    4  N2  UNL     1       8.138  -2.355  17.360  1.00  0.00    -0.307 N 
ATOM      5  H2  UNL     1       7.536  -3.178  17.326  1.00  0.00     0.182 HD
BRANCH   4   6
HETATM    6  C2  UNL     1       8.890  -2.043  16.183  1.00  0.00     0.292 C 
HETATM    7  C1  UNL     1       8.829  -3.162  15.174  1.00  0.00     0.064 C 
BRANCH   6   8
HETATM    8  N1  UNL     1      10.256  -1.638  16.462  1.00  0.00    -0.058 N 
ATOM      9  H13 UNL     1      10.922  -2.354  16.171  1.00  0.00     0.276 HD
ATOM     10  H12 UNL     1      10.553  -0.883  15.844  1.00  0.00     0.276 HD
ATOM     11  H11 UNL     1      10.387  -1.388  17.443  1.00  0.00     0.276 HD
ENDBRANCH   6   8
ENDBRANCH   4   6
ENDBRANCH   1   4
BRANCH   3  12
HETATM   12  C4  UNL     1       7.465  -0.727  20.588  1.00  0.00     0.138 A 
HETATM   13  N4  UNL     1       6.741  -0.721  21.722  1.00  0.00    -0.335 N 
HETATM   14  C5  UNL     1       7.276   0.172  22.568  1.00  0.00     0.199 A 
ATOM     15  H4  UNL     1       5.921  -1.299  21.908  1.00  0.00     0.168 HD
HETATM   16  N5  UNL     1       8.338   0.727  21.960  1.00  0.00    -0.295 N 
HETATM   17  N6  UNL     1       8.440   0.176  20.768  1.00  0.00    -0.283 N 
ATOM     18  H5  UNL     1       8.952   1.442  22.349  1.00  0.00     0.187 HD
ATOM     19  H6  UNL     1       9.158   0.403  20.080  1.00  0.00     0.188 HD
ENDBRANCH   3  12
TORSDOF 4
ENDMDL
MODEL 4
REMARK VINA RESULT: -4.731060790      1.066      1.196
REMARK  4 active torsions:
REMARK  status: ('A' for Active; 'I' for Inactive)
REMARK    1  A    between atoms: C2_2  and  N1_3 
REMARK    2  A    between atoms: C2_2  and  N2_7 
REMARK    3  A    between atoms: N2_7  and  N3_9 
REMARK    4  A    between atoms: C3_11  and  C4_12 
ROOT
HETATM    1  N3  UNL     1       8.509  -0.180  20.051  1.00  0.00    -0.311 N 
ATOM      2  H3  UNL     1       7.645  -0.565  19.669  1.00  0.00     0.185 HD
HETATM    3  C3  UNL     1       9.575  -0.428  19.413  1.00  0.00     0.156 C 
ENDROOT
BRANCH   1   4
HETATM    4  N2  UNL     1       8.402   0.560  21.209  1.00  0.00    -0.307 N 
ATOM      5  H2  UNL     1       9.090   1.298  21.358  1.00  0.00     0.182 HD
BRANCH   4   6
HETATM    6  C2  UNL     1       7.405   0.377  22.219  1.00  0.00     0.292 C 
HETATM    7  C1  UNL     1       7.994   0.483  23.603  1.00  0.00     0.064 C 
BRANCH   6   8
HETATM    8  N1  UNL     1       6.631  -0.840  22.051  1.00  0.00    -0.058 N 
ATOM      9  H13 UNL     1       5.958  -0.749  21.290  1.00  0.00     0.276 HD
ATOM     10  H12 UNL     1       7.204  -1.594  21.670  1.00  0.00     0.276 HD
ATOM     11  H11 UNL     1       6.174  -1.124  22.918  1.00  0.00     0.276 HD
ENDBRANCH   6   8
ENDBRANCH   4   6
ENDBRANCH   1   4
BRANCH   3  12
HETATM   12  C4  UNL     1       9.462  -1.247  18.187  1.00  0.00     0.138 A 
HETATM   13  N4  UNL     1       8.461  -2.088  17.867  1.00  0.00    -0.335 N 
HETATM   14  C5  UNL     1       8.728  -2.639  16.675  1.00  0.00     0.199 A 
ATOM     15  H4  UNL     1       7.636  -2.274  18.438  1.00  0.00     0.168 HD
HETATM   16  N5  UNL     1       9.900  -2.143  16.247  1.00  0.00    -0.295 N 
HETATM   17  N6  UNL     1      10.332  -1.306  17.167  1.00  0.00    -0.283 N 
ATOM     18  H5  UNL     1      10.370  -2.372  15.371  1.00  0.00     0.187 HD
ATOM     19  H6  UNL     1      11.202  -0.777  17.113  1.00  0.00     0.188 HD
ENDBRANCH   3  12
TORSDOF 4
ENDMDL
MODEL 5
REMARK VINA RESULT: -4.611554621      1.399      5.694
REMARK  4 active torsions:
REMARK  status: ('A' for Active; 'I' for Inactive)
REMARK    1  A    between atoms: C2_2  and  N1_3 
REMARK    2  A    between atoms: C2_2  and  N2_7 
REMARK    3  A    between atoms: N2_7  and  N3_9 
REMARK    4  A    between atoms: C3_11  and  C4_12 
ROOT
HETATM    1  N3  UNL     1       9.388  -1.315  18.015  1.00  0.00    -0.311 N 
ATOM      2  H3  UNL     1       9.986  -0.695  18.560  1.00  0.00     0.185 HD
HETATM    3  C3  UNL     1       8.244  -1.571  18.494  1.00  0.00     0.156 C 
ENDROOT
BRANCH   1   4
HETATM    4  N2  UNL     1       9.904  -1.792  16.829  1.00  0.00    -0.307 N 
ATOM      5  H2  UNL     1      10.829  -2.221  16.860  1.00  0.00     0.182 HD
BRANCH   4   6
HETATM    6  C2  UNL     1       9.249  -1.734  15.558  1.00  0.00     0.292 C 
HETATM    7  C1  UNL     1       8.842  -3.106  15.082  1.00  0.00     0.064 C 
BRANCH   6   8
HETATM    8  N1  UNL     1      10.007  -1.014  14.551  1.00  0.00    -0.058 N 
ATOM      9  H13 UNL     1      10.993  -1.274  14.572  1.00  0.00     0.276 HD
ATOM     10  H12 UNL     1       9.776  -1.338  13.611  1.00  0.00     0.276 HD
ATOM     11  H11 UNL     1       9.888  -0.004  14.635  1.00  0.00     0.276 HD
ENDBRANCH   6   8
ENDBRANCH   4   6
ENDBRANCH   1   4
BRANCH   3  12
HETATM   12  C4  UNL     1       7.891  -0.950  19.788  1.00  0.00     0.138 A 
HETATM   13  N4  UNL     1       8.547   0.047  20.411  1.00  0.00    -0.335 N 
HETATM   14  C5  UNL     1       7.912   0.328  21.558  1.00  0.00     0.199 A 
ATOM     15  H4  UNL     1       9.388   0.512  20.067  1.00  0.00     0.168 HD
HETATM   16  N5  UNL     1       6.856  -0.496  21.654  1.00  0.00    -0.295 N 
HETATM   17  N6  UNL     1       6.855  -1.260  20.582  1.00  0.00    -0.283 N 
ATOM     18  H5  UNL     1       6.179  -0.525  22.417  1.00  0.00     0.187 HD
ATOM     19  H6  UNL     1       6.165  -1.984  20.383  1.00  0.00     0.188 HD
ENDBRANCH   3  12
TORSDOF 4
ENDMDL
