MODEL 1
REMARK VINA RESULT: -4.647974414      0.000      0.000
REMARK  5 active torsions:
REMARK  status: ('A' for Active; 'I' for Inactive)
REMARK    1  A    between atoms: C2_2  and  N1_3 
REMARK    2  A    between atoms: C2_2  and  C3_7 
REMARK    3  A    between atoms: C3_7  and  N2_8 
REMARK    4  A    between atoms: C3_7  and  N3_12 
REMARK    5  A    between atoms: N3_12  and  C4_14 
ROOT
HETATM    1  C3  UNL     1       8.324  -1.984  17.896  1.00  0.00     0.327 C 
ENDROOT
BRANCH   1   2
HETATM    2  C2  UNL     1       8.974  -2.033  16.562  1.00  0.00     0.229 C 
HETATM    3  C1  UNL     1       9.027  -3.469  16.019  1.00  0.00     0.043 C 
BRANCH   2   4
HETATM    4  N1  UNL     1      10.330  -1.568  16.546  1.00  0.00    -0.072 N 
ATOM      5  H13 UNL     1      10.938  -2.099  15.924  1.00  0.00     0.274 HD
ATOM      6  H12 UNL     1      10.448  -0.665  16.087  1.00  0.00     0.274 HD
ATOM      7  H11 UNL     1      10.631  -1.575  17.520  1.00  0.00     0.274 HD
ENDBRANCH   2   4
ENDBRANCH   1   2
BRANCH   1   8
HETATM    8  N2  UNL     1       6.871  -1.885  17.798  1.00  0.00    -0.056 N 
ATOM      9  H23 UNL     1       6.582  -1.609  16.860  1.00  0.00     0.276 HD
ATOM     10  H22 UNL     1       6.435  -2.807  17.838  1.00  0.00     0.276 HD
ATOM     11  H21 UNL     1       6.480  -1.261  18.503  1.00  0.00     0.276 HD
ENDBRANCH   1   8
BRANCH   1  12
HETATM   12  N3  UNL     1       8.784  -0.921  18.737  1.00  0.00    -0.193 N 
ATOM     13  H3  UNL     1       9.589  -0.386  18.412  1.00  0.00     0.180 HD
BRANCH  12  14
HETATM   14  C4  UNL     1       8.225  -0.548  19.969  1.00  0.00     0.695 A 
HETATM   15  N4  UNL     1       7.185  -1.017  20.659  1.00  0.00    -0.185 N 
HETATM   16  C5  UNL     1       7.003  -0.352  21.809  1.00  0.00     0.215 A 
ATOM     17  H4  UNL     1       6.596  -1.789  20.348  1.00  0.00     0.185 HD
HETATM   18  N5  UNL     1       7.980   0.574  21.833  1.00  0.00    -0.281 N 
HETATM   19  N6  UNL     1       8.717   0.469  20.741  1.00  0.00    -0.131 N 
ATOM     20  H5  UNL     1       8.128   1.253  22.580  1.00  0.00     0.188 HD
ATOM     21  H6  UNL     1       9.522   1.052  20.511  1.00  0.00     0.205 HD
ENDBRANCH  12  14
ENDBRANCH   1  12
TORSDOF 5
ENDMDL
MODEL 2
REMARK VINA RESULT: -4.623713855      1.543      5.082
REMARK  5 active torsions:
REMARK  status: ('A' for Active; 'I' for Inactive)
REMARK    1  A    between atoms: C2_2  and  N1_3 
REMARK    2  A    between atoms: C2_2  and  C3_7 
REMARK    3  A    between atoms: C3_7  and  N2_8 
REMARK    4  A    between atoms: C3_7  and  N3_12 
REMARK    5  A    between atoms: N3_12  and  C4_14 
ROOT
HETATM    1  C3  UNL     1       7.804   0.083  22.026  1.00  0.00     0.327 C 
ENDROOT
BRANCH   1   2
HETATM    2  C2  UNL     1       6.336  -0.081  21.882  1.00  0.00     0.229 C 
HETATM    3  C1  UNL     1       5.575   0.793  22.890  1.00  0.00     0.043 C 
BRANCH   2   4
HETATM    4  N1  UNL     1       5.865  -1.417  22.102  1.00  0.00    -0.072 N 
ATOM      5  H13 UNL     1       5.941  -1.724  23.071  1.00  0.00     0.274 HD
ATOM      6  H12 UNL     1       4.853  -1.514  22.024  1.00  0.00     0.274 HD
ATOM      7  H11 UNL     1       6.384  -2.000  21.445  1.00  0.00     0.274 HD
ENDBRANCH   2   4
ENDBRANCH   1   2
BRANCH   1   8
HETATM    8  N2  UNL     1       8.156   0.946  23.149  1.00  0.00    -0.056 N 
ATOM      9  H23 UNL     1       7.853   1.905  22.986  1.00  0.00     0.276 HD
ATOM     10  H22 UNL     1       7.588   0.733  23.970  1.00  0.00     0.276 HD
ATOM     11  H21 UNL     1       9.151   0.906  23.369  1.00  0.00     0.276 HD
ENDBRANCH   1   8
BRANCH   1  12
HETATM   12  N3  UNL     1       8.460   0.589  20.858  1.00  0.00    -0.193 N 
ATOM     13  H3  UNL     1       8.583   1.600  20.797  1.00  0.00     0.180 HD
BRANCH  12  14
HETATM   14  C4  UNL     1       8.948  -0.179  19.792  1.00  0.00     0.695 A 
HETATM   15  N4  UNL     1       8.365  -1.069  18.988  1.00  0.00    -0.185 N 
HETATM   16  C5  UNL     1       9.222  -1.572  18.088  1.00  0.00     0.215 A 
ATOM     17  H4  UNL     1       7.382  -1.336  19.051  1.00  0.00     0.185 HD
HETATM   18  N5  UNL     1      10.395  -0.964  18.347  1.00  0.00    -0.281 N 
HETATM   19  N6  UNL     1      10.247  -0.130  19.361  1.00  0.00    -0.131 N 
ATOM     20  H5  UNL     1      11.264  -1.122  17.838  1.00  0.00     0.188 HD
ATOM     21  H6  UNL     1      10.981   0.456  19.759  1.00  0.00     0.205 HD
ENDBRANCH  12  14
ENDBRANCH   1  12
TORSDOF 5
ENDMDL
MODEL 3
REMARK VINA RESULT: -4.400466333      1.153      4.599
REMARK  5 active torsions:
REMARK  status: ('A' for Active; 'I' for Inactive)
REMARK    1  A    between atoms: C2_2  and  N1_3 
REMARK    2  A    between atoms: C2_2  and  C3_7 
REMARK    3  A    between atoms: C3_7  and  N2_8 
REMARK    4  A    between atoms: C3_7  and  N3_12 
REMARK    5  A    between atoms: N3_12  and  C4_14 
ROOT
HETATM    1  C3  UNL     1       7.216  -0.878  19.910  1.00  0.00     0.327 C 
ENDROOT
BRANCH   1   2
HETATM    2  C2  UNL     1       8.183  -0.242  20.840  1.00  0.00     0.229 C 
HETATM    3  C1  UNL     1       7.467   0.426  22.022  1.00  0.00     0.043 C 
BRANCH   2   4
HETATM    4  N1  UNL     1       8.984   0.789  20.246  1.00  0.00    -0.072 N 
ATOM      5  H13 UNL     1       9.155   1.582  20.864  1.00  0.00     0.274 HD
ATOM      6  H12 UNL     1       9.961   0.526  20.115  1.00  0.00     0.274 HD
ATOM      7  H11 UNL     1       8.507   1.039  19.380  1.00  0.00     0.274 HD
ENDBRANCH   2   4
ENDBRANCH   1   2
BRANCH   1   8
HETATM    8  N2  UNL     1       5.993  -1.297  20.588  1.00  0.00    -0.056 N 
ATOM      9  H23 UNL     1       6.204  -1.814  21.441  1.00  0.00     0.276 HD
ATOM     10  H22 UNL     1       5.507  -0.499  20.998  1.00  0.00     0.276 HD
ATOM     11  H21 UNL     1       5.377  -1.830  19.976  1.00  0.00     0.276 HD
ENDBRANCH   1   8
BRANCH   1  12
HETATM   12  N3  UNL     1       7.735  -2.006  19.198  1.00  0.00    -0.193 N 
ATOM     13  H3  UNL     1       7.633  -2.920  19.639  1.00  0.00     0.180 HD
BRANCH  12  14
HETATM   14  C4  UNL     1       8.371  -1.968  17.948  1.00  0.00     0.695 A 
HETATM   15  N4  UNL     1       7.937  -2.229  16.715  1.00  0.00    -0.185 N 
HETATM   16  C5  UNL     1       8.900  -2.061  15.797  1.00  0.00     0.215 A 
ATOM     17  H4  UNL     1       6.985  -2.522  16.495  1.00  0.00     0.185 HD
HETATM   18  N5  UNL     1       9.984  -1.676  16.497  1.00  0.00    -0.281 N 
HETATM   19  N6  UNL     1       9.683  -1.617  17.782  1.00  0.00    -0.131 N 
ATOM     20  H5  UNL     1      10.898  -1.464  16.096  1.00  0.00     0.188 HD
ATOM     21  H6  UNL     1      10.325  -1.351  18.529  1.00  0.00     0.205 HD
ENDBRANCH  12  14
ENDBRANCH   1  12
TORSDOF 5
ENDMDL
MODEL 4
REMARK VINA RESULT: -4.379025716      0.515      1.103
REMARK  5 active torsions:
REMARK  status: ('A' for Active; 'I' for Inactive)
REMARK    1  A    between atoms: C2_2  and  N1_3 
REMARK    2  A    between atoms: C2_2  and  C3_7 
REMARK    3  A    between atoms: C3_7  and  N2_8 
REMARK    4  A    between atoms: C3_7  and  N3_12 
REMARK    5  A    between atoms: N3_12  and  C4_14 
ROOT
HETATM    1  C3  UNL     1       8.277  -1.973  18.004  1.00  0.00     0.327 C 
ENDROOT
BRANCH   1   2
HETATM    2  C2  UNL     1       9.004  -2.055  16.712  1.00  0.00     0.229 C 
HETATM    3  C1  UNL     1       9.170  -3.511  16.255  1.00  0.00     0.043 C 
BRANCH   2   4
HETATM    4  N1  UNL     1      10.330  -1.510  16.745  1.00  0.00    -0.072 N 
ATOM      5  H13 UNL     1      10.621  -1.194  17.670  1.00  0.00     0.274 HD
ATOM      6  H12 UNL     1      11.063  -2.208  16.620  1.00  0.00     0.274 HD
ATOM      7  H11 UNL     1      10.339  -0.775  16.038  1.00  0.00     0.274 HD
ENDBRANCH   2   4
ENDBRANCH   1   2
BRANCH   1   8
HETATM    8  N2  UNL     1       6.831  -1.884  17.818  1.00  0.00    -0.056 N 
ATOM      9  H23 UNL     1       6.547  -2.304  16.934  1.00  0.00     0.276 HD
ATOM     10  H22 UNL     1       6.338  -2.505  18.460  1.00  0.00     0.276 HD
ATOM     11  H21 UNL     1       6.492  -0.926  17.898  1.00  0.00     0.276 HD
ENDBRANCH   1   8
BRANCH   1  12
HETATM   12  N3  UNL     1       8.682  -0.887  18.843  1.00  0.00    -0.193 N 
ATOM     13  H3  UNL     1       9.448  -0.303  18.509  1.00  0.00     0.180 HD
BRANCH  12  14
HETATM   14  C4  UNL     1       8.119  -0.553  20.084  1.00  0.00     0.695 A 
HETATM   15  N4  UNL     1       8.425   0.382  20.983  1.00  0.00    -0.185 N 
HETATM   16  C5  UNL     1       7.609   0.344  22.046  1.00  0.00     0.215 A 
ATOM     17  H4  UNL     1       9.190   1.048  20.875  1.00  0.00     0.185 HD
HETATM   18  N5  UNL     1       6.755  -0.665  21.793  1.00  0.00    -0.281 N 
HETATM   19  N6  UNL     1       7.047  -1.210  20.626  1.00  0.00    -0.131 N 
ATOM     20  H5  UNL     1       5.998  -0.963  22.408  1.00  0.00     0.188 HD
ATOM     21  H6  UNL     1       6.554  -1.993  20.197  1.00  0.00     0.205 HD
ENDBRANCH  12  14
ENDBRANCH   1  12
TORSDOF 5
ENDMDL
MODEL 5
REMARK VINA RESULT: -4.346390473      1.823      5.512
REMARK  5 active torsions:
REMARK  status: ('A' for Active; 'I' for Inactive)
REMARK    1  A    between atoms: C2_2  and  N1_3 
REMARK    2  A    between atoms: C2_2  and  C3_7 
REMARK    3  A    between atoms: C3_7  and  N2_8 
REMARK    4  A    between atoms: C3_7  and  N3_12 
REMARK    5  A    between atoms: N3_12  and  C4_14 
ROOT
HETATM    1  C3  UNL     1       7.591   0.120  22.341  1.00  0.00     0.327 C 
ENDROOT
BRANCH   1   2
HETATM    2  C2  UNL     1       6.208   0.645  22.465  1.00  0.00     0.229 C 
HETATM    3  C1  UNL     1       6.135   1.796  23.478  1.00  0.00     0.043 C 
BRANCH   2   4
HETATM    4  N1  UNL     1       5.247  -0.321  22.913  1.00  0.00    -0.072 N 
ATOM      5  H13 UNL     1       4.414  -0.372  22.328  1.00  0.00     0.274 HD
ATOM      6  H12 UNL     1       5.546  -1.288  22.783  1.00  0.00     0.274 HD
ATOM      7  H11 UNL     1       5.052  -0.080  23.885  1.00  0.00     0.274 HD
ENDBRANCH   2   4
ENDBRANCH   1   2
BRANCH   1   8
HETATM    8  N2  UNL     1       8.382   0.361  23.545  1.00  0.00    -0.056 N 
ATOM      9  H23 UNL     1       8.108   1.232  23.998  1.00  0.00     0.276 HD
ATOM     10  H22 UNL     1       8.133  -0.293  24.287  1.00  0.00     0.276 HD
ATOM     11  H21 UNL     1       9.384   0.342  23.357  1.00  0.00     0.276 HD
ENDBRANCH   1   8
BRANCH   1  12
HETATM   12  N3  UNL     1       8.321   0.636  21.223  1.00  0.00    -0.193 N 
ATOM     13  H3  UNL     1       8.551   1.630  21.238  1.00  0.00     0.180 HD
BRANCH  12  14
HETATM   14  C4  UNL     1       8.748  -0.102  20.109  1.00  0.00     0.695 A 
HETATM   15  N4  UNL     1       9.904  -0.134  19.447  1.00  0.00    -0.185 N 
HETATM   16  C5  UNL     1       9.875  -1.001  18.425  1.00  0.00     0.215 A 
ATOM     17  H4  UNL     1      10.716   0.435  19.688  1.00  0.00     0.185 HD
HETATM   18  N5  UNL     1       8.638  -1.533  18.456  1.00  0.00    -0.281 N 
HETATM   19  N6  UNL     1       7.955  -1.005  19.456  1.00  0.00    -0.131 N 
ATOM     20  H5  UNL     1       8.284  -2.236  17.807  1.00  0.00     0.188 HD
ATOM     21  H6  UNL     1       6.992  -1.235  19.702  1.00  0.00     0.205 HD
ENDBRANCH  12  14
ENDBRANCH   1  12
TORSDOF 5
ENDMDL
