MODEL 1
REMARK VINA RESULT: -4.558877446      0.000      0.000
REMARK  5 active torsions:
REMARK  status: ('A' for Active; 'I' for Inactive)
REMARK    1  A    between atoms: N1_1  and  C1_4 
REMARK    2  A    between atoms: N3_8  and  C3_9 
REMARK    3  A    between atoms: C3_9  and  C4_10 
REMARK    4  A    between atoms: C4_10  and  C5_11 
REMARK    5  A    between atoms: C5_11  and  N4_12 
ROOT
HETATM    1  C1  UNL     1       8.459  -0.100  20.412  1.00  0.00     0.691 A 
HETATM    2  N2  UNL     1       9.637   0.014  19.776  1.00  0.00    -0.185 N 
ATOM      3  H2  UNL     1      10.420   0.602  20.061  1.00  0.00     0.185 HD
HETATM    4  C2  UNL     1       9.597  -0.783  18.698  1.00  0.00     0.218 A 
HETATM    5  N3  UNL     1       8.403  -1.407  18.639  1.00  0.00    -0.273 N 
HETATM    6  N5  UNL     1       7.732  -0.972  19.694  1.00  0.00    -0.129 N 
ATOM      7  H5  UNL     1       6.784  -1.263  19.931  1.00  0.00     0.206 HD
ENDROOT
BRANCH   5   8
HETATM    8  C3  UNL     1       8.000  -2.339  17.620  1.00  0.00     0.152 C 
BRANCH   8   9
HETATM    9  C4  UNL     1       9.120  -2.690  16.674  1.00  0.00     0.049 C 
BRANCH   9  10
HETATM   10  C5  UNL     1       8.781  -2.024  15.335  1.00  0.00     0.231 C 
BRANCH  10  11
HETATM   11  N4  UNL     1       9.909  -1.189  14.979  1.00  0.00    -0.079 N 
ATOM     12  H43 UNL     1      10.714  -1.322  15.590  1.00  0.00     0.274 HD
ATOM     13  H42 UNL     1      10.358  -1.472  14.108  1.00  0.00     0.274 HD
ATOM     14  H41 UNL     1       9.574  -0.226  14.961  1.00  0.00     0.274 HD
ENDBRANCH  10  11
ENDBRANCH   9  10
ENDBRANCH   8   9
ENDBRANCH   5   8
BRANCH   1  15
HETATM   15  N1  UNL     1       8.100   0.518  21.511  1.00  0.00    -0.233 N 
ATOM     16  H12 UNL     1       7.787   1.485  21.602  1.00  0.00     0.174 HD
ATOM     17  H11 UNL     1       8.078   0.124  22.451  1.00  0.00     0.174 HD
ENDBRANCH   1  15
TORSDOF 5
ENDMDL
MODEL 2
REMARK VINA RESULT: -4.520437315      1.410      4.776
REMARK  5 active torsions:
REMARK  status: ('A' for Active; 'I' for Inactive)
REMARK    1  A    between atoms: N1_1  and  C1_4 
REMARK    2  A    between atoms: N3_8  and  C3_9 
REMARK    3  A    between atoms: C3_9  and  C4_10 
REMARK    4  A    between atoms: C4_10  and  C5_11 
REMARK    5  A    between atoms: C5_11  and  N4_12 
ROOT
HETATM    1  C1  UNL     1       9.046  -2.537  16.270  1.00  0.00     0.691 A 
HETATM    2  N2  UNL     1      10.054  -1.777  16.728  1.00  0.00    -0.185 N 
ATOM      3  H2  UNL     1      10.942  -1.607  16.256  1.00  0.00     0.185 HD
HETATM    4  C2  UNL     1       9.683  -1.282  17.918  1.00  0.00     0.218 A 
HETATM    5  N3  UNL     1       8.446  -1.718  18.226  1.00  0.00    -0.273 N 
HETATM    6  N5  UNL     1       8.083  -2.480  17.206  1.00  0.00    -0.129 N 
ATOM      7  H5  UNL     1       7.186  -2.961  17.138  1.00  0.00     0.206 HD
ENDROOT
BRANCH   5   8
HETATM    8  C3  UNL     1       7.721  -1.393  19.425  1.00  0.00     0.152 C 
BRANCH   8   9
HETATM    9  C4  UNL     1       8.317  -0.222  20.166  1.00  0.00     0.049 C 
BRANCH   9  10
HETATM   10  C5  UNL     1       7.444  -0.008  21.410  1.00  0.00     0.231 C 
BRANCH  10  11
HETATM   11  N4  UNL     1       8.269   0.657  22.396  1.00  0.00    -0.079 N 
ATOM     12  H43 UNL     1       8.906   0.024  22.878  1.00  0.00     0.274 HD
ATOM     13  H42 UNL     1       8.976   1.265  21.984  1.00  0.00     0.274 HD
ATOM     14  H41 UNL     1       7.639   1.150  23.029  1.00  0.00     0.274 HD
ENDBRANCH  10  11
ENDBRANCH   9  10
ENDBRANCH   8   9
ENDBRANCH   5   8
BRANCH   1  15
HETATM   15  N1  UNL     1       9.015  -3.198  15.138  1.00  0.00    -0.233 N 
ATOM     16  H12 UNL     1       8.668  -2.866  14.238  1.00  0.00     0.174 HD
ATOM     17  H11 UNL     1       9.337  -4.153  14.982  1.00  0.00     0.174 HD
ENDBRANCH   1  15
TORSDOF 5
ENDMDL
MODEL 3
REMARK VINA RESULT: -4.448231243      1.194      1.852
REMARK  5 active torsions:
REMARK  status: ('A' for Active; 'I' for Inactive)
REMARK    1  A    between atoms: N1_1  and  C1_4 
REMARK    2  A    between atoms: N3_8  and  C3_9 
REMARK    3  A    between atoms: C3_9  and  C4_10 
REMARK    4  A    between atoms: C4_10  and  C5_11 
REMARK    5  A    between atoms: C5_11  and  N4_12 
ROOT
HETATM    1  C1  UNL     1       7.804   0.143  21.491  1.00  0.00     0.691 A 
HETATM    2  N2  UNL     1       6.830  -0.742  21.224  1.00  0.00    -0.185 N 
ATOM      3  H2  UNL     1       6.006  -0.921  21.798  1.00  0.00     0.185 HD
HETATM    4  C2  UNL     1       7.134  -1.346  20.065  1.00  0.00     0.218 A 
HETATM    5  N3  UNL     1       8.296  -0.855  19.589  1.00  0.00    -0.273 N 
HETATM    6  N5  UNL     1       8.680   0.049  20.477  1.00  0.00    -0.129 N 
ATOM      7  H5  UNL     1       9.533   0.603  20.400  1.00  0.00     0.206 HD
ENDROOT
BRANCH   5   8
HETATM    8  C3  UNL     1       8.935  -1.265  18.368  1.00  0.00     0.152 C 
BRANCH   8   9
HETATM    9  C4  UNL     1       8.209  -2.394  17.680  1.00  0.00     0.049 C 
BRANCH   9  10
HETATM   10  C5  UNL     1       9.113  -2.852  16.529  1.00  0.00     0.231 C 
BRANCH  10  11
HETATM   11  N4  UNL     1      10.057  -1.784  16.280  1.00  0.00    -0.079 N 
ATOM     12  H43 UNL     1       9.609  -0.909  16.009  1.00  0.00     0.274 HD
ATOM     13  H42 UNL     1      10.508  -1.442  17.128  1.00  0.00     0.274 HD
ATOM     14  H41 UNL     1      10.720  -2.126  15.585  1.00  0.00     0.274 HD
ENDBRANCH  10  11
ENDBRANCH   9  10
ENDBRANCH   8   9
ENDBRANCH   5   8
BRANCH   1  15
HETATM   15  N1  UNL     1       7.878   0.935  22.533  1.00  0.00    -0.233 N 
ATOM     16  H12 UNL     1       7.595   0.725  23.491  1.00  0.00     0.174 HD
ATOM     17  H11 UNL     1       8.232   1.892  22.547  1.00  0.00     0.174 HD
ENDBRANCH   1  15
TORSDOF 5
ENDMDL
MODEL 4
REMARK VINA RESULT: -4.400335968      0.888      1.413
REMARK  5 active torsions:
REMARK  status: ('A' for Active; 'I' for Inactive)
REMARK    1  A    between atoms: N1_1  and  C1_4 
REMARK    2  A    between atoms: N3_8  and  C3_9 
REMARK    3  A    between atoms: C3_9  and  C4_10 
REMARK    4  A    between atoms: C4_10  and  C5_11 
REMARK    5  A    between atoms: C5_11  and  N4_12 
ROOT
HETATM    1  C1  UNL     1       8.483  -0.374  19.995  1.00  0.00     0.691 A 
HETATM    2  N2  UNL     1       7.456  -1.184  19.686  1.00  0.00    -0.185 N 
ATOM      3  H2  UNL     1       6.587  -1.280  20.211  1.00  0.00     0.185 HD
HETATM    4  C2  UNL     1       7.780  -1.842  18.563  1.00  0.00     0.218 A 
HETATM    5  N3  UNL     1       9.006  -1.461  18.151  1.00  0.00    -0.273 N 
HETATM    6  N5  UNL     1       9.408  -0.568  19.041  1.00  0.00    -0.129 N 
ATOM      7  H5  UNL     1      10.307  -0.087  19.006  1.00  0.00     0.206 HD
ENDROOT
BRANCH   5   8
HETATM    8  C3  UNL     1       9.683  -1.955  16.983  1.00  0.00     0.152 C 
BRANCH   8   9
HETATM    9  C4  UNL     1       8.740  -2.571  15.979  1.00  0.00     0.049 C 
BRANCH   9  10
HETATM   10  C5  UNL     1       8.736  -1.639  14.761  1.00  0.00     0.231 C 
BRANCH  10  11
HETATM   11  N4  UNL     1      10.040  -1.014  14.699  1.00  0.00    -0.079 N 
ATOM     12  H43 UNL     1      10.099  -0.155  15.246  1.00  0.00     0.274 HD
ATOM     13  H42 UNL     1      10.758  -1.537  15.200  1.00  0.00     0.274 HD
ATOM     14  H41 UNL     1      10.260  -0.876  13.713  1.00  0.00     0.274 HD
ENDBRANCH  10  11
ENDBRANCH   9  10
ENDBRANCH   8   9
ENDBRANCH   5   8
BRANCH   1  15
HETATM   15  N1  UNL     1       8.557   0.437  21.022  1.00  0.00    -0.233 N 
ATOM     16  H12 UNL     1       8.902   1.398  21.028  1.00  0.00     0.174 HD
ATOM     17  H11 UNL     1       8.279   0.232  21.982  1.00  0.00     0.174 HD
ENDBRANCH   1  15
TORSDOF 5
ENDMDL
MODEL 5
REMARK VINA RESULT: -4.258329188      1.421      4.890
REMARK  5 active torsions:
REMARK  status: ('A' for Active; 'I' for Inactive)
REMARK    1  A    between atoms: N1_1  and  C1_4 
REMARK    2  A    between atoms: N3_8  and  C3_9 
REMARK    3  A    between atoms: C3_9  and  C4_10 
REMARK    4  A    between atoms: C4_10  and  C5_11 
REMARK    5  A    between atoms: C5_11  and  N4_12 
ROOT
HETATM    1  C1  UNL     1       9.204  -1.805  17.221  1.00  0.00     0.691 A 
HETATM    2  N2  UNL     1       7.994  -2.285  16.891  1.00  0.00    -0.185 N 
ATOM      3  H2  UNL     1       7.743  -2.726  16.006  1.00  0.00     0.185 HD
HETATM    4  C2  UNL     1       7.175  -2.079  17.933  1.00  0.00     0.218 A 
HETATM    5  N3  UNL     1       7.851  -1.471  18.928  1.00  0.00    -0.273 N 
HETATM    6  N5  UNL     1       9.082  -1.317  18.467  1.00  0.00    -0.129 N 
ATOM      7  H5  UNL     1       9.842  -0.883  18.992  1.00  0.00     0.206 HD
ENDROOT
BRANCH   5   8
HETATM    8  C3  UNL     1       7.299  -1.094  20.201  1.00  0.00     0.152 C 
BRANCH   8   9
HETATM    9  C4  UNL     1       8.056   0.038  20.852  1.00  0.00     0.049 C 
BRANCH   9  10
HETATM   10  C5  UNL     1       7.354   0.317  22.187  1.00  0.00     0.231 C 
BRANCH  10  11
HETATM   11  N4  UNL     1       8.389   0.438  23.192  1.00  0.00    -0.079 N 
ATOM     12  H43 UNL     1       9.145   1.063  22.915  1.00  0.00     0.274 HD
ATOM     13  H42 UNL     1       8.087   0.955  24.018  1.00  0.00     0.274 HD
ATOM     14  H41 UNL     1       8.709  -0.507  23.407  1.00  0.00     0.274 HD
ENDBRANCH  10  11
ENDBRANCH   9  10
ENDBRANCH   8   9
ENDBRANCH   5   8
BRANCH   1  15
HETATM   15  N1  UNL     1      10.281  -1.814  16.473  1.00  0.00    -0.233 N 
ATOM     16  H12 UNL     1      10.480  -1.221  15.667  1.00  0.00     0.174 HD
ATOM     17  H11 UNL     1      11.093  -2.421  16.584  1.00  0.00     0.174 HD
ENDBRANCH   1  15
TORSDOF 5
ENDMDL
