MODEL 1
REMARK VINA RESULT: -9.113056272      0.000      0.000
REMARK  9 active torsions:
REMARK  status: ('A' for Active; 'I' for Inactive)
REMARK    1  A    between atoms: C2_10  and  N5_11 
REMARK    2  A    between atoms: C3_17  and  N7_18 
REMARK    3  A    between atoms: N7_18  and  C4_20 
REMARK    4  A    between atoms: N8_22  and  C6_23 
REMARK    5  A    between atoms: C6_23  and  C7_24 
REMARK    6  A    between atoms: C7_24  and  C8_26 
REMARK    7  A    between atoms: C8_26  and  C9_27 
REMARK    8  A    between atoms: N11_32  and  C10_33 
REMARK    9  A    between atoms: C14_37  and  O2_38 
ROOT
HETATM    1  C4  UNL     1      13.879  -1.079  -3.958  1.00  0.00     0.140 A 
HETATM    2  C5  UNL     1      14.039  -0.728  -5.278  1.00  0.00     0.162 A 
HETATM    3  N8  UNL     1      15.367  -0.751  -5.572  1.00  0.00    -0.278 N 
HETATM    4  N13 UNL     1      15.988  -1.106  -4.462  1.00  0.00    -0.239 N 
ATOM      5  H13 UNL     1      16.998  -1.211  -4.370  1.00  0.00     0.208 HD
HETATM    6  N14 UNL     1      15.111  -1.308  -3.482  1.00  0.00    -0.270 N 
ATOM      7  H14 UNL     1      15.338  -1.590  -2.528  1.00  0.00     0.190 HD
ENDROOT
BRANCH   3   8
HETATM    8  C6  UNL     1      15.968  -0.449  -6.839  1.00  0.00     0.228 C 
BRANCH   8   9
HETATM    9  C7  UNL     1      16.903  -1.564  -7.184  1.00  0.00     0.153 C 
HETATM   10  O1  UNL     1      16.454  -2.660  -7.388  1.00  0.00    -0.296 OA
BRANCH   9  11
HETATM   11  C8  UNL     1      18.366  -1.333  -7.275  1.00  0.00     0.159 C 
BRANCH  11  12
HETATM   12  C9  UNL     1      19.045  -2.348  -6.429  1.00  0.00     0.120 A 
HETATM   13  N9  UNL     1      20.298  -2.829  -6.533  1.00  0.00    -0.271 N 
HETATM   14  N10 UNL     1      20.477  -3.711  -5.576  1.00  0.00    -0.220 N 
ATOM     15  H9  UNL     1      20.988  -2.557  -7.234  1.00  0.00     0.190 HD
HETATM   16  N11 UNL     1      19.396  -3.837  -4.837  1.00  0.00    -0.181 N 
ATOM     17  H10 UNL     1      21.342  -4.230  -5.425  1.00  0.00     0.210 HD
HETATM   18  N12 UNL     1      18.513  -3.002  -5.357  1.00  0.00    -0.265 N 
ATOM     19  H12 UNL     1      17.566  -2.866  -5.005  1.00  0.00     0.190 HD
BRANCH  16  20
HETATM   20  C10 UNL     1      19.253  -4.706  -3.718  1.00  0.00     0.079 A 
HETATM   21  C11 UNL     1      18.327  -4.405  -2.729  1.00  0.00     0.033 A 
HETATM   22  C12 UNL     1      18.145  -5.204  -1.627  1.00  0.00     0.005 A 
HETATM   23  C13 UNL     1      18.881  -6.351  -1.457  1.00  0.00     0.036 A 
HETATM   24  C14 UNL     1      19.812  -6.666  -2.437  1.00  0.00     0.068 A 
HETATM   25  C15 UNL     1      19.995  -5.857  -3.550  1.00  0.00     0.069 A 
BRANCH  24  26
HETATM   26  O2  UNL     1      20.553  -7.835  -2.248  1.00  0.00    -0.361 OA
ATOM     27  H2  UNL     1      20.771  -8.334  -3.026  1.00  0.00     0.217 HD
ENDBRANCH  24  26
ENDBRANCH  16  20
ENDBRANCH  11  12
ENDBRANCH   9  11
ENDBRANCH   8   9
ENDBRANCH   3   8
BRANCH   1  28
HETATM   28  N7  UNL     1      12.661  -1.176  -3.258  1.00  0.00    -0.323 N 
ATOM     29  H7  UNL     1      12.089  -0.346  -3.102  1.00  0.00     0.169 HD
BRANCH  28  30
HETATM   30  C3  UNL     1      12.238  -2.431  -2.776  1.00  0.00     0.151 C 
HETATM   31  C1  UNL     1      11.760  -2.423  -1.401  1.00  0.00     0.157 C 
HETATM   32  N1  UNL     1      11.580  -1.243  -0.920  1.00  0.00    -0.382 N 
HETATM   33  N2  UNL     1      11.463  -3.512  -0.514  1.00  0.00    -0.267 N 
ATOM     34  H12 UNL     1      11.245  -1.237   0.044  1.00  0.00     0.157 HD
ATOM     35  H11 UNL     1      11.791  -0.469  -1.550  1.00  0.00     0.157 HD
HETATM   36  N3  UNL     1      11.534  -4.877  -0.901  1.00  0.00    -0.022 NA
ATOM     37  H2  UNL     1      11.187  -3.294   0.443  1.00  0.00     0.186 HD
HETATM   38  N4  UNL     1      10.985  -4.964  -2.166  1.00  0.00    -0.274 N 
HETATM   39  C2  UNL     1      11.913  -4.863  -3.251  1.00  0.00     0.401 C 
ATOM     40  H4  UNL     1       9.985  -5.092  -2.317  1.00  0.00     0.181 HD
HETATM   41  N6  UNL     1      12.292  -3.474  -3.532  1.00  0.00    -0.329 N 
ATOM     42  H6  UNL     1      12.654  -3.307  -4.471  1.00  0.00     0.165 HD
BRANCH  39  43
HETATM   43  N5  UNL     1      11.218  -5.345  -4.450  1.00  0.00    -0.040 N 
ATOM     44  H53 UNL     1      10.349  -4.846  -4.639  1.00  0.00     0.279 HD
ATOM     45  H52 UNL     1      11.697  -5.102  -5.317  1.00  0.00     0.279 HD
ATOM     46  H51 UNL     1      11.087  -6.349  -4.331  1.00  0.00     0.279 HD
ENDBRANCH  39  43
ENDBRANCH  28  30
ENDBRANCH   1  28
TORSDOF 9
ENDMDL
MODEL 2
REMARK VINA RESULT: -8.995542877      2.179      3.019
REMARK  9 active torsions:
REMARK  status: ('A' for Active; 'I' for Inactive)
REMARK    1  A    between atoms: C2_10  and  N5_11 
REMARK    2  A    between atoms: C3_17  and  N7_18 
REMARK    3  A    between atoms: N7_18  and  C4_20 
REMARK    4  A    between atoms: N8_22  and  C6_23 
REMARK    5  A    between atoms: C6_23  and  C7_24 
REMARK    6  A    between atoms: C7_24  and  C8_26 
REMARK    7  A    between atoms: C8_26  and  C9_27 
REMARK    8  A    between atoms: N11_32  and  C10_33 
REMARK    9  A    between atoms: C14_37  and  O2_38 
ROOT
HETATM    1  C4  UNL     1      14.129  -4.980  -6.783  1.00  0.00     0.140 A 
HETATM    2  C5  UNL     1      14.390  -3.950  -7.657  1.00  0.00     0.162 A 
HETATM    3  N8  UNL     1      15.705  -3.617  -7.548  1.00  0.00    -0.278 N 
HETATM    4  N13 UNL     1      16.218  -4.422  -6.636  1.00  0.00    -0.239 N 
ATOM      5  H13 UNL     1      17.193  -4.412  -6.335  1.00  0.00     0.208 HD
HETATM    6  N14 UNL     1      15.287  -5.248  -6.165  1.00  0.00    -0.270 N 
ATOM      7  H14 UNL     1      15.431  -5.965  -5.454  1.00  0.00     0.190 HD
ENDROOT
BRANCH   3   8
HETATM    8  C6  UNL     1      16.391  -2.593  -8.282  1.00  0.00     0.228 C 
BRANCH   8   9
HETATM    9  C7  UNL     1      16.987  -1.640  -7.295  1.00  0.00     0.153 C 
HETATM   10  O1  UNL     1      16.267  -1.094  -6.503  1.00  0.00    -0.296 OA
BRANCH   9  11
HETATM   11  C8  UNL     1      18.445  -1.362  -7.286  1.00  0.00     0.159 C 
BRANCH  11  12
HETATM   12  C9  UNL     1      19.099  -2.374  -6.416  1.00  0.00     0.120 A 
HETATM   13  N9  UNL     1      20.347  -2.873  -6.497  1.00  0.00    -0.271 N 
HETATM   14  N10 UNL     1      20.501  -3.743  -5.525  1.00  0.00    -0.220 N 
ATOM     15  H9  UNL     1      21.050  -2.620  -7.192  1.00  0.00     0.190 HD
HETATM   16  N11 UNL     1      19.410  -3.845  -4.799  1.00  0.00    -0.181 N 
ATOM     17  H10 UNL     1      21.357  -4.270  -5.355  1.00  0.00     0.210 HD
HETATM   18  N12 UNL     1      18.545  -3.006  -5.342  1.00  0.00    -0.265 N 
ATOM     19  H12 UNL     1      17.594  -2.852  -5.005  1.00  0.00     0.190 HD
BRANCH  16  20
HETATM   20  C10 UNL     1      19.241  -4.696  -3.670  1.00  0.00     0.079 A 
HETATM   21  C11 UNL     1      18.301  -4.373  -2.701  1.00  0.00     0.033 A 
HETATM   22  C12 UNL     1      18.093  -5.153  -1.591  1.00  0.00     0.005 A 
HETATM   23  C13 UNL     1      18.817  -6.304  -1.391  1.00  0.00     0.036 A 
HETATM   24  C14 UNL     1      19.761  -6.641  -2.351  1.00  0.00     0.068 A 
HETATM   25  C15 UNL     1      19.970  -5.849  -3.472  1.00  0.00     0.069 A 
BRANCH  24  26
HETATM   26  O2  UNL     1      20.489  -7.813  -2.132  1.00  0.00    -0.361 OA
ATOM     27  H2  UNL     1      21.216  -7.981  -2.719  1.00  0.00     0.217 HD
ENDBRANCH  24  26
ENDBRANCH  16  20
ENDBRANCH  11  12
ENDBRANCH   9  11
ENDBRANCH   8   9
ENDBRANCH   3   8
BRANCH   1  28
HETATM   28  N7  UNL     1      12.887  -5.616  -6.586  1.00  0.00    -0.323 N 
ATOM     29  H7  UNL     1      12.631  -6.428  -7.147  1.00  0.00     0.169 HD
BRANCH  28  30
HETATM   30  C3  UNL     1      12.004  -5.120  -5.607  1.00  0.00     0.151 C 
HETATM   31  C1  UNL     1      10.832  -4.438  -6.137  1.00  0.00     0.157 C 
HETATM   32  N1  UNL     1      10.667  -4.596  -7.404  1.00  0.00    -0.382 N 
HETATM   33  N2  UNL     1       9.848  -3.630  -5.473  1.00  0.00    -0.267 N 
ATOM     34  H12 UNL     1       9.846  -4.118  -7.775  1.00  0.00     0.157 HD
ATOM     35  H11 UNL     1      11.366  -5.170  -7.875  1.00  0.00     0.157 HD
HETATM   36  N3  UNL     1       9.832  -3.412  -4.069  1.00  0.00    -0.022 NA
ATOM     37  H2  UNL     1       9.122  -3.190  -6.039  1.00  0.00     0.186 HD
HETATM   38  N4  UNL     1      10.118  -4.625  -3.472  1.00  0.00    -0.274 N 
HETATM   39  C2  UNL     1      11.498  -4.857  -3.174  1.00  0.00     0.401 C 
ATOM     40  H4  UNL     1       9.393  -5.310  -3.259  1.00  0.00     0.181 HD
HETATM   41  N6  UNL     1      12.260  -5.282  -4.353  1.00  0.00    -0.329 N 
ATOM     42  H6  UNL     1      13.125  -5.782  -4.151  1.00  0.00     0.165 HD
BRANCH  39  43
HETATM   43  N5  UNL     1      11.544  -5.984  -2.234  1.00  0.00    -0.040 N 
ATOM     44  H53 UNL     1      10.972  -5.838  -1.403  1.00  0.00     0.279 HD
ATOM     45  H52 UNL     1      11.063  -6.815  -2.578  1.00  0.00     0.279 HD
ATOM     46  H51 UNL     1      12.528  -6.149  -2.020  1.00  0.00     0.279 HD
ENDBRANCH  39  43
ENDBRANCH  28  30
ENDBRANCH   1  28
TORSDOF 9
ENDMDL
MODEL 3
REMARK VINA RESULT: -8.960587788      2.012      3.153
REMARK  9 active torsions:
REMARK  status: ('A' for Active; 'I' for Inactive)
REMARK    1  A    between atoms: C2_10  and  N5_11 
REMARK    2  A    between atoms: C3_17  and  N7_18 
REMARK    3  A    between atoms: N7_18  and  C4_20 
REMARK    4  A    between atoms: N8_22  and  C6_23 
REMARK    5  A    between atoms: C6_23  and  C7_24 
REMARK    6  A    between atoms: C7_24  and  C8_26 
REMARK    7  A    between atoms: C8_26  and  C9_27 
REMARK    8  A    between atoms: N11_32  and  C10_33 
REMARK    9  A    between atoms: C14_37  and  O2_38 
ROOT
HETATM    1  C4  UNL     1      13.290  -5.217  -6.567  1.00  0.00     0.140 A 
HETATM    2  C5  UNL     1      13.537  -4.203  -7.463  1.00  0.00     0.162 A 
HETATM    3  N8  UNL     1      14.882  -4.016  -7.541  1.00  0.00    -0.278 N 
HETATM    4  N13 UNL     1      15.428  -4.890  -6.717  1.00  0.00    -0.239 N 
ATOM      5  H13 UNL     1      16.431  -4.991  -6.558  1.00  0.00     0.208 HD
HETATM    6  N14 UNL     1      14.489  -5.621  -6.123  1.00  0.00    -0.270 N 
ATOM      7  H14 UNL     1      14.652  -6.365  -5.444  1.00  0.00     0.190 HD
ENDROOT
BRANCH   3   8
HETATM    8  C6  UNL     1      15.566  -3.056  -8.360  1.00  0.00     0.228 C 
BRANCH   8   9
HETATM    9  C7  UNL     1      16.130  -2.003  -7.461  1.00  0.00     0.153 C 
HETATM   10  O1  UNL     1      15.435  -1.537  -6.599  1.00  0.00    -0.296 OA
BRANCH   9  11
HETATM   11  C8  UNL     1      17.529  -1.530  -7.621  1.00  0.00     0.159 C 
BRANCH  11  12
HETATM   12  C9  UNL     1      18.371  -2.244  -6.627  1.00  0.00     0.120 A 
HETATM   13  N9  UNL     1      19.708  -2.203  -6.472  1.00  0.00    -0.271 N 
HETATM   14  N10 UNL     1      20.026  -2.990  -5.470  1.00  0.00    -0.220 N 
ATOM     15  H9  UNL     1      20.360  -1.656  -7.035  1.00  0.00     0.190 HD
HETATM   16  N11 UNL     1      18.959  -3.555  -4.950  1.00  0.00    -0.181 N 
ATOM     17  H10 UNL     1      20.978  -3.144  -5.138  1.00  0.00     0.210 HD
HETATM   18  N12 UNL     1      17.938  -3.100  -5.657  1.00  0.00    -0.265 N 
ATOM     19  H12 UNL     1      16.963  -3.354  -5.499  1.00  0.00     0.190 HD
BRANCH  16  20
HETATM   20  C10 UNL     1      18.951  -4.461  -3.852  1.00  0.00     0.079 A 
HETATM   21  C11 UNL     1      18.182  -4.176  -2.732  1.00  0.00     0.033 A 
HETATM   22  C12 UNL     1      18.135  -5.011  -1.642  1.00  0.00     0.005 A 
HETATM   23  C13 UNL     1      18.856  -6.180  -1.617  1.00  0.00     0.036 A 
HETATM   24  C14 UNL     1      19.630  -6.480  -2.730  1.00  0.00     0.068 A 
HETATM   25  C15 UNL     1      19.676  -5.634  -3.829  1.00  0.00     0.069 A 
BRANCH  24  26
HETATM   26  O2  UNL     1      20.358  -7.672  -2.687  1.00  0.00    -0.361 OA
ATOM     27  H2  UNL     1      21.180  -7.688  -3.163  1.00  0.00     0.217 HD
ENDBRANCH  24  26
ENDBRANCH  16  20
ENDBRANCH  11  12
ENDBRANCH   9  11
ENDBRANCH   8   9
ENDBRANCH   3   8
BRANCH   1  28
HETATM   28  N7  UNL     1      12.027  -5.720  -6.198  1.00  0.00    -0.323 N 
ATOM     29  H7  UNL     1      11.354  -5.995  -6.913  1.00  0.00     0.169 HD
BRANCH  28  30
HETATM   30  C3  UNL     1      11.703  -5.840  -4.832  1.00  0.00     0.151 C 
HETATM   31  C1  UNL     1      11.237  -7.160  -4.433  1.00  0.00     0.157 C 
HETATM   32  N1  UNL     1      11.413  -8.067  -5.329  1.00  0.00    -0.382 N 
HETATM   33  N2  UNL     1      10.622  -7.598  -3.212  1.00  0.00    -0.267 N 
ATOM     34  H12 UNL     1      11.087  -8.992  -5.049  1.00  0.00     0.157 HD
ATOM     35  H11 UNL     1      11.851  -7.755  -6.197  1.00  0.00     0.157 HD
HETATM   36  N3  UNL     1      10.419  -6.750  -2.090  1.00  0.00    -0.022 NA
ATOM     37  H2  UNL     1      10.315  -8.568  -3.147  1.00  0.00     0.186 HD
HETATM   38  N4  UNL     1      11.566  -5.992  -1.948  1.00  0.00    -0.274 N 
HETATM   39  C2  UNL     1      11.551  -4.720  -2.603  1.00  0.00     0.401 C 
ATOM     40  H4  UNL     1      12.370  -6.318  -1.412  1.00  0.00     0.181 HD
HETATM   41  N6  UNL     1      11.825  -4.829  -4.040  1.00  0.00    -0.329 N 
ATOM     42  H6  UNL     1      12.164  -3.975  -4.481  1.00  0.00     0.165 HD
BRANCH  39  43
HETATM   43  N5  UNL     1      12.657  -3.939  -2.037  1.00  0.00    -0.040 N 
ATOM     44  H53 UNL     1      13.002  -4.312  -1.153  1.00  0.00     0.279 HD
ATOM     45  H52 UNL     1      13.526  -4.032  -2.564  1.00  0.00     0.279 HD
ATOM     46  H51 UNL     1      12.332  -2.975  -1.967  1.00  0.00     0.279 HD
ENDBRANCH  39  43
ENDBRANCH  28  30
ENDBRANCH   1  28
TORSDOF 9
ENDMDL
MODEL 4
REMARK VINA RESULT: -8.952721011      3.485      5.967
REMARK  9 active torsions:
REMARK  status: ('A' for Active; 'I' for Inactive)
REMARK    1  A    between atoms: C2_10  and  N5_11 
REMARK    2  A    between atoms: C3_17  and  N7_18 
REMARK    3  A    between atoms: N7_18  and  C4_20 
REMARK    4  A    between atoms: N8_22  and  C6_23 
REMARK    5  A    between atoms: C6_23  and  C7_24 
REMARK    6  A    between atoms: C7_24  and  C8_26 
REMARK    7  A    between atoms: C8_26  and  C9_27 
REMARK    8  A    between atoms: N11_32  and  C10_33 
REMARK    9  A    between atoms: C14_37  and  O2_38 
ROOT
HETATM    1  C4  UNL     1      11.322  -6.472  -5.257  1.00  0.00     0.140 A 
HETATM    2  C5  UNL     1      10.712  -5.520  -4.475  1.00  0.00     0.162 A 
HETATM    3  N8  UNL     1      11.606  -4.523  -4.234  1.00  0.00    -0.278 N 
HETATM    4  N13 UNL     1      12.721  -4.866  -4.853  1.00  0.00    -0.239 N 
ATOM      5  H13 UNL     1      13.578  -4.313  -4.855  1.00  0.00     0.208 HD
HETATM    6  N14 UNL     1      12.570  -6.033  -5.473  1.00  0.00    -0.270 N 
ATOM      7  H14 UNL     1      13.284  -6.513  -6.021  1.00  0.00     0.190 HD
ENDROOT
BRANCH   3   8
HETATM    8  C6  UNL     1      11.377  -3.337  -3.461  1.00  0.00     0.228 C 
BRANCH   8   9
HETATM    9  C7  UNL     1      12.337  -3.342  -2.314  1.00  0.00     0.153 C 
HETATM   10  O1  UNL     1      12.529  -4.367  -1.717  1.00  0.00    -0.296 OA
BRANCH   9  11
HETATM   11  C8  UNL     1      13.049  -2.104  -1.908  1.00  0.00     0.159 C 
BRANCH  11  12
HETATM   12  C9  UNL     1      14.383  -2.107  -2.562  1.00  0.00     0.120 A 
HETATM   13  N9  UNL     1      14.933  -1.168  -3.356  1.00  0.00    -0.271 N 
HETATM   14  N10 UNL     1      16.128  -1.585  -3.711  1.00  0.00    -0.220 N 
ATOM     15  H9  UNL     1      14.499  -0.288  -3.634  1.00  0.00     0.190 HD
HETATM   16  N11 UNL     1      16.398  -2.760  -3.187  1.00  0.00    -0.181 N 
ATOM     17  H10 UNL     1      16.764  -1.063  -4.314  1.00  0.00     0.210 HD
HETATM   18  N12 UNL     1      15.329  -3.086  -2.480  1.00  0.00    -0.265 N 
ATOM     19  H12 UNL     1      15.226  -3.949  -1.948  1.00  0.00     0.190 HD
BRANCH  16  20
HETATM   20  C10 UNL     1      17.605  -3.493  -3.370  1.00  0.00     0.079 A 
HETATM   21  C11 UNL     1      17.968  -4.460  -2.443  1.00  0.00     0.033 A 
HETATM   22  C12 UNL     1      19.120  -5.197  -2.566  1.00  0.00     0.005 A 
HETATM   23  C13 UNL     1      19.971  -5.006  -3.627  1.00  0.00     0.036 A 
HETATM   24  C14 UNL     1      19.622  -4.043  -4.563  1.00  0.00     0.068 A 
HETATM   25  C15 UNL     1      18.457  -3.298  -4.437  1.00  0.00     0.069 A 
BRANCH  24  26
HETATM   26  O2  UNL     1      20.498  -3.862  -5.636  1.00  0.00    -0.361 OA
ATOM     27  H2  UNL     1      20.855  -4.647  -6.034  1.00  0.00     0.217 HD
ENDBRANCH  24  26
ENDBRANCH  16  20
ENDBRANCH  11  12
ENDBRANCH   9  11
ENDBRANCH   8   9
ENDBRANCH   3   8
BRANCH   1  28
HETATM   28  N7  UNL     1      10.742  -7.666  -5.729  1.00  0.00    -0.323 N 
ATOM     29  H7  UNL     1      10.301  -7.695  -6.648  1.00  0.00     0.169 HD
BRANCH  28  30
HETATM   30  C3  UNL     1      10.776  -8.819  -4.919  1.00  0.00     0.151 C 
HETATM   31  C1  UNL     1      10.453 -10.057  -5.614  1.00  0.00     0.157 C 
HETATM   32  N1  UNL     1      10.415  -9.941  -6.895  1.00  0.00    -0.382 N 
HETATM   33  N2  UNL     1      10.176 -11.367  -5.096  1.00  0.00    -0.267 N 
ATOM     34  H12 UNL     1      10.188 -10.808  -7.381  1.00  0.00     0.157 HD
ATOM     35  H11 UNL     1      10.612  -9.010  -7.262  1.00  0.00     0.157 HD
HETATM   36  N3  UNL     1      10.246 -11.694  -3.715  1.00  0.00    -0.022 NA
ATOM     37  H2  UNL     1       9.914 -12.101  -5.754  1.00  0.00     0.186 HD
HETATM   38  N4  UNL     1      11.376 -11.075  -3.214  1.00  0.00    -0.274 N 
HETATM   39  C2  UNL     1      11.170  -9.778  -2.646  1.00  0.00     0.401 C 
ATOM     40  H4  UNL     1      12.296 -11.514  -3.248  1.00  0.00     0.181 HD
HETATM   41  N6  UNL     1      11.074  -8.730  -3.668  1.00  0.00    -0.329 N 
ATOM     42  H6  UNL     1      11.274  -7.786  -3.338  1.00  0.00     0.165 HD
BRANCH  39  43
HETATM   43  N5  UNL     1      12.368  -9.466  -1.857  1.00  0.00    -0.040 N 
ATOM     44  H53 UNL     1      12.496 -10.086  -1.057  1.00  0.00     0.279 HD
ATOM     45  H52 UNL     1      13.238  -9.696  -2.338  1.00  0.00     0.279 HD
ATOM     46  H51 UNL     1      12.301  -8.483  -1.596  1.00  0.00     0.279 HD
ENDBRANCH  39  43
ENDBRANCH  28  30
ENDBRANCH   1  28
TORSDOF 9
ENDMDL
MODEL 5
REMARK VINA RESULT: -8.949793386      2.650      3.471
REMARK  9 active torsions:
REMARK  status: ('A' for Active; 'I' for Inactive)
REMARK    1  A    between atoms: C2_10  and  N5_11 
REMARK    2  A    between atoms: C3_17  and  N7_18 
REMARK    3  A    between atoms: N7_18  and  C4_20 
REMARK    4  A    between atoms: N8_22  and  C6_23 
REMARK    5  A    between atoms: C6_23  and  C7_24 
REMARK    6  A    between atoms: C7_24  and  C8_26 
REMARK    7  A    between atoms: C8_26  and  C9_27 
REMARK    8  A    between atoms: N11_32  and  C10_33 
REMARK    9  A    between atoms: C14_37  and  O2_38 
ROOT
HETATM    1  C4  UNL     1      12.422  -5.512  -6.293  1.00  0.00     0.140 A 
HETATM    2  C5  UNL     1      12.596  -4.248  -6.807  1.00  0.00     0.162 A 
HETATM    3  N8  UNL     1      13.926  -3.960  -6.802  1.00  0.00    -0.278 N 
HETATM    4  N13 UNL     1      14.533  -5.019  -6.299  1.00  0.00    -0.239 N 
ATOM      5  H13 UNL     1      15.541  -5.102  -6.168  1.00  0.00     0.208 HD
HETATM    6  N14 UNL     1      13.647  -5.961  -5.988  1.00  0.00    -0.270 N 
ATOM      7  H14 UNL     1      13.864  -6.873  -5.585  1.00  0.00     0.190 HD
ENDROOT
BRANCH   3   8
HETATM    8  C6  UNL     1      14.539  -2.745  -7.254  1.00  0.00     0.228 C 
BRANCH   8   9
HETATM    9  C7  UNL     1      15.710  -3.111  -8.111  1.00  0.00     0.153 C 
HETATM   10  O1  UNL     1      15.667  -4.124  -8.756  1.00  0.00    -0.296 OA
BRANCH   9  11
HETATM   11  C8  UNL     1      16.913  -2.243  -8.171  1.00  0.00     0.159 C 
BRANCH  11  12
HETATM   12  C9  UNL     1      17.816  -2.633  -7.058  1.00  0.00     0.120 A 
HETATM   13  N9  UNL     1      19.061  -2.195  -6.791  1.00  0.00    -0.271 N 
HETATM   14  N10 UNL     1      19.485  -2.807  -5.709  1.00  0.00    -0.220 N 
ATOM     15  H9  UNL     1      19.584  -1.507  -7.335  1.00  0.00     0.190 HD
HETATM   16  N11 UNL     1      18.576  -3.634  -5.243  1.00  0.00    -0.181 N 
ATOM     17  H10 UNL     1      20.401  -2.660  -5.286  1.00  0.00     0.210 HD
HETATM   18  N12 UNL     1      17.548  -3.531  -6.067  1.00  0.00    -0.265 N 
ATOM     19  H12 UNL     1      16.675  -4.052  -5.976  1.00  0.00     0.190 HD
BRANCH  16  20
HETATM   20  C10 UNL     1      18.714  -4.452  -4.085  1.00  0.00     0.079 A 
HETATM   21  C11 UNL     1      18.047  -4.107  -2.918  1.00  0.00     0.033 A 
HETATM   22  C12 UNL     1      18.142  -4.855  -1.770  1.00  0.00     0.005 A 
HETATM   23  C13 UNL     1      18.911  -5.993  -1.730  1.00  0.00     0.036 A 
HETATM   24  C14 UNL     1      19.584  -6.352  -2.890  1.00  0.00     0.068 A 
HETATM   25  C15 UNL     1      19.486  -5.593  -4.048  1.00  0.00     0.069 A 
BRANCH  24  26
HETATM   26  O2  UNL     1      20.361  -7.511  -2.832  1.00  0.00    -0.361 OA
ATOM     27  H2  UNL     1      21.054  -7.594  -3.476  1.00  0.00     0.217 HD
ENDBRANCH  24  26
ENDBRANCH  16  20
ENDBRANCH  11  12
ENDBRANCH   9  11
ENDBRANCH   8   9
ENDBRANCH   3   8
BRANCH   1  28
HETATM   28  N7  UNL     1      11.197  -6.187  -6.125  1.00  0.00    -0.323 N 
ATOM     29  H7  UNL     1      10.447  -6.070  -6.806  1.00  0.00     0.169 HD
BRANCH  28  30
HETATM   30  C3  UNL     1      11.018  -7.026  -5.007  1.00  0.00     0.151 C 
HETATM   31  C1  UNL     1      10.535  -6.349  -3.812  1.00  0.00     0.157 C 
HETATM   32  N1  UNL     1      10.129  -5.146  -4.023  1.00  0.00    -0.382 N 
HETATM   33  N2  UNL     1      10.444  -6.811  -2.455  1.00  0.00    -0.267 N 
ATOM     34  H12 UNL     1       9.791  -4.672  -3.186  1.00  0.00     0.157 HD
ATOM     35  H11 UNL     1      10.194  -4.818  -4.987  1.00  0.00     0.157 HD
HETATM   36  N3  UNL     1      10.777  -8.133  -2.055  1.00  0.00    -0.022 NA
ATOM     37  H2  UNL     1      10.123  -6.156  -1.742  1.00  0.00     0.186 HD
HETATM   38  N4  UNL     1      10.266  -8.983  -3.017  1.00  0.00    -0.274 N 
HETATM   39  C2  UNL     1      11.167  -9.338  -4.070  1.00  0.00     0.401 C 
ATOM     40  H4  UNL     1       9.310  -9.335  -2.978  1.00  0.00     0.181 HD
HETATM   41  N6  UNL     1      11.276  -8.286  -5.088  1.00  0.00    -0.329 N 
ATOM     42  H6  UNL     1      11.608  -8.601  -5.999  1.00  0.00     0.165 HD
BRANCH  39  43
HETATM   43  N5  UNL     1      10.587 -10.502  -4.751  1.00  0.00    -0.040 N 
ATOM     44  H53 UNL     1      10.882 -11.391  -4.348  1.00  0.00     0.279 HD
ATOM     45  H52 UNL     1       9.587 -10.609  -4.582  1.00  0.00     0.279 HD
ATOM     46  H51 UNL     1      10.820 -10.412  -5.739  1.00  0.00     0.279 HD
ENDBRANCH  39  43
ENDBRANCH  28  30
ENDBRANCH   1  28
TORSDOF 9
ENDMDL
