MODEL 1
REMARK VINA RESULT: -7.930642297      0.000      0.000
REMARK  11 active torsions:
REMARK  status: ('A' for Active; 'I' for Inactive)
REMARK    1  A    between atoms: C1_2  and  C2_4 
REMARK    2  A    between atoms: C4_6  and  C5_7 
REMARK    3  A    between atoms: C8_11  and  O3_12 
REMARK    4  A    between atoms: C9_14  and  O4_15 
REMARK    5  A    between atoms: N2_17  and  O5_18 
REMARK    6  A    between atoms: N4_22  and  C10_23 
REMARK    7  A    between atoms: C10_23  and  C11_24 
REMARK    8  A    between atoms: C11_24  and  O6_25 
REMARK    9  A    between atoms: O6_25  and  C12_26 
REMARK   10  A    between atoms: C13_29  and  N6_30 
REMARK   11  A    between atoms: C13_29  and  N7_34 
ROOT
HETATM    1  C2  UNL     1      14.803  -3.322  -6.288  1.00  0.00     0.118 A 
HETATM    2  C3  UNL     1      13.873  -3.730  -5.345  1.00  0.00     0.070 A 
HETATM    3  C4  UNL     1      13.875  -2.779  -4.350  1.00  0.00     0.080 A 
HETATM    4  N3  UNL     1      14.788  -1.827  -4.696  1.00  0.00    -0.296 N 
ATOM      5  H3  UNL     1      15.008  -0.995  -4.148  1.00  0.00     0.187 HD
HETATM    6  N4  UNL     1      15.351  -2.151  -5.866  1.00  0.00    -0.285 N 
ENDROOT
BRANCH   6   7
HETATM    7  C10 UNL     1      16.358  -1.355  -6.530  1.00  0.00     0.176 C 
BRANCH   7   8
HETATM    8  C11 UNL     1      17.754  -1.822  -6.192  1.00  0.00     0.200 C 
BRANCH   8   9
HETATM    9  O6  UNL     1      17.870  -2.188  -4.831  1.00  0.00    -0.320 OA
BRANCH   9  10
HETATM   10  C12 UNL     1      18.413  -3.447  -4.529  1.00  0.00     0.235 C 
HETATM   11  N5  UNL     1      19.274  -3.602  -3.602  1.00  0.00    -0.285 N 
HETATM   12  C13 UNL     1      19.633  -5.016  -3.543  1.00  0.00     0.428 C 
ATOM     13  H5  UNL     1      19.647  -2.866  -3.004  1.00  0.00     0.169 HD
HETATM   14  N8  UNL     1      19.178  -5.583  -4.797  1.00  0.00    -0.051 NA
HETATM   15  N9  UNL     1      18.149  -4.693  -5.127  1.00  0.00    -0.263 N 
ATOM     16  H9  UNL     1      17.339  -4.913  -5.707  1.00  0.00     0.186 HD
BRANCH  12  17
HETATM   17  N6  UNL     1      21.053  -5.157  -3.375  1.00  0.00    -0.011 N 
ATOM     18  H63 UNL     1      21.538  -5.234  -4.269  1.00  0.00     0.281 HD
ATOM     19  H62 UNL     1      21.486  -4.295  -3.045  1.00  0.00     0.281 HD
ATOM     20  H61 UNL     1      21.257  -5.946  -2.761  1.00  0.00     0.281 HD
ENDBRANCH  12  17
BRANCH  12  21
HETATM   21  N7  UNL     1      18.921  -5.577  -2.410  1.00  0.00    -0.074 N 
HETATM   22  O7  UNL     1      19.212  -6.669  -1.889  1.00  0.00    -0.532 OA
HETATM   23  O8  UNL     1      17.872  -4.835  -1.912  1.00  0.00    -0.532 OA
ENDBRANCH  12  21
ENDBRANCH   9  10
ENDBRANCH   8   9
ENDBRANCH   7   8
ENDBRANCH   6   7
BRANCH   1  24
HETATM   24  C1  UNL     1      15.118  -4.046  -7.504  1.00  0.00     0.283 C 
HETATM   25  N1  UNL     1      14.131  -4.146  -8.514  1.00  0.00    -0.056 NA
HETATM   26  O1  UNL     1      16.226  -4.588  -7.706  1.00  0.00    -0.269 OA
ENDBRANCH   1  24
BRANCH   3  27
HETATM   27  C5  UNL     1      13.044  -2.811  -3.160  1.00  0.00     0.097 A 
HETATM   28  C6  UNL     1      12.675  -4.013  -2.606  1.00  0.00     0.092 A 
HETATM   29  C7  UNL     1      11.878  -4.023  -1.465  1.00  0.00     0.211 A 
HETATM   30  O2  UNL     1      11.531  -5.107  -0.946  1.00  0.00    -0.285 OA
HETATM   31  C8  UNL     1      11.456  -2.845  -0.883  1.00  0.00     0.170 A 
HETATM   32  C9  UNL     1      11.856  -1.663  -1.479  1.00  0.00     0.205 A 
HETATM   33  N2  UNL     1      12.629  -1.674  -2.586  1.00  0.00    -0.197 N 
BRANCH  31  34
HETATM   34  O3  UNL     1      10.659  -2.834   0.260  1.00  0.00    -0.354 OA
ATOM     35  H3  UNL     1       9.711  -2.866   0.210  1.00  0.00     0.218 HD
ENDBRANCH  31  34
BRANCH  32  36
HETATM   36  O4  UNL     1      11.428  -0.481  -0.889  1.00  0.00    -0.342 OA
ATOM     37  H4  UNL     1      11.957   0.292  -1.038  1.00  0.00     0.219 HD
ENDBRANCH  32  36
BRANCH  33  38
HETATM   38  O5  UNL     1      13.005  -0.473  -3.149  1.00  0.00    -0.280 OA
ATOM     39  H5  UNL     1      13.921  -0.337  -3.365  1.00  0.00     0.245 HD
ENDBRANCH  33  38
ENDBRANCH   3  27
TORSDOF 11
ENDMDL
MODEL 2
REMARK VINA RESULT: -7.910048213      2.357      3.178
REMARK  11 active torsions:
REMARK  status: ('A' for Active; 'I' for Inactive)
REMARK    1  A    between atoms: C1_2  and  C2_4 
REMARK    2  A    between atoms: C4_6  and  C5_7 
REMARK    3  A    between atoms: C8_11  and  O3_12 
REMARK    4  A    between atoms: C9_14  and  O4_15 
REMARK    5  A    between atoms: N2_17  and  O5_18 
REMARK    6  A    between atoms: N4_22  and  C10_23 
REMARK    7  A    between atoms: C10_23  and  C11_24 
REMARK    8  A    between atoms: C11_24  and  O6_25 
REMARK    9  A    between atoms: O6_25  and  C12_26 
REMARK   10  A    between atoms: C13_29  and  N6_30 
REMARK   11  A    between atoms: C13_29  and  N7_34 
ROOT
HETATM    1  C2  UNL     1      14.666  -3.676  -6.764  1.00  0.00     0.118 A 
HETATM    2  C3  UNL     1      14.096  -4.768  -6.127  1.00  0.00     0.070 A 
HETATM    3  C4  UNL     1      13.088  -4.278  -5.329  1.00  0.00     0.080 A 
HETATM    4  N3  UNL     1      13.061  -2.924  -5.489  1.00  0.00    -0.296 N 
ATOM      5  H3  UNL     1      12.414  -2.288  -5.021  1.00  0.00     0.187 HD
HETATM    6  N4  UNL     1      14.013  -2.557  -6.354  1.00  0.00    -0.285 N 
ENDROOT
BRANCH   6   7
HETATM    7  C10 UNL     1      14.259  -1.190  -6.759  1.00  0.00     0.176 C 
BRANCH   7   8
HETATM    8  C11 UNL     1      15.478  -0.615  -6.078  1.00  0.00     0.200 C 
BRANCH   8   9
HETATM    9  O6  UNL     1      15.413  -0.763  -4.673  1.00  0.00    -0.320 OA
BRANCH   9  10
HETATM   10  C12 UNL     1      15.995  -1.905  -4.101  1.00  0.00     0.235 C 
HETATM   11  N5  UNL     1      17.065  -2.419  -4.566  1.00  0.00    -0.285 N 
HETATM   12  C13 UNL     1      17.403  -3.584  -3.755  1.00  0.00     0.428 C 
ATOM     13  H5  UNL     1      17.593  -2.075  -5.366  1.00  0.00     0.169 HD
HETATM   14  N8  UNL     1      16.196  -3.909  -3.021  1.00  0.00    -0.051 NA
HETATM   15  N9  UNL     1      15.564  -2.660  -2.994  1.00  0.00    -0.263 N 
ATOM     16  H9  UNL     1      14.899  -2.348  -2.286  1.00  0.00     0.186 HD
BRANCH  12  17
HETATM   17  N6  UNL     1      17.825  -4.667  -4.599  1.00  0.00    -0.011 N 
ATOM     18  H63 UNL     1      17.137  -5.420  -4.627  1.00  0.00     0.281 HD
ATOM     19  H62 UNL     1      17.806  -4.412  -5.586  1.00  0.00     0.281 HD
ATOM     20  H61 UNL     1      18.744  -5.001  -4.309  1.00  0.00     0.281 HD
ENDBRANCH  12  17
BRANCH  12  21
HETATM   21  N7  UNL     1      18.476  -3.174  -2.868  1.00  0.00    -0.074 N 
HETATM   22  O7  UNL     1      18.283  -2.658  -1.752  1.00  0.00    -0.532 OA
HETATM   23  O8  UNL     1      19.762  -3.380  -3.318  1.00  0.00    -0.532 OA
ENDBRANCH  12  21
ENDBRANCH   9  10
ENDBRANCH   8   9
ENDBRANCH   7   8
ENDBRANCH   6   7
BRANCH   1  24
HETATM   24  C1  UNL     1      15.773  -3.750  -7.698  1.00  0.00     0.283 C 
HETATM   25  N1  UNL     1      15.508  -4.100  -9.043  1.00  0.00    -0.056 NA
HETATM   26  O1  UNL     1      16.956  -3.518  -7.371  1.00  0.00    -0.269 OA
ENDBRANCH   1  24
BRANCH   3  27
HETATM   27  C5  UNL     1      12.225  -5.082  -4.481  1.00  0.00     0.097 A 
HETATM   28  C6  UNL     1      11.376  -6.007  -5.039  1.00  0.00     0.092 A 
HETATM   29  C7  UNL     1      10.557  -6.768  -4.210  1.00  0.00     0.211 A 
HETATM   30  O2  UNL     1       9.776  -7.616  -4.697  1.00  0.00    -0.285 OA
HETATM   31  C8  UNL     1      10.587  -6.607  -2.839  1.00  0.00     0.170 A 
HETATM   32  C9  UNL     1      11.460  -5.663  -2.330  1.00  0.00     0.205 A 
HETATM   33  N2  UNL     1      12.246  -4.934  -3.150  1.00  0.00    -0.197 N 
BRANCH  31  34
HETATM   34  O3  UNL     1       9.776  -7.360  -1.993  1.00  0.00    -0.354 OA
ATOM     35  H3  UNL     1      10.139  -7.923  -1.319  1.00  0.00     0.218 HD
ENDBRANCH  31  34
BRANCH  32  36
HETATM   36  O4  UNL     1      11.485  -5.506  -0.950  1.00  0.00    -0.342 OA
ATOM     37  H4  UNL     1      12.042  -4.820  -0.604  1.00  0.00     0.219 HD
ENDBRANCH  32  36
BRANCH  33  38
HETATM   38  O5  UNL     1      13.102  -4.004  -2.601  1.00  0.00    -0.280 OA
ATOM     39  H5  UNL     1      13.119  -3.901  -1.656  1.00  0.00     0.245 HD
ENDBRANCH  33  38
ENDBRANCH   3  27
TORSDOF 11
ENDMDL
MODEL 3
REMARK VINA RESULT: -7.766515490      2.365      6.889
REMARK  11 active torsions:
REMARK  status: ('A' for Active; 'I' for Inactive)
REMARK    1  A    between atoms: C1_2  and  C2_4 
REMARK    2  A    between atoms: C4_6  and  C5_7 
REMARK    3  A    between atoms: C8_11  and  O3_12 
REMARK    4  A    between atoms: C9_14  and  O4_15 
REMARK    5  A    between atoms: N2_17  and  O5_18 
REMARK    6  A    between atoms: N4_22  and  C10_23 
REMARK    7  A    between atoms: C10_23  and  C11_24 
REMARK    8  A    between atoms: C11_24  and  O6_25 
REMARK    9  A    between atoms: O6_25  and  C12_26 
REMARK   10  A    between atoms: C13_29  and  N6_30 
REMARK   11  A    between atoms: C13_29  and  N7_34 
ROOT
HETATM    1  C2  UNL     1      13.195  -1.110  -5.700  1.00  0.00     0.118 A 
HETATM    2  C3  UNL     1      14.549  -1.097  -5.402  1.00  0.00     0.070 A 
HETATM    3  C4  UNL     1      15.101  -2.196  -6.020  1.00  0.00     0.080 A 
HETATM    4  N3  UNL     1      14.095  -2.847  -6.671  1.00  0.00    -0.296 N 
ATOM      5  H3  UNL     1      14.204  -3.700  -7.220  1.00  0.00     0.187 HD
HETATM    6  N4  UNL     1      12.943  -2.195  -6.481  1.00  0.00    -0.285 N 
ENDROOT
BRANCH   6   7
HETATM    7  C10 UNL     1      11.674  -2.608  -7.037  1.00  0.00     0.176 C 
BRANCH   7   8
HETATM    8  C11 UNL     1      11.305  -4.009  -6.611  1.00  0.00     0.200 C 
BRANCH   8   9
HETATM    9  O6  UNL     1      10.736  -4.031  -5.316  1.00  0.00    -0.320 OA
BRANCH   9  10
HETATM   10  C12 UNL     1      11.602  -3.979  -4.213  1.00  0.00     0.235 C 
HETATM   11  N5  UNL     1      11.357  -3.247  -3.199  1.00  0.00    -0.285 N 
HETATM   12  C13 UNL     1      12.440  -3.418  -2.236  1.00  0.00     0.428 C 
ATOM     13  H5  UNL     1      10.542  -2.646  -3.081  1.00  0.00     0.169 HD
HETATM   14  N8  UNL     1      13.527  -4.025  -2.981  1.00  0.00    -0.051 NA
HETATM   15  N9  UNL     1      12.816  -4.661  -4.006  1.00  0.00    -0.263 N 
ATOM     16  H9  UNL     1      13.128  -5.486  -4.519  1.00  0.00     0.186 HD
BRANCH  12  17
HETATM   17  N6  UNL     1      12.814  -2.146  -1.684  1.00  0.00    -0.011 N 
ATOM     18  H63 UNL     1      13.776  -2.146  -1.342  1.00  0.00     0.281 HD
ATOM     19  H62 UNL     1      12.912  -1.431  -2.404  1.00  0.00     0.281 HD
ATOM     20  H61 UNL     1      12.151  -1.870  -0.959  1.00  0.00     0.281 HD
ENDBRANCH  12  17
BRANCH  12  21
HETATM   21  N7  UNL     1      11.939  -4.304  -1.202  1.00  0.00    -0.074 N 
HETATM   22  O7  UNL     1      11.966  -5.544  -1.289  1.00  0.00    -0.532 OA
HETATM   23  O8  UNL     1      11.413  -3.703  -0.079  1.00  0.00    -0.532 OA
ENDBRANCH  12  21
ENDBRANCH   9  10
ENDBRANCH   8   9
ENDBRANCH   7   8
ENDBRANCH   6   7
BRANCH   1  24
HETATM   24  C1  UNL     1      12.238  -0.123  -5.240  1.00  0.00     0.283 C 
HETATM   25  N1  UNL     1      11.864  -0.119  -3.875  1.00  0.00    -0.056 NA
HETATM   26  O1  UNL     1      11.725   0.731  -5.994  1.00  0.00    -0.269 OA
ENDBRANCH   1  24
BRANCH   3  27
HETATM   27  C5  UNL     1      16.503  -2.568  -5.969  1.00  0.00     0.097 A 
HETATM   28  C6  UNL     1      17.443  -1.812  -6.627  1.00  0.00     0.092 A 
HETATM   29  C7  UNL     1      18.783  -2.185  -6.567  1.00  0.00     0.211 A 
HETATM   30  O2  UNL     1      19.654  -1.511  -7.160  1.00  0.00    -0.285 OA
HETATM   31  C8  UNL     1      19.179  -3.301  -5.857  1.00  0.00     0.170 A 
HETATM   32  C9  UNL     1      18.193  -4.026  -5.212  1.00  0.00     0.205 A 
HETATM   33  N2  UNL     1      16.899  -3.648  -5.283  1.00  0.00    -0.197 N 
BRANCH  31  34
HETATM   34  O3  UNL     1      20.515  -3.690  -5.784  1.00  0.00    -0.354 OA
ATOM     35  H3  UNL     1      20.903  -4.000  -4.975  1.00  0.00     0.218 HD
ENDBRANCH  31  34
BRANCH  32  36
HETATM   36  O4  UNL     1      18.598  -5.147  -4.500  1.00  0.00    -0.342 OA
ATOM     37  H4  UNL     1      18.029  -5.441  -3.799  1.00  0.00     0.219 HD
ENDBRANCH  32  36
BRANCH  33  38
HETATM   38  O5  UNL     1      15.948  -4.400  -4.625  1.00  0.00    -0.280 OA
ATOM     39  H5  UNL     1      16.234  -5.026  -3.970  1.00  0.00     0.245 HD
ENDBRANCH  33  38
ENDBRANCH   3  27
TORSDOF 11
ENDMDL
MODEL 4
REMARK VINA RESULT: -7.744355382      2.497      6.644
REMARK  11 active torsions:
REMARK  status: ('A' for Active; 'I' for Inactive)
REMARK    1  A    between atoms: C1_2  and  C2_4 
REMARK    2  A    between atoms: C4_6  and  C5_7 
REMARK    3  A    between atoms: C8_11  and  O3_12 
REMARK    4  A    between atoms: C9_14  and  O4_15 
REMARK    5  A    between atoms: N2_17  and  O5_18 
REMARK    6  A    between atoms: N4_22  and  C10_23 
REMARK    7  A    between atoms: C10_23  and  C11_24 
REMARK    8  A    between atoms: C11_24  and  O6_25 
REMARK    9  A    between atoms: O6_25  and  C12_26 
REMARK   10  A    between atoms: C13_29  and  N6_30 
REMARK   11  A    between atoms: C13_29  and  N7_34 
ROOT
HETATM    1  C2  UNL     1      13.857  -2.781  -6.284  1.00  0.00     0.118 A 
HETATM    2  C3  UNL     1      15.012  -3.541  -6.182  1.00  0.00     0.070 A 
HETATM    3  C4  UNL     1      15.786  -2.956  -5.206  1.00  0.00     0.080 A 
HETATM    4  N3  UNL     1      15.103  -1.871  -4.738  1.00  0.00    -0.296 N 
ATOM      5  H3  UNL     1      15.430  -1.240  -4.007  1.00  0.00     0.187 HD
HETATM    6  N4  UNL     1      13.938  -1.763  -5.387  1.00  0.00    -0.285 N 
ENDROOT
BRANCH   6   7
HETATM    7  C10 UNL     1      12.962  -0.726  -5.135  1.00  0.00     0.176 C 
BRANCH   7   8
HETATM    8  C11 UNL     1      12.013  -1.108  -4.025  1.00  0.00     0.200 C 
BRANCH   8   9
HETATM    9  O6  UNL     1      12.475  -2.232  -3.302  1.00  0.00    -0.320 OA
BRANCH   9  10
HETATM   10  C12 UNL     1      11.726  -3.417  -3.372  1.00  0.00     0.235 C 
HETATM   11  N5  UNL     1      12.280  -4.555  -3.521  1.00  0.00    -0.285 N 
HETATM   12  C13 UNL     1      11.235  -5.573  -3.555  1.00  0.00     0.428 C 
ATOM     13  H5  UNL     1      13.282  -4.725  -3.602  1.00  0.00     0.169 HD
HETATM   14  N8  UNL     1      10.001  -4.852  -3.804  1.00  0.00    -0.051 NA
HETATM   15  N9  UNL     1      10.331  -3.589  -3.299  1.00  0.00    -0.263 N 
ATOM     16  H9  UNL     1       9.667  -2.905  -2.935  1.00  0.00     0.186 HD
BRANCH  12  17
HETATM   17  N6  UNL     1      11.513  -6.532  -4.587  1.00  0.00    -0.011 N 
ATOM     18  H63 UNL     1      12.457  -6.911  -4.512  1.00  0.00     0.281 HD
ATOM     19  H62 UNL     1      10.993  -7.398  -4.454  1.00  0.00     0.281 HD
ATOM     20  H61 UNL     1      11.340  -6.119  -5.504  1.00  0.00     0.281 HD
ENDBRANCH  12  17
BRANCH  12  21
HETATM   21  N7  UNL     1      11.231  -6.206  -2.249  1.00  0.00    -0.074 N 
HETATM   22  O7  UNL     1      11.916  -5.806  -1.291  1.00  0.00    -0.532 OA
HETATM   23  O8  UNL     1      10.415  -7.306  -2.100  1.00  0.00    -0.532 OA
ENDBRANCH  12  21
ENDBRANCH   9  10
ENDBRANCH   8   9
ENDBRANCH   7   8
ENDBRANCH   6   7
BRANCH   1  24
HETATM   24  C1  UNL     1      12.769  -3.052  -7.203  1.00  0.00     0.283 C 
HETATM   25  N1  UNL     1      11.788  -4.004  -6.839  1.00  0.00    -0.056 NA
HETATM   26  O1  UNL     1      12.655  -2.480  -8.309  1.00  0.00    -0.269 OA
ENDBRANCH   1  24
BRANCH   3  27
HETATM   27  C5  UNL     1      17.088  -3.430  -4.773  1.00  0.00     0.097 A 
HETATM   28  C6  UNL     1      18.172  -3.336  -5.613  1.00  0.00     0.092 A 
HETATM   29  C7  UNL     1      19.412  -3.796  -5.181  1.00  0.00     0.211 A 
HETATM   30  O2  UNL     1      20.411  -3.720  -5.930  1.00  0.00    -0.285 OA
HETATM   31  C8  UNL     1      19.569  -4.343  -3.923  1.00  0.00     0.170 A 
HETATM   32  C9  UNL     1      18.446  -4.413  -3.117  1.00  0.00     0.205 A 
HETATM   33  N2  UNL     1      17.251  -3.962  -3.555  1.00  0.00    -0.197 N 
BRANCH  31  34
HETATM   34  O3  UNL     1      20.802  -4.808  -3.471  1.00  0.00    -0.354 OA
ATOM     35  H3  UNL     1      21.608  -4.334  -3.638  1.00  0.00     0.218 HD
ENDBRANCH  31  34
BRANCH  32  36
HETATM   36  O4  UNL     1      18.610  -4.964  -1.854  1.00  0.00    -0.342 OA
ATOM     37  H4  UNL     1      19.259  -4.563  -1.289  1.00  0.00     0.219 HD
ENDBRANCH  32  36
BRANCH  33  38
HETATM   38  O5  UNL     1      16.158  -4.051  -2.720  1.00  0.00    -0.280 OA
ATOM     39  H5  UNL     1      16.291  -3.966  -1.783  1.00  0.00     0.245 HD
ENDBRANCH  33  38
ENDBRANCH   3  27
TORSDOF 11
ENDMDL
MODEL 5
REMARK VINA RESULT: -7.730778609      2.914      4.690
REMARK  11 active torsions:
REMARK  status: ('A' for Active; 'I' for Inactive)
REMARK    1  A    between atoms: C1_2  and  C2_4 
REMARK    2  A    between atoms: C4_6  and  C5_7 
REMARK    3  A    between atoms: C8_11  and  O3_12 
REMARK    4  A    between atoms: C9_14  and  O4_15 
REMARK    5  A    between atoms: N2_17  and  O5_18 
REMARK    6  A    between atoms: N4_22  and  C10_23 
REMARK    7  A    between atoms: C10_23  and  C11_24 
REMARK    8  A    between atoms: C11_24  and  O6_25 
REMARK    9  A    between atoms: O6_25  and  C12_26 
REMARK   10  A    between atoms: C13_29  and  N6_30 
REMARK   11  A    between atoms: C13_29  and  N7_34 
ROOT
HETATM    1  C2  UNL     1      13.154  -2.259  -3.940  1.00  0.00     0.118 A 
HETATM    2  C3  UNL     1      12.222  -3.165  -4.422  1.00  0.00     0.070 A 
HETATM    3  C4  UNL     1      12.286  -4.271  -3.605  1.00  0.00     0.080 A 
HETATM    4  N3  UNL     1      13.236  -4.025  -2.657  1.00  0.00    -0.296 N 
ATOM      5  H3  UNL     1      13.503  -4.667  -1.911  1.00  0.00     0.187 HD
HETATM    6  N4  UNL     1      13.762  -2.811  -2.857  1.00  0.00    -0.285 N 
ENDROOT
BRANCH   6   7
HETATM    7  C10 UNL     1      14.794  -2.228  -2.029  1.00  0.00     0.176 C 
BRANCH   7   8
HETATM    8  C11 UNL     1      16.111  -2.950  -2.183  1.00  0.00     0.200 C 
BRANCH   8   9
HETATM    9  O6  UNL     1      16.061  -3.922  -3.210  1.00  0.00    -0.320 OA
BRANCH   9  10
HETATM   10  C12 UNL     1      16.722  -3.644  -4.416  1.00  0.00     0.235 C 
HETATM   11  N5  UNL     1      17.199  -2.489  -4.671  1.00  0.00    -0.285 N 
HETATM   12  C13 UNL     1      17.818  -2.529  -5.992  1.00  0.00     0.428 C 
ATOM     13  H5  UNL     1      17.155  -1.676  -4.056  1.00  0.00     0.169 HD
HETATM   14  N8  UNL     1      17.296  -3.724  -6.627  1.00  0.00    -0.051 NA
HETATM   15  N9  UNL     1      16.980  -4.498  -5.504  1.00  0.00    -0.263 N 
ATOM     16  H9  UNL     1      16.943  -5.518  -5.479  1.00  0.00     0.186 HD
BRANCH  12  17
HETATM   17  N6  UNL     1      17.485  -1.342  -6.729  1.00  0.00    -0.011 N 
ATOM     18  H63 UNL     1      17.515  -1.497  -7.737  1.00  0.00     0.281 HD
ATOM     19  H62 UNL     1      16.497  -1.105  -6.645  1.00  0.00     0.281 HD
ATOM     20  H61 UNL     1      18.089  -0.571  -6.443  1.00  0.00     0.281 HD
ENDBRANCH  12  17
BRANCH  12  21
HETATM   21  N7  UNL     1      19.250  -2.618  -5.775  1.00  0.00    -0.074 N 
HETATM   22  O7  UNL     1      19.766  -3.310  -4.879  1.00  0.00    -0.532 OA
HETATM   23  O8  UNL     1      20.048  -1.884  -6.625  1.00  0.00    -0.532 OA
ENDBRANCH  12  21
ENDBRANCH   9  10
ENDBRANCH   8   9
ENDBRANCH   7   8
ENDBRANCH   6   7
BRANCH   1  24
HETATM   24  C1  UNL     1      13.414  -0.955  -4.519  1.00  0.00     0.283 C 
HETATM   25  N1  UNL     1      14.621  -0.751  -5.228  1.00  0.00    -0.056 NA
HETATM   26  O1  UNL     1      12.617   0.003  -4.421  1.00  0.00    -0.269 OA
ENDBRANCH   1  24
BRANCH   3  27
HETATM   27  C5  UNL     1      11.476  -5.466  -3.749  1.00  0.00     0.097 A 
HETATM   28  C6  UNL     1      11.187  -5.959  -4.999  1.00  0.00     0.092 A 
HETATM   29  C7  UNL     1      10.408  -7.106  -5.117  1.00  0.00     0.211 A 
HETATM   30  O2  UNL     1      10.133  -7.571  -6.246  1.00  0.00    -0.285 OA
HETATM   31  C8  UNL     1       9.924  -7.756  -3.999  1.00  0.00     0.170 A 
HETATM   32  C9  UNL     1      10.245  -7.219  -2.765  1.00  0.00     0.205 A 
HETATM   33  N2  UNL     1      11.001  -6.104  -2.671  1.00  0.00    -0.197 N 
BRANCH  31  34
HETATM   34  O3  UNL     1       9.144  -8.906  -4.097  1.00  0.00    -0.354 OA
ATOM     35  H3  UNL     1       8.402  -8.959  -4.687  1.00  0.00     0.218 HD
ENDBRANCH  31  34
BRANCH  32  36
HETATM   36  O4  UNL     1       9.755  -7.876  -1.645  1.00  0.00    -0.342 OA
ATOM     37  H4  UNL     1      10.004  -8.786  -1.535  1.00  0.00     0.219 HD
ENDBRANCH  32  36
BRANCH  33  38
HETATM   38  O5  UNL     1      11.297  -5.603  -1.422  1.00  0.00    -0.280 OA
ATOM     39  H5  UNL     1      10.605  -5.560  -0.772  1.00  0.00     0.245 HD
ENDBRANCH  33  38
ENDBRANCH   3  27
TORSDOF 11
ENDMDL
