MODEL 1
REMARK VINA RESULT: -8.323156745      0.000      0.000
REMARK  9 active torsions:
REMARK  status: ('A' for Active; 'I' for Inactive)
REMARK    1  A    between atoms: C3_4  and  N2_5 
REMARK    2  A    between atoms: N5_10  and  C4_11 
REMARK    3  A    between atoms: C7_14  and  C8_15 
REMARK       I    between atoms: C8_15  and  N6_17 
REMARK    4  A    between atoms: N6_17  and  N7_19 
REMARK    5  A    between atoms: N8_22  and  C9_23 
REMARK    6  A    between atoms: C9_23  and  C10_24 
REMARK    7  A    between atoms: C12_29  and  N9_30 
REMARK    8  A    between atoms: C12_29  and  O5_34 
REMARK    9  A    between atoms: C13_40  and  N12_41 
ROOT
HETATM    1  N1  UNL     1      12.029  -5.549  -1.267  1.00  0.00    -0.191 NA
HETATM    2  C1  UNL     1      11.488  -6.181  -2.069  1.00  0.00     0.105 C 
HETATM    3  C2  UNL     1      10.827  -6.944  -3.073  1.00  0.00     0.124 A 
HETATM    4  C3  UNL     1      10.374  -6.345  -4.151  1.00  0.00     0.166 A 
HETATM    5  C12 UNL     1       9.689  -7.126  -5.188  1.00  0.00     0.364 A 
HETATM    6  N10 UNL     1       9.573  -8.526  -4.890  1.00  0.00    -0.271 N 
ATOM      7  H10 UNL     1       9.102  -9.138  -5.557  1.00  0.00     0.185 HD
HETATM    8  N11 UNL     1      10.082  -9.065  -3.728  1.00  0.00    -0.283 N 
ATOM      9  H11 UNL     1       9.975 -10.068  -3.573  1.00  0.00     0.188 HD
HETATM   10  C13 UNL     1      10.678  -8.377  -2.838  1.00  0.00     0.157 A 
ENDROOT
BRANCH   4  11
HETATM   11  N2  UNL     1      10.531  -4.944  -4.340  1.00  0.00    -0.153 N 
HETATM   12  N3  UNL     1       9.589  -3.988  -4.248  1.00  0.00    -0.203 N 
HETATM   13  N4  UNL     1      10.491  -3.096  -4.536  1.00  0.00    -0.203 N 
ATOM     14  H3  UNL     1       8.590  -3.971  -4.040  1.00  0.00     0.212 HD
HETATM   15  N5  UNL     1      11.428  -4.036  -4.630  1.00  0.00    -0.153 N 
ATOM     16  H4  UNL     1      10.482  -2.083  -4.647  1.00  0.00     0.212 HD
BRANCH  15  17
HETATM   17  C4  UNL     1      12.818  -4.050  -4.921  1.00  0.00     0.146 A 
HETATM   18  C5  UNL     1      13.369  -4.851  -5.896  1.00  0.00     0.041 A 
HETATM   19  C6  UNL     1      14.730  -4.815  -6.131  1.00  0.00     0.038 A 
HETATM   20  C7  UNL     1      15.607  -3.992  -5.421  1.00  0.00     0.107 A 
HETATM   21  N8  UNL     1      15.043  -3.217  -4.471  1.00  0.00    -0.297 N 
HETATM   22  C11 UNL     1      13.693  -3.249  -4.234  1.00  0.00     0.279 A 
HETATM   23  O4  UNL     1      13.177  -2.511  -3.335  1.00  0.00    -0.265 OA
BRANCH  20  24
HETATM   24  C8  UNL     1      17.019  -3.971  -5.694  1.00  0.00     0.286 C 
HETATM   25  O1  UNL     1      17.612  -3.211  -6.498  1.00  0.00    -0.264 OA
HETATM   26  N6  UNL     1      17.886  -4.874  -5.017  1.00  0.00    -0.271 N 
ATOM     27  H6  UNL     1      17.499  -5.533  -4.341  1.00  0.00     0.189 HD
BRANCH  26  28
HETATM   28  N7  UNL     1      19.287  -4.868  -5.273  1.00  0.00    -0.342 N 
ATOM     29  H72 UNL     1      19.711  -5.696  -5.692  1.00  0.00     0.176 HD
ATOM     30  H71 UNL     1      19.856  -4.054  -5.040  1.00  0.00     0.176 HD
ENDBRANCH  26  28
ENDBRANCH  20  24
BRANCH  21  31
HETATM   31  C9  UNL     1      15.814  -2.340  -3.657  1.00  0.00     0.245 C 
BRANCH  31  32
HETATM   32  C10 UNL     1      16.524  -3.071  -2.544  1.00  0.00     0.192 C 
HETATM   33  O2  UNL     1      15.874  -3.749  -1.709  1.00  0.00    -0.647 OA
HETATM   34  O3  UNL     1      17.882  -2.999  -2.435  1.00  0.00    -0.647 OA
ENDBRANCH  31  32
ENDBRANCH  21  31
ENDBRANCH  15  17
ENDBRANCH   4  11
BRANCH  10  35
HETATM   35  N12 UNL     1      11.179  -8.999  -1.660  1.00  0.00    -0.290 N 
HETATM   36  N13 UNL     1      12.391  -9.374  -1.642  1.00  0.00    -0.344 N 
ATOM     37 2H13 UNL     1      12.979  -9.227  -2.462  1.00  0.00     0.176 HD
ATOM     38 1H13 UNL     1      12.751  -9.819  -0.798  1.00  0.00     0.176 HD
ATOM     39  H12 UNL     1      10.578  -9.140  -0.848  1.00  0.00     0.188 HD
ENDBRANCH  10  35
BRANCH   5  40
HETATM   40  N9  UNL     1      10.363  -7.037  -6.479  1.00  0.00    -0.020 N 
ATOM     41  H93 UNL     1      11.357  -7.249  -6.392  1.00  0.00     0.280 HD
ATOM     42  H92 UNL     1      10.088  -7.803  -7.093  1.00  0.00     0.280 HD
ATOM     43  H91 UNL     1      10.217  -6.133  -6.928  1.00  0.00     0.280 HD
ENDBRANCH   5  40
BRANCH   5  44
HETATM   44  O5  UNL     1       8.387  -6.619  -5.414  1.00  0.00    -0.343 OA
ATOM     45  H5  UNL     1       8.289  -6.341  -6.316  1.00  0.00     0.214 HD
ENDBRANCH   5  44
TORSDOF 9
ENDMDL
MODEL 2
REMARK VINA RESULT: -8.290732535      1.757      2.761
REMARK  9 active torsions:
REMARK  status: ('A' for Active; 'I' for Inactive)
REMARK    1  A    between atoms: C3_4  and  N2_5 
REMARK    2  A    between atoms: N5_10  and  C4_11 
REMARK    3  A    between atoms: C7_14  and  C8_15 
REMARK       I    between atoms: C8_15  and  N6_17 
REMARK    4  A    between atoms: N6_17  and  N7_19 
REMARK    5  A    between atoms: N8_22  and  C9_23 
REMARK    6  A    between atoms: C9_23  and  C10_24 
REMARK    7  A    between atoms: C12_29  and  N9_30 
REMARK    8  A    between atoms: C12_29  and  O5_34 
REMARK    9  A    between atoms: C13_40  and  N12_41 
ROOT
HETATM    1  N1  UNL     1      11.587  -4.874  -0.892  1.00  0.00    -0.191 NA
HETATM    2  C1  UNL     1      11.488  -5.306  -1.959  1.00  0.00     0.105 C 
HETATM    3  C2  UNL     1      11.381  -5.822  -3.281  1.00  0.00     0.124 A 
HETATM    4  C3  UNL     1      11.668  -5.051  -4.306  1.00  0.00     0.166 A 
HETATM    5  C12 UNL     1      11.557  -5.577  -5.672  1.00  0.00     0.364 A 
HETATM    6  N10 UNL     1      11.113  -6.940  -5.742  1.00  0.00    -0.271 N 
ATOM      7  H10 UNL     1      11.001  -7.379  -6.657  1.00  0.00     0.185 HD
HETATM    8  N11 UNL     1      10.834  -7.673  -4.609  1.00  0.00    -0.283 N 
ATOM      9  H11 UNL     1      10.528  -8.640  -4.721  1.00  0.00     0.188 HD
HETATM   10  C13 UNL     1      10.939  -7.206  -3.429  1.00  0.00     0.157 A 
ENDROOT
BRANCH   4  11
HETATM   11  N2  UNL     1      12.088  -3.703  -4.122  1.00  0.00    -0.153 N 
HETATM   12  N3  UNL     1      11.327  -2.595  -4.129  1.00  0.00    -0.203 N 
HETATM   13  N4  UNL     1      12.394  -1.883  -3.910  1.00  0.00    -0.203 N 
ATOM     14  H3  UNL     1      10.334  -2.396  -4.252  1.00  0.00     0.212 HD
HETATM   15  N5  UNL     1      13.153  -2.976  -3.903  1.00  0.00    -0.153 N 
ATOM     16  H4  UNL     1      12.575  -0.886  -3.792  1.00  0.00     0.212 HD
BRANCH  15  17
HETATM   17  C4  UNL     1      14.537  -3.242  -3.731  1.00  0.00     0.146 A 
HETATM   18  C5  UNL     1      15.124  -3.374  -2.492  1.00  0.00     0.041 A 
HETATM   19  C6  UNL     1      16.477  -3.636  -2.394  1.00  0.00     0.038 A 
HETATM   20  C7  UNL     1      17.311  -3.779  -3.505  1.00  0.00     0.107 A 
HETATM   21  N8  UNL     1      16.712  -3.645  -4.708  1.00  0.00    -0.297 N 
HETATM   22  C11 UNL     1      15.370  -3.385  -4.811  1.00  0.00     0.279 A 
HETATM   23  O4  UNL     1      14.821  -3.262  -5.952  1.00  0.00    -0.265 OA
BRANCH  20  24
HETATM   24  C8  UNL     1      18.716  -4.059  -3.371  1.00  0.00     0.286 C 
HETATM   25  O1  UNL     1      19.608  -3.248  -3.024  1.00  0.00    -0.264 OA
HETATM   26  N6  UNL     1      19.207  -5.367  -3.644  1.00  0.00    -0.271 N 
ATOM     27  H6  UNL     1      18.558  -6.099  -3.933  1.00  0.00     0.189 HD
BRANCH  26  28
HETATM   28  N7  UNL     1      20.594  -5.665  -3.517  1.00  0.00    -0.342 N 
ATOM     29  H72 UNL     1      21.154  -5.116  -2.864  1.00  0.00     0.176 HD
ATOM     30  H71 UNL     1      21.019  -6.411  -4.067  1.00  0.00     0.176 HD
ENDBRANCH  26  28
ENDBRANCH  20  24
BRANCH  21  31
HETATM   31  C9  UNL     1      17.439  -3.749  -5.927  1.00  0.00     0.245 C 
BRANCH  31  32
HETATM   32  C10 UNL     1      18.155  -2.467  -6.276  1.00  0.00     0.192 C 
HETATM   33  O2  UNL     1      17.506  -1.437  -6.586  1.00  0.00    -0.647 OA
HETATM   34  O3  UNL     1      19.519  -2.419  -6.259  1.00  0.00    -0.647 OA
ENDBRANCH  31  32
ENDBRANCH  21  31
ENDBRANCH  15  17
ENDBRANCH   4  11
BRANCH  10  35
HETATM   35  N12 UNL     1      10.634  -8.019  -2.300  1.00  0.00    -0.290 N 
HETATM   36  N13 UNL     1      11.415  -8.978  -2.017  1.00  0.00    -0.344 N 
ATOM     37 2H13 UNL     1      12.238  -9.150  -2.595  1.00  0.00     0.176 HD
ATOM     38 1H13 UNL     1      11.197  -9.560  -1.208  1.00  0.00     0.176 HD
ATOM     39  H12 UNL     1       9.808  -7.834  -1.732  1.00  0.00     0.188 HD
ENDBRANCH  10  35
BRANCH   5  40
HETATM   40  N9  UNL     1      12.827  -5.522  -6.387  1.00  0.00    -0.020 N 
ATOM     41  H93 UNL     1      12.892  -4.682  -6.961  1.00  0.00     0.280 HD
ATOM     42  H92 UNL     1      13.603  -5.344  -5.750  1.00  0.00     0.280 HD
ATOM     43  H91 UNL     1      12.992  -6.361  -6.943  1.00  0.00     0.280 HD
ENDBRANCH   5  40
BRANCH   5  44
HETATM   44  O5  UNL     1      10.666  -4.787  -6.437  1.00  0.00    -0.343 OA
ATOM     45  H5  UNL     1      11.076  -3.968  -6.686  1.00  0.00     0.214 HD
ENDBRANCH   5  44
TORSDOF 9
ENDMDL
MODEL 3
REMARK VINA RESULT: -8.259287882      2.430      7.068
REMARK  9 active torsions:
REMARK  status: ('A' for Active; 'I' for Inactive)
REMARK    1  A    between atoms: C3_4  and  N2_5 
REMARK    2  A    between atoms: N5_10  and  C4_11 
REMARK    3  A    between atoms: C7_14  and  C8_15 
REMARK       I    between atoms: C8_15  and  N6_17 
REMARK    4  A    between atoms: N6_17  and  N7_19 
REMARK    5  A    between atoms: N8_22  and  C9_23 
REMARK    6  A    between atoms: C9_23  and  C10_24 
REMARK    7  A    between atoms: C12_29  and  N9_30 
REMARK    8  A    between atoms: C12_29  and  O5_34 
REMARK    9  A    between atoms: C13_40  and  N12_41 
ROOT
HETATM    1  N1  UNL     1      17.445  -5.225  -0.587  1.00  0.00    -0.191 NA
HETATM    2  C1  UNL     1      17.953  -5.194  -1.624  1.00  0.00     0.105 C 
HETATM    3  C2  UNL     1      18.574  -5.133  -2.903  1.00  0.00     0.124 A 
HETATM    4  C3  UNL     1      18.209  -4.206  -3.760  1.00  0.00     0.166 A 
HETATM    5  C12 UNL     1      18.844  -4.140  -5.082  1.00  0.00     0.364 A 
HETATM    6  N10 UNL     1      19.835  -5.154  -5.309  1.00  0.00    -0.271 N 
ATOM      7  H10 UNL     1      20.318  -5.183  -6.207  1.00  0.00     0.185 HD
HETATM    8  N11 UNL     1      20.152  -6.089  -4.347  1.00  0.00    -0.283 N 
ATOM      9  H11 UNL     1      20.869  -6.781  -4.563  1.00  0.00     0.188 HD
HETATM   10  C13 UNL     1      19.597  -6.132  -3.202  1.00  0.00     0.157 A 
ENDROOT
BRANCH   4  11
HETATM   11  N2  UNL     1      17.202  -3.254  -3.435  1.00  0.00    -0.153 N 
HETATM   12  N3  UNL     1      17.351  -2.082  -2.794  1.00  0.00    -0.203 N 
HETATM   13  N4  UNL     1      16.072  -1.876  -2.910  1.00  0.00    -0.203 N 
ATOM     14  H3  UNL     1      18.136  -1.570  -2.390  1.00  0.00     0.212 HD
HETATM   15  N5  UNL     1      15.916  -3.036  -3.544  1.00  0.00    -0.153 N 
ATOM     16  H4  UNL     1      15.441  -1.127  -2.627  1.00  0.00     0.212 HD
BRANCH  15  17
HETATM   17  C4  UNL     1      14.818  -3.741  -4.104  1.00  0.00     0.146 A 
HETATM   18  C5  UNL     1      14.876  -4.359  -5.333  1.00  0.00     0.041 A 
HETATM   19  C6  UNL     1      13.771  -5.032  -5.820  1.00  0.00     0.038 A 
HETATM   20  C7  UNL     1      12.565  -5.125  -5.123  1.00  0.00     0.107 A 
HETATM   21  N8  UNL     1      12.533  -4.510  -3.921  1.00  0.00    -0.297 N 
HETATM   22  C11 UNL     1      13.627  -3.842  -3.434  1.00  0.00     0.279 A 
HETATM   23  O4  UNL     1      13.580  -3.268  -2.299  1.00  0.00    -0.265 OA
BRANCH  20  24
HETATM   24  C8  UNL     1      11.433  -5.839  -5.653  1.00  0.00     0.286 C 
HETATM   25  O1  UNL     1      10.455  -5.339  -6.259  1.00  0.00    -0.264 OA
HETATM   26  N6  UNL     1      11.356  -7.252  -5.508  1.00  0.00    -0.271 N 
ATOM     27  H6  UNL     1      12.105  -7.752  -5.029  1.00  0.00     0.189 HD
BRANCH  26  28
HETATM   28  N7  UNL     1      10.245  -7.977  -6.026  1.00  0.00    -0.342 N 
ATOM     29  H72 UNL     1      10.386  -8.571  -6.843  1.00  0.00     0.176 HD
ATOM     30  H71 UNL     1       9.326  -7.905  -5.588  1.00  0.00     0.176 HD
ENDBRANCH  26  28
ENDBRANCH  20  24
BRANCH  21  31
HETATM   31  C9  UNL     1      11.366  -4.507  -3.106  1.00  0.00     0.245 C 
BRANCH  31  32
HETATM   32  C10 UNL     1      11.296  -5.717  -2.207  1.00  0.00     0.192 C 
HETATM   33  O2  UNL     1      11.992  -5.777  -1.162  1.00  0.00    -0.647 OA
HETATM   34  O3  UNL     1      10.474  -6.759  -2.524  1.00  0.00    -0.647 OA
ENDBRANCH  31  32
ENDBRANCH  21  31
ENDBRANCH  15  17
ENDBRANCH   4  11
BRANCH  10  35
HETATM   35  N12 UNL     1      19.972  -7.125  -2.254  1.00  0.00    -0.290 N 
HETATM   36  N13 UNL     1      21.162  -7.566  -2.278  1.00  0.00    -0.344 N 
ATOM     37 2H13 UNL     1      21.821  -7.207  -2.968  1.00  0.00     0.176 HD
ATOM     38 1H13 UNL     1      21.431  -8.278  -1.599  1.00  0.00     0.176 HD
ATOM     39  H12 UNL     1      19.301  -7.475  -1.570  1.00  0.00     0.188 HD
ENDBRANCH  10  35
BRANCH   5  40
HETATM   40  N9  UNL     1      19.507  -2.861  -5.311  1.00  0.00    -0.020 N 
ATOM     41  H93 UNL     1      20.134  -2.627  -4.541  1.00  0.00     0.280 HD
ATOM     42  H92 UNL     1      20.192  -2.930  -6.063  1.00  0.00     0.280 HD
ATOM     43  H91 UNL     1      18.841  -2.109  -5.485  1.00  0.00     0.280 HD
ENDBRANCH   5  40
BRANCH   5  44
HETATM   44  O5  UNL     1      17.872  -4.243  -6.105  1.00  0.00    -0.343 OA
ATOM     45  H5  UNL     1      18.089  -4.948  -6.702  1.00  0.00     0.214 HD
ENDBRANCH   5  44
TORSDOF 9
ENDMDL
MODEL 4
REMARK VINA RESULT: -8.243428724      1.461      2.506
REMARK  9 active torsions:
REMARK  status: ('A' for Active; 'I' for Inactive)
REMARK    1  A    between atoms: C3_4  and  N2_5 
REMARK    2  A    between atoms: N5_10  and  C4_11 
REMARK    3  A    between atoms: C7_14  and  C8_15 
REMARK       I    between atoms: C8_15  and  N6_17 
REMARK    4  A    between atoms: N6_17  and  N7_19 
REMARK    5  A    between atoms: N8_22  and  C9_23 
REMARK    6  A    between atoms: C9_23  and  C10_24 
REMARK    7  A    between atoms: C12_29  and  N9_30 
REMARK    8  A    between atoms: C12_29  and  O5_34 
REMARK    9  A    between atoms: C13_40  and  N12_41 
ROOT
HETATM    1  N1  UNL     1      11.924  -5.462  -1.188  1.00  0.00    -0.191 NA
HETATM    2  C1  UNL     1      11.496  -6.013  -2.109  1.00  0.00     0.105 C 
HETATM    3  C2  UNL     1      10.975  -6.674  -3.256  1.00  0.00     0.124 A 
HETATM    4  C3  UNL     1      10.705  -5.982  -4.340  1.00  0.00     0.166 A 
HETATM    5  C12 UNL     1      10.166  -6.658  -5.526  1.00  0.00     0.364 A 
HETATM    6  N10 UNL     1       9.973  -8.071  -5.360  1.00  0.00    -0.271 N 
ATOM      7  H10 UNL     1       9.593  -8.614  -6.135  1.00  0.00     0.185 HD
HETATM    8  N11 UNL     1      10.286  -8.714  -4.181  1.00  0.00    -0.283 N 
ATOM      9  H11 UNL     1      10.133  -9.720  -4.124  1.00  0.00     0.188 HD
HETATM   10  C13 UNL     1      10.758  -8.115  -3.161  1.00  0.00     0.157 A 
ENDROOT
BRANCH   4  11
HETATM   11  N2  UNL     1      10.923  -4.576  -4.392  1.00  0.00    -0.153 N 
HETATM   12  N3  UNL     1      10.000  -3.599  -4.408  1.00  0.00    -0.203 N 
HETATM   13  N4  UNL     1      10.957  -2.719  -4.455  1.00  0.00    -0.203 N 
ATOM     14  H3  UNL     1       8.980  -3.563  -4.390  1.00  0.00     0.212 HD
HETATM   15  N5  UNL     1      11.877  -3.682  -4.441  1.00  0.00    -0.153 N 
ATOM     16  H4  UNL     1      10.990  -1.701  -4.490  1.00  0.00     0.212 HD
BRANCH  15  17
HETATM   17  C4  UNL     1      13.296  -3.722  -4.466  1.00  0.00     0.146 A 
HETATM   18  C5  UNL     1      14.075  -3.283  -3.419  1.00  0.00     0.041 A 
HETATM   19  C6  UNL     1      15.452  -3.353  -3.507  1.00  0.00     0.038 A 
HETATM   20  C7  UNL     1      16.122  -3.855  -4.624  1.00  0.00     0.107 A 
HETATM   21  N8  UNL     1      15.337  -4.278  -5.637  1.00  0.00    -0.297 N 
HETATM   22  C11 UNL     1      13.970  -4.211  -5.555  1.00  0.00     0.279 A 
HETATM   23  O4  UNL     1      13.244  -4.615  -6.519  1.00  0.00    -0.265 OA
BRANCH  20  24
HETATM   24  C8  UNL     1      17.558  -3.921  -4.683  1.00  0.00     0.286 C 
HETATM   25  O1  UNL     1      18.280  -4.850  -4.245  1.00  0.00    -0.264 OA
HETATM   26  N6  UNL     1      18.293  -2.863  -5.287  1.00  0.00    -0.271 N 
ATOM     27  H6  UNL     1      17.796  -2.061  -5.675  1.00  0.00     0.189 HD
BRANCH  26  28
HETATM   28  N7  UNL     1      19.715  -2.910  -5.356  1.00  0.00    -0.342 N 
ATOM     29  H72 UNL     1      20.163  -3.792  -5.602  1.00  0.00     0.176 HD
ATOM     30  H71 UNL     1      20.273  -2.079  -5.163  1.00  0.00     0.176 HD
ENDBRANCH  26  28
ENDBRANCH  20  24
BRANCH  21  31
HETATM   31  C9  UNL     1      15.881  -4.799  -6.846  1.00  0.00     0.245 C 
BRANCH  31  32
HETATM   32  C10 UNL     1      15.913  -3.768  -7.947  1.00  0.00     0.192 C 
HETATM   33  O2  UNL     1      15.568  -4.073  -9.117  1.00  0.00    -0.647 OA
HETATM   34  O3  UNL     1      16.321  -2.494  -7.681  1.00  0.00    -0.647 OA
ENDBRANCH  31  32
ENDBRANCH  21  31
ENDBRANCH  15  17
ENDBRANCH   4  11
BRANCH  10  35
HETATM   35  N12 UNL     1      11.060  -8.841  -1.974  1.00  0.00    -0.290 N 
HETATM   36  N13 UNL     1      12.191  -9.409  -1.883  1.00  0.00    -0.344 N 
ATOM     37 2H13 UNL     1      12.856  -9.339  -2.653  1.00  0.00     0.176 HD
ATOM     38 1H13 UNL     1      12.408  -9.929  -1.033  1.00  0.00     0.176 HD
ATOM     39  H12 UNL     1      10.384  -8.902  -1.213  1.00  0.00     0.188 HD
ENDBRANCH  10  35
BRANCH   5  40
HETATM   40  N9  UNL     1      11.029  -6.497  -6.691  1.00  0.00    -0.020 N 
ATOM     41  H93 UNL     1      11.519  -5.603  -6.667  1.00  0.00     0.280 HD
ATOM     42  H92 UNL     1      11.833  -7.123  -6.644  1.00  0.00     0.280 HD
ATOM     43  H91 UNL     1      10.520  -6.616  -7.566  1.00  0.00     0.280 HD
ENDBRANCH   5  40
BRANCH   5  44
HETATM   44  O5  UNL     1       8.926  -6.089  -5.901  1.00  0.00    -0.343 OA
ATOM     45  H5  UNL     1       8.999  -5.145  -5.968  1.00  0.00     0.214 HD
ENDBRANCH   5  44
TORSDOF 9
ENDMDL
MODEL 5
REMARK VINA RESULT: -7.915219257      1.170      1.283
REMARK  9 active torsions:
REMARK  status: ('A' for Active; 'I' for Inactive)
REMARK    1  A    between atoms: C3_4  and  N2_5 
REMARK    2  A    between atoms: N5_10  and  C4_11 
REMARK    3  A    between atoms: C7_14  and  C8_15 
REMARK       I    between atoms: C8_15  and  N6_17 
REMARK    4  A    between atoms: N6_17  and  N7_19 
REMARK    5  A    between atoms: N8_22  and  C9_23 
REMARK    6  A    between atoms: C9_23  and  C10_24 
REMARK    7  A    between atoms: C12_29  and  N9_30 
REMARK    8  A    between atoms: C12_29  and  O5_34 
REMARK    9  A    between atoms: C13_40  and  N12_41 
ROOT
HETATM    1  N1  UNL     1      11.899  -5.632  -1.456  1.00  0.00    -0.191 NA
HETATM    2  C1  UNL     1      11.336  -6.337  -2.177  1.00  0.00     0.105 C 
HETATM    3  C2  UNL     1      10.645  -7.191  -3.082  1.00  0.00     0.124 A 
HETATM    4  C3  UNL     1      10.077  -6.682  -4.151  1.00  0.00     0.166 A 
HETATM    5  C12 UNL     1       9.361  -7.557  -5.087  1.00  0.00     0.364 A 
HETATM    6  N10 UNL     1       9.350  -8.941  -4.706  1.00  0.00    -0.271 N 
ATOM      7  H10 UNL     1       8.866  -9.615  -5.300  1.00  0.00     0.185 HD
HETATM    8  N11 UNL     1       9.977  -9.384  -3.562  1.00  0.00    -0.283 N 
ATOM      9  H11 UNL     1       9.941 -10.381  -3.345  1.00  0.00     0.188 HD
HETATM   10  C13 UNL     1      10.599  -8.615  -2.760  1.00  0.00     0.157 A 
ENDROOT
BRANCH   4  11
HETATM   11  N2  UNL     1      10.137  -5.287  -4.427  1.00  0.00    -0.153 N 
HETATM   12  N3  UNL     1       9.135  -4.391  -4.370  1.00  0.00    -0.203 N 
HETATM   13  N4  UNL     1       9.970  -3.461  -4.731  1.00  0.00    -0.203 N 
ATOM     14  H3  UNL     1       8.142  -4.426  -4.139  1.00  0.00     0.212 HD
HETATM   15  N5  UNL     1      10.966  -4.342  -4.791  1.00  0.00    -0.153 N 
ATOM     16  H4  UNL     1       9.892  -2.459  -4.901  1.00  0.00     0.212 HD
BRANCH  15  17
HETATM   17  C4  UNL     1      12.347  -4.283  -5.114  1.00  0.00     0.146 A 
HETATM   18  C5  UNL     1      12.900  -4.984  -6.163  1.00  0.00     0.041 A 
HETATM   19  C6  UNL     1      14.253  -4.880  -6.425  1.00  0.00     0.038 A 
HETATM   20  C7  UNL     1      15.119  -4.087  -5.670  1.00  0.00     0.107 A 
HETATM   21  N8  UNL     1      14.554  -3.410  -4.648  1.00  0.00    -0.297 N 
HETATM   22  C11 UNL     1      13.212  -3.509  -4.384  1.00  0.00     0.279 A 
HETATM   23  O4  UNL     1      12.694  -2.865  -3.417  1.00  0.00    -0.265 OA
BRANCH  20  24
HETATM   24  C8  UNL     1      16.523  -3.993  -5.972  1.00  0.00     0.286 C 
HETATM   25  O1  UNL     1      17.038  -3.381  -6.939  1.00  0.00    -0.264 OA
HETATM   26  N6  UNL     1      17.473  -4.635  -5.129  1.00  0.00    -0.271 N 
ATOM     27  H6  UNL     1      17.153  -5.158  -4.315  1.00  0.00     0.189 HD
BRANCH  26  28
HETATM   28  N7  UNL     1      18.867  -4.554  -5.411  1.00  0.00    -0.342 N 
ATOM     29  H72 UNL     1      19.466  -4.037  -4.767  1.00  0.00     0.176 HD
ATOM     30  H71 UNL     1      19.259  -5.003  -6.238  1.00  0.00     0.176 HD
ENDBRANCH  26  28
ENDBRANCH  20  24
BRANCH  21  31
HETATM   31  C9  UNL     1      15.316  -2.575  -3.783  1.00  0.00     0.245 C 
BRANCH  31  32
HETATM   32  C10 UNL     1      15.186  -1.115  -4.141  1.00  0.00     0.192 C 
HETATM   33  O2  UNL     1      14.753  -0.287  -3.299  1.00  0.00    -0.647 OA
HETATM   34  O3  UNL     1      15.537  -0.681  -5.386  1.00  0.00    -0.647 OA
ENDBRANCH  31  32
ENDBRANCH  21  31
ENDBRANCH  15  17
ENDBRANCH   4  11
BRANCH  10  35
HETATM   35  N12 UNL     1      11.225  -9.139  -1.594  1.00  0.00    -0.290 N 
HETATM   36  N13 UNL     1      12.467  -9.393  -1.636  1.00  0.00    -0.344 N 
ATOM     37 2H13 UNL     1      12.991  -9.220  -2.494  1.00  0.00     0.176 HD
ATOM     38 1H13 UNL     1      12.916  -9.769  -0.801  1.00  0.00     0.176 HD
ATOM     39  H12 UNL     1      10.687  -9.307  -0.744  1.00  0.00     0.188 HD
ENDBRANCH  10  35
BRANCH   5  40
HETATM   40  N9  UNL     1       9.927  -7.506  -6.430  1.00  0.00    -0.020 N 
ATOM     41  H93 UNL     1       9.625  -6.669  -6.927  1.00  0.00     0.280 HD
ATOM     42  H92 UNL     1      10.930  -7.325  -6.402  1.00  0.00     0.280 HD
ATOM     43  H91 UNL     1       9.720  -8.348  -6.968  1.00  0.00     0.280 HD
ENDBRANCH   5  40
BRANCH   5  44
HETATM   44  O5  UNL     1       8.018  -7.134  -5.234  1.00  0.00    -0.343 OA
ATOM     45  H5  UNL     1       7.427  -7.874  -5.171  1.00  0.00     0.214 HD
ENDBRANCH   5  44
TORSDOF 9
ENDMDL
