MODEL 1
REMARK VINA RESULT: -6.842258808      0.000      0.000
REMARK  14 active torsions:
REMARK  status: ('A' for Active; 'I' for Inactive)
REMARK    1  A    between atoms: O1_2  and  N1_3 
REMARK       I    between atoms: N1_3  and  C2_5 
REMARK    2  A    between atoms: C2_5  and  C3_7 
REMARK    3  A    between atoms: C3_7  and  O4_9 
REMARK    4  A    between atoms: O4_9  and  C4_10 
REMARK    5  A    between atoms: C7_13  and  O5_14 
REMARK    6  A    between atoms: C8_16  and  O6_17 
REMARK    7  A    between atoms: C9_19  and  N2_20 
REMARK       I    between atoms: N2_20  and  C10_22 
REMARK    8  A    between atoms: C10_22  and  O8_24 
REMARK    9  A    between atoms: O8_24  and  C11_25 
REMARK   10  A    between atoms: C11_25  and  C12_26 
REMARK   11  A    between atoms: C12_26  and  O9_27 
REMARK   12  A    between atoms: C13_29  and  O10_30 
REMARK   13  A    between atoms: N3_33  and  N4_34 
REMARK   14  A    between atoms: N5_37  and  O11_38 
ROOT
HETATM    1  C4  UNL     1      17.125   0.110  -8.401  1.00  0.00     0.181 C 
HETATM    2  C5  UNL     1      16.604  -0.768  -7.554  1.00  0.00     0.121 A 
HETATM    3  C6  UNL     1      17.369  -1.816  -6.855  1.00  0.00     0.066 A 
HETATM    4  C7  UNL     1      18.709  -2.175  -6.845  1.00  0.00     0.116 A 
HETATM    5  C8  UNL     1      19.168  -3.221  -6.074  1.00  0.00     0.130 A 
HETATM    6  C9  UNL     1      18.272  -3.916  -5.303  1.00  0.00     0.108 A 
HETATM    7  C13 UNL     1      16.912  -3.563  -5.305  1.00  0.00     0.127 A 
HETATM    8  C14 UNL     1      16.437  -2.520  -6.070  1.00  0.00     0.127 A 
HETATM    9  N3  UNL     1      15.150  -1.962  -6.250  1.00  0.00    -0.173 N 
HETATM   10  N5  UNL     1      15.250  -0.899  -7.152  1.00  0.00    -0.139 N 
ENDROOT
BRANCH   1  11
HETATM   11  O4  UNL     1      16.223   1.040  -8.969  1.00  0.00    -0.281 OA
BRANCH  11  12
HETATM   12  C3  UNL     1      15.959   1.019 -10.332  1.00  0.00     0.358 C 
HETATM   13  O3  UNL     1      16.720   1.688 -11.072  1.00  0.00    -0.253 OA
BRANCH  12  14
HETATM   14  C2  UNL     1      14.868   0.278 -10.939  1.00  0.00     0.340 C 
HETATM   15  N1  UNL     1      13.582   0.356 -10.348  1.00  0.00    -0.227 N 
ATOM     16  H1  UNL     1      13.471   0.933  -9.514  1.00  0.00     0.198 HD
HETATM   17  O2  UNL     1      15.134  -0.393 -11.959  1.00  0.00    -0.260 OA
BRANCH  15  18
HETATM   18  O1  UNL     1      12.494  -0.289 -10.824  1.00  0.00    -0.282 OA
HETATM   19  C1  UNL     1      11.470  -0.132  -9.889  1.00  0.00     0.237 C 
ENDBRANCH  15  18
ENDBRANCH  12  14
ENDBRANCH  11  12
ENDBRANCH   1  11
BRANCH  10  20
HETATM   20  O11 UNL     1      14.247  -0.110  -7.590  1.00  0.00    -0.266 OA
ATOM     21  H11 UNL     1      13.638   0.348  -7.023  1.00  0.00     0.247 HD
ENDBRANCH  10  20
BRANCH   4  22
HETATM   22  O5  UNL     1      19.588  -1.458  -7.630  1.00  0.00    -0.357 OA
ATOM     23  H5  UNL     1      19.688  -1.709  -8.541  1.00  0.00     0.217 HD
ENDBRANCH   4  22
BRANCH   9  24
HETATM   24  N4  UNL     1      13.942  -2.334  -5.680  1.00  0.00    -0.322 N 
ATOM     25  H42 UNL     1      13.892  -2.813  -4.781  1.00  0.00     0.179 HD
ATOM     26  H41 UNL     1      12.993  -2.202  -6.030  1.00  0.00     0.179 HD
ENDBRANCH   9  24
BRANCH   5  27
HETATM   27  O6  UNL     1      20.508  -3.595  -6.050  1.00  0.00    -0.356 OA
ATOM     28  H6  UNL     1      21.194  -3.001  -5.769  1.00  0.00     0.218 HD
ENDBRANCH   5  27
BRANCH   7  29
HETATM   29  O10 UNL     1      16.058  -4.297  -4.512  1.00  0.00    -0.356 OA
ATOM     30  H10 UNL     1      15.508  -4.945  -4.937  1.00  0.00     0.218 HD
ENDBRANCH   7  29
BRANCH   6  31
HETATM   31  N2  UNL     1      18.701  -4.986  -4.486  1.00  0.00    -0.298 N 
HETATM   32  C10 UNL     1      19.211  -4.842  -3.164  1.00  0.00     0.365 C 
HETATM   33  O7  UNL     1      19.279  -3.680  -2.698  1.00  0.00    -0.238 OA
ATOM     34  H2  UNL     1      18.640  -5.929  -4.870  1.00  0.00     0.171 HD
BRANCH  32  35
HETATM   35  O8  UNL     1      19.622  -5.898  -2.399  1.00  0.00    -0.302 OA
BRANCH  35  36
HETATM   36  C11 UNL     1      20.346  -6.974  -2.860  1.00  0.00     0.206 C 
BRANCH  36  37
HETATM   37  C12 UNL     1      21.668  -7.148  -2.190  1.00  0.00     0.191 C 
BRANCH  37  38
HETATM   38  O9  UNL     1      22.648  -6.347  -2.826  1.00  0.00    -0.399 OA
ATOM     39  H9  UNL     1      22.402  -5.431  -2.783  1.00  0.00     0.209 HD
ENDBRANCH  37  38
ENDBRANCH  36  37
ENDBRANCH  35  36
ENDBRANCH  32  35
ENDBRANCH   6  31
TORSDOF 14
ENDMDL
MODEL 2
REMARK VINA RESULT: -6.782304684      6.714      9.338
REMARK  14 active torsions:
REMARK  status: ('A' for Active; 'I' for Inactive)
REMARK    1  A    between atoms: O1_2  and  N1_3 
REMARK       I    between atoms: N1_3  and  C2_5 
REMARK    2  A    between atoms: C2_5  and  C3_7 
REMARK    3  A    between atoms: C3_7  and  O4_9 
REMARK    4  A    between atoms: O4_9  and  C4_10 
REMARK    5  A    between atoms: C7_13  and  O5_14 
REMARK    6  A    between atoms: C8_16  and  O6_17 
REMARK    7  A    between atoms: C9_19  and  N2_20 
REMARK       I    between atoms: N2_20  and  C10_22 
REMARK    8  A    between atoms: C10_22  and  O8_24 
REMARK    9  A    between atoms: O8_24  and  C11_25 
REMARK   10  A    between atoms: C11_25  and  C12_26 
REMARK   11  A    between atoms: C12_26  and  O9_27 
REMARK   12  A    between atoms: C13_29  and  O10_30 
REMARK   13  A    between atoms: N3_33  and  N4_34 
REMARK   14  A    between atoms: N5_37  and  O11_38 
ROOT
HETATM    1  C4  UNL     1      12.432  -3.296  -3.201  1.00  0.00     0.181 C 
HETATM    2  C5  UNL     1      12.124  -4.192  -4.128  1.00  0.00     0.121 A 
HETATM    3  C6  UNL     1      11.428  -5.465  -3.866  1.00  0.00     0.066 A 
HETATM    4  C7  UNL     1      10.925  -6.061  -2.718  1.00  0.00     0.116 A 
HETATM    5  C8  UNL     1      10.299  -7.288  -2.760  1.00  0.00     0.130 A 
HETATM    6  C9  UNL     1      10.175  -7.926  -3.967  1.00  0.00     0.108 A 
HETATM    7  C13 UNL     1      10.681  -7.334  -5.137  1.00  0.00     0.127 A 
HETATM    8  C14 UNL     1      11.310  -6.108  -5.113  1.00  0.00     0.127 A 
HETATM    9  N3  UNL     1      11.892  -5.301  -6.117  1.00  0.00    -0.173 N 
HETATM   10  N5  UNL     1      12.387  -4.138  -5.521  1.00  0.00    -0.139 N 
ENDROOT
BRANCH   1  11
HETATM   11  O4  UNL     1      13.099  -2.133  -3.655  1.00  0.00    -0.281 OA
BRANCH  11  12
HETATM   12  C3  UNL     1      14.464  -1.980  -3.444  1.00  0.00     0.358 C 
HETATM   13  O3  UNL     1      14.871  -0.831  -3.148  1.00  0.00    -0.253 OA
BRANCH  12  14
HETATM   14  C2  UNL     1      15.430  -3.059  -3.546  1.00  0.00     0.340 C 
HETATM   15  N1  UNL     1      15.857  -3.468  -4.834  1.00  0.00    -0.227 N 
ATOM     16  H1  UNL     1      15.468  -2.987  -5.645  1.00  0.00     0.198 HD
HETATM   17  O2  UNL     1      15.830  -3.567  -2.477  1.00  0.00    -0.260 OA
BRANCH  15  18
HETATM   18  O1  UNL     1      16.751  -4.458  -5.051  1.00  0.00    -0.282 OA
HETATM   19  C1  UNL     1      17.981  -3.861  -5.333  1.00  0.00     0.237 C 
ENDBRANCH  15  18
ENDBRANCH  12  14
ENDBRANCH  11  12
ENDBRANCH   1  11
BRANCH  10  20
HETATM   20  O11 UNL     1      13.018  -3.116  -6.136  1.00  0.00    -0.266 OA
ATOM     21  H11 UNL     1      13.213  -3.089  -7.065  1.00  0.00     0.247 HD
ENDBRANCH  10  20
BRANCH   4  22
HETATM   22  O5  UNL     1      11.063  -5.396  -1.518  1.00  0.00    -0.357 OA
ATOM     23  H5  UNL     1      11.368  -5.885  -0.763  1.00  0.00     0.217 HD
ENDBRANCH   4  22
BRANCH   9  24
HETATM   24  N4  UNL     1      12.002  -5.535  -7.480  1.00  0.00    -0.322 N 
ATOM     25  H42 UNL     1      12.463  -4.875  -8.107  1.00  0.00     0.179 HD
ATOM     26  H41 UNL     1      11.673  -6.328  -8.030  1.00  0.00     0.179 HD
ENDBRANCH   9  24
BRANCH   5  27
HETATM   27  O6  UNL     1       9.788  -7.900  -1.620  1.00  0.00    -0.356 OA
ATOM     28  H6  UNL     1       8.854  -7.985  -1.466  1.00  0.00     0.218 HD
ENDBRANCH   5  27
BRANCH   7  29
HETATM   29  O10 UNL     1      10.529  -8.021  -6.320  1.00  0.00    -0.356 OA
ATOM     30  H10 UNL     1      10.718  -8.952  -6.318  1.00  0.00     0.218 HD
ENDBRANCH   7  29
BRANCH   6  31
HETATM   31  N2  UNL     1       9.527  -9.178  -4.059  1.00  0.00    -0.298 N 
HETATM   32  C10 UNL     1      10.161 -10.435  -3.841  1.00  0.00     0.365 C 
HETATM   33  O7  UNL     1      11.379 -10.421  -3.545  1.00  0.00    -0.238 OA
ATOM     34  H2  UNL     1       8.536  -9.183  -4.297  1.00  0.00     0.171 HD
BRANCH  32  35
HETATM   35  O8  UNL     1       9.507 -11.632  -3.942  1.00  0.00    -0.302 OA
BRANCH  35  36
HETATM   36  C11 UNL     1       8.686 -11.999  -4.983  1.00  0.00     0.206 C 
BRANCH  36  37
HETATM   37  C12 UNL     1       7.230 -11.881  -4.678  1.00  0.00     0.191 C 
BRANCH  37  38
HETATM   38  O9  UNL     1       6.793 -10.549  -4.878  1.00  0.00    -0.399 OA
ATOM     39  H9  UNL     1       6.837 -10.324  -5.799  1.00  0.00     0.209 HD
ENDBRANCH  37  38
ENDBRANCH  36  37
ENDBRANCH  35  36
ENDBRANCH  32  35
ENDBRANCH   6  31
TORSDOF 14
ENDMDL
MODEL 3
REMARK VINA RESULT: -6.739520278      4.980      9.260
REMARK  14 active torsions:
REMARK  status: ('A' for Active; 'I' for Inactive)
REMARK    1  A    between atoms: O1_2  and  N1_3 
REMARK       I    between atoms: N1_3  and  C2_5 
REMARK    2  A    between atoms: C2_5  and  C3_7 
REMARK    3  A    between atoms: C3_7  and  O4_9 
REMARK    4  A    between atoms: O4_9  and  C4_10 
REMARK    5  A    between atoms: C7_13  and  O5_14 
REMARK    6  A    between atoms: C8_16  and  O6_17 
REMARK    7  A    between atoms: C9_19  and  N2_20 
REMARK       I    between atoms: N2_20  and  C10_22 
REMARK    8  A    between atoms: C10_22  and  O8_24 
REMARK    9  A    between atoms: O8_24  and  C11_25 
REMARK   10  A    between atoms: C11_25  and  C12_26 
REMARK   11  A    between atoms: C12_26  and  O9_27 
REMARK   12  A    between atoms: C13_29  and  O10_30 
REMARK   13  A    between atoms: N3_33  and  N4_34 
REMARK   14  A    between atoms: N5_37  and  O11_38 
ROOT
HETATM    1  C4  UNL     1      15.913  -2.933  -2.848  1.00  0.00     0.181 C 
HETATM    2  C5  UNL     1      15.459  -3.526  -3.943  1.00  0.00     0.121 A 
HETATM    3  C6  UNL     1      14.076  -4.002  -4.127  1.00  0.00     0.066 A 
HETATM    4  C7  UNL     1      12.943  -3.980  -3.327  1.00  0.00     0.116 A 
HETATM    5  C8  UNL     1      11.745  -4.505  -3.762  1.00  0.00     0.130 A 
HETATM    6  C9  UNL     1      11.682  -5.058  -5.015  1.00  0.00     0.108 A 
HETATM    7  C13 UNL     1      12.823  -5.088  -5.835  1.00  0.00     0.127 A 
HETATM    8  C14 UNL     1      14.028  -4.568  -5.416  1.00  0.00     0.127 A 
HETATM    9  N3  UNL     1      15.299  -4.463  -6.026  1.00  0.00    -0.173 N 
HETATM   10  N5  UNL     1      16.170  -3.831  -5.133  1.00  0.00    -0.139 N 
ENDROOT
BRANCH   1  11
HETATM   11  O4  UNL     1      17.274  -2.546  -2.867  1.00  0.00    -0.281 OA
BRANCH  11  12
HETATM   12  C3  UNL     1      18.210  -3.232  -2.103  1.00  0.00     0.358 C 
HETATM   13  O3  UNL     1      18.902  -2.556  -1.305  1.00  0.00    -0.253 OA
BRANCH  12  14
HETATM   14  C2  UNL     1      18.426  -4.666  -2.175  1.00  0.00     0.340 C 
HETATM   15  N1  UNL     1      19.215  -5.180  -3.234  1.00  0.00    -0.227 N 
ATOM     16  H1  UNL     1      19.602  -4.521  -3.909  1.00  0.00     0.198 HD
HETATM   17  O2  UNL     1      17.897  -5.367  -1.287  1.00  0.00    -0.260 OA
BRANCH  15  18
HETATM   18  O1  UNL     1      19.485  -6.494  -3.402  1.00  0.00    -0.282 OA
HETATM   19  C1  UNL     1      20.678  -6.768  -2.732  1.00  0.00     0.237 C 
ENDBRANCH  15  18
ENDBRANCH  12  14
ENDBRANCH  11  12
ENDBRANCH   1  11
BRANCH  10  20
HETATM   20  O11 UNL     1      17.473  -3.548  -5.334  1.00  0.00    -0.266 OA
ATOM     21  H11 UNL     1      17.927  -3.672  -6.159  1.00  0.00     0.247 HD
ENDBRANCH  10  20
BRANCH   4  22
HETATM   22  O5  UNL     1      13.036  -3.417  -2.072  1.00  0.00    -0.357 OA
ATOM     23  H5  UNL     1      12.374  -2.788  -1.808  1.00  0.00     0.217 HD
ENDBRANCH   4  22
BRANCH   9  24
HETATM   24  N4  UNL     1      15.710  -4.884  -7.282  1.00  0.00    -0.322 N 
ATOM     25  H42 UNL     1      15.066  -4.945  -8.070  1.00  0.00     0.179 HD
ATOM     26  H41 UNL     1      16.636  -5.173  -7.597  1.00  0.00     0.179 HD
ENDBRANCH   9  24
BRANCH   5  27
HETATM   27  O6  UNL     1      10.599  -4.491  -2.974  1.00  0.00    -0.356 OA
ATOM     28  H6  UNL     1      10.177  -5.290  -2.678  1.00  0.00     0.218 HD
ENDBRANCH   5  27
BRANCH   7  29
HETATM   29  O10 UNL     1      12.700  -5.658  -7.083  1.00  0.00    -0.356 OA
ATOM     30  H10 UNL     1      12.881  -6.587  -7.163  1.00  0.00     0.218 HD
ENDBRANCH   7  29
BRANCH   6  31
HETATM   31  N2  UNL     1      10.471  -5.595  -5.507  1.00  0.00    -0.298 N 
HETATM   32  C10 UNL     1      10.052  -6.944  -5.328  1.00  0.00     0.365 C 
HETATM   33  O7  UNL     1      10.815  -7.703  -4.685  1.00  0.00    -0.238 OA
ATOM     34  H2  UNL     1       9.853  -4.972  -6.026  1.00  0.00     0.171 HD
BRANCH  32  35
HETATM   35  O8  UNL     1       8.875  -7.435  -5.821  1.00  0.00    -0.302 OA
BRANCH  35  36
HETATM   36  C11 UNL     1       7.624  -7.127  -5.337  1.00  0.00     0.206 C 
BRANCH  36  37
HETATM   37  C12 UNL     1       6.658  -8.263  -5.385  1.00  0.00     0.191 C 
BRANCH  37  38
HETATM   38  O9  UNL     1       5.762  -8.192  -4.291  1.00  0.00    -0.399 OA
ATOM     39  H9  UNL     1       5.796  -8.995  -3.785  1.00  0.00     0.209 HD
ENDBRANCH  37  38
ENDBRANCH  36  37
ENDBRANCH  35  36
ENDBRANCH  32  35
ENDBRANCH   6  31
TORSDOF 14
ENDMDL
MODEL 4
REMARK VINA RESULT: -6.719679249      1.825      2.134
REMARK  14 active torsions:
REMARK  status: ('A' for Active; 'I' for Inactive)
REMARK    1  A    between atoms: O1_2  and  N1_3 
REMARK       I    between atoms: N1_3  and  C2_5 
REMARK    2  A    between atoms: C2_5  and  C3_7 
REMARK    3  A    between atoms: C3_7  and  O4_9 
REMARK    4  A    between atoms: O4_9  and  C4_10 
REMARK    5  A    between atoms: C7_13  and  O5_14 
REMARK    6  A    between atoms: C8_16  and  O6_17 
REMARK    7  A    between atoms: C9_19  and  N2_20 
REMARK       I    between atoms: N2_20  and  C10_22 
REMARK    8  A    between atoms: C10_22  and  O8_24 
REMARK    9  A    between atoms: O8_24  and  C11_25 
REMARK   10  A    between atoms: C11_25  and  C12_26 
REMARK   11  A    between atoms: C12_26  and  O9_27 
REMARK   12  A    between atoms: C13_29  and  O10_30 
REMARK   13  A    between atoms: N3_33  and  N4_34 
REMARK   14  A    between atoms: N5_37  and  O11_38 
ROOT
HETATM    1  C4  UNL     1      15.964  -0.680  -9.186  1.00  0.00     0.181 C 
HETATM    2  C5  UNL     1      15.648  -1.413  -8.127  1.00  0.00     0.121 A 
HETATM    3  C6  UNL     1      16.620  -1.934  -7.148  1.00  0.00     0.066 A 
HETATM    4  C7  UNL     1      17.998  -1.834  -7.022  1.00  0.00     0.116 A 
HETATM    5  C8  UNL     1      18.671  -2.431  -5.978  1.00  0.00     0.130 A 
HETATM    6  C9  UNL     1      17.954  -3.137  -5.047  1.00  0.00     0.108 A 
HETATM    7  C13 UNL     1      16.557  -3.247  -5.164  1.00  0.00     0.127 A 
HETATM    8  C14 UNL     1      15.869  -2.657  -6.201  1.00  0.00     0.127 A 
HETATM    9  N3  UNL     1      14.499  -2.606  -6.546  1.00  0.00    -0.173 N 
HETATM   10  N5  UNL     1      14.363  -1.851  -7.715  1.00  0.00    -0.139 N 
ENDROOT
BRANCH   1  11
HETATM   11  O4  UNL     1      14.884  -0.274 -10.006  1.00  0.00    -0.281 OA
BRANCH  11  12
HETATM   12  C3  UNL     1      14.666   1.074 -10.262  1.00  0.00     0.358 C 
HETATM   13  O3  UNL     1      15.201   1.555 -11.289  1.00  0.00    -0.253 OA
BRANCH  12  14
HETATM   14  C2  UNL     1      13.865   1.943  -9.418  1.00  0.00     0.340 C 
HETATM   15  N1  UNL     1      14.212   3.314  -9.333  1.00  0.00    -0.227 N 
ATOM     16  H1  UNL     1      15.017   3.641  -9.869  1.00  0.00     0.198 HD
HETATM   17  O2  UNL     1      12.905   1.421  -8.812  1.00  0.00    -0.260 OA
BRANCH  15  18
HETATM   18  O1  UNL     1      13.541   4.216  -8.583  1.00  0.00    -0.282 OA
HETATM   19  C1  UNL     1      13.559   5.431  -9.269  1.00  0.00     0.237 C 
ENDBRANCH  15  18
ENDBRANCH  12  14
ENDBRANCH  11  12
ENDBRANCH   1  11
BRANCH  10  20
HETATM   20  O11 UNL     1      13.218  -1.571  -8.372  1.00  0.00    -0.266 OA
ATOM     21  H11 UNL     1      12.692  -2.216  -8.829  1.00  0.00     0.247 HD
ENDBRANCH  10  20
BRANCH   4  22
HETATM   22  O5  UNL     1      18.694  -1.117  -7.973  1.00  0.00    -0.357 OA
ATOM     23  H5  UNL     1      19.584  -0.850  -7.777  1.00  0.00     0.217 HD
ENDBRANCH   4  22
BRANCH   9  24
HETATM   24  N4  UNL     1      13.408  -3.171  -5.904  1.00  0.00    -0.322 N 
ATOM     25  H42 UNL     1      12.898  -2.680  -5.170  1.00  0.00     0.179 HD
ATOM     26  H41 UNL     1      12.975  -4.084  -6.045  1.00  0.00     0.179 HD
ENDBRANCH   9  24
BRANCH   5  27
HETATM   27  O6  UNL     1      20.052  -2.340  -5.836  1.00  0.00    -0.356 OA
ATOM     28  H6  UNL     1      20.545  -2.937  -5.286  1.00  0.00     0.218 HD
ENDBRANCH   5  27
BRANCH   7  29
HETATM   29  O10 UNL     1      15.889  -3.970  -4.200  1.00  0.00    -0.356 OA
ATOM     30  H10 UNL     1      15.090  -3.599  -3.845  1.00  0.00     0.218 HD
ENDBRANCH   7  29
BRANCH   6  31
HETATM   31  N2  UNL     1      18.600  -3.753  -3.953  1.00  0.00    -0.298 N 
HETATM   32  C10 UNL     1      19.416  -4.917  -4.044  1.00  0.00     0.365 C 
HETATM   33  O7  UNL     1      19.568  -5.424  -5.181  1.00  0.00    -0.238 OA
ATOM     34  H2  UNL     1      18.475  -3.334  -3.032  1.00  0.00     0.171 HD
BRANCH  32  35
HETATM   35  O8  UNL     1      20.025  -5.493  -2.964  1.00  0.00    -0.302 OA
BRANCH  35  36
HETATM   36  C11 UNL     1      20.132  -6.847  -2.745  1.00  0.00     0.206 C 
BRANCH  36  37
HETATM   37  C12 UNL     1      21.513  -7.299  -2.407  1.00  0.00     0.191 C 
BRANCH  37  38
HETATM   38  O9  UNL     1      22.460  -6.326  -2.810  1.00  0.00    -0.399 OA
ATOM     39  H9  UNL     1      23.252  -6.747  -3.121  1.00  0.00     0.209 HD
ENDBRANCH  37  38
ENDBRANCH  36  37
ENDBRANCH  35  36
ENDBRANCH  32  35
ENDBRANCH   6  31
TORSDOF 14
ENDMDL
MODEL 5
REMARK VINA RESULT: -6.631648714      1.564      2.000
REMARK  14 active torsions:
REMARK  status: ('A' for Active; 'I' for Inactive)
REMARK    1  A    between atoms: O1_2  and  N1_3 
REMARK       I    between atoms: N1_3  and  C2_5 
REMARK    2  A    between atoms: C2_5  and  C3_7 
REMARK    3  A    between atoms: C3_7  and  O4_9 
REMARK    4  A    between atoms: O4_9  and  C4_10 
REMARK    5  A    between atoms: C7_13  and  O5_14 
REMARK    6  A    between atoms: C8_16  and  O6_17 
REMARK    7  A    between atoms: C9_19  and  N2_20 
REMARK       I    between atoms: N2_20  and  C10_22 
REMARK    8  A    between atoms: C10_22  and  O8_24 
REMARK    9  A    between atoms: O8_24  and  C11_25 
REMARK   10  A    between atoms: C11_25  and  C12_26 
REMARK   11  A    between atoms: C12_26  and  O9_27 
REMARK   12  A    between atoms: C13_29  and  O10_30 
REMARK   13  A    between atoms: N3_33  and  N4_34 
REMARK   14  A    between atoms: N5_37  and  O11_38 
ROOT
HETATM    1  C4  UNL     1      17.132  -0.479  -8.059  1.00  0.00     0.181 C 
HETATM    2  C5  UNL     1      16.717  -0.974  -6.901  1.00  0.00     0.121 A 
HETATM    3  C6  UNL     1      17.517  -1.857  -6.032  1.00  0.00     0.066 A 
HETATM    4  C7  UNL     1      18.798  -2.382  -6.122  1.00  0.00     0.116 A 
HETATM    5  C8  UNL     1      19.311  -3.198  -5.137  1.00  0.00     0.130 A 
HETATM    6  C9  UNL     1      18.532  -3.491  -4.047  1.00  0.00     0.108 A 
HETATM    7  C13 UNL     1      17.233  -2.965  -3.945  1.00  0.00     0.127 A 
HETATM    8  C14 UNL     1      16.703  -2.149  -4.920  1.00  0.00     0.127 A 
HETATM    9  N3  UNL     1      15.458  -1.495  -5.062  1.00  0.00    -0.173 N 
HETATM   10  N5  UNL     1      15.464  -0.782  -6.264  1.00  0.00    -0.139 N 
ENDROOT
BRANCH   1  11
HETATM   11  O4  UNL     1      16.215   0.352  -8.745  1.00  0.00    -0.281 OA
BRANCH  11  12
HETATM   12  C3  UNL     1      15.514  -0.131  -9.842  1.00  0.00     0.358 C 
HETATM   13  O3  UNL     1      14.697  -1.061  -9.634  1.00  0.00    -0.253 OA
BRANCH  12  14
HETATM   14  C2  UNL     1      15.671   0.371 -11.195  1.00  0.00     0.340 C 
HETATM   15  N1  UNL     1      16.125   1.701 -11.377  1.00  0.00    -0.227 N 
ATOM     16  H1  UNL     1      16.325   2.258 -10.546  1.00  0.00     0.198 HD
HETATM   17  O2  UNL     1      15.392  -0.411 -12.129  1.00  0.00    -0.260 OA
BRANCH  15  18
HETATM   18  O1  UNL     1      16.309   2.275 -12.586  1.00  0.00    -0.282 OA
HETATM   19  C1  UNL     1      15.182   3.052 -12.860  1.00  0.00     0.237 C 
ENDBRANCH  15  18
ENDBRANCH  12  14
ENDBRANCH  11  12
ENDBRANCH   1  11
BRANCH  10  20
HETATM   20  O11 UNL     1      14.463  -0.030  -6.767  1.00  0.00    -0.266 OA
ATOM     21  H11 UNL     1      13.551  -0.295  -6.784  1.00  0.00     0.247 HD
ENDBRANCH  10  20
BRANCH   4  22
HETATM   22  O5  UNL     1      19.559  -2.071  -7.229  1.00  0.00    -0.357 OA
ATOM     23  H5  UNL     1      20.426  -1.706  -7.093  1.00  0.00     0.217 HD
ENDBRANCH   4  22
BRANCH   9  24
HETATM   24  N4  UNL     1      14.360  -1.499  -4.214  1.00  0.00    -0.322 N 
ATOM     25  H42 UNL     1      13.404  -1.459  -4.566  1.00  0.00     0.179 HD
ATOM     26  H41 UNL     1      14.329  -1.540  -3.195  1.00  0.00     0.179 HD
ENDBRANCH   9  24
BRANCH   5  27
HETATM   27  O6  UNL     1      20.593  -3.733  -5.210  1.00  0.00    -0.356 OA
ATOM     28  H6  UNL     1      21.001  -3.961  -6.037  1.00  0.00     0.218 HD
ENDBRANCH   5  27
BRANCH   7  29
HETATM   29  O10 UNL     1      16.495  -3.294  -2.829  1.00  0.00    -0.356 OA
ATOM     30  H10 UNL     1      16.518  -4.197  -2.535  1.00  0.00     0.218 HD
ENDBRANCH   7  29
BRANCH   6  31
HETATM   31  N2  UNL     1      19.024  -4.311  -3.007  1.00  0.00    -0.298 N 
HETATM   32  C10 UNL     1      19.494  -5.644  -3.181  1.00  0.00     0.365 C 
HETATM   33  O7  UNL     1      19.469  -6.115  -4.342  1.00  0.00    -0.238 OA
ATOM     34  H2  UNL     1      19.043  -3.920  -2.066  1.00  0.00     0.171 HD
BRANCH  32  35
HETATM   35  O8  UNL     1      19.959  -6.415  -2.152  1.00  0.00    -0.302 OA
BRANCH  35  36
HETATM   36  C11 UNL     1      20.856  -7.450  -2.282  1.00  0.00     0.206 C 
BRANCH  36  37
HETATM   37  C12 UNL     1      22.270  -7.008  -2.460  1.00  0.00     0.191 C 
BRANCH  37  38
HETATM   38  O9  UNL     1      22.910  -7.799  -3.445  1.00  0.00    -0.399 OA
ATOM     39  H9  UNL     1      23.297  -7.244  -4.112  1.00  0.00     0.209 HD
ENDBRANCH  37  38
ENDBRANCH  36  37
ENDBRANCH  35  36
ENDBRANCH  32  35
ENDBRANCH   6  31
TORSDOF 14
ENDMDL
