MODEL 1
REMARK VINA RESULT: -7.959680032      0.000      0.000
REMARK  12 active torsions:
REMARK  status: ('A' for Active; 'I' for Inactive)
REMARK       I    between atoms: C2_2  and  N1_4 
REMARK    1  A    between atoms: C4_6  and  O2_7 
REMARK    2  A    between atoms: C5_9  and  C6_10 
REMARK    3  A    between atoms: C6_10  and  O3_11 
REMARK    4  A    between atoms: C6_10  and  C7_13 
REMARK    5  A    between atoms: C7_13  and  N2_14 
REMARK    6  A    between atoms: N5_19  and  N6_20 
REMARK    7  A    between atoms: C8_23  and  N7_24 
REMARK    8  A    between atoms: N7_24  and  C9_26 
REMARK    9  A    between atoms: C9_26  and  C10_27 
REMARK   10  A    between atoms: C11_30  and  N9_31 
REMARK   11  A    between atoms: N11_38  and  N12_39 
REMARK   12  A    between atoms: C13_42  and  O4_43 
ROOT
HETATM    1  N2  UNL     1      16.285  -3.181  -6.303  1.00  0.00    -0.102 N 
HETATM    2  N3  UNL     1      16.570  -3.902  -7.370  1.00  0.00    -0.209 N 
ATOM      3  H3  UNL     1      17.290  -3.693  -8.061  1.00  0.00     0.210 HD
HETATM    4  N4  UNL     1      15.766  -4.930  -7.384  1.00  0.00    -0.192 N 
ATOM      5  H4  UNL     1      15.748  -5.667  -8.089  1.00  0.00     0.212 HD
HETATM    6  N5  UNL     1      14.966  -4.850  -6.310  1.00  0.00    -0.010 N 
HETATM    7  C8  UNL     1      15.278  -3.751  -5.613  1.00  0.00     0.733 A 
ENDROOT
BRANCH   7   8
HETATM    8  N7  UNL     1      14.762  -3.315  -4.564  1.00  0.00    -0.214 N 
ATOM      9  H7  UNL     1      15.353  -3.436  -3.741  1.00  0.00     0.178 HD
BRANCH   8  10
HETATM   10  C9  UNL     1      13.527  -2.691  -4.284  1.00  0.00     0.217 C 
BRANCH  10  11
HETATM   11  C10 UNL     1      12.727  -3.308  -3.199  1.00  0.00     0.139 A 
HETATM   12  N8  UNL     1      12.417  -4.611  -3.117  1.00  0.00    -0.177 N 
HETATM   13  C11 UNL     1      11.696  -5.152  -2.131  1.00  0.00     0.679 A 
ATOM     14  H8  UNL     1      12.754  -5.229  -3.855  1.00  0.00     0.185 HD
HETATM   15  N10 UNL     1      11.250  -4.336  -1.155  1.00  0.00    -0.165 N 
HETATM   16  C12 UNL     1      11.538  -3.009  -1.194  1.00  0.00     0.213 A 
ATOM     17  H10 UNL     1      10.696  -4.715  -0.388  1.00  0.00     0.186 HD
HETATM   18  S1  UNL     1      10.978  -2.055   0.010  1.00  0.00    -0.038 SA
HETATM   19  N11 UNL     1      12.277  -2.504  -2.220  1.00  0.00    -0.221 N 
BRANCH  13  20
HETATM   20  N9  UNL     1      11.408  -6.409  -2.067  1.00  0.00    -0.234 N 
ATOM     21  H92 UNL     1      12.157  -7.073  -1.874  1.00  0.00     0.174 HD
ATOM     22  H91 UNL     1      10.466  -6.776  -2.200  1.00  0.00     0.174 HD
ENDBRANCH  13  20
BRANCH  19  23
HETATM   23  N12 UNL     1      12.558  -1.156  -2.243  1.00  0.00    -0.335 N 
ATOM     24 2H12 UNL     1      13.518  -0.852  -2.408  1.00  0.00     0.177 HD
ATOM     25 1H12 UNL     1      11.816  -0.472  -2.096  1.00  0.00     0.177 HD
ENDBRANCH  19  23
ENDBRANCH  10  11
ENDBRANCH   8  10
ENDBRANCH   7   8
BRANCH   1  26
HETATM   26  C7  UNL     1      16.956  -1.943  -5.887  1.00  0.00     0.206 C 
BRANCH  26  27
HETATM   27  C6  UNL     1      18.357  -2.259  -5.417  1.00  0.00     0.178 C 
BRANCH  27  28
HETATM   28  C5  UNL     1      18.431  -3.257  -4.354  1.00  0.00     0.058 A 
HETATM   29  C4  UNL     1      17.802  -3.117  -3.138  1.00  0.00     0.095 A 
HETATM   30  C3  UNL     1      18.080  -4.211  -2.386  1.00  0.00     0.139 A 
HETATM   31  N1  UNL     1      18.866  -5.020  -3.116  1.00  0.00    -0.270 N 
HETATM   32  C2  UNL     1      19.380  -6.288  -2.660  1.00  0.00     0.226 C 
HETATM   33  C13 UNL     1      19.091  -4.459  -4.310  1.00  0.00     0.161 A 
HETATM   34  C1  UNL     1      19.046  -6.781  -1.303  1.00  0.00     0.118 C 
HETATM   35  O1  UNL     1      20.095  -6.940  -3.428  1.00  0.00    -0.273 OA
BRANCH  29  36
HETATM   36  O2  UNL     1      17.005  -2.053  -2.703  1.00  0.00    -0.358 OA
ATOM     37  H2  UNL     1      17.321  -1.342  -2.158  1.00  0.00     0.217 HD
ENDBRANCH  29  36
BRANCH  33  38
HETATM   38  O4  UNL     1      19.867  -5.023  -5.321  1.00  0.00    -0.345 OA
ATOM     39  H4  UNL     1      20.386  -4.530  -5.946  1.00  0.00     0.219 HD
ENDBRANCH  33  38
ENDBRANCH  27  28
BRANCH  27  40
HETATM   40  O3  UNL     1      19.075  -2.736  -6.513  1.00  0.00    -0.389 OA
ATOM     41  H3  UNL     1      18.811  -2.241  -7.280  1.00  0.00     0.210 HD
ENDBRANCH  27  40
ENDBRANCH  26  27
ENDBRANCH   1  26
BRANCH   6  42
HETATM   42  N6  UNL     1      14.011  -5.813  -6.069  1.00  0.00    -0.308 N 
ATOM     43  H62 UNL     1      13.170  -6.052  -6.595  1.00  0.00     0.179 HD
ATOM     44  H61 UNL     1      14.081  -6.427  -5.256  1.00  0.00     0.179 HD
ENDBRANCH   6  42
TORSDOF 12
ENDMDL
MODEL 2
REMARK VINA RESULT: -7.905686698      2.098      3.474
REMARK  12 active torsions:
REMARK  status: ('A' for Active; 'I' for Inactive)
REMARK       I    between atoms: C2_2  and  N1_4 
REMARK    1  A    between atoms: C4_6  and  O2_7 
REMARK    2  A    between atoms: C5_9  and  C6_10 
REMARK    3  A    between atoms: C6_10  and  O3_11 
REMARK    4  A    between atoms: C6_10  and  C7_13 
REMARK    5  A    between atoms: C7_13  and  N2_14 
REMARK    6  A    between atoms: N5_19  and  N6_20 
REMARK    7  A    between atoms: C8_23  and  N7_24 
REMARK    8  A    between atoms: N7_24  and  C9_26 
REMARK    9  A    between atoms: C9_26  and  C10_27 
REMARK   10  A    between atoms: C11_30  and  N9_31 
REMARK   11  A    between atoms: N11_38  and  N12_39 
REMARK   12  A    between atoms: C13_42  and  O4_43 
ROOT
HETATM    1  N2  UNL     1      16.187  -1.616  -7.518  1.00  0.00    -0.102 N 
HETATM    2  N3  UNL     1      15.930  -0.327  -7.406  1.00  0.00    -0.209 N 
ATOM      3  H3  UNL     1      16.610   0.430  -7.476  1.00  0.00     0.210 HD
HETATM    4  N4  UNL     1      14.650  -0.192  -7.189  1.00  0.00    -0.192 N 
ATOM      5  H4  UNL     1      14.154   0.690  -7.059  1.00  0.00     0.212 HD
HETATM    6  N5  UNL     1      14.099  -1.415  -7.164  1.00  0.00    -0.010 N 
HETATM    7  C8  UNL     1      15.054  -2.329  -7.370  1.00  0.00     0.733 A 
ENDROOT
BRANCH   7   8
HETATM    8  N7  UNL     1      14.954  -3.572  -7.409  1.00  0.00    -0.214 N 
ATOM      9  H7  UNL     1      14.776  -3.936  -8.345  1.00  0.00     0.178 HD
BRANCH   8  10
HETATM   10  C9  UNL     1      15.036  -4.577  -6.420  1.00  0.00     0.217 C 
BRANCH  10  11
HETATM   11  C10 UNL     1      14.053  -4.471  -5.315  1.00  0.00     0.139 A 
HETATM   12  N8  UNL     1      14.261  -3.819  -4.161  1.00  0.00    -0.177 N 
HETATM   13  C11 UNL     1      13.364  -3.731  -3.175  1.00  0.00     0.679 A 
ATOM     14  H8  UNL     1      15.162  -3.360  -4.028  1.00  0.00     0.185 HD
HETATM   15  N10 UNL     1      12.173  -4.336  -3.349  1.00  0.00    -0.165 N 
HETATM   16  C12 UNL     1      11.915  -5.009  -4.501  1.00  0.00     0.213 A 
ATOM     17  H10 UNL     1      11.465  -4.290  -2.617  1.00  0.00     0.186 HD
HETATM   18  S1  UNL     1      10.457  -5.728  -4.673  1.00  0.00    -0.038 SA
HETATM   19  N11 UNL     1      12.861  -5.071  -5.479  1.00  0.00    -0.221 N 
BRANCH  13  20
HETATM   20  N9  UNL     1      13.581  -3.098  -2.070  1.00  0.00    -0.234 N 
ATOM     21  H92 UNL     1      13.264  -2.132  -1.988  1.00  0.00     0.174 HD
ATOM     22  H91 UNL     1      14.055  -3.514  -1.268  1.00  0.00     0.174 HD
ENDBRANCH  13  20
BRANCH  19  23
HETATM   23  N12 UNL     1      12.582  -5.756  -6.639  1.00  0.00    -0.335 N 
ATOM     24 2H12 UNL     1      13.342  -5.972  -7.284  1.00  0.00     0.177 HD
ATOM     25 1H12 UNL     1      11.626  -6.045  -6.850  1.00  0.00     0.177 HD
ENDBRANCH  19  23
ENDBRANCH  10  11
ENDBRANCH   8  10
ENDBRANCH   7   8
BRANCH   1  26
HETATM   26  C7  UNL     1      17.499  -2.219  -7.782  1.00  0.00     0.206 C 
BRANCH  26  27
HETATM   27  C6  UNL     1      18.485  -1.768  -6.731  1.00  0.00     0.178 C 
BRANCH  27  28
HETATM   28  C5  UNL     1      18.581  -2.647  -5.569  1.00  0.00     0.058 A 
HETATM   29  C4  UNL     1      19.612  -3.537  -5.374  1.00  0.00     0.095 A 
HETATM   30  C3  UNL     1      19.392  -4.196  -4.210  1.00  0.00     0.139 A 
HETATM   31  N1  UNL     1      18.247  -3.729  -3.685  1.00  0.00    -0.270 N 
HETATM   32  C2  UNL     1      17.671  -4.186  -2.445  1.00  0.00     0.226 C 
HETATM   33  C13 UNL     1      17.740  -2.791  -4.494  1.00  0.00     0.161 A 
HETATM   34  C1  UNL     1      18.350  -5.240  -1.654  1.00  0.00     0.118 C 
HETATM   35  O1  UNL     1      16.610  -3.676  -2.069  1.00  0.00    -0.273 OA
BRANCH  29  36
HETATM   36  O2  UNL     1      20.718  -3.762  -6.202  1.00  0.00    -0.358 OA
ATOM     37  H2  UNL     1      20.696  -3.684  -7.149  1.00  0.00     0.217 HD
ENDBRANCH  29  36
BRANCH  33  38
HETATM   38  O4  UNL     1      16.557  -2.092  -4.259  1.00  0.00    -0.345 OA
ATOM     39  H4  UNL     1      15.728  -2.270  -4.688  1.00  0.00     0.219 HD
ENDBRANCH  33  38
ENDBRANCH  27  28
BRANCH  27  40
HETATM   40  O3  UNL     1      19.743  -1.698  -7.329  1.00  0.00    -0.389 OA
ATOM     41  H3  UNL     1      20.126  -0.856  -7.118  1.00  0.00     0.210 HD
ENDBRANCH  27  40
ENDBRANCH  26  27
ENDBRANCH   1  26
BRANCH   6  42
HETATM   42  N6  UNL     1      12.747  -1.575  -6.952  1.00  0.00    -0.308 N 
ATOM     43  H62 UNL     1      12.251  -2.173  -6.291  1.00  0.00     0.179 HD
ATOM     44  H61 UNL     1      12.066  -1.050  -7.503  1.00  0.00     0.179 HD
ENDBRANCH   6  42
TORSDOF 12
ENDMDL
MODEL 3
REMARK VINA RESULT: -7.817509775      2.069      3.242
REMARK  12 active torsions:
REMARK  status: ('A' for Active; 'I' for Inactive)
REMARK       I    between atoms: C2_2  and  N1_4 
REMARK    1  A    between atoms: C4_6  and  O2_7 
REMARK    2  A    between atoms: C5_9  and  C6_10 
REMARK    3  A    between atoms: C6_10  and  O3_11 
REMARK    4  A    between atoms: C6_10  and  C7_13 
REMARK    5  A    between atoms: C7_13  and  N2_14 
REMARK    6  A    between atoms: N5_19  and  N6_20 
REMARK    7  A    between atoms: C8_23  and  N7_24 
REMARK    8  A    between atoms: N7_24  and  C9_26 
REMARK    9  A    between atoms: C9_26  and  C10_27 
REMARK   10  A    between atoms: C11_30  and  N9_31 
REMARK   11  A    between atoms: N11_38  and  N12_39 
REMARK   12  A    between atoms: C13_42  and  O4_43 
ROOT
HETATM    1  N2  UNL     1      16.204  -1.586  -7.364  1.00  0.00    -0.102 N 
HETATM    2  N3  UNL     1      15.923  -0.306  -7.217  1.00  0.00    -0.209 N 
ATOM      3  H3  UNL     1      16.581   0.468  -7.306  1.00  0.00     0.210 HD
HETATM    4  N4  UNL     1      14.652  -0.206  -6.936  1.00  0.00    -0.192 N 
ATOM      5  H4  UNL     1      14.142   0.662  -6.767  1.00  0.00     0.212 HD
HETATM    6  N5  UNL     1      14.131  -1.442  -6.908  1.00  0.00    -0.010 N 
HETATM    7  C8  UNL     1      15.096  -2.329  -7.176  1.00  0.00     0.733 A 
ENDROOT
BRANCH   7   8
HETATM    8  N7  UNL     1      15.023  -3.573  -7.232  1.00  0.00    -0.214 N 
ATOM      9  H7  UNL     1      14.950  -3.933  -8.184  1.00  0.00     0.178 HD
BRANCH   8  10
HETATM   10  C9  UNL     1      15.021  -4.584  -6.246  1.00  0.00     0.217 C 
BRANCH  10  11
HETATM   11  C10 UNL     1      13.693  -4.927  -5.682  1.00  0.00     0.139 A 
HETATM   12  N8  UNL     1      12.782  -5.711  -6.278  1.00  0.00    -0.177 N 
HETATM   13  C11 UNL     1      11.590  -6.011  -5.755  1.00  0.00     0.679 A 
ATOM     14  H8  UNL     1      13.015  -6.103  -7.190  1.00  0.00     0.185 HD
HETATM   15  N10 UNL     1      11.281  -5.493  -4.550  1.00  0.00    -0.165 N 
HETATM   16  C12 UNL     1      12.171  -4.693  -3.906  1.00  0.00     0.213 A 
ATOM     17  H10 UNL     1      10.380  -5.700  -4.121  1.00  0.00     0.186 HD
HETATM   18  S1  UNL     1      11.758  -4.086  -2.446  1.00  0.00    -0.038 SA
HETATM   19  N11 UNL     1      13.375  -4.415  -4.480  1.00  0.00    -0.221 N 
BRANCH  13  20
HETATM   20  N9  UNL     1      10.725  -6.768  -6.343  1.00  0.00    -0.234 N 
ATOM     21  H92 UNL     1      10.856  -7.779  -6.309  1.00  0.00     0.174 HD
ATOM     22  H91 UNL     1       9.912  -6.409  -6.844  1.00  0.00     0.174 HD
ENDBRANCH  13  20
BRANCH  19  23
HETATM   23  N12 UNL     1      14.263  -3.603  -3.812  1.00  0.00    -0.335 N 
ATOM     24 2H12 UNL     1      15.059  -3.216  -4.320  1.00  0.00     0.177 HD
ATOM     25 1H12 UNL     1      14.127  -3.392  -2.823  1.00  0.00     0.177 HD
ENDBRANCH  19  23
ENDBRANCH  10  11
ENDBRANCH   8  10
ENDBRANCH   7   8
BRANCH   1  26
HETATM   26  C7  UNL     1      17.515  -2.153  -7.702  1.00  0.00     0.206 C 
BRANCH  26  27
HETATM   27  C6  UNL     1      18.527  -1.748  -6.655  1.00  0.00     0.178 C 
BRANCH  27  28
HETATM   28  C5  UNL     1      18.633  -2.665  -5.524  1.00  0.00     0.058 A 
HETATM   29  C4  UNL     1      19.658  -3.572  -5.377  1.00  0.00     0.095 A 
HETATM   30  C3  UNL     1      19.452  -4.266  -4.231  1.00  0.00     0.139 A 
HETATM   31  N1  UNL     1      18.321  -3.804  -3.671  1.00  0.00    -0.270 N 
HETATM   32  C2  UNL     1      17.762  -4.294  -2.435  1.00  0.00     0.226 C 
HETATM   33  C13 UNL     1      17.810  -2.834  -4.440  1.00  0.00     0.161 A 
HETATM   34  C1  UNL     1      18.443  -5.380  -1.691  1.00  0.00     0.118 C 
HETATM   35  O1  UNL     1      16.714  -3.786  -2.024  1.00  0.00    -0.273 OA
BRANCH  29  36
HETATM   36  O2  UNL     1      20.747  -3.781  -6.231  1.00  0.00    -0.358 OA
ATOM     37  H2  UNL     1      21.475  -3.178  -6.320  1.00  0.00     0.217 HD
ENDBRANCH  29  36
BRANCH  33  38
HETATM   38  O4  UNL     1      16.640  -2.131  -4.161  1.00  0.00    -0.345 OA
ATOM     39  H4  UNL     1      16.447  -1.254  -4.471  1.00  0.00     0.219 HD
ENDBRANCH  33  38
ENDBRANCH  27  28
BRANCH  27  40
HETATM   40  O3  UNL     1      19.774  -1.674  -7.276  1.00  0.00    -0.389 OA
ATOM     41  H3  UNL     1      19.637  -1.655  -8.215  1.00  0.00     0.210 HD
ENDBRANCH  27  40
ENDBRANCH  26  27
ENDBRANCH   1  26
BRANCH   6  42
HETATM   42  N6  UNL     1      12.795  -1.638  -6.634  1.00  0.00    -0.308 N 
ATOM     43  H62 UNL     1      12.010  -0.988  -6.688  1.00  0.00     0.179 HD
ATOM     44  H61 UNL     1      12.454  -2.548  -6.322  1.00  0.00     0.179 HD
ENDBRANCH   6  42
TORSDOF 12
ENDMDL
MODEL 4
REMARK VINA RESULT: -7.735707484      3.451      6.441
REMARK  12 active torsions:
REMARK  status: ('A' for Active; 'I' for Inactive)
REMARK       I    between atoms: C2_2  and  N1_4 
REMARK    1  A    between atoms: C4_6  and  O2_7 
REMARK    2  A    between atoms: C5_9  and  C6_10 
REMARK    3  A    between atoms: C6_10  and  O3_11 
REMARK    4  A    between atoms: C6_10  and  C7_13 
REMARK    5  A    between atoms: C7_13  and  N2_14 
REMARK    6  A    between atoms: N5_19  and  N6_20 
REMARK    7  A    between atoms: C8_23  and  N7_24 
REMARK    8  A    between atoms: N7_24  and  C9_26 
REMARK    9  A    between atoms: C9_26  and  C10_27 
REMARK   10  A    between atoms: C11_30  and  N9_31 
REMARK   11  A    between atoms: N11_38  and  N12_39 
REMARK   12  A    between atoms: C13_42  and  O4_43 
ROOT
HETATM    1  N2  UNL     1      15.185  -1.615  -6.749  1.00  0.00    -0.102 N 
HETATM    2  N3  UNL     1      14.451  -0.569  -7.076  1.00  0.00    -0.209 N 
ATOM      3  H3  UNL     1      13.460  -0.443  -6.873  1.00  0.00     0.210 HD
HETATM    4  N4  UNL     1      15.221   0.277  -7.707  1.00  0.00    -0.192 N 
ATOM      5  H4  UNL     1      14.935   1.181  -8.084  1.00  0.00     0.212 HD
HETATM    6  N5  UNL     1      16.453  -0.249  -7.775  1.00  0.00    -0.010 N 
HETATM    7  C8  UNL     1      16.451  -1.445  -7.175  1.00  0.00     0.733 A 
ENDROOT
BRANCH   7   8
HETATM    8  N7  UNL     1      17.392  -2.254  -7.037  1.00  0.00    -0.214 N 
ATOM      9  H7  UNL     1      17.355  -3.036  -7.690  1.00  0.00     0.178 HD
BRANCH   8  10
HETATM   10  C9  UNL     1      18.497  -2.305  -6.159  1.00  0.00     0.217 C 
BRANCH  10  11
HETATM   11  C10 UNL     1      18.267  -3.020  -4.880  1.00  0.00     0.139 A 
HETATM   12  N8  UNL     1      17.332  -2.696  -3.975  1.00  0.00    -0.177 N 
HETATM   13  C11 UNL     1      17.136  -3.352  -2.827  1.00  0.00     0.679 A 
ATOM     14  H8  UNL     1      16.730  -1.897  -4.175  1.00  0.00     0.185 HD
HETATM   15  N10 UNL     1      17.931  -4.408  -2.561  1.00  0.00    -0.165 N 
HETATM   16  C12 UNL     1      18.892  -4.776  -3.448  1.00  0.00     0.213 A 
ATOM     17  H10 UNL     1      17.810  -4.931  -1.694  1.00  0.00     0.186 HD
HETATM   18  S1  UNL     1      19.833  -6.063  -3.087  1.00  0.00    -0.038 SA
HETATM   19  N11 UNL     1      19.053  -4.076  -4.605  1.00  0.00    -0.221 N 
BRANCH  13  20
HETATM   20  N9  UNL     1      16.230  -3.026  -1.967  1.00  0.00    -0.234 N 
ATOM     21  H92 UNL     1      15.363  -2.610  -2.304  1.00  0.00     0.174 HD
ATOM     22  H91 UNL     1      16.335  -3.163  -0.961  1.00  0.00     0.174 HD
ENDBRANCH  13  20
BRANCH  19  23
HETATM   23  N12 UNL     1      20.033  -4.463  -5.491  1.00  0.00    -0.335 N 
ATOM     24 2H12 UNL     1      20.874  -3.893  -5.581  1.00  0.00     0.177 HD
ATOM     25 1H12 UNL     1      19.918  -5.309  -6.049  1.00  0.00     0.177 HD
ENDBRANCH  19  23
ENDBRANCH  10  11
ENDBRANCH   8  10
ENDBRANCH   7   8
BRANCH   1  26
HETATM   26  C7  UNL     1      14.727  -2.800  -6.014  1.00  0.00     0.206 C 
BRANCH  26  27
HETATM   27  C6  UNL     1      13.622  -2.409  -5.060  1.00  0.00     0.178 C 
BRANCH  27  28
HETATM   28  C5  UNL     1      12.797  -3.521  -4.596  1.00  0.00     0.058 A 
HETATM   29  C4  UNL     1      11.899  -4.185  -5.400  1.00  0.00     0.095 A 
HETATM   30  C3  UNL     1      11.298  -5.150  -4.661  1.00  0.00     0.139 A 
HETATM   31  N1  UNL     1      11.810  -5.093  -3.420  1.00  0.00    -0.270 N 
HETATM   32  C2  UNL     1      11.422  -5.961  -2.336  1.00  0.00     0.226 C 
HETATM   33  C13 UNL     1      12.718  -4.111  -3.361  1.00  0.00     0.161 A 
HETATM   34  C1  UNL     1      10.394  -7.007  -2.553  1.00  0.00     0.118 C 
HETATM   35  O1  UNL     1      11.967  -5.807  -1.238  1.00  0.00    -0.273 OA
BRANCH  29  36
HETATM   36  O2  UNL     1      11.616  -3.945  -6.749  1.00  0.00    -0.358 OA
ATOM     37  H2  UNL     1      12.279  -3.882  -7.427  1.00  0.00     0.217 HD
ENDBRANCH  29  36
BRANCH  33  38
HETATM   38  O4  UNL     1      13.448  -3.770  -2.223  1.00  0.00    -0.345 OA
ATOM     39  H4  UNL     1      13.310  -2.987  -1.705  1.00  0.00     0.219 HD
ENDBRANCH  33  38
ENDBRANCH  27  28
BRANCH  27  40
HETATM   40  O3  UNL     1      14.213  -1.811  -3.947  1.00  0.00    -0.389 OA
ATOM     41  H3  UNL     1      14.541  -0.959  -4.207  1.00  0.00     0.210 HD
ENDBRANCH  27  40
ENDBRANCH  26  27
ENDBRANCH   1  26
BRANCH   6  42
HETATM   42  N6  UNL     1      17.478   0.434  -8.392  1.00  0.00    -0.308 N 
ATOM     43  H62 UNL     1      17.462   1.305  -8.922  1.00  0.00     0.179 HD
ATOM     44  H61 UNL     1      18.435   0.079  -8.361  1.00  0.00     0.179 HD
ENDBRANCH   6  42
TORSDOF 12
ENDMDL
MODEL 5
REMARK VINA RESULT: -7.643559992      1.782      2.736
REMARK  12 active torsions:
REMARK  status: ('A' for Active; 'I' for Inactive)
REMARK       I    between atoms: C2_2  and  N1_4 
REMARK    1  A    between atoms: C4_6  and  O2_7 
REMARK    2  A    between atoms: C5_9  and  C6_10 
REMARK    3  A    between atoms: C6_10  and  O3_11 
REMARK    4  A    between atoms: C6_10  and  C7_13 
REMARK    5  A    between atoms: C7_13  and  N2_14 
REMARK    6  A    between atoms: N5_19  and  N6_20 
REMARK    7  A    between atoms: C8_23  and  N7_24 
REMARK    8  A    between atoms: N7_24  and  C9_26 
REMARK    9  A    between atoms: C9_26  and  C10_27 
REMARK   10  A    between atoms: C11_30  and  N9_31 
REMARK   11  A    between atoms: N11_38  and  N12_39 
REMARK   12  A    between atoms: C13_42  and  O4_43 
ROOT
HETATM    1  N2  UNL     1      16.309  -1.863  -7.022  1.00  0.00    -0.102 N 
HETATM    2  N3  UNL     1      16.119  -0.560  -6.937  1.00  0.00    -0.209 N 
ATOM      3  H3  UNL     1      16.847   0.153  -6.911  1.00  0.00     0.210 HD
HETATM    4  N4  UNL     1      14.831  -0.347  -6.891  1.00  0.00    -0.192 N 
ATOM      5  H4  UNL     1      14.378   0.564  -6.824  1.00  0.00     0.212 HD
HETATM    6  N5  UNL     1      14.209  -1.534  -6.948  1.00  0.00    -0.010 N 
HETATM    7  C8  UNL     1      15.125  -2.505  -7.031  1.00  0.00     0.733 A 
ENDROOT
BRANCH   7   8
HETATM    8  N7  UNL     1      14.955  -3.740  -7.090  1.00  0.00    -0.214 N 
ATOM      9  H7  UNL     1      14.854  -4.090  -8.043  1.00  0.00     0.178 HD
BRANCH   8  10
HETATM   10  C9  UNL     1      14.874  -4.750  -6.107  1.00  0.00     0.217 C 
BRANCH  10  11
HETATM   11  C10 UNL     1      14.000  -4.447  -4.947  1.00  0.00     0.139 A 
HETATM   12  N8  UNL     1      14.303  -3.595  -3.957  1.00  0.00    -0.177 N 
HETATM   13  C11 UNL     1      13.503  -3.332  -2.920  1.00  0.00     0.679 A 
ATOM     14  H8  UNL     1      15.202  -3.115  -3.999  1.00  0.00     0.185 HD
HETATM   15  N10 UNL     1      12.314  -3.965  -2.864  1.00  0.00    -0.165 N 
HETATM   16  C12 UNL     1      11.962  -4.838  -3.843  1.00  0.00     0.213 A 
ATOM     17  H10 UNL     1      11.680  -3.789  -2.085  1.00  0.00     0.186 HD
HETATM   18  S1  UNL     1      10.512  -5.583  -3.737  1.00  0.00    -0.038 SA
HETATM   19  N11 UNL     1      12.812  -5.073  -4.881  1.00  0.00    -0.221 N 
BRANCH  13  20
HETATM   20  N9  UNL     1      13.811  -2.507  -1.975  1.00  0.00    -0.234 N 
ATOM     21  H92 UNL     1      14.721  -2.048  -2.004  1.00  0.00     0.174 HD
ATOM     22  H91 UNL     1      13.190  -2.287  -1.197  1.00  0.00     0.174 HD
ENDBRANCH  13  20
BRANCH  19  23
HETATM   23  N12 UNL     1      12.438  -5.961  -5.865  1.00  0.00    -0.335 N 
ATOM     24 2H12 UNL     1      12.060  -5.601  -6.741  1.00  0.00     0.177 HD
ATOM     25 1H12 UNL     1      12.537  -6.965  -5.718  1.00  0.00     0.177 HD
ENDBRANCH  19  23
ENDBRANCH  10  11
ENDBRANCH   8  10
ENDBRANCH   7   8
BRANCH   1  26
HETATM   26  C7  UNL     1      17.605  -2.546  -7.112  1.00  0.00     0.206 C 
BRANCH  26  27
HETATM   27  C6  UNL     1      18.460  -2.170  -5.924  1.00  0.00     0.178 C 
BRANCH  27  28
HETATM   28  C5  UNL     1      18.399  -3.110  -4.808  1.00  0.00     0.058 A 
HETATM   29  C4  UNL     1      17.569  -2.945  -3.723  1.00  0.00     0.095 A 
HETATM   30  C3  UNL     1      17.765  -3.985  -2.875  1.00  0.00     0.139 A 
HETATM   31  N1  UNL     1      18.698  -4.785  -3.418  1.00  0.00    -0.270 N 
HETATM   32  C2  UNL     1      19.184  -6.001  -2.813  1.00  0.00     0.226 C 
HETATM   33  C13 UNL     1      19.096  -4.271  -4.589  1.00  0.00     0.161 A 
HETATM   34  C1  UNL     1      18.648  -6.445  -1.504  1.00  0.00     0.118 C 
HETATM   35  O1  UNL     1      20.046  -6.650  -3.414  1.00  0.00    -0.273 OA
BRANCH  29  36
HETATM   36  O2  UNL     1      16.663  -1.905  -3.487  1.00  0.00    -0.358 OA
ATOM     37  H2  UNL     1      16.741  -1.038  -3.867  1.00  0.00     0.217 HD
ENDBRANCH  29  36
BRANCH  33  38
HETATM   38  O4  UNL     1      20.055  -4.842  -5.424  1.00  0.00    -0.345 OA
ATOM     39  H4  UNL     1      20.265  -4.535  -6.298  1.00  0.00     0.219 HD
ENDBRANCH  33  38
ENDBRANCH  27  28
BRANCH  27  40
HETATM   40  O3  UNL     1      19.783  -2.095  -6.360  1.00  0.00    -0.389 OA
ATOM     41  H3  UNL     1      20.058  -1.187  -6.318  1.00  0.00     0.210 HD
ENDBRANCH  27  40
ENDBRANCH  26  27
ENDBRANCH   1  26
BRANCH   6  42
HETATM   42  N6  UNL     1      12.833  -1.610  -6.920  1.00  0.00    -0.308 N 
ATOM     43  H62 UNL     1      12.165  -1.733  -7.681  1.00  0.00     0.179 HD
ATOM     44  H61 UNL     1      12.325  -1.541  -6.037  1.00  0.00     0.179 HD
ENDBRANCH   6  42
TORSDOF 12
ENDMDL
