MODEL 1
REMARK VINA RESULT: -7.050740261      0.000      0.000
REMARK  9 active torsions:
REMARK  status: ('A' for Active; 'I' for Inactive)
REMARK    1  A    between atoms: C1_2  and  C2_4 
REMARK    2  A    between atoms: C2_4  and  C3_5 
REMARK    3  A    between atoms: C3_5  and  C4_6 
REMARK    4  A    between atoms: C4_6  and  C5_7 
REMARK    5  A    between atoms: C5_7  and  C6_8 
REMARK    6  A    between atoms: C6_8  and  C7_9 
REMARK    7  A    between atoms: N2_15  and  C11_16 
REMARK    8  A    between atoms: C11_16  and  C12_17 
REMARK    9  A    between atoms: C12_17  and  C13_18 
ROOT
HETATM    1  C7  UNL     1      -3.804  21.695  49.300  1.00  0.00     0.109 C 
HETATM    2  N1  UNL     1      -2.894  20.773  49.899  1.00  0.00    -0.413 N 
ATOM      3  H1  UNL     1      -3.079  20.342  50.804  1.00  0.00     0.153 HD
HETATM    4  C8  UNL     1      -1.708  20.489  49.152  1.00  0.00     0.149 C 
HETATM    5  C9  UNL     1      -1.891  20.345  47.677  1.00  0.00     0.232 C 
HETATM    6  C10 UNL     1      -0.911  21.231  46.937  1.00  0.00     0.307 C 
HETATM    7  N2  UNL     1      -1.230  22.624  46.971  1.00  0.00     0.092 N 
HETATM    8  C18 UNL     1      -2.323  22.984  47.815  1.00  0.00     0.307 C 
HETATM    9  C19 UNL     1      -3.454  22.036  47.869  1.00  0.00     0.236 C 
HETATM   10  N3  UNL     1      -3.206  20.766  47.221  1.00  0.00    -0.060 N 
ATOM     11  H31 UNL     1      -3.937  20.075  47.384  1.00  0.00     0.278 HD
ATOM     12  H32 UNL     1      -3.296  20.800  46.205  1.00  0.00     0.278 HD
ENDROOT
BRANCH   1  13
HETATM   13  C6  UNL     1      -4.096  22.920  50.142  1.00  0.00     0.027 C 
BRANCH  13  14
HETATM   14  C5  UNL     1      -5.540  23.360  49.908  1.00  0.00     0.002 C 
BRANCH  14  15
HETATM   15  C4  UNL     1      -5.572  24.822  49.471  1.00  0.00     0.001 C 
BRANCH  15  16
HETATM   16  C3  UNL     1      -5.810  24.964  48.010  1.00  0.00     0.010 C 
BRANCH  16  17
HETATM   17  C2  UNL     1      -4.694  25.526  47.203  1.00  0.00     0.113 C 
BRANCH  17  18
HETATM   18  C1  UNL     1      -5.042  25.928  45.831  1.00  0.00     0.172 C 
HETATM   19  O1  UNL     1      -5.529  27.029  45.561  1.00  0.00    -0.648 OA
HETATM   20  O2  UNL     1      -4.813  25.035  44.799  1.00  0.00    -0.648 OA
ENDBRANCH  17  18
ENDBRANCH  16  17
ENDBRANCH  15  16
ENDBRANCH  14  15
ENDBRANCH  13  14
ENDBRANCH   1  13
BRANCH   7  21
HETATM   21  C11 UNL     1      -1.357  23.220  45.658  1.00  0.00     0.273 C 
BRANCH  21  22
HETATM   22  C12 UNL     1      -1.361  24.732  45.695  1.00  0.00     0.034 C 
BRANCH  22  23
HETATM   23  C13 UNL     1      -1.194  25.266  44.294  1.00  0.00    -0.013 C 
HETATM   24  C14 UNL     1      -1.232  24.222  43.229  1.00  0.00     0.005 C 
HETATM   25  C15 UNL     1      -0.616  24.979  42.050  1.00  0.00     0.000 C 
HETATM   26  C16 UNL     1       0.626  25.548  42.713  1.00  0.00     0.000 C 
HETATM   27  C17 UNL     1       0.131  25.962  44.105  1.00  0.00     0.005 C 
ENDBRANCH  22  23
ENDBRANCH  21  22
ENDBRANCH   7  21
TORSDOF 9
ENDMDL
MODEL 2
REMARK VINA RESULT: -6.993655734      3.550      4.676
REMARK  9 active torsions:
REMARK  status: ('A' for Active; 'I' for Inactive)
REMARK    1  A    between atoms: C1_2  and  C2_4 
REMARK    2  A    between atoms: C2_4  and  C3_5 
REMARK    3  A    between atoms: C3_5  and  C4_6 
REMARK    4  A    between atoms: C4_6  and  C5_7 
REMARK    5  A    between atoms: C5_7  and  C6_8 
REMARK    6  A    between atoms: C6_8  and  C7_9 
REMARK    7  A    between atoms: N2_15  and  C11_16 
REMARK    8  A    between atoms: C11_16  and  C12_17 
REMARK    9  A    between atoms: C12_17  and  C13_18 
ROOT
HETATM    1  C7  UNL     1      -6.255  25.860  46.990  1.00  0.00     0.109 C 
HETATM    2  N1  UNL     1      -6.158  25.640  48.397  1.00  0.00    -0.413 N 
ATOM      3  H1  UNL     1      -6.848  26.010  49.050  1.00  0.00     0.153 HD
HETATM    4  C8  UNL     1      -5.037  24.869  48.834  1.00  0.00     0.149 C 
HETATM    5  C9  UNL     1      -4.680  23.700  47.975  1.00  0.00     0.232 C 
HETATM    6  C10 UNL     1      -3.209  23.740  47.618  1.00  0.00     0.307 C 
HETATM    7  N2  UNL     1      -2.863  24.727  46.644  1.00  0.00     0.092 N 
HETATM    8  C18 UNL     1      -3.913  25.619  46.272  1.00  0.00     0.307 C 
HETATM    9  C19 UNL     1      -5.269  25.041  46.188  1.00  0.00     0.236 C 
HETATM   10  N3  UNL     1      -5.382  23.693  46.702  1.00  0.00    -0.060 N 
ATOM     11  H31 UNL     1      -6.343  23.359  46.765  1.00  0.00     0.278 HD
ATOM     12  H32 UNL     1      -5.049  22.978  46.054  1.00  0.00     0.278 HD
ENDROOT
BRANCH   1  13
HETATM   13  C6  UNL     1      -6.273  27.320  46.586  1.00  0.00     0.027 C 
BRANCH  13  14
HETATM   14  C5  UNL     1      -7.713  27.829  46.597  1.00  0.00     0.002 C 
BRANCH  14  15
HETATM   15  C4  UNL     1      -8.663  26.704  46.199  1.00  0.00     0.001 C 
BRANCH  15  16
HETATM   16  C3  UNL     1      -9.950  27.222  45.662  1.00  0.00     0.010 C 
BRANCH  16  17
HETATM   17  C2  UNL     1     -10.171  28.689  45.761  1.00  0.00     0.113 C 
BRANCH  17  18
HETATM   18  C1  UNL     1     -11.236  29.231  44.901  1.00  0.00     0.172 C 
HETATM   19  O1  UNL     1     -11.947  30.181  45.239  1.00  0.00    -0.648 OA
HETATM   20  O2  UNL     1     -11.448  28.651  43.663  1.00  0.00    -0.648 OA
ENDBRANCH  17  18
ENDBRANCH  16  17
ENDBRANCH  15  16
ENDBRANCH  14  15
ENDBRANCH  13  14
ENDBRANCH   1  13
BRANCH   7  21
HETATM   21  C11 UNL     1      -2.195  24.182  45.480  1.00  0.00     0.273 C 
BRANCH  21  22
HETATM   22  C12 UNL     1      -2.208  25.124  44.297  1.00  0.00     0.034 C 
BRANCH  22  23
HETATM   23  C13 UNL     1      -0.932  24.953  43.510  1.00  0.00    -0.013 C 
HETATM   24  C14 UNL     1      -0.346  26.229  43.003  1.00  0.00     0.005 C 
HETATM   25  C15 UNL     1       0.616  25.707  41.933  1.00  0.00     0.000 C 
HETATM   26  C16 UNL     1      -0.307  24.773  41.171  1.00  0.00     0.000 C 
HETATM   27  C17 UNL     1      -1.134  24.105  42.278  1.00  0.00     0.005 C 
ENDBRANCH  22  23
ENDBRANCH  21  22
ENDBRANCH   7  21
TORSDOF 9
ENDMDL
MODEL 3
REMARK VINA RESULT: -6.959423125      2.962      4.127
REMARK  9 active torsions:
REMARK  status: ('A' for Active; 'I' for Inactive)
REMARK    1  A    between atoms: C1_2  and  C2_4 
REMARK    2  A    between atoms: C2_4  and  C3_5 
REMARK    3  A    between atoms: C3_5  and  C4_6 
REMARK    4  A    between atoms: C4_6  and  C5_7 
REMARK    5  A    between atoms: C5_7  and  C6_8 
REMARK    6  A    between atoms: C6_8  and  C7_9 
REMARK    7  A    between atoms: N2_15  and  C11_16 
REMARK    8  A    between atoms: C11_16  and  C12_17 
REMARK    9  A    between atoms: C12_17  and  C13_18 
ROOT
HETATM    1  C7  UNL     1      -5.765  24.868  47.917  1.00  0.00     0.109 C 
HETATM    2  N1  UNL     1      -4.960  24.550  49.051  1.00  0.00    -0.413 N 
ATOM      3  H1  UNL     1      -5.359  24.436  49.983  1.00  0.00     0.153 HD
HETATM    4  C8  UNL     1      -3.560  24.400  48.803  1.00  0.00     0.149 C 
HETATM    5  C9  UNL     1      -3.199  23.689  47.539  1.00  0.00     0.232 C 
HETATM    6  C10 UNL     1      -2.208  24.508  46.740  1.00  0.00     0.307 C 
HETATM    7  N2  UNL     1      -2.771  25.650  46.090  1.00  0.00     0.092 N 
HETATM    8  C18 UNL     1      -4.133  25.932  46.412  1.00  0.00     0.307 C 
HETATM    9  C19 UNL     1      -5.018  24.767  46.606  1.00  0.00     0.236 C 
HETATM   10  N3  UNL     1      -4.334  23.492  46.652  1.00  0.00    -0.060 N 
ATOM     11  H31 UNL     1      -4.936  22.715  46.923  1.00  0.00     0.278 HD
ATOM     12  H32 UNL     1      -4.078  23.131  45.733  1.00  0.00     0.278 HD
ENDROOT
BRANCH   1  13
HETATM   13  C6  UNL     1      -6.548  26.159  48.048  1.00  0.00     0.027 C 
BRANCH  13  14
HETATM   14  C5  UNL     1      -8.033  25.872  47.834  1.00  0.00     0.002 C 
BRANCH  14  15
HETATM   15  C4  UNL     1      -8.595  25.123  49.038  1.00  0.00     0.001 C 
BRANCH  15  16
HETATM   16  C3  UNL     1      -8.480  25.913  50.292  1.00  0.00     0.010 C 
BRANCH  16  17
HETATM   17  C2  UNL     1      -8.257  25.145  51.546  1.00  0.00     0.113 C 
BRANCH  17  18
HETATM   18  C1  UNL     1      -6.869  25.120  52.037  1.00  0.00     0.172 C 
HETATM   19  O1  UNL     1      -6.057  24.255  51.697  1.00  0.00    -0.648 OA
HETATM   20  O2  UNL     1      -6.458  26.105  52.917  1.00  0.00    -0.648 OA
ENDBRANCH  17  18
ENDBRANCH  16  17
ENDBRANCH  15  16
ENDBRANCH  14  15
ENDBRANCH  13  14
ENDBRANCH   1  13
BRANCH   7  21
HETATM   21  C11 UNL     1      -2.551  25.668  44.659  1.00  0.00     0.273 C 
BRANCH  21  22
HETATM   22  C12 UNL     1      -2.117  24.326  44.113  1.00  0.00     0.034 C 
BRANCH  22  23
HETATM   23  C13 UNL     1      -0.844  24.498  43.322  1.00  0.00    -0.013 C 
HETATM   24  C14 UNL     1      -0.378  25.911  43.205  1.00  0.00     0.005 C 
HETATM   25  C15 UNL     1       0.608  25.802  42.040  1.00  0.00     0.000 C 
HETATM   26  C16 UNL     1      -0.242  25.045  41.035  1.00  0.00     0.000 C 
HETATM   27  C17 UNL     1      -0.991  24.021  41.897  1.00  0.00     0.005 C 
ENDBRANCH  22  23
ENDBRANCH  21  22
ENDBRANCH   7  21
TORSDOF 9
ENDMDL
MODEL 4
REMARK VINA RESULT: -6.958358620      3.533      7.297
REMARK  9 active torsions:
REMARK  status: ('A' for Active; 'I' for Inactive)
REMARK    1  A    between atoms: C1_2  and  C2_4 
REMARK    2  A    between atoms: C2_4  and  C3_5 
REMARK    3  A    between atoms: C3_5  and  C4_6 
REMARK    4  A    between atoms: C4_6  and  C5_7 
REMARK    5  A    between atoms: C5_7  and  C6_8 
REMARK    6  A    between atoms: C6_8  and  C7_9 
REMARK    7  A    between atoms: N2_15  and  C11_16 
REMARK    8  A    between atoms: C11_16  and  C12_17 
REMARK    9  A    between atoms: C12_17  and  C13_18 
ROOT
HETATM    1  C7  UNL     1      -1.440  25.268  43.812  1.00  0.00     0.109 C 
HETATM    2  N1  UNL     1      -1.548  26.487  44.545  1.00  0.00    -0.413 N 
ATOM      3  H1  UNL     1      -1.358  27.393  44.118  1.00  0.00     0.153 HD
HETATM    4  C8  UNL     1      -1.940  26.361  45.914  1.00  0.00     0.149 C 
HETATM    5  C9  UNL     1      -3.000  25.348  46.194  1.00  0.00     0.232 C 
HETATM    6  C10 UNL     1      -2.558  24.417  47.303  1.00  0.00     0.307 C 
HETATM    7  N2  UNL     1      -1.566  23.463  46.916  1.00  0.00     0.092 N 
HETATM    8  C18 UNL     1      -1.034  23.627  45.602  1.00  0.00     0.307 C 
HETATM    9  C19 UNL     1      -1.982  24.070  44.559  1.00  0.00     0.236 C 
HETATM   10  N3  UNL     1      -3.276  24.483  45.058  1.00  0.00    -0.060 N 
ATOM     11  H31 UNL     1      -3.869  24.914  44.349  1.00  0.00     0.278 HD
ATOM     12  H32 UNL     1      -3.898  23.704  45.277  1.00  0.00     0.278 HD
ENDROOT
BRANCH   1  13
HETATM   13  C6  UNL     1      -0.070  25.017  43.214  1.00  0.00     0.027 C 
BRANCH  13  14
HETATM   14  C5  UNL     1       0.114  25.905  41.985  1.00  0.00     0.002 C 
BRANCH  14  15
HETATM   15  C4  UNL     1      -0.249  25.126  40.724  1.00  0.00     0.001 C 
BRANCH  15  16
HETATM   16  C3  UNL     1      -0.643  23.724  41.027  1.00  0.00     0.010 C 
BRANCH  16  17
HETATM   17  C2  UNL     1      -1.005  22.868  39.866  1.00  0.00     0.113 C 
BRANCH  17  18
HETATM   18  C1  UNL     1       0.109  22.500  38.977  1.00  0.00     0.172 C 
HETATM   19  O1  UNL     1       0.483  23.218  38.044  1.00  0.00    -0.648 OA
HETATM   20  O2  UNL     1       0.765  21.301  39.194  1.00  0.00    -0.648 OA
ENDBRANCH  17  18
ENDBRANCH  16  17
ENDBRANCH  15  16
ENDBRANCH  14  15
ENDBRANCH  13  14
ENDBRANCH   1  13
BRANCH   7  21
HETATM   21  C11 UNL     1      -1.957  22.091  47.161  1.00  0.00     0.273 C 
BRANCH  21  22
HETATM   22  C12 UNL     1      -0.844  21.103  46.889  1.00  0.00     0.034 C 
BRANCH  22  23
HETATM   23  C13 UNL     1      -0.154  20.760  48.185  1.00  0.00    -0.013 C 
HETATM   24  C14 UNL     1       1.293  20.422  48.042  1.00  0.00     0.005 C 
HETATM   25  C15 UNL     1       1.567  19.723  49.375  1.00  0.00     0.000 C 
HETATM   26  C16 UNL     1       0.410  18.740  49.409  1.00  0.00     0.000 C 
HETATM   27  C17 UNL     1      -0.766  19.554  48.853  1.00  0.00     0.005 C 
ENDBRANCH  22  23
ENDBRANCH  21  22
ENDBRANCH   7  21
TORSDOF 9
ENDMDL
MODEL 5
REMARK VINA RESULT: -6.957404346      2.548      6.122
REMARK  9 active torsions:
REMARK  status: ('A' for Active; 'I' for Inactive)
REMARK    1  A    between atoms: C1_2  and  C2_4 
REMARK    2  A    between atoms: C2_4  and  C3_5 
REMARK    3  A    between atoms: C3_5  and  C4_6 
REMARK    4  A    between atoms: C4_6  and  C5_7 
REMARK    5  A    between atoms: C5_7  and  C6_8 
REMARK    6  A    between atoms: C6_8  and  C7_9 
REMARK    7  A    between atoms: N2_15  and  C11_16 
REMARK    8  A    between atoms: C11_16  and  C12_17 
REMARK    9  A    between atoms: C12_17  and  C13_18 
ROOT
HETATM    1  C7  UNL     1      -2.431  25.834  45.541  1.00  0.00     0.109 C 
HETATM    2  N1  UNL     1      -3.206  26.393  46.601  1.00  0.00    -0.413 N 
ATOM      3  H1  UNL     1      -3.426  27.388  46.643  1.00  0.00     0.153 HD
HETATM    4  C8  UNL     1      -3.655  25.474  47.600  1.00  0.00     0.149 C 
HETATM    5  C9  UNL     1      -4.118  24.146  47.096  1.00  0.00     0.232 C 
HETATM    6  C10 UNL     1      -3.423  23.029  47.846  1.00  0.00     0.307 C 
HETATM    7  N2  UNL     1      -2.054  22.834  47.483  1.00  0.00     0.092 N 
HETATM    8  C18 UNL     1      -1.509  23.808  46.594  1.00  0.00     0.307 C 
HETATM    9  C19 UNL     1      -2.414  24.322  45.546  1.00  0.00     0.236 C 
HETATM   10  N3  UNL     1      -3.797  23.923  45.696  1.00  0.00    -0.060 N 
ATOM     11  H31 UNL     1      -4.430  24.393  45.051  1.00  0.00     0.278 HD
ATOM     12  H32 UNL     1      -3.986  22.972  45.379  1.00  0.00     0.278 HD
ENDROOT
BRANCH   1  13
HETATM   13  C6  UNL     1      -1.048  26.436  45.393  1.00  0.00     0.027 C 
BRANCH  13  14
HETATM   14  C5  UNL     1      -0.693  26.526  43.910  1.00  0.00     0.002 C 
BRANCH  14  15
HETATM   15  C4  UNL     1       0.551  25.691  43.624  1.00  0.00     0.001 C 
BRANCH  15  16
HETATM   16  C3  UNL     1       0.869  25.639  42.172  1.00  0.00     0.010 C 
BRANCH  16  17
HETATM   17  C2  UNL     1      -0.265  25.360  41.251  1.00  0.00     0.113 C 
BRANCH  17  18
HETATM   18  C1  UNL     1      -0.737  23.966  41.230  1.00  0.00     0.172 C 
HETATM   19  O1  UNL     1      -0.508  23.199  40.289  1.00  0.00    -0.648 OA
HETATM   20  O2  UNL     1      -1.467  23.494  42.306  1.00  0.00    -0.648 OA
ENDBRANCH  17  18
ENDBRANCH  16  17
ENDBRANCH  15  16
ENDBRANCH  14  15
ENDBRANCH  13  14
ENDBRANCH   1  13
BRANCH   7  21
HETATM   21  C11 UNL     1      -1.759  21.488  47.039  1.00  0.00     0.273 C 
BRANCH  21  22
HETATM   22  C12 UNL     1      -1.009  20.678  48.073  1.00  0.00     0.034 C 
BRANCH  22  23
HETATM   23  C13 UNL     1       0.474  20.814  47.833  1.00  0.00    -0.013 C 
HETATM   24  C14 UNL     1       0.980  20.049  46.655  1.00  0.00     0.005 C 
HETATM   25  C15 UNL     1       2.483  20.028  46.940  1.00  0.00     0.000 C 
HETATM   26  C16 UNL     1       2.479  19.561  48.385  1.00  0.00     0.000 C 
HETATM   27  C17 UNL     1       1.288  20.309  48.999  1.00  0.00     0.005 C 
ENDBRANCH  22  23
ENDBRANCH  21  22
ENDBRANCH   7  21
TORSDOF 9
ENDMDL
