MODEL 1
REMARK VINA RESULT: -7.312124039      0.000      0.000
REMARK  12 active torsions:
REMARK  status: ('A' for Active; 'I' for Inactive)
REMARK    1  A    between atoms: C6_6  and  C7_7 
REMARK    2  A    between atoms: C7_7  and  C8_8 
REMARK    3  A    between atoms: C9_9  and  C10_10 
REMARK    4  A    between atoms: C10_10  and  C11_11 
REMARK    5  A    between atoms: C12_12  and  C13_13 
REMARK    6  A    between atoms: C13_13  and  C14_14 
REMARK    7  A    between atoms: C15_15  and  C16_16 
REMARK    8  A    between atoms: C17_17  and  C18_18 
REMARK    9  A    between atoms: C18_18  and  O1_19 
REMARK   10  A    between atoms: C18_18  and  C19_21 
REMARK   11  A    between atoms: C19_21  and  N1_22 
REMARK   12  A    between atoms: C21_28  and  O3_29 
ROOT
HETATM    1  C10 UNL     1      -1.340  21.683  48.045  1.00  0.00     0.053 C 
ENDROOT
BRANCH   1   2
HETATM    2  C9  UNL     1      -2.818  21.919  48.201  1.00  0.00    -0.027 C 
HETATM    3  C8  UNL     1      -3.299  22.728  49.136  1.00  0.00    -0.030 C 
BRANCH   3   4
HETATM    4  C7  UNL     1      -4.769  22.898  49.214  1.00  0.00     0.034 C 
BRANCH   4   5
HETATM    5  C6  UNL     1      -5.092  24.313  48.782  1.00  0.00     0.023 C 
HETATM    6  C5  UNL     1      -6.580  24.497  49.024  1.00  0.00     0.039 C 
HETATM    7  C4  UNL     1      -7.144  24.355  47.634  1.00  0.00     0.122 C 
HETATM    8  C3  UNL     1      -7.470  25.751  47.141  1.00  0.00     0.038 C 
HETATM    9  O2  UNL     1      -6.168  23.736  46.880  1.00  0.00    -0.378 OA
HETATM   10  C2  UNL     1      -6.212  26.587  47.279  1.00  0.00     0.015 C 
HETATM   11  C1  UNL     1      -6.393  27.798  46.377  1.00  0.00     0.012 C 
HETATM   12  C21 UNL     1      -5.061  25.792  46.759  1.00  0.00     0.151 C 
HETATM   13  C20 UNL     1      -5.003  24.380  47.291  1.00  0.00     0.155 C 
BRANCH  12  14
HETATM   14  O3  UNL     1      -5.235  25.678  45.360  1.00  0.00    -0.393 OA
ATOM     15  H3  UNL     1      -4.505  25.167  45.030  1.00  0.00     0.210 HD
ENDBRANCH  12  14
ENDBRANCH   4   5
ENDBRANCH   3   4
ENDBRANCH   1   2
BRANCH   1  16
HETATM   16  C11 UNL     1      -1.043  22.013  46.606  1.00  0.00    -0.027 C 
HETATM   17  C12 UNL     1      -1.435  23.193  46.160  1.00  0.00    -0.027 C 
BRANCH  17  18
HETATM   18  C13 UNL     1      -1.153  23.555  44.725  1.00  0.00     0.054 C 
BRANCH  18  19
HETATM   19  C14 UNL     1      -1.894  24.795  44.461  1.00  0.00    -0.023 C 
HETATM   20  C15 UNL     1      -1.360  25.857  43.953  1.00  0.00    -0.004 C 
BRANCH  20  21
HETATM   21  C16 UNL     1       0.037  25.953  43.582  1.00  0.00    -0.002 C 
HETATM   22  C17 UNL     1       0.449  25.625  42.363  1.00  0.00     0.006 C 
BRANCH  22  23
HETATM   23  C18 UNL     1      -0.556  25.159  41.384  1.00  0.00     0.166 C 
BRANCH  23  24
HETATM   24  O1  UNL     1      -0.371  25.851  40.186  1.00  0.00    -0.390 OA
ATOM     25  H1  UNL     1      -1.183  25.828  39.691  1.00  0.00     0.210 HD
ENDBRANCH  23  24
BRANCH  23  26
HETATM   26  C19 UNL     1      -0.353  23.689  41.057  1.00  0.00     0.265 C 
BRANCH  26  27
HETATM   27  N1  UNL     1      -1.486  23.266  40.263  1.00  0.00    -0.077 N 
ATOM     28  H13 UNL     1      -2.366  23.285  40.779  1.00  0.00     0.274 HD
ATOM     29  H12 UNL     1      -1.743  23.940  39.543  1.00  0.00     0.274 HD
ATOM     30  H11 UNL     1      -1.264  22.345  39.886  1.00  0.00     0.274 HD
ENDBRANCH  26  27
ENDBRANCH  23  26
ENDBRANCH  22  23
ENDBRANCH  20  21
ENDBRANCH  18  19
ENDBRANCH  17  18
ENDBRANCH   1  16
TORSDOF 12
ENDMDL
MODEL 2
REMARK VINA RESULT: -7.293636169      5.094      8.067
REMARK  12 active torsions:
REMARK  status: ('A' for Active; 'I' for Inactive)
REMARK    1  A    between atoms: C6_6  and  C7_7 
REMARK    2  A    between atoms: C7_7  and  C8_8 
REMARK    3  A    between atoms: C9_9  and  C10_10 
REMARK    4  A    between atoms: C10_10  and  C11_11 
REMARK    5  A    between atoms: C12_12  and  C13_13 
REMARK    6  A    between atoms: C13_13  and  C14_14 
REMARK    7  A    between atoms: C15_15  and  C16_16 
REMARK    8  A    between atoms: C17_17  and  C18_18 
REMARK    9  A    between atoms: C18_18  and  O1_19 
REMARK   10  A    between atoms: C18_18  and  C19_21 
REMARK   11  A    between atoms: C19_21  and  N1_22 
REMARK   12  A    between atoms: C21_28  and  O3_29 
ROOT
HETATM    1  C10 UNL     1      -0.267  20.360  47.189  1.00  0.00     0.053 C 
ENDROOT
BRANCH   1   2
HETATM    2  C9  UNL     1      -0.669  21.781  46.898  1.00  0.00    -0.027 C 
HETATM    3  C8  UNL     1      -1.943  22.147  46.846  1.00  0.00    -0.030 C 
BRANCH   3   4
HETATM    4  C7  UNL     1      -2.243  23.568  46.553  1.00  0.00     0.034 C 
BRANCH   4   5
HETATM    5  C6  UNL     1      -1.235  24.050  45.531  1.00  0.00     0.023 C 
HETATM    6  C5  UNL     1      -1.108  25.549  45.740  1.00  0.00     0.039 C 
HETATM    7  C4  UNL     1      -1.939  26.097  44.610  1.00  0.00     0.122 C 
HETATM    8  C3  UNL     1      -0.978  26.580  43.542  1.00  0.00     0.038 C 
HETATM    9  O2  UNL     1      -2.740  25.059  44.179  1.00  0.00    -0.378 OA
HETATM   10  C2  UNL     1      -0.055  25.425  43.205  1.00  0.00     0.015 C 
HETATM   11  C1  UNL     1       0.567  25.743  41.855  1.00  0.00     0.012 C 
HETATM   12  C21 UNL     1      -0.883  24.192  43.053  1.00  0.00     0.151 C 
HETATM   13  C20 UNL     1      -1.867  23.974  44.178  1.00  0.00     0.155 C 
BRANCH  12  14
HETATM   14  O3  UNL     1      -1.656  24.356  41.880  1.00  0.00    -0.393 OA
ATOM     15  H3  UNL     1      -1.309  23.754  41.233  1.00  0.00     0.210 HD
ENDBRANCH  12  14
ENDBRANCH   4   5
ENDBRANCH   3   4
ENDBRANCH   1   2
BRANCH   1  16
HETATM   16  C11 UNL     1       0.684  20.455  48.353  1.00  0.00    -0.027 C 
HETATM   17  C12 UNL     1       1.218  19.330  48.793  1.00  0.00    -0.027 C 
BRANCH  17  18
HETATM   18  C13 UNL     1       2.175  19.390  49.956  1.00  0.00     0.054 C 
BRANCH  18  19
HETATM   19  C14 UNL     1       3.010  20.579  49.739  1.00  0.00    -0.023 C 
HETATM   20  C15 UNL     1       3.549  21.261  50.696  1.00  0.00    -0.004 C 
BRANCH  20  21
HETATM   21  C16 UNL     1       3.394  20.936  52.099  1.00  0.00    -0.002 C 
HETATM   22  C17 UNL     1       3.474  21.874  53.035  1.00  0.00     0.006 C 
BRANCH  22  23
HETATM   23  C18 UNL     1       3.725  23.269  52.612  1.00  0.00     0.166 C 
BRANCH  23  24
HETATM   24  O1  UNL     1       2.639  24.057  52.997  1.00  0.00    -0.390 OA
ATOM     25  H1  UNL     1       2.398  24.622  52.272  1.00  0.00     0.210 HD
ENDBRANCH  23  24
BRANCH  23  26
HETATM   26  C19 UNL     1       4.936  23.843  53.326  1.00  0.00     0.265 C 
BRANCH  26  27
HETATM   27  N1  UNL     1       5.910  24.186  52.311  1.00  0.00    -0.077 N 
ATOM     28  H13 UNL     1       5.870  23.574  51.497  1.00  0.00     0.274 HD
ATOM     29  H12 UNL     1       5.695  25.059  51.831  1.00  0.00     0.274 HD
ATOM     30  H11 UNL     1       6.825  24.194  52.761  1.00  0.00     0.274 HD
ENDBRANCH  26  27
ENDBRANCH  23  26
ENDBRANCH  22  23
ENDBRANCH  20  21
ENDBRANCH  18  19
ENDBRANCH  17  18
ENDBRANCH   1  16
TORSDOF 12
ENDMDL
MODEL 3
REMARK VINA RESULT: -7.119718097      2.279      6.308
REMARK  12 active torsions:
REMARK  status: ('A' for Active; 'I' for Inactive)
REMARK    1  A    between atoms: C6_6  and  C7_7 
REMARK    2  A    between atoms: C7_7  and  C8_8 
REMARK    3  A    between atoms: C9_9  and  C10_10 
REMARK    4  A    between atoms: C10_10  and  C11_11 
REMARK    5  A    between atoms: C12_12  and  C13_13 
REMARK    6  A    between atoms: C13_13  and  C14_14 
REMARK    7  A    between atoms: C15_15  and  C16_16 
REMARK    8  A    between atoms: C17_17  and  C18_18 
REMARK    9  A    between atoms: C18_18  and  O1_19 
REMARK   10  A    between atoms: C18_18  and  C19_21 
REMARK   11  A    between atoms: C19_21  and  N1_22 
REMARK   12  A    between atoms: C21_28  and  O3_29 
ROOT
HETATM    1  C10 UNL     1      -2.138  20.480  47.713  1.00  0.00     0.053 C 
ENDROOT
BRANCH   1   2
HETATM    2  C9  UNL     1      -1.781  21.941  47.662  1.00  0.00    -0.027 C 
HETATM    3  C8  UNL     1      -2.114  22.703  46.629  1.00  0.00    -0.030 C 
BRANCH   3   4
HETATM    4  C7  UNL     1      -1.719  24.131  46.668  1.00  0.00     0.034 C 
BRANCH   4   5
HETATM    5  C6  UNL     1      -0.863  24.405  45.450  1.00  0.00     0.023 C 
HETATM    6  C5  UNL     1      -0.604  25.902  45.446  1.00  0.00     0.039 C 
HETATM    7  C4  UNL     1      -1.571  26.385  44.397  1.00  0.00     0.122 C 
HETATM    8  C3  UNL     1      -0.766  26.660  43.141  1.00  0.00     0.038 C 
HETATM    9  O2  UNL     1      -2.498  25.377  44.229  1.00  0.00    -0.378 OA
HETATM   10  C2  UNL     1       0.010  25.398  42.816  1.00  0.00     0.015 C 
HETATM   11  C1  UNL     1       0.424  25.506  41.356  1.00  0.00     0.012 C 
HETATM   12  C21 UNL     1      -0.911  24.231  42.950  1.00  0.00     0.151 C 
HETATM   13  C20 UNL     1      -1.710  24.228  44.231  1.00  0.00     0.155 C 
BRANCH  12  14
HETATM   14  O3  UNL     1      -1.852  24.325  41.899  1.00  0.00    -0.393 OA
ATOM     15  H3  UNL     1      -1.728  25.173  41.489  1.00  0.00     0.210 HD
ENDBRANCH  12  14
ENDBRANCH   4   5
ENDBRANCH   3   4
ENDBRANCH   1   2
BRANCH   1  16
HETATM   16  C11 UNL     1      -3.631  20.450  47.906  1.00  0.00    -0.027 C 
HETATM   17  C12 UNL     1      -4.145  21.281  48.794  1.00  0.00    -0.027 C 
BRANCH  17  18
HETATM   18  C13 UNL     1      -5.636  21.277  49.011  1.00  0.00     0.054 C 
BRANCH  18  19
HETATM   19  C14 UNL     1      -6.001  22.652  49.377  1.00  0.00    -0.023 C 
HETATM   20  C15 UNL     1      -6.091  23.622  48.527  1.00  0.00    -0.004 C 
BRANCH  20  21
HETATM   21  C16 UNL     1      -5.841  23.470  47.108  1.00  0.00    -0.002 C 
HETATM   22  C17 UNL     1      -5.492  24.507  46.356  1.00  0.00     0.006 C 
BRANCH  22  23
HETATM   23  C18 UNL     1      -5.361  25.830  47.003  1.00  0.00     0.166 C 
BRANCH  23  24
HETATM   24  O1  UNL     1      -4.195  26.443  46.539  1.00  0.00    -0.390 OA
ATOM     25  H1  UNL     1      -3.727  25.830  45.984  1.00  0.00     0.210 HD
ENDBRANCH  23  24
BRANCH  23  26
HETATM   26  C19 UNL     1      -6.505  26.745  46.603  1.00  0.00     0.265 C 
BRANCH  26  27
HETATM   27  N1  UNL     1      -5.936  28.044  46.315  1.00  0.00    -0.077 N 
ATOM     28  H13 UNL     1      -6.600  28.808  46.440  1.00  0.00     0.274 HD
ATOM     29  H12 UNL     1      -5.256  28.346  47.012  1.00  0.00     0.274 HD
ATOM     30  H11 UNL     1      -5.548  28.002  45.373  1.00  0.00     0.274 HD
ENDBRANCH  26  27
ENDBRANCH  23  26
ENDBRANCH  22  23
ENDBRANCH  20  21
ENDBRANCH  18  19
ENDBRANCH  17  18
ENDBRANCH   1  16
TORSDOF 12
ENDMDL
MODEL 4
REMARK VINA RESULT: -7.106942720      2.432      7.151
REMARK  12 active torsions:
REMARK  status: ('A' for Active; 'I' for Inactive)
REMARK    1  A    between atoms: C6_6  and  C7_7 
REMARK    2  A    between atoms: C7_7  and  C8_8 
REMARK    3  A    between atoms: C9_9  and  C10_10 
REMARK    4  A    between atoms: C10_10  and  C11_11 
REMARK    5  A    between atoms: C12_12  and  C13_13 
REMARK    6  A    between atoms: C13_13  and  C14_14 
REMARK    7  A    between atoms: C15_15  and  C16_16 
REMARK    8  A    between atoms: C17_17  and  C18_18 
REMARK    9  A    between atoms: C18_18  and  O1_19 
REMARK   10  A    between atoms: C18_18  and  C19_21 
REMARK   11  A    between atoms: C19_21  and  N1_22 
REMARK   12  A    between atoms: C21_28  and  O3_29 
ROOT
HETATM    1  C10 UNL     1      -6.743  26.433  46.390  1.00  0.00     0.053 C 
ENDROOT
BRANCH   1   2
HETATM    2  C9  UNL     1      -5.251  26.523  46.567  1.00  0.00    -0.027 C 
HETATM    3  C8  UNL     1      -4.461  25.479  46.358  1.00  0.00    -0.030 C 
BRANCH   3   4
HETATM    4  C7  UNL     1      -3.004  25.662  46.557  1.00  0.00     0.034 C 
BRANCH   4   5
HETATM    5  C6  UNL     1      -2.383  25.925  45.202  1.00  0.00     0.023 C 
HETATM    6  C5  UNL     1      -2.856  24.801  44.297  1.00  0.00     0.039 C 
HETATM    7  C4  UNL     1      -1.646  23.906  44.249  1.00  0.00     0.122 C 
HETATM    8  C3  UNL     1      -0.970  24.142  42.913  1.00  0.00     0.038 C 
HETATM    9  O2  UNL     1      -0.854  24.266  45.320  1.00  0.00    -0.378 OA
HETATM   10  C2  UNL     1      -0.715  25.632  42.790  1.00  0.00     0.015 C 
HETATM   11  C1  UNL     1       0.347  25.805  41.716  1.00  0.00     0.012 C 
HETATM   12  C21 UNL     1      -0.149  26.120  44.082  1.00  0.00     0.151 C 
HETATM   13  C20 UNL     1      -0.916  25.657  45.298  1.00  0.00     0.155 C 
BRANCH  12  14
HETATM   14  O3  UNL     1       1.147  25.568  44.200  1.00  0.00    -0.393 OA
ATOM     15  H3  UNL     1       1.047  24.702  44.577  1.00  0.00     0.210 HD
ENDBRANCH  12  14
ENDBRANCH   4   5
ENDBRANCH   3   4
ENDBRANCH   1   2
BRANCH   1  16
HETATM   16  C11 UNL     1      -7.208  25.496  47.472  1.00  0.00    -0.027 C 
HETATM   17  C12 UNL     1      -7.080  25.901  48.723  1.00  0.00    -0.027 C 
BRANCH  17  18
HETATM   18  C13 UNL     1      -7.536  24.986  49.830  1.00  0.00     0.054 C 
BRANCH  18  19
HETATM   19  C14 UNL     1      -6.350  24.714  50.653  1.00  0.00    -0.023 C 
HETATM   20  C15 UNL     1      -5.510  23.761  50.410  1.00  0.00    -0.004 C 
BRANCH  20  21
HETATM   21  C16 UNL     1      -5.639  22.844  49.296  1.00  0.00    -0.002 C 
HETATM   22  C17 UNL     1      -4.573  22.262  48.758  1.00  0.00     0.006 C 
BRANCH  22  23
HETATM   23  C18 UNL     1      -3.243  22.571  49.325  1.00  0.00     0.166 C 
BRANCH  23  24
HETATM   24  O1  UNL     1      -2.899  21.569  50.236  1.00  0.00    -0.390 OA
ATOM     25  H1  UNL     1      -2.403  20.899  49.779  1.00  0.00     0.210 HD
ENDBRANCH  23  24
BRANCH  23  26
HETATM   26  C19 UNL     1      -2.174  22.545  48.247  1.00  0.00     0.265 C 
BRANCH  26  27
HETATM   27  N1  UNL     1      -2.810  22.111  47.022  1.00  0.00    -0.077 N 
ATOM     28  H13 UNL     1      -3.381  21.274  47.144  1.00  0.00     0.274 HD
ATOM     29  H12 UNL     1      -3.555  22.735  46.716  1.00  0.00     0.274 HD
ATOM     30  H11 UNL     1      -2.075  21.995  46.324  1.00  0.00     0.274 HD
ENDBRANCH  26  27
ENDBRANCH  23  26
ENDBRANCH  22  23
ENDBRANCH  20  21
ENDBRANCH  18  19
ENDBRANCH  17  18
ENDBRANCH   1  16
TORSDOF 12
ENDMDL
MODEL 5
REMARK VINA RESULT: -7.091618163      4.357      6.756
REMARK  12 active torsions:
REMARK  status: ('A' for Active; 'I' for Inactive)
REMARK    1  A    between atoms: C6_6  and  C7_7 
REMARK    2  A    between atoms: C7_7  and  C8_8 
REMARK    3  A    between atoms: C9_9  and  C10_10 
REMARK    4  A    between atoms: C10_10  and  C11_11 
REMARK    5  A    between atoms: C12_12  and  C13_13 
REMARK    6  A    between atoms: C13_13  and  C14_14 
REMARK    7  A    between atoms: C15_15  and  C16_16 
REMARK    8  A    between atoms: C17_17  and  C18_18 
REMARK    9  A    between atoms: C18_18  and  O1_19 
REMARK   10  A    between atoms: C18_18  and  C19_21 
REMARK   11  A    between atoms: C19_21  and  N1_22 
REMARK   12  A    between atoms: C21_28  and  O3_29 
ROOT
HETATM    1  C10 UNL     1      -0.540  20.396  47.839  1.00  0.00     0.053 C 
ENDROOT
BRANCH   1   2
HETATM    2  C9  UNL     1      -0.881  21.830  47.535  1.00  0.00    -0.027 C 
HETATM    3  C8  UNL     1      -1.996  22.160  46.897  1.00  0.00    -0.030 C 
BRANCH   3   4
HETATM    4  C7  UNL     1      -2.247  23.598  46.642  1.00  0.00     0.034 C 
BRANCH   4   5
HETATM    5  C6  UNL     1      -1.245  24.064  45.607  1.00  0.00     0.023 C 
HETATM    6  C5  UNL     1      -1.127  25.568  45.784  1.00  0.00     0.039 C 
HETATM    7  C4  UNL     1      -1.965  26.085  44.644  1.00  0.00     0.122 C 
HETATM    8  C3  UNL     1      -1.008  26.552  43.564  1.00  0.00     0.038 C 
HETATM    9  O2  UNL     1      -2.759  25.033  44.237  1.00  0.00    -0.378 OA
HETATM   10  C2  UNL     1      -0.079  25.395  43.250  1.00  0.00     0.015 C 
HETATM   11  C1  UNL     1       0.538  25.688  41.891  1.00  0.00     0.012 C 
HETATM   12  C21 UNL     1      -0.900  24.154  43.126  1.00  0.00     0.151 C 
HETATM   13  C20 UNL     1      -1.879  23.954  44.257  1.00  0.00     0.155 C 
BRANCH  12  14
HETATM   14  O3  UNL     1      -1.677  24.287  41.952  1.00  0.00    -0.393 OA
ATOM     15  H3  UNL     1      -1.317  23.684  41.311  1.00  0.00     0.210 HD
ENDBRANCH  12  14
ENDBRANCH   4   5
ENDBRANCH   3   4
ENDBRANCH   1   2
BRANCH   1  16
HETATM   16  C11 UNL     1       0.832  20.444  48.456  1.00  0.00    -0.027 C 
HETATM   17  C12 UNL     1       1.318  19.318  48.946  1.00  0.00    -0.027 C 
BRANCH  17  18
HETATM   18  C13 UNL     1       2.689  19.331  49.570  1.00  0.00     0.054 C 
BRANCH  18  19
HETATM   19  C14 UNL     1       3.070  20.745  49.692  1.00  0.00    -0.023 C 
HETATM   20  C15 UNL     1       4.265  21.188  49.475  1.00  0.00    -0.004 C 
BRANCH  20  21
HETATM   21  C16 UNL     1       5.375  20.343  49.085  1.00  0.00    -0.002 C 
HETATM   22  C17 UNL     1       5.940  20.457  47.889  1.00  0.00     0.006 C 
BRANCH  22  23
HETATM   23  C18 UNL     1       5.408  21.475  46.956  1.00  0.00     0.166 C 
BRANCH  23  24
HETATM   24  O1  UNL     1       6.462  22.284  46.527  1.00  0.00    -0.390 OA
ATOM     25  H1  UNL     1       6.670  22.063  45.626  1.00  0.00     0.210 HD
ENDBRANCH  23  24
BRANCH  23  26
HETATM   26  C19 UNL     1       4.842  20.822  45.707  1.00  0.00     0.265 C 
BRANCH  26  27
HETATM   27  N1  UNL     1       3.453  20.518  45.973  1.00  0.00    -0.077 N 
ATOM     28  H13 UNL     1       3.220  20.552  46.965  1.00  0.00     0.274 HD
ATOM     29  H12 UNL     1       2.817  21.253  45.664  1.00  0.00     0.274 HD
ATOM     30  H11 UNL     1       3.253  19.614  45.546  1.00  0.00     0.274 HD
ENDBRANCH  26  27
ENDBRANCH  23  26
ENDBRANCH  22  23
ENDBRANCH  20  21
ENDBRANCH  18  19
ENDBRANCH  17  18
ENDBRANCH   1  16
TORSDOF 12
ENDMDL
