MODEL 1
REMARK VINA RESULT: -7.218267449      0.000      0.000
REMARK  11 active torsions:
REMARK  status: ('A' for Active; 'I' for Inactive)
REMARK    1  A    between atoms: N1_1  and  C1_5 
REMARK    2  A    between atoms: C1_5  and  C2_6 
REMARK    3  A    between atoms: C2_6  and  C3_7 
REMARK       I    between atoms: C3_7  and  N2_9 
REMARK    4  A    between atoms: N2_9  and  C4_11 
REMARK    5  A    between atoms: C4_11  and  C5_12 
REMARK    6  A    between atoms: C5_12  and  C6_13 
REMARK    7  A    between atoms: C6_13  and  C7_14 
REMARK    8  A    between atoms: C7_14  and  C8_15 
REMARK    9  A    between atoms: C8_15  and  C9_16 
REMARK   10  A    between atoms: C9_16  and  N3_17 
REMARK   11  A    between atoms: C19_27  and  N4_28 
ROOT
HETATM    1  C9  UNL     1      -2.171  25.735  45.854  1.00  0.00     0.275 C 
ENDROOT
BRANCH   1   2
HETATM    2  C8  UNL     1      -1.998  25.710  44.356  1.00  0.00     0.030 C 
BRANCH   2   3
HETATM    3  C7  UNL     1      -0.787  26.531  43.962  1.00  0.00     0.002 C 
BRANCH   3   4
HETATM    4  C6  UNL     1       0.457  25.691  43.886  1.00  0.00     0.002 C 
BRANCH   4   5
HETATM    5  C5  UNL     1       1.040  25.679  42.493  1.00  0.00     0.020 C 
BRANCH   5   6
HETATM    6  C4  UNL     1      -0.053  25.939  41.513  1.00  0.00     0.122 C 
BRANCH   6   7
HETATM    7  N2  UNL     1      -0.175  24.898  40.544  1.00  0.00    -0.361 N 
HETATM    8  C3  UNL     1      -0.813  23.687  40.805  1.00  0.00     0.219 C 
HETATM    9  O1  UNL     1      -1.309  23.474  41.943  1.00  0.00    -0.274 OA
ATOM     10  H2  UNL     1       0.225  25.047  39.617  1.00  0.00     0.162 HD
BRANCH   8  11
HETATM   11  C2  UNL     1      -0.911  22.637  39.729  1.00  0.00     0.130 C 
BRANCH  11  12
HETATM   12  C1  UNL     1       0.230  22.829  38.789  1.00  0.00     0.238 C 
BRANCH  12  13
HETATM   13  N1  UNL     1       0.472  21.660  37.976  1.00  0.00    -0.079 N 
ATOM     14  H13 UNL     1       0.193  20.808  38.463  1.00  0.00     0.274 HD
ATOM     15  H12 UNL     1      -0.176  21.616  37.191  1.00  0.00     0.274 HD
ATOM     16  H11 UNL     1       1.439  21.603  37.659  1.00  0.00     0.274 HD
ENDBRANCH  12  13
ENDBRANCH  11  12
ENDBRANCH   8  11
ENDBRANCH   6   7
ENDBRANCH   5   6
ENDBRANCH   4   5
ENDBRANCH   3   4
ENDBRANCH   2   3
ENDBRANCH   1   2
BRANCH   1  17
HETATM   17  N3  UNL     1      -3.251  24.911  46.333  1.00  0.00     0.119 N 
HETATM   18  C10 UNL     1      -3.063  24.720  47.738  1.00  0.00     0.276 C 
HETATM   19  C11 UNL     1      -4.258  24.957  48.596  1.00  0.00     0.040 C 
HETATM   20  C12 UNL     1      -5.468  24.276  48.039  1.00  0.00    -0.035 C 
HETATM   21  C13 UNL     1      -5.395  22.779  48.218  1.00  0.00     0.010 C 
HETATM   22  C17 UNL     1      -6.690  24.821  48.784  1.00  0.00     0.010 C 
HETATM   23  C18 UNL     1      -5.634  24.601  46.596  1.00  0.00     0.074 C 
HETATM   24  C14 UNL     1      -6.199  22.272  49.372  1.00  0.00     0.001 C 
HETATM   25  C15 UNL     1      -6.169  23.153  50.580  1.00  0.00     0.000 C 
HETATM   26  C16 UNL     1      -6.565  24.560  50.269  1.00  0.00     0.001 C 
HETATM   27  C19 UNL     1      -4.552  25.440  46.007  1.00  0.00     0.417 C 
BRANCH  27  28
HETATM   28  N4  UNL     1      -4.722  26.823  46.377  1.00  0.00    -0.048 N 
ATOM     29  H43 UNL     1      -4.716  26.928  47.391  1.00  0.00     0.276 HD
ATOM     30  H42 UNL     1      -3.889  27.364  46.144  1.00  0.00     0.276 HD
ATOM     31  H41 UNL     1      -5.555  27.254  45.975  1.00  0.00     0.276 HD
ENDBRANCH  27  28
ENDBRANCH   1  17
TORSDOF 11
ENDMDL
MODEL 2
REMARK VINA RESULT: -7.200729332      3.738      9.681
REMARK  11 active torsions:
REMARK  status: ('A' for Active; 'I' for Inactive)
REMARK    1  A    between atoms: N1_1  and  C1_5 
REMARK    2  A    between atoms: C1_5  and  C2_6 
REMARK    3  A    between atoms: C2_6  and  C3_7 
REMARK       I    between atoms: C3_7  and  N2_9 
REMARK    4  A    between atoms: N2_9  and  C4_11 
REMARK    5  A    between atoms: C4_11  and  C5_12 
REMARK    6  A    between atoms: C5_12  and  C6_13 
REMARK    7  A    between atoms: C6_13  and  C7_14 
REMARK    8  A    between atoms: C7_14  and  C8_15 
REMARK    9  A    between atoms: C8_15  and  C9_16 
REMARK   10  A    between atoms: C9_16  and  N3_17 
REMARK   11  A    between atoms: C19_27  and  N4_28 
ROOT
HETATM    1  C9  UNL     1      -4.907  24.798  46.969  1.00  0.00     0.275 C 
ENDROOT
BRANCH   1   2
HETATM    2  C8  UNL     1      -5.947  23.763  47.318  1.00  0.00     0.030 C 
BRANCH   2   3
HETATM    3  C7  UNL     1      -6.250  23.813  48.801  1.00  0.00     0.002 C 
BRANCH   3   4
HETATM    4  C6  UNL     1      -5.058  24.262  49.600  1.00  0.00     0.002 C 
BRANCH   4   5
HETATM    5  C5  UNL     1      -4.365  23.102  50.272  1.00  0.00     0.020 C 
BRANCH   5   6
HETATM    6  C4  UNL     1      -5.392  22.251  50.940  1.00  0.00     0.122 C 
BRANCH   6   7
HETATM    7  N2  UNL     1      -5.491  22.513  52.340  1.00  0.00    -0.361 N 
HETATM    8  C3  UNL     1      -6.583  23.157  52.917  1.00  0.00     0.219 C 
HETATM    9  O1  UNL     1      -7.539  23.542  52.191  1.00  0.00    -0.274 OA
ATOM     10  H2  UNL     1      -4.726  22.216  52.945  1.00  0.00     0.162 HD
BRANCH   8  11
HETATM   11  C2  UNL     1      -6.623  23.392  54.404  1.00  0.00     0.130 C 
BRANCH  11  12
HETATM   12  C1  UNL     1      -7.106  24.783  54.641  1.00  0.00     0.238 C 
BRANCH  12  13
HETATM   13  N1  UNL     1      -6.283  25.768  53.980  1.00  0.00    -0.079 N 
ATOM     14  H13 UNL     1      -5.556  26.120  54.604  1.00  0.00     0.274 HD
ATOM     15  H12 UNL     1      -5.692  25.338  53.270  1.00  0.00     0.274 HD
ATOM     16  H11 UNL     1      -6.833  26.532  53.589  1.00  0.00     0.274 HD
ENDBRANCH  12  13
ENDBRANCH  11  12
ENDBRANCH   8  11
ENDBRANCH   6   7
ENDBRANCH   5   6
ENDBRANCH   4   5
ENDBRANCH   3   4
ENDBRANCH   2   3
ENDBRANCH   1   2
BRANCH   1  17
HETATM   17  N3  UNL     1      -3.934  24.350  46.006  1.00  0.00     0.119 N 
HETATM   18  C10 UNL     1      -3.683  25.432  45.105  1.00  0.00     0.276 C 
HETATM   19  C11 UNL     1      -2.251  25.746  44.843  1.00  0.00     0.040 C 
HETATM   20  C12 UNL     1      -1.470  24.504  44.546  1.00  0.00    -0.035 C 
HETATM   21  C13 UNL     1      -1.800  23.953  43.181  1.00  0.00     0.010 C 
HETATM   22  C17 UNL     1       0.017  24.868  44.605  1.00  0.00     0.010 C 
HETATM   23  C18 UNL     1      -1.725  23.467  45.582  1.00  0.00     0.074 C 
HETATM   24  C14 UNL     1      -0.789  24.295  42.134  1.00  0.00     0.001 C 
HETATM   25  C15 UNL     1      -0.227  25.676  42.246  1.00  0.00     0.000 C 
HETATM   26  C16 UNL     1       0.337  25.954  43.602  1.00  0.00     0.001 C 
HETATM   27  C19 UNL     1      -2.733  23.837  46.615  1.00  0.00     0.417 C 
BRANCH  27  28
HETATM   28  N4  UNL     1      -2.156  24.724  47.594  1.00  0.00    -0.048 N 
ATOM     29  H43 UNL     1      -2.270  25.697  47.309  1.00  0.00     0.276 HD
ATOM     30  H42 UNL     1      -2.714  24.730  48.448  1.00  0.00     0.276 HD
ATOM     31  H41 UNL     1      -1.178  24.523  47.803  1.00  0.00     0.276 HD
ENDBRANCH  27  28
ENDBRANCH   1  17
TORSDOF 11
ENDMDL
MODEL 3
REMARK VINA RESULT: -7.163432336      2.288      3.708
REMARK  11 active torsions:
REMARK  status: ('A' for Active; 'I' for Inactive)
REMARK    1  A    between atoms: N1_1  and  C1_5 
REMARK    2  A    between atoms: C1_5  and  C2_6 
REMARK    3  A    between atoms: C2_6  and  C3_7 
REMARK       I    between atoms: C3_7  and  N2_9 
REMARK    4  A    between atoms: N2_9  and  C4_11 
REMARK    5  A    between atoms: C4_11  and  C5_12 
REMARK    6  A    between atoms: C5_12  and  C6_13 
REMARK    7  A    between atoms: C6_13  and  C7_14 
REMARK    8  A    between atoms: C7_14  and  C8_15 
REMARK    9  A    between atoms: C8_15  and  C9_16 
REMARK   10  A    between atoms: C9_16  and  N3_17 
REMARK   11  A    between atoms: C19_27  and  N4_28 
ROOT
HETATM    1  C9  UNL     1      -3.470  23.341  47.959  1.00  0.00     0.275 C 
ENDROOT
BRANCH   1   2
HETATM    2  C8  UNL     1      -2.029  23.670  47.658  1.00  0.00     0.030 C 
BRANCH   2   3
HETATM    3  C7  UNL     1      -1.670  23.191  46.266  1.00  0.00     0.002 C 
BRANCH   3   4
HETATM    4  C6  UNL     1      -1.819  24.282  45.243  1.00  0.00     0.002 C 
BRANCH   4   5
HETATM    5  C5  UNL     1      -1.535  25.643  45.831  1.00  0.00     0.020 C 
BRANCH   5   6
HETATM    6  C4  UNL     1      -0.891  26.492  44.787  1.00  0.00     0.122 C 
BRANCH   6   7
HETATM    7  N2  UNL     1      -1.033  25.944  43.476  1.00  0.00    -0.361 N 
HETATM    8  C3  UNL     1       0.054  25.590  42.680  1.00  0.00     0.219 C 
HETATM    9  O1  UNL     1       1.227  25.756  43.109  1.00  0.00    -0.274 OA
ATOM     10  H2  UNL     1      -1.972  25.806  43.105  1.00  0.00     0.162 HD
BRANCH   8  11
HETATM   11  C2  UNL     1      -0.171  25.008  41.308  1.00  0.00     0.130 C 
BRANCH  11  12
HETATM   12  C1  UNL     1      -1.030  23.798  41.454  1.00  0.00     0.238 C 
BRANCH  12  13
HETATM   13  N1  UNL     1      -1.184  23.082  40.209  1.00  0.00    -0.079 N 
ATOM     14  H13 UNL     1      -0.432  23.308  39.559  1.00  0.00     0.274 HD
ATOM     15  H12 UNL     1      -1.000  22.087  40.331  1.00  0.00     0.274 HD
ATOM     16  H11 UNL     1      -2.097  23.238  39.784  1.00  0.00     0.274 HD
ENDBRANCH  12  13
ENDBRANCH  11  12
ENDBRANCH   8  11
ENDBRANCH   6   7
ENDBRANCH   5   6
ENDBRANCH   4   5
ENDBRANCH   3   4
ENDBRANCH   2   3
ENDBRANCH   1   2
BRANCH   1  17
HETATM   17  N3  UNL     1      -4.345  24.484  47.959  1.00  0.00     0.119 N 
HETATM   18  C10 UNL     1      -5.196  24.381  46.813  1.00  0.00     0.276 C 
HETATM   19  C11 UNL     1      -6.651  24.584  47.058  1.00  0.00     0.040 C 
HETATM   20  C12 UNL     1      -6.894  25.799  47.898  1.00  0.00    -0.035 C 
HETATM   21  C13 UNL     1      -6.650  27.069  47.121  1.00  0.00     0.010 C 
HETATM   22  C17 UNL     1      -8.353  25.756  48.363  1.00  0.00     0.010 C 
HETATM   23  C18 UNL     1      -6.031  25.778  49.110  1.00  0.00     0.074 C 
HETATM   24  C14 UNL     1      -7.901  27.719  46.623  1.00  0.00     0.001 C 
HETATM   25  C15 UNL     1      -8.946  26.761  46.146  1.00  0.00     0.000 C 
HETATM   26  C16 UNL     1      -9.288  25.731  47.173  1.00  0.00     0.001 C 
HETATM   27  C19 UNL     1      -5.078  24.635  49.190  1.00  0.00     0.417 C 
BRANCH  27  28
HETATM   28  N4  UNL     1      -5.758  23.435  49.609  1.00  0.00    -0.048 N 
ATOM     29  H43 UNL     1      -5.501  23.190  50.565  1.00  0.00     0.276 HD
ATOM     30  H42 UNL     1      -6.754  23.611  49.740  1.00  0.00     0.276 HD
ATOM     31  H41 UNL     1      -5.612  22.642  48.983  1.00  0.00     0.276 HD
ENDBRANCH  27  28
ENDBRANCH   1  17
TORSDOF 11
ENDMDL
MODEL 4
REMARK VINA RESULT: -7.045962226      4.134     10.315
REMARK  11 active torsions:
REMARK  status: ('A' for Active; 'I' for Inactive)
REMARK    1  A    between atoms: N1_1  and  C1_5 
REMARK    2  A    between atoms: C1_5  and  C2_6 
REMARK    3  A    between atoms: C2_6  and  C3_7 
REMARK       I    between atoms: C3_7  and  N2_9 
REMARK    4  A    between atoms: N2_9  and  C4_11 
REMARK    5  A    between atoms: C4_11  and  C5_12 
REMARK    6  A    between atoms: C5_12  and  C6_13 
REMARK    7  A    between atoms: C6_13  and  C7_14 
REMARK    8  A    between atoms: C7_14  and  C8_15 
REMARK    9  A    between atoms: C8_15  and  C9_16 
REMARK   10  A    between atoms: C9_16  and  N3_17 
REMARK   11  A    between atoms: C19_27  and  N4_28 
ROOT
HETATM    1  C9  UNL     1      -4.878  25.123  47.021  1.00  0.00     0.275 C 
ENDROOT
BRANCH   1   2
HETATM    2  C8  UNL     1      -5.568  24.081  47.865  1.00  0.00     0.030 C 
BRANCH   2   3
HETATM    3  C7  UNL     1      -5.417  24.422  49.333  1.00  0.00     0.002 C 
BRANCH   3   4
HETATM    4  C6  UNL     1      -4.877  23.262  50.123  1.00  0.00     0.002 C 
BRANCH   4   5
HETATM    5  C5  UNL     1      -5.729  22.964  51.334  1.00  0.00     0.020 C 
BRANCH   5   6
HETATM    6  C4  UNL     1      -6.765  24.029  51.465  1.00  0.00     0.122 C 
BRANCH   6   7
HETATM    7  N2  UNL     1      -7.316  24.093  52.780  1.00  0.00    -0.361 N 
HETATM    8  C3  UNL     1      -7.051  25.136  53.665  1.00  0.00     0.219 C 
HETATM    9  O1  UNL     1      -6.287  26.075  53.316  1.00  0.00    -0.274 OA
ATOM     10  H2  UNL     1      -7.933  23.341  53.086  1.00  0.00     0.162 HD
BRANCH   8  11
HETATM   11  C2  UNL     1      -7.677  25.142  55.036  1.00  0.00     0.130 C 
BRANCH  11  12
HETATM   12  C1  UNL     1      -8.574  26.330  55.130  1.00  0.00     0.238 C 
BRANCH  12  13
HETATM   13  N1  UNL     1      -7.896  27.486  55.668  1.00  0.00    -0.079 N 
ATOM     14  H13 UNL     1      -8.379  28.348  55.415  1.00  0.00     0.274 HD
ATOM     15  H12 UNL     1      -7.998  27.534  56.681  1.00  0.00     0.274 HD
ATOM     16  H11 UNL     1      -6.915  27.521  55.395  1.00  0.00     0.274 HD
ENDBRANCH  12  13
ENDBRANCH  11  12
ENDBRANCH   8  11
ENDBRANCH   6   7
ENDBRANCH   5   6
ENDBRANCH   4   5
ENDBRANCH   3   4
ENDBRANCH   2   3
ENDBRANCH   1   2
BRANCH   1  17
HETATM   17  N3  UNL     1      -3.956  24.580  46.058  1.00  0.00     0.119 N 
HETATM   18  C10 UNL     1      -3.646  25.615  45.120  1.00  0.00     0.276 C 
HETATM   19  C11 UNL     1      -2.199  25.820  44.827  1.00  0.00     0.040 C 
HETATM   20  C12 UNL     1      -1.512  24.518  44.556  1.00  0.00    -0.035 C 
HETATM   21  C13 UNL     1      -1.904  23.952  43.213  1.00  0.00     0.010 C 
HETATM   22  C17 UNL     1      -0.003  24.778  44.582  1.00  0.00     0.010 C 
HETATM   23  C18 UNL     1      -1.821  23.531  45.626  1.00  0.00     0.074 C 
HETATM   24  C14 UNL     1      -0.890  24.191  42.141  1.00  0.00     0.001 C 
HETATM   25  C15 UNL     1      -0.231  25.532  42.203  1.00  0.00     0.000 C 
HETATM   26  C16 UNL     1       0.375  25.809  43.542  1.00  0.00     0.001 C 
HETATM   27  C19 UNL     1      -2.783  24.001  46.663  1.00  0.00     0.417 C 
BRANCH  27  28
HETATM   28  N4  UNL     1      -2.129  24.874  47.606  1.00  0.00    -0.048 N 
ATOM     29  H43 UNL     1      -1.647  24.332  48.324  1.00  0.00     0.276 HD
ATOM     30  H42 UNL     1      -1.328  25.335  47.174  1.00  0.00     0.276 HD
ATOM     31  H41 UNL     1      -2.753  25.559  48.031  1.00  0.00     0.276 HD
ENDBRANCH  27  28
ENDBRANCH   1  17
TORSDOF 11
ENDMDL
MODEL 5
REMARK VINA RESULT: -7.021168199      1.288      2.147
REMARK  11 active torsions:
REMARK  status: ('A' for Active; 'I' for Inactive)
REMARK    1  A    between atoms: N1_1  and  C1_5 
REMARK    2  A    between atoms: C1_5  and  C2_6 
REMARK    3  A    between atoms: C2_6  and  C3_7 
REMARK       I    between atoms: C3_7  and  N2_9 
REMARK    4  A    between atoms: N2_9  and  C4_11 
REMARK    5  A    between atoms: C4_11  and  C5_12 
REMARK    6  A    between atoms: C5_12  and  C6_13 
REMARK    7  A    between atoms: C6_13  and  C7_14 
REMARK    8  A    between atoms: C7_14  and  C8_15 
REMARK    9  A    between atoms: C8_15  and  C9_16 
REMARK   10  A    between atoms: C9_16  and  N3_17 
REMARK   11  A    between atoms: C19_27  and  N4_28 
ROOT
HETATM    1  C9  UNL     1      -2.552  25.658  45.574  1.00  0.00     0.275 C 
ENDROOT
BRANCH   1   2
HETATM    2  C8  UNL     1      -1.294  26.487  45.497  1.00  0.00     0.030 C 
BRANCH   2   3
HETATM    3  C7  UNL     1      -0.751  26.472  44.083  1.00  0.00     0.002 C 
BRANCH   3   4
HETATM    4  C6  UNL     1       0.493  25.636  43.971  1.00  0.00     0.002 C 
BRANCH   4   5
HETATM    5  C5  UNL     1       1.033  25.623  42.561  1.00  0.00     0.020 C 
BRANCH   5   6
HETATM    6  C4  UNL     1      -0.077  25.941  41.618  1.00  0.00     0.122 C 
BRANCH   6   7
HETATM    7  N2  UNL     1      -0.223  24.956  40.595  1.00  0.00    -0.361 N 
HETATM    8  C3  UNL     1      -0.842  23.726  40.808  1.00  0.00     0.219 C 
HETATM    9  O1  UNL     1      -1.298  23.443  41.948  1.00  0.00    -0.274 OA
ATOM     10  H2  UNL     1       0.143  25.161  39.666  1.00  0.00     0.162 HD
BRANCH   8  11
HETATM   11  C2  UNL     1      -0.969  22.738  39.678  1.00  0.00     0.130 C 
BRANCH  11  12
HETATM   12  C1  UNL     1       0.338  22.683  38.962  1.00  0.00     0.238 C 
BRANCH  12  13
HETATM   13  N1  UNL     1       0.353  21.678  37.925  1.00  0.00    -0.079 N 
ATOM     14  H13 UNL     1      -0.572  21.563  37.511  1.00  0.00     0.274 HD
ATOM     15  H12 UNL     1       0.859  22.005  37.102  1.00  0.00     0.274 HD
ATOM     16  H11 UNL     1       0.722  20.788  38.255  1.00  0.00     0.274 HD
ENDBRANCH  12  13
ENDBRANCH  11  12
ENDBRANCH   8  11
ENDBRANCH   6   7
ENDBRANCH   5   6
ENDBRANCH   4   5
ENDBRANCH   3   4
ENDBRANCH   2   3
ENDBRANCH   1   2
BRANCH   1  17
HETATM   17  N3  UNL     1      -2.747  25.006  46.843  1.00  0.00     0.119 N 
HETATM   18  C10 UNL     1      -4.144  24.725  46.978  1.00  0.00     0.276 C 
HETATM   19  C11 UNL     1      -4.494  23.339  47.398  1.00  0.00     0.040 C 
HETATM   20  C12 UNL     1      -3.662  22.900  48.563  1.00  0.00    -0.035 C 
HETATM   21  C13 UNL     1      -4.075  23.599  49.835  1.00  0.00     0.010 C 
HETATM   22  C17 UNL     1      -3.853  21.389  48.724  1.00  0.00     0.010 C 
HETATM   23  C18 UNL     1      -2.219  23.150  48.298  1.00  0.00     0.074 C 
HETATM   24  C14 UNL     1      -4.945  22.768  50.723  1.00  0.00     0.001 C 
HETATM   25  C15 UNL     1      -5.945  21.927  49.995  1.00  0.00     0.000 C 
HETATM   26  C16 UNL     1      -5.312  21.061  48.954  1.00  0.00     0.001 C 
HETATM   27  C19 UNL     1      -1.921  23.837  47.010  1.00  0.00     0.417 C 
BRANCH  27  28
HETATM   28  N4  UNL     1      -2.000  22.910  45.909  1.00  0.00    -0.048 N 
ATOM     29  H43 UNL     1      -1.092  22.480  45.735  1.00  0.00     0.276 HD
ATOM     30  H42 UNL     1      -2.534  22.082  46.173  1.00  0.00     0.276 HD
ATOM     31  H41 UNL     1      -2.373  23.322  45.054  1.00  0.00     0.276 HD
ENDBRANCH  27  28
ENDBRANCH   1  17
TORSDOF 11
ENDMDL
