MODEL 1
REMARK VINA RESULT: -7.254489942      0.000      0.000
REMARK  15 active torsions:
REMARK  status: ('A' for Active; 'I' for Inactive)
REMARK       I    between atoms: C2_2  and  N1_4 
REMARK    1  A    between atoms: N1_4  and  C3_6 
REMARK    2  A    between atoms: C3_6  and  C4_7 
REMARK    3  A    between atoms: C3_6  and  C14_42 
REMARK    4  A    between atoms: C5_10  and  O2_11 
REMARK    5  A    between atoms: C6_13  and  C7_14 
REMARK    6  A    between atoms: N3_15  and  C8_17 
REMARK    7  A    between atoms: C9_18  and  O3_19 
REMARK    8  A    between atoms: C11_23  and  N5_24 
REMARK    9  A    between atoms: N6_27  and  N7_28 
REMARK   10  A    between atoms: N7_28  and  C12_30 
REMARK   11  A    between atoms: C12_30  and  N8_31 
REMARK   12  A    between atoms: N8_31  and  N9_33 
REMARK   13  A    between atoms: N10_38  and  N11_39 
REMARK   14  A    between atoms: C14_42  and  O5_43 
REMARK   15  A    between atoms: C14_42  and  O6_45 
ROOT
HETATM    1  C4  UNL     1      24.560  41.348  12.014  1.00  0.00     0.136 A 
HETATM    2  N2  UNL     1      24.892  41.329  13.339  1.00  0.00    -0.322 N 
ATOM      3  H2  UNL     1      25.518  42.044  13.709  1.00  0.00     0.169 HD
HETATM    4  C5  UNL     1      24.416  40.401  14.149  1.00  0.00     0.158 A 
HETATM    5  C6  UNL     1      23.565  39.427  13.655  1.00  0.00     0.100 A 
HETATM    6  C13 UNL     1      23.238  39.462  12.304  1.00  0.00     0.283 A 
HETATM    7  O4  UNL     1      22.463  38.592  11.807  1.00  0.00    -0.265 OA
HETATM    8  N10 UNL     1      23.733  40.416  11.495  1.00  0.00    -0.211 N 
ENDROOT
BRANCH   5   9
HETATM    9  C7  UNL     1      23.012  38.380  14.509  1.00  0.00     0.111 C 
HETATM   10  N3  UNL     1      21.741  38.210  14.496  1.00  0.00    -0.346 N 
ATOM     11  H3  UNL     1      21.142  38.789  13.907  1.00  0.00     0.167 HD
BRANCH  10  12
HETATM   12  C8  UNL     1      21.187  37.194  15.321  1.00  0.00     0.198 A 
HETATM   13  C9  UNL     1      20.640  35.976  14.934  1.00  0.00     0.204 A 
HETATM   14  N4  UNL     1      20.217  35.281  16.004  1.00  0.00    -0.161 N 
HETATM   15  C10 UNL     1      19.591  33.970  16.020  1.00  0.00     0.178 C 
HETATM   16  C11 UNL     1      20.498  36.066  17.075  1.00  0.00     0.703 A 
HETATM   17  N6  UNL     1      21.076  37.204  16.660  1.00  0.00    -0.057 N 
BRANCH  13  18
HETATM   18  O3  UNL     1      20.559  35.564  13.611  1.00  0.00    -0.343 OA
ATOM     19  H3  UNL     1      19.842  35.803  13.035  1.00  0.00     0.219 HD
ENDBRANCH  13  18
BRANCH  16  20
HETATM   20  N5  UNL     1      20.220  35.702  18.281  1.00  0.00    -0.232 N 
ATOM     21  H52 UNL     1      19.343  35.327  18.644  1.00  0.00     0.174 HD
ATOM     22  H51 UNL     1      20.904  35.763  19.036  1.00  0.00     0.174 HD
ENDBRANCH  16  20
BRANCH  17  23
HETATM   23  N7  UNL     1      21.502  38.249  17.475  1.00  0.00    -0.226 N 
ATOM     24  H7  UNL     1      20.810  38.924  17.801  1.00  0.00     0.199 HD
BRANCH  23  25
HETATM   25  C12 UNL     1      22.718  38.403  17.834  1.00  0.00     0.084 C 
BRANCH  25  26
HETATM   26  N8  UNL     1      23.875  38.928  18.054  1.00  0.00    -0.256 N 
ATOM     27  H8  UNL     1      24.702  38.332  18.081  1.00  0.00     0.197 HD
BRANCH  26  28
HETATM   28  N9  UNL     1      24.006  40.292  18.255  1.00  0.00    -0.337 N 
ATOM     29  H92 UNL     1      23.169  40.873  18.223  1.00  0.00     0.177 HD
ATOM     30  H91 UNL     1      24.921  40.707  18.431  1.00  0.00     0.177 HD
ENDBRANCH  26  28
ENDBRANCH  25  26
ENDBRANCH  23  25
ENDBRANCH  17  23
ENDBRANCH  10  12
ENDBRANCH   5   9
BRANCH   4  31
HETATM   31  O2  UNL     1      24.733  40.351  15.503  1.00  0.00    -0.345 OA
ATOM     32  H2  UNL     1      24.717  39.543  16.004  1.00  0.00     0.219 HD
ENDBRANCH   4  31
BRANCH   8  33
HETATM   33  N11 UNL     1      23.415  40.465  10.137  1.00  0.00    -0.334 N 
ATOM     34 2H11 UNL     1      23.795  41.185   9.522  1.00  0.00     0.177 HD
ATOM     35 1H11 UNL     1      22.784  39.765   9.746  1.00  0.00     0.177 HD
ENDBRANCH   8  33
BRANCH   1  36
HETATM   36  C3  UNL     1      25.090  42.386  11.105  1.00  0.00     0.209 C 
BRANCH  36  37
HETATM   37  N1  UNL     1      26.552  42.259  11.041  1.00  0.00    -0.345 N 
HETATM   38  C2  UNL     1      27.194  41.385  10.147  1.00  0.00     0.214 C 
HETATM   39  C1  UNL     1      28.662  41.277  10.102  1.00  0.00     0.117 C 
HETATM   40  O1  UNL     1      26.511  40.685   9.372  1.00  0.00    -0.274 OA
ATOM     41  H1  UNL     1      27.123  42.825  11.669  1.00  0.00     0.163 HD
ENDBRANCH  36  37
BRANCH  36  42
HETATM   42  C14 UNL     1      24.791  43.789  11.577  1.00  0.00     0.284 C 
BRANCH  42  43
HETATM   43  O5  UNL     1      25.727  44.261  12.475  1.00  0.00    -0.369 OA
ATOM     44  H5  UNL     1      25.344  44.804  13.153  1.00  0.00     0.212 HD
ENDBRANCH  42  43
BRANCH  42  45
HETATM   45  O6  UNL     1      23.555  43.767  12.216  1.00  0.00    -0.369 OA
ATOM     46  H6  UNL     1      23.525  44.504  12.814  1.00  0.00     0.212 HD
ENDBRANCH  42  45
ENDBRANCH  36  42
ENDBRANCH   1  36
TORSDOF 15
ENDMDL
MODEL 2
REMARK VINA RESULT: -7.079215408      1.932      3.188
REMARK  15 active torsions:
REMARK  status: ('A' for Active; 'I' for Inactive)
REMARK       I    between atoms: C2_2  and  N1_4 
REMARK    1  A    between atoms: N1_4  and  C3_6 
REMARK    2  A    between atoms: C3_6  and  C4_7 
REMARK    3  A    between atoms: C3_6  and  C14_42 
REMARK    4  A    between atoms: C5_10  and  O2_11 
REMARK    5  A    between atoms: C6_13  and  C7_14 
REMARK    6  A    between atoms: N3_15  and  C8_17 
REMARK    7  A    between atoms: C9_18  and  O3_19 
REMARK    8  A    between atoms: C11_23  and  N5_24 
REMARK    9  A    between atoms: N6_27  and  N7_28 
REMARK   10  A    between atoms: N7_28  and  C12_30 
REMARK   11  A    between atoms: C12_30  and  N8_31 
REMARK   12  A    between atoms: N8_31  and  N9_33 
REMARK   13  A    between atoms: N10_38  and  N11_39 
REMARK   14  A    between atoms: C14_42  and  O5_43 
REMARK   15  A    between atoms: C14_42  and  O6_45 
ROOT
HETATM    1  C4  UNL     1      24.832  40.802  12.839  1.00  0.00     0.136 A 
HETATM    2  N2  UNL     1      25.032  40.768  14.190  1.00  0.00    -0.322 N 
ATOM      3  H2  UNL     1      25.804  41.296  14.596  1.00  0.00     0.169 HD
HETATM    4  C5  UNL     1      24.242  40.062  14.979  1.00  0.00     0.158 A 
HETATM    5  C6  UNL     1      23.192  39.343  14.437  1.00  0.00     0.100 A 
HETATM    6  C13 UNL     1      23.003  39.389  13.060  1.00  0.00     0.283 A 
HETATM    7  O4  UNL     1      22.056  38.747  12.518  1.00  0.00    -0.265 OA
HETATM    8  N10 UNL     1      23.818  40.115  12.272  1.00  0.00    -0.211 N 
ENDROOT
BRANCH   5   9
HETATM    9  C7  UNL     1      22.291  38.548  15.267  1.00  0.00     0.111 C 
HETATM   10  N3  UNL     1      22.061  37.338  14.906  1.00  0.00    -0.346 N 
ATOM     11  H3  UNL     1      22.496  36.951  14.068  1.00  0.00     0.167 HD
BRANCH  10  12
HETATM   12  C8  UNL     1      21.187  36.550  15.703  1.00  0.00     0.198 A 
HETATM   13  C9  UNL     1      20.882  36.702  17.051  1.00  0.00     0.204 A 
HETATM   14  N4  UNL     1      20.011  35.760  17.452  1.00  0.00    -0.161 N 
HETATM   15  C10 UNL     1      19.450  35.578  18.780  1.00  0.00     0.178 C 
HETATM   16  C11 UNL     1      19.764  35.007  16.350  1.00  0.00     0.703 A 
HETATM   17  N6  UNL     1      20.468  35.485  15.312  1.00  0.00    -0.057 N 
BRANCH  13  18
HETATM   18  O3  UNL     1      21.423  37.703  17.845  1.00  0.00    -0.343 OA
ATOM     19  H3  UNL     1      21.391  38.624  17.615  1.00  0.00     0.219 HD
ENDBRANCH  13  18
BRANCH  16  20
HETATM   20  N5  UNL     1      18.959  34.000  16.376  1.00  0.00    -0.232 N 
ATOM     21  H52 UNL     1      19.072  33.088  15.933  1.00  0.00     0.174 HD
ATOM     22  H51 UNL     1      18.072  34.028  16.879  1.00  0.00     0.174 HD
ENDBRANCH  16  20
BRANCH  17  23
HETATM   23  N7  UNL     1      20.469  34.969  14.018  1.00  0.00    -0.226 N 
ATOM     24  H7  UNL     1      21.158  34.256  13.780  1.00  0.00     0.199 HD
BRANCH  23  25
HETATM   25  C12 UNL     1      19.649  35.348  13.116  1.00  0.00     0.084 C 
BRANCH  25  26
HETATM   26  N8  UNL     1      19.150  35.690  11.977  1.00  0.00    -0.256 N 
ATOM     27  H8  UNL     1      18.138  35.719  11.858  1.00  0.00     0.197 HD
BRANCH  26  28
HETATM   28  N9  UNL     1      19.974  36.016  10.913  1.00  0.00    -0.337 N 
ATOM     29  H92 UNL     1      20.854  36.495  11.105  1.00  0.00     0.177 HD
ATOM     30  H91 UNL     1      19.708  35.783   9.956  1.00  0.00     0.177 HD
ENDBRANCH  26  28
ENDBRANCH  25  26
ENDBRANCH  23  25
ENDBRANCH  17  23
ENDBRANCH  10  12
ENDBRANCH   5   9
BRANCH   4  31
HETATM   31  O2  UNL     1      24.416  40.005  16.359  1.00  0.00    -0.345 OA
ATOM     32  H2  UNL     1      24.890  39.301  16.787  1.00  0.00     0.219 HD
ENDBRANCH   4  31
BRANCH   8  33
HETATM   33  N11 UNL     1      23.643  40.171  10.889  1.00  0.00    -0.334 N 
ATOM     34 2H11 UNL     1      22.770  40.496  10.472  1.00  0.00     0.177 HD
ATOM     35 1H11 UNL     1      24.405  39.881  10.277  1.00  0.00     0.177 HD
ENDBRANCH   8  33
BRANCH   1  36
HETATM   36  C3  UNL     1      25.713  41.591  11.952  1.00  0.00     0.209 C 
BRANCH  36  37
HETATM   37  N1  UNL     1      27.061  41.630  12.536  1.00  0.00    -0.345 N 
HETATM   38  C2  UNL     1      28.068  40.725  12.162  1.00  0.00     0.214 C 
HETATM   39  C1  UNL     1      29.412  40.786  12.761  1.00  0.00     0.117 C 
HETATM   40  O1  UNL     1      27.827  39.851  11.305  1.00  0.00    -0.274 OA
ATOM     41  H1  UNL     1      27.273  42.339  13.237  1.00  0.00     0.163 HD
ENDBRANCH  36  37
BRANCH  36  42
HETATM   42  C14 UNL     1      25.260  43.024  11.798  1.00  0.00     0.284 C 
BRANCH  42  43
HETATM   43  O5  UNL     1      25.996  43.903  12.566  1.00  0.00    -0.369 OA
ATOM     44  H5  UNL     1      25.455  44.544  13.011  1.00  0.00     0.212 HD
ENDBRANCH  42  43
BRANCH  42  45
HETATM   45  O6  UNL     1      23.933  43.096  12.213  1.00  0.00    -0.369 OA
ATOM     46  H6  UNL     1      23.656  44.001  12.140  1.00  0.00     0.212 HD
ENDBRANCH  42  45
ENDBRANCH  36  42
ENDBRANCH   1  36
TORSDOF 15
ENDMDL
MODEL 3
REMARK VINA RESULT: -7.035253687      1.612      3.091
REMARK  15 active torsions:
REMARK  status: ('A' for Active; 'I' for Inactive)
REMARK       I    between atoms: C2_2  and  N1_4 
REMARK    1  A    between atoms: N1_4  and  C3_6 
REMARK    2  A    between atoms: C3_6  and  C4_7 
REMARK    3  A    between atoms: C3_6  and  C14_42 
REMARK    4  A    between atoms: C5_10  and  O2_11 
REMARK    5  A    between atoms: C6_13  and  C7_14 
REMARK    6  A    between atoms: N3_15  and  C8_17 
REMARK    7  A    between atoms: C9_18  and  O3_19 
REMARK    8  A    between atoms: C11_23  and  N5_24 
REMARK    9  A    between atoms: N6_27  and  N7_28 
REMARK   10  A    between atoms: N7_28  and  C12_30 
REMARK   11  A    between atoms: C12_30  and  N8_31 
REMARK   12  A    between atoms: N8_31  and  N9_33 
REMARK   13  A    between atoms: N10_38  and  N11_39 
REMARK   14  A    between atoms: C14_42  and  O5_43 
REMARK   15  A    between atoms: C14_42  and  O6_45 
ROOT
HETATM    1  C4  UNL     1      23.433  40.557  11.785  1.00  0.00     0.136 A 
HETATM    2  N2  UNL     1      22.579  39.606  11.299  1.00  0.00    -0.322 N 
ATOM      3  H2  UNL     1      22.245  39.677  10.338  1.00  0.00     0.169 HD
HETATM    4  C5  UNL     1      22.181  38.598  12.053  1.00  0.00     0.158 A 
HETATM    5  C6  UNL     1      22.629  38.494  13.357  1.00  0.00     0.100 A 
HETATM    6  C13 UNL     1      23.497  39.470  13.835  1.00  0.00     0.283 A 
HETATM    7  O4  UNL     1      23.935  39.417  15.022  1.00  0.00    -0.265 OA
HETATM    8  N10 UNL     1      23.893  40.490  13.051  1.00  0.00    -0.211 N 
ENDROOT
BRANCH   5   9
HETATM    9  C7  UNL     1      22.217  37.398  14.231  1.00  0.00     0.111 C 
HETATM   10  N3  UNL     1      21.084  37.503  14.823  1.00  0.00    -0.346 N 
ATOM     11  H3  UNL     1      20.496  38.324  14.685  1.00  0.00     0.167 HD
BRANCH  10  12
HETATM   12  C8  UNL     1      20.668  36.445  15.677  1.00  0.00     0.198 A 
HETATM   13  C9  UNL     1      20.143  35.208  15.319  1.00  0.00     0.204 A 
HETATM   14  N4  UNL     1      19.868  34.473  16.410  1.00  0.00    -0.161 N 
HETATM   15  C10 UNL     1      19.311  33.132  16.459  1.00  0.00     0.178 C 
HETATM   16  C11 UNL     1      20.221  35.251  17.465  1.00  0.00     0.703 A 
HETATM   17  N6  UNL     1      20.697  36.424  17.019  1.00  0.00    -0.057 N 
BRANCH  13  18
HETATM   18  O3  UNL     1      19.945  34.818  14.002  1.00  0.00    -0.343 OA
ATOM     19  H3  UNL     1      19.506  35.363  13.359  1.00  0.00     0.219 HD
ENDBRANCH  13  18
BRANCH  16  20
HETATM   20  N5  UNL     1      20.089  34.852  18.684  1.00  0.00    -0.232 N 
ATOM     21  H52 UNL     1      19.765  35.383  19.493  1.00  0.00     0.174 HD
ATOM     22  H51 UNL     1      20.314  33.899  18.970  1.00  0.00     0.174 HD
ENDBRANCH  16  20
BRANCH  17  23
HETATM   23  N7  UNL     1      21.156  37.474  17.811  1.00  0.00    -0.226 N 
ATOM     24  H7  UNL     1      20.469  38.061  18.285  1.00  0.00     0.199 HD
BRANCH  23  25
HETATM   25  C12 UNL     1      22.395  37.738  17.971  1.00  0.00     0.084 C 
BRANCH  25  26
HETATM   26  N8  UNL     1      23.569  38.248  17.822  1.00  0.00    -0.256 N 
ATOM     27  H8  UNL     1      24.353  37.645  17.574  1.00  0.00     0.197 HD
BRANCH  26  28
HETATM   28  N9  UNL     1      23.778  39.606  17.996  1.00  0.00    -0.337 N 
ATOM     29  H92 UNL     1      23.749  40.214  17.177  1.00  0.00     0.177 HD
ATOM     30  H91 UNL     1      23.957  39.992  18.923  1.00  0.00     0.177 HD
ENDBRANCH  26  28
ENDBRANCH  25  26
ENDBRANCH  23  25
ENDBRANCH  17  23
ENDBRANCH  10  12
ENDBRANCH   5   9
BRANCH   4  31
HETATM   31  O2  UNL     1      21.312  37.612  11.591  1.00  0.00    -0.345 OA
ATOM     32  H2  UNL     1      21.594  36.910  11.017  1.00  0.00     0.219 HD
ENDBRANCH   4  31
BRANCH   8  33
HETATM   33  N11 UNL     1      24.763  41.477  13.516  1.00  0.00    -0.334 N 
ATOM     34 2H11 UNL     1      25.256  42.102  12.877  1.00  0.00     0.177 HD
ATOM     35 1H11 UNL     1      24.913  41.579  14.519  1.00  0.00     0.177 HD
ENDBRANCH   8  33
BRANCH   1  36
HETATM   36  C3  UNL     1      23.882  41.686  10.944  1.00  0.00     0.209 C 
BRANCH  36  37
HETATM   37  N1  UNL     1      22.908  42.779  11.058  1.00  0.00    -0.345 N 
HETATM   38  C2  UNL     1      23.247  44.038  11.582  1.00  0.00     0.214 C 
HETATM   39  C1  UNL     1      22.251  45.118  11.684  1.00  0.00     0.117 C 
HETATM   40  O1  UNL     1      24.414  44.252  11.969  1.00  0.00    -0.274 OA
ATOM     41  H1  UNL     1      21.950  42.619  10.746  1.00  0.00     0.163 HD
ENDBRANCH  36  37
BRANCH  36  42
HETATM   42  C14 UNL     1      23.972  41.328   9.479  1.00  0.00     0.284 C 
BRANCH  42  43
HETATM   43  O5  UNL     1      22.735  41.128   8.901  1.00  0.00    -0.369 OA
ATOM     44  H5  UNL     1      22.650  41.554   8.057  1.00  0.00     0.212 HD
ENDBRANCH  42  43
BRANCH  42  45
HETATM   45  O6  UNL     1      24.693  40.142   9.376  1.00  0.00    -0.369 OA
ATOM     46  H6  UNL     1      25.199  40.181   8.574  1.00  0.00     0.212 HD
ENDBRANCH  42  45
ENDBRANCH  36  42
ENDBRANCH   1  36
TORSDOF 15
ENDMDL
MODEL 4
REMARK VINA RESULT: -6.970575826      3.596      9.798
REMARK  15 active torsions:
REMARK  status: ('A' for Active; 'I' for Inactive)
REMARK       I    between atoms: C2_2  and  N1_4 
REMARK    1  A    between atoms: N1_4  and  C3_6 
REMARK    2  A    between atoms: C3_6  and  C4_7 
REMARK    3  A    between atoms: C3_6  and  C14_42 
REMARK    4  A    between atoms: C5_10  and  O2_11 
REMARK    5  A    between atoms: C6_13  and  C7_14 
REMARK    6  A    between atoms: N3_15  and  C8_17 
REMARK    7  A    between atoms: C9_18  and  O3_19 
REMARK    8  A    between atoms: C11_23  and  N5_24 
REMARK    9  A    between atoms: N6_27  and  N7_28 
REMARK   10  A    between atoms: N7_28  and  C12_30 
REMARK   11  A    between atoms: C12_30  and  N8_31 
REMARK   12  A    between atoms: N8_31  and  N9_33 
REMARK   13  A    between atoms: N10_38  and  N11_39 
REMARK   14  A    between atoms: C14_42  and  O5_43 
REMARK   15  A    between atoms: C14_42  and  O6_45 
ROOT
HETATM    1  C4  UNL     1      18.944  32.009  14.392  1.00  0.00     0.136 A 
HETATM    2  N2  UNL     1      19.294  32.693  15.522  1.00  0.00    -0.322 N 
ATOM      3  H2  UNL     1      19.182  32.247  16.433  1.00  0.00     0.169 HD
HETATM    4  C5  UNL     1      19.775  33.921  15.455  1.00  0.00     0.158 A 
HETATM    5  C6  UNL     1      19.930  34.533  14.224  1.00  0.00     0.100 A 
HETATM    6  C13 UNL     1      19.569  33.822  13.085  1.00  0.00     0.283 A 
HETATM    7  O4  UNL     1      19.693  34.341  11.936  1.00  0.00    -0.265 OA
HETATM    8  N10 UNL     1      19.081  32.571  13.173  1.00  0.00    -0.211 N 
ENDROOT
BRANCH   5   9
HETATM    9  C7  UNL     1      20.457  35.889  14.097  1.00  0.00     0.111 C 
HETATM   10  N3  UNL     1      21.710  36.021  13.853  1.00  0.00    -0.346 N 
ATOM     11  H3  UNL     1      22.312  35.203  13.752  1.00  0.00     0.167 HD
BRANCH  10  12
HETATM   12  C8  UNL     1      22.239  37.334  13.726  1.00  0.00     0.198 A 
HETATM   13  C9  UNL     1      22.381  38.094  12.571  1.00  0.00     0.204 A 
HETATM   14  N4  UNL     1      22.924  39.291  12.852  1.00  0.00    -0.161 N 
HETATM   15  C10 UNL     1      23.233  40.366  11.924  1.00  0.00     0.178 C 
HETATM   16  C11 UNL     1      23.127  39.288  14.194  1.00  0.00     0.703 A 
HETATM   17  N6  UNL     1      22.715  38.117  14.707  1.00  0.00    -0.057 N 
BRANCH  13  18
HETATM   18  O3  UNL     1      22.003  37.646  11.313  1.00  0.00    -0.343 OA
ATOM     19  H3  UNL     1      22.583  37.655  10.561  1.00  0.00     0.219 HD
ENDBRANCH  13  18
BRANCH  16  20
HETATM   20  N5  UNL     1      23.642  40.295  14.811  1.00  0.00    -0.232 N 
ATOM     21  H52 UNL     1      23.818  41.235  14.454  1.00  0.00     0.174 HD
ATOM     22  H51 UNL     1      23.943  40.239  15.784  1.00  0.00     0.174 HD
ENDBRANCH  16  20
BRANCH  17  23
HETATM   23  N7  UNL     1      22.767  37.750  16.050  1.00  0.00    -0.226 N 
ATOM     24  H7  UNL     1      23.665  37.468  16.442  1.00  0.00     0.199 HD
BRANCH  23  25
HETATM   25  C12 UNL     1      21.743  37.750  16.812  1.00  0.00     0.084 C 
BRANCH  25  26
HETATM   26  N8  UNL     1      20.745  37.353  17.526  1.00  0.00    -0.256 N 
ATOM     27  H8  UNL     1      20.916  36.830  18.385  1.00  0.00     0.197 HD
BRANCH  26  28
HETATM   28  N9  UNL     1      19.444  37.627  17.139  1.00  0.00    -0.337 N 
ATOM     29  H92 UNL     1      18.948  38.390  17.600  1.00  0.00     0.177 HD
ATOM     30  H91 UNL     1      18.991  37.079  16.407  1.00  0.00     0.177 HD
ENDBRANCH  26  28
ENDBRANCH  25  26
ENDBRANCH  23  25
ENDBRANCH  17  23
ENDBRANCH  10  12
ENDBRANCH   5   9
BRANCH   4  31
HETATM   31  O2  UNL     1      20.142  34.647  16.585  1.00  0.00    -0.345 OA
ATOM     32  H2  UNL     1      20.856  35.274  16.582  1.00  0.00     0.219 HD
ENDBRANCH   4  31
BRANCH   8  33
HETATM   33  N11 UNL     1      18.714  31.845  12.040  1.00  0.00    -0.334 N 
ATOM     34 2H11 UNL     1      17.748  31.561  11.874  1.00  0.00     0.177 HD
ATOM     35 1H11 UNL     1      19.428  31.589  11.358  1.00  0.00     0.177 HD
ENDBRANCH   8  33
BRANCH   1  36
HETATM   36  C3  UNL     1      18.406  30.634  14.463  1.00  0.00     0.209 C 
BRANCH  36  37
HETATM   37  N1  UNL     1      18.749  30.057  15.770  1.00  0.00    -0.345 N 
HETATM   38  C2  UNL     1      17.846  29.274  16.508  1.00  0.00     0.214 C 
HETATM   39  C1  UNL     1      18.215  28.706  17.815  1.00  0.00     0.117 C 
HETATM   40  O1  UNL     1      16.706  29.051  16.051  1.00  0.00    -0.274 OA
ATOM     41  H1  UNL     1      19.677  30.231  16.156  1.00  0.00     0.163 HD
ENDBRANCH  36  37
BRANCH  36  42
HETATM   42  C14 UNL     1      18.991  29.720  13.412  1.00  0.00     0.284 C 
BRANCH  42  43
HETATM   43  O5  UNL     1      18.616  28.403  13.582  1.00  0.00    -0.369 OA
ATOM     44  H5  UNL     1      18.407  27.971  12.763  1.00  0.00     0.212 HD
ENDBRANCH  42  43
BRANCH  42  45
HETATM   45  O6  UNL     1      20.377  29.790  13.513  1.00  0.00    -0.369 OA
ATOM     46  H6  UNL     1      20.616  29.528  14.394  1.00  0.00     0.212 HD
ENDBRANCH  42  45
ENDBRANCH  36  42
ENDBRANCH   1  36
TORSDOF 15
ENDMDL
MODEL 5
REMARK VINA RESULT: -6.936686083      3.039      8.510
REMARK  15 active torsions:
REMARK  status: ('A' for Active; 'I' for Inactive)
REMARK       I    between atoms: C2_2  and  N1_4 
REMARK    1  A    between atoms: N1_4  and  C3_6 
REMARK    2  A    between atoms: C3_6  and  C4_7 
REMARK    3  A    between atoms: C3_6  and  C14_42 
REMARK    4  A    between atoms: C5_10  and  O2_11 
REMARK    5  A    between atoms: C6_13  and  C7_14 
REMARK    6  A    between atoms: N3_15  and  C8_17 
REMARK    7  A    between atoms: C9_18  and  O3_19 
REMARK    8  A    between atoms: C11_23  and  N5_24 
REMARK    9  A    between atoms: N6_27  and  N7_28 
REMARK   10  A    between atoms: N7_28  and  C12_30 
REMARK   11  A    between atoms: C12_30  and  N8_31 
REMARK   12  A    between atoms: N8_31  and  N9_33 
REMARK   13  A    between atoms: N10_38  and  N11_39 
REMARK   14  A    between atoms: C14_42  and  O5_43 
REMARK   15  A    between atoms: C14_42  and  O6_45 
ROOT
HETATM    1  C4  UNL     1      19.938  35.691  16.057  1.00  0.00     0.136 A 
HETATM    2  N2  UNL     1      19.698  35.368  14.751  1.00  0.00    -0.322 N 
ATOM      3  H2  UNL     1      18.980  34.678  14.529  1.00  0.00     0.169 HD
HETATM    4  C5  UNL     1      20.380  35.933  13.772  1.00  0.00     0.158 A 
HETATM    5  C6  UNL     1      21.355  36.870  14.063  1.00  0.00     0.100 A 
HETATM    6  C13 UNL     1      21.586  37.187  15.398  1.00  0.00     0.283 A 
HETATM    7  O4  UNL     1      22.469  38.039  15.713  1.00  0.00    -0.265 OA
HETATM    8  N10 UNL     1      20.881  36.600  16.382  1.00  0.00    -0.211 N 
ENDROOT
BRANCH   5   9
HETATM    9  C7  UNL     1      22.136  37.524  13.016  1.00  0.00     0.111 C 
HETATM   10  N3  UNL     1      21.513  38.296  12.203  1.00  0.00    -0.346 N 
ATOM     11  H3  UNL     1      20.508  38.444  12.289  1.00  0.00     0.167 HD
BRANCH  10  12
HETATM   12  C8  UNL     1      22.259  38.939  11.178  1.00  0.00     0.198 A 
HETATM   13  C9  UNL     1      22.419  38.545   9.855  1.00  0.00     0.204 A 
HETATM   14  N4  UNL     1      23.198  39.413   9.189  1.00  0.00    -0.161 N 
HETATM   15  C10 UNL     1      23.602  39.355   7.794  1.00  0.00     0.178 C 
HETATM   16  C11 UNL     1      23.534  40.364  10.098  1.00  0.00     0.703 A 
HETATM   17  N6  UNL     1      22.970  40.074  11.280  1.00  0.00    -0.057 N 
BRANCH  13  18
HETATM   18  O3  UNL     1      21.836  37.401   9.327  1.00  0.00    -0.343 OA
ATOM     19  H3  UNL     1      21.719  37.260   8.394  1.00  0.00     0.219 HD
ENDBRANCH  13  18
BRANCH  16  20
HETATM   20  N5  UNL     1      24.287  41.366   9.793  1.00  0.00    -0.232 N 
ATOM     21  H52 UNL     1      24.240  42.323  10.143  1.00  0.00     0.174 HD
ATOM     22  H51 UNL     1      25.054  41.284   9.126  1.00  0.00     0.174 HD
ENDBRANCH  16  20
BRANCH  17  23
HETATM   23  N7  UNL     1      23.091  40.822  12.449  1.00  0.00    -0.226 N 
ATOM     24  H7  UNL     1      22.405  41.554  12.630  1.00  0.00     0.199 HD
BRANCH  23  25
HETATM   25  C12 UNL     1      24.021  40.635  13.304  1.00  0.00     0.084 C 
BRANCH  25  26
HETATM   26  N8  UNL     1      24.805  40.786  14.316  1.00  0.00    -0.256 N 
ATOM     27  H8  UNL     1      25.578  41.450  14.260  1.00  0.00     0.197 HD
BRANCH  26  28
HETATM   28  N9  UNL     1      24.610  40.059  15.478  1.00  0.00    -0.337 N 
ATOM     29  H92 UNL     1      23.927  39.301  15.471  1.00  0.00     0.177 HD
ATOM     30  H91 UNL     1      25.139  40.275  16.324  1.00  0.00     0.177 HD
ENDBRANCH  26  28
ENDBRANCH  25  26
ENDBRANCH  23  25
ENDBRANCH  17  23
ENDBRANCH  10  12
ENDBRANCH   5   9
BRANCH   4  31
HETATM   31  O2  UNL     1      20.162  35.628  12.431  1.00  0.00    -0.345 OA
ATOM     32  H2  UNL     1      19.714  36.220  11.837  1.00  0.00     0.219 HD
ENDBRANCH   4  31
BRANCH   8  33
HETATM   33  N11 UNL     1      21.101  36.907  17.726  1.00  0.00    -0.334 N 
ATOM     34 2H11 UNL     1      20.346  36.886  18.412  1.00  0.00     0.177 HD
ATOM     35 1H11 UNL     1      22.040  37.160  18.033  1.00  0.00     0.177 HD
ENDBRANCH   8  33
BRANCH   1  36
HETATM   36  C3  UNL     1      19.177  35.061  17.156  1.00  0.00     0.209 C 
BRANCH  36  37
HETATM   37  N1  UNL     1      18.508  33.858  16.641  1.00  0.00    -0.345 N 
HETATM   38  C2  UNL     1      19.211  32.686  16.317  1.00  0.00     0.214 C 
HETATM   39  C1  UNL     1      18.517  31.494  15.804  1.00  0.00     0.117 C 
HETATM   40  O1  UNL     1      20.450  32.648  16.466  1.00  0.00    -0.274 OA
ATOM     41  H1  UNL     1      17.496  33.875  16.515  1.00  0.00     0.163 HD
ENDBRANCH  36  37
BRANCH  36  42
HETATM   42  C14 UNL     1      18.098  35.959  17.714  1.00  0.00     0.284 C 
BRANCH  42  43
HETATM   43  O5  UNL     1      17.874  37.073  16.932  1.00  0.00    -0.369 OA
ATOM     44  H5  UNL     1      16.951  37.232  16.775  1.00  0.00     0.212 HD
ENDBRANCH  42  43
BRANCH  42  45
HETATM   45  O6  UNL     1      18.515  36.391  18.970  1.00  0.00    -0.369 OA
ATOM     46  H6  UNL     1      17.835  36.953  19.322  1.00  0.00     0.212 HD
ENDBRANCH  42  45
ENDBRANCH  36  42
ENDBRANCH   1  36
TORSDOF 15
ENDMDL
