MODEL 1
REMARK VINA RESULT: -9.032929257      0.000      0.000
REMARK  9 active torsions:
REMARK  status: ('A' for Active; 'I' for Inactive)
REMARK    1  A    between atoms: C2_2  and  O1_3 
REMARK    2  A    between atoms: C2_2  and  C3_5 
REMARK    3  A    between atoms: C3_5  and  N1_6 
REMARK    4  A    between atoms: C3_5  and  C7_20 
REMARK    5  A    between atoms: N1_6  and  C4_8 
REMARK    6  A    between atoms: C8_25  and  C9_26 
REMARK    7  A    between atoms: C10_34  and  C11_35 
REMARK    8  A    between atoms: C11_35  and  N13_37 
REMARK    9  A    between atoms: C11_35  and  O2_41 
ROOT
HETATM    1  C4  UNL     1      22.823  38.337  16.614  1.00  0.00     0.724 A 
HETATM    2  N2  UNL     1      23.297  39.230  15.727  1.00  0.00    -0.116 N 
ATOM      3  H2  UNL     1      23.183  39.171  14.715  1.00  0.00     0.206 HD
HETATM    4  N3  UNL     1      23.928  40.188  16.359  1.00  0.00    -0.116 N 
ATOM      5  H3  UNL     1      24.386  40.993  15.932  1.00  0.00     0.206 HD
HETATM    6  C5  UNL     1      23.863  39.914  17.693  1.00  0.00     0.721 A 
HETATM    7  N4  UNL     1      24.329  40.587  18.633  1.00  0.00    -0.232 N 
ATOM      8  H41 UNL     1      24.280  40.382  19.630  1.00  0.00     0.174 HD
ATOM      9  H42 UNL     1      24.849  41.457  18.520  1.00  0.00     0.174 HD
HETATM   10  N5  UNL     1      23.161  38.739  17.846  1.00  0.00     0.095 N 
HETATM   11  C6  UNL     1      22.879  38.165  19.104  1.00  0.00     0.221 C 
HETATM   12  N6  UNL     1      22.627  37.678  20.143  1.00  0.00    -0.170 NA
ENDROOT
BRANCH   1  13
HETATM   13  N1  UNL     1      22.065  37.180  16.363  1.00  0.00    -0.209 N 
ATOM     14  H1  UNL     1      22.509  36.262  16.387  1.00  0.00     0.178 HD
BRANCH  13  15
HETATM   15  C3  UNL     1      20.660  37.296  16.070  1.00  0.00     0.197 C 
BRANCH  15  16
HETATM   16  C2  UNL     1      20.234  36.427  14.908  1.00  0.00     0.144 C 
HETATM   17  C1  UNL     1      21.183  36.491  13.740  1.00  0.00     0.042 C 
BRANCH  16  18
HETATM   18  O1  UNL     1      19.898  35.160  15.317  1.00  0.00    -0.393 OA
ATOM     19  H1  UNL     1      20.322  34.869  16.116  1.00  0.00     0.210 HD
ENDBRANCH  16  18
ENDBRANCH  15  16
BRANCH  15  20
HETATM   20  C7  UNL     1      19.894  36.721  17.245  1.00  0.00     0.123 A 
HETATM   21  N7  UNL     1      20.501  35.993  18.197  1.00  0.00    -0.286 N 
HETATM   22  N8  UNL     1      19.542  35.590  19.053  1.00  0.00    -0.284 N 
ATOM     23  H7  UNL     1      21.498  35.783  18.259  1.00  0.00     0.188 HD
HETATM   24  C8  UNL     1      18.351  36.051  18.658  1.00  0.00     0.142 A 
ATOM     25  H8  UNL     1      19.701  35.018  19.882  1.00  0.00     0.188 HD
HETATM   26  N16 UNL     1      18.593  36.760  17.526  1.00  0.00    -0.328 N 
ATOM     27  H16 UNL     1      17.886  37.248  16.975  1.00  0.00     0.168 HD
BRANCH  24  28
HETATM   28  C9  UNL     1      17.038  35.798  19.303  1.00  0.00     0.285 A 
HETATM   29  N9  UNL     1      16.120  35.073  18.549  1.00  0.00    -0.289 N 
HETATM   30  N10 UNL     1      14.896  35.379  18.386  1.00  0.00    -0.208 N 
ATOM     31  H9  UNL     1      16.456  34.227  18.088  1.00  0.00     0.184 HD
HETATM   32  N11 UNL     1      14.352  36.521  18.973  1.00  0.00    -0.004 N 
ATOM     33  H10 UNL     1      14.302  34.779  17.815  1.00  0.00     0.210 HD
HETATM   34  N12 UNL     1      13.139  37.031  18.968  1.00  0.00    -0.247 N 
HETATM   35  C13 UNL     1      15.149  37.323  19.721  1.00  0.00     0.719 A 
HETATM   36  C10 UNL     1      13.076  38.155  19.684  1.00  0.00     0.177 A 
ATOM     37  H12 UNL     1      12.345  36.619  18.477  1.00  0.00     0.191 HD
HETATM   38  N14 UNL     1      14.351  38.330  20.155  1.00  0.00    -0.171 N 
ATOM     39  H14 UNL     1      14.656  39.104  20.746  1.00  0.00     0.186 HD
HETATM   40  N15 UNL     1      16.519  36.994  19.883  1.00  0.00    -0.193 N 
ATOM     41  H15 UNL     1      17.133  37.612  20.414  1.00  0.00     0.180 HD
BRANCH  36  42
HETATM   42  C11 UNL     1      11.931  39.069  19.957  1.00  0.00     0.279 C 
HETATM   43  C12 UNL     1      12.243  40.428  19.358  1.00  0.00     0.087 C 
BRANCH  42  44
HETATM   44  N13 UNL     1      10.701  38.587  19.396  1.00  0.00    -0.040 N 
ATOM     45 3H13 UNL     1      10.600  37.583  19.540  1.00  0.00     0.278 HD
ATOM     46 2H13 UNL     1       9.899  38.911  19.937  1.00  0.00     0.278 HD
ATOM     47 1H13 UNL     1      10.602  38.830  18.410  1.00  0.00     0.278 HD
ENDBRANCH  42  44
BRANCH  42  48
HETATM   48  O2  UNL     1      11.743  39.240  21.337  1.00  0.00    -0.359 OA
ATOM     49  H2  UNL     1      12.572  39.378  21.780  1.00  0.00     0.213 HD
ENDBRANCH  42  48
ENDBRANCH  36  42
ENDBRANCH  24  28
ENDBRANCH  15  20
ENDBRANCH  13  15
ENDBRANCH   1  13
TORSDOF 9
ENDMDL
MODEL 2
REMARK VINA RESULT: -8.947152022      5.583      9.818
REMARK  9 active torsions:
REMARK  status: ('A' for Active; 'I' for Inactive)
REMARK    1  A    between atoms: C2_2  and  O1_3 
REMARK    2  A    between atoms: C2_2  and  C3_5 
REMARK    3  A    between atoms: C3_5  and  N1_6 
REMARK    4  A    between atoms: C3_5  and  C7_20 
REMARK    5  A    between atoms: N1_6  and  C4_8 
REMARK    6  A    between atoms: C8_25  and  C9_26 
REMARK    7  A    between atoms: C10_34  and  C11_35 
REMARK    8  A    between atoms: C11_35  and  N13_37 
REMARK    9  A    between atoms: C11_35  and  O2_41 
ROOT
HETATM    1  C4  UNL     1      18.094  28.246  16.229  1.00  0.00     0.724 A 
HETATM    2  N2  UNL     1      18.287  27.221  15.378  1.00  0.00    -0.116 N 
ATOM      3  H2  UNL     1      18.396  27.309  14.368  1.00  0.00     0.206 HD
HETATM    4  N3  UNL     1      18.314  26.093  16.045  1.00  0.00    -0.116 N 
ATOM      5  H3  UNL     1      18.445  25.163  15.648  1.00  0.00     0.206 HD
HETATM    6  C5  UNL     1      18.137  26.389  17.364  1.00  0.00     0.721 A 
HETATM    7  N4  UNL     1      18.112  25.597  18.326  1.00  0.00    -0.232 N 
ATOM      8  H41 UNL     1      17.979  25.819  19.312  1.00  0.00     0.174 HD
ATOM      9  H42 UNL     1      18.215  24.586  18.245  1.00  0.00     0.174 HD
HETATM   10  N5  UNL     1      17.997  27.755  17.472  1.00  0.00     0.095 N 
HETATM   11  C6  UNL     1      17.820  28.419  18.704  1.00  0.00     0.221 C 
HETATM   12  N6  UNL     1      17.681  28.989  19.723  1.00  0.00    -0.170 NA
ENDROOT
BRANCH   1  13
HETATM   13  N1  UNL     1      18.031  29.619  15.936  1.00  0.00    -0.209 N 
ATOM     14  H1  UNL     1      17.265  30.186  16.301  1.00  0.00     0.178 HD
BRANCH  13  15
HETATM   15  C3  UNL     1      19.052  30.222  15.118  1.00  0.00     0.197 C 
BRANCH  15  16
HETATM   16  C2  UNL     1      18.715  30.182  13.644  1.00  0.00     0.144 C 
HETATM   17  C1  UNL     1      19.517  31.159  12.825  1.00  0.00     0.042 C 
BRANCH  16  18
HETATM   18  O1  UNL     1      18.696  28.895  13.162  1.00  0.00    -0.393 OA
ATOM     19  H1  UNL     1      19.461  28.374  13.376  1.00  0.00     0.210 HD
ENDBRANCH  16  18
ENDBRANCH  15  16
BRANCH  15  20
HETATM   20  C7  UNL     1      19.084  31.704  15.437  1.00  0.00     0.123 A 
HETATM   21  N7  UNL     1      18.498  32.203  16.537  1.00  0.00    -0.286 N 
HETATM   22  N8  UNL     1      18.658  33.541  16.493  1.00  0.00    -0.284 N 
ATOM     23  H7  UNL     1      18.022  31.673  17.267  1.00  0.00     0.188 HD
HETATM   24  C8  UNL     1      19.330  33.886  15.390  1.00  0.00     0.142 A 
ATOM     25  H8  UNL     1      18.316  34.194  17.198  1.00  0.00     0.188 HD
HETATM   26  N16 UNL     1      19.591  32.722  14.744  1.00  0.00    -0.328 N 
ATOM     27  H16 UNL     1      20.098  32.639  13.863  1.00  0.00     0.168 HD
BRANCH  24  28
HETATM   28  C9  UNL     1      19.675  35.262  14.951  1.00  0.00     0.285 A 
HETATM   29  N9  UNL     1      20.465  35.355  13.809  1.00  0.00    -0.289 N 
HETATM   30  N10 UNL     1      21.494  36.092  13.684  1.00  0.00    -0.208 N 
ATOM     31  H9  UNL     1      20.198  34.784  13.006  1.00  0.00     0.184 HD
HETATM   32  N11 UNL     1      21.935  36.900  14.731  1.00  0.00    -0.004 N 
ATOM     33  H10 UNL     1      22.006  36.092  12.802  1.00  0.00     0.210 HD
HETATM   34  N12 UNL     1      22.939  37.745  14.839  1.00  0.00    -0.247 N 
HETATM   35  C13 UNL     1      21.260  36.888  15.905  1.00  0.00     0.719 A 
HETATM   36  C10 UNL     1      22.977  38.311  16.047  1.00  0.00     0.177 A 
ATOM     37  H12 UNL     1      23.606  37.942  14.092  1.00  0.00     0.191 HD
HETATM   38  N14 UNL     1      21.911  37.762  16.712  1.00  0.00    -0.171 N 
ATOM     39  H14 UNL     1      21.647  37.979  17.674  1.00  0.00     0.186 HD
HETATM   40  N15 UNL     1      20.126  36.047  16.053  1.00  0.00    -0.193 N 
ATOM     41  H15 UNL     1      19.635  36.005  16.946  1.00  0.00     0.180 HD
BRANCH  36  42
HETATM   42  C11 UNL     1      23.921  39.309  16.622  1.00  0.00     0.279 C 
HETATM   43  C12 UNL     1      23.171  40.159  17.631  1.00  0.00     0.087 C 
BRANCH  42  44
HETATM   44  N13 UNL     1      25.039  38.692  17.277  1.00  0.00    -0.040 N 
ATOM     45 3H13 UNL     1      24.732  38.100  18.049  1.00  0.00     0.278 HD
ATOM     46 2H13 UNL     1      25.464  37.979  16.684  1.00  0.00     0.278 HD
ATOM     47 1H13 UNL     1      25.731  39.373  17.589  1.00  0.00     0.278 HD
ENDBRANCH  42  44
BRANCH  42  48
HETATM   48  O2  UNL     1      24.418  40.163  15.625  1.00  0.00    -0.359 OA
ATOM     49  H2  UNL     1      24.851  39.669  14.938  1.00  0.00     0.213 HD
ENDBRANCH  42  48
ENDBRANCH  36  42
ENDBRANCH  24  28
ENDBRANCH  15  20
ENDBRANCH  13  15
ENDBRANCH   1  13
TORSDOF 9
ENDMDL
MODEL 3
REMARK VINA RESULT: -8.922539471      5.576      8.158
REMARK  9 active torsions:
REMARK  status: ('A' for Active; 'I' for Inactive)
REMARK    1  A    between atoms: C2_2  and  O1_3 
REMARK    2  A    between atoms: C2_2  and  C3_5 
REMARK    3  A    between atoms: C3_5  and  N1_6 
REMARK    4  A    between atoms: C3_5  and  C7_20 
REMARK    5  A    between atoms: N1_6  and  C4_8 
REMARK    6  A    between atoms: C8_25  and  C9_26 
REMARK    7  A    between atoms: C10_34  and  C11_35 
REMARK    8  A    between atoms: C11_35  and  N13_37 
REMARK    9  A    between atoms: C11_35  and  O2_41 
ROOT
HETATM    1  C4  UNL     1      21.453  37.211  17.443  1.00  0.00     0.724 A 
HETATM    2  N2  UNL     1      21.775  37.135  18.747  1.00  0.00    -0.116 N 
ATOM      3  H2  UNL     1      21.278  36.579  19.444  1.00  0.00     0.206 HD
HETATM    4  N3  UNL     1      22.823  37.883  18.987  1.00  0.00    -0.116 N 
ATOM      5  H3  UNL     1      23.278  38.010  19.890  1.00  0.00     0.206 HD
HETATM    6  C5  UNL     1      23.196  38.460  17.809  1.00  0.00     0.721 A 
HETATM    7  N4  UNL     1      24.155  39.231  17.609  1.00  0.00    -0.232 N 
ATOM      8  H41 UNL     1      24.433  39.663  16.728  1.00  0.00     0.174 HD
ATOM      9  H42 UNL     1      24.802  39.550  18.329  1.00  0.00     0.174 HD
HETATM   10  N5  UNL     1      22.322  38.030  16.836  1.00  0.00     0.095 N 
HETATM   11  C6  UNL     1      22.424  38.411  15.481  1.00  0.00     0.221 C 
HETATM   12  N6  UNL     1      22.500  38.711  14.348  1.00  0.00    -0.170 NA
ENDROOT
BRANCH   1  13
HETATM   13  N1  UNL     1      20.418  36.545  16.763  1.00  0.00    -0.209 N 
ATOM     14  H1  UNL     1      20.179  36.812  15.808  1.00  0.00     0.178 HD
BRANCH  13  15
HETATM   15  C3  UNL     1      19.697  35.486  17.421  1.00  0.00     0.197 C 
BRANCH  15  16
HETATM   16  C2  UNL     1      18.259  35.855  17.712  1.00  0.00     0.144 C 
HETATM   17  C1  UNL     1      17.998  36.119  19.172  1.00  0.00     0.042 C 
BRANCH  16  18
HETATM   18  O1  UNL     1      17.799  36.824  16.853  1.00  0.00    -0.393 OA
ATOM     19  H1  UNL     1      18.358  37.588  16.772  1.00  0.00     0.210 HD
ENDBRANCH  16  18
ENDBRANCH  15  16
BRANCH  15  20
HETATM   20  C7  UNL     1      19.579  34.332  16.445  1.00  0.00     0.123 A 
HETATM   21  N7  UNL     1      19.702  34.511  15.120  1.00  0.00    -0.286 N 
HETATM   22  N8  UNL     1      19.490  33.312  14.541  1.00  0.00    -0.284 N 
ATOM     23  H7  UNL     1      19.916  35.387  14.642  1.00  0.00     0.188 HD
HETATM   24  C8  UNL     1      19.237  32.391  15.476  1.00  0.00     0.142 A 
ATOM     25  H8  UNL     1      19.518  33.135  13.538  1.00  0.00     0.188 HD
HETATM   26  N16 UNL     1      19.301  33.048  16.661  1.00  0.00    -0.328 N 
ATOM     27  H16 UNL     1      19.157  32.623  17.578  1.00  0.00     0.168 HD
BRANCH  24  28
HETATM   28  C9  UNL     1      18.911  30.960  15.251  1.00  0.00     0.285 A 
HETATM   29  N9  UNL     1      17.587  30.595  15.478  1.00  0.00    -0.289 N 
HETATM   30  N10 UNL     1      17.206  29.582  16.145  1.00  0.00    -0.208 N 
ATOM     31  H9  UNL     1      16.862  31.190  15.075  1.00  0.00     0.184 HD
HETATM   32  N11 UNL     1      18.127  28.718  16.735  1.00  0.00    -0.004 N 
ATOM     33  H10 UNL     1      16.209  29.398  16.251  1.00  0.00     0.210 HD
HETATM   34  N12 UNL     1      17.986  27.618  17.445  1.00  0.00    -0.247 N 
HETATM   35  C13 UNL     1      19.452  28.972  16.602  1.00  0.00     0.719 A 
HETATM   36  C10 UNL     1      19.167  27.111  17.805  1.00  0.00     0.177 A 
ATOM     37  H12 UNL     1      17.086  27.205  17.689  1.00  0.00     0.191 HD
HETATM   38  N14 UNL     1      20.086  27.974  17.267  1.00  0.00    -0.171 N 
ATOM     39  H14 UNL     1      21.098  27.880  17.354  1.00  0.00     0.186 HD
HETATM   40  N15 UNL     1      19.876  30.116  15.878  1.00  0.00    -0.193 N 
ATOM     41  H15 UNL     1      20.870  30.335  15.805  1.00  0.00     0.180 HD
BRANCH  36  42
HETATM   42  C11 UNL     1      19.499  25.898  18.603  1.00  0.00     0.279 C 
HETATM   43  C12 UNL     1      20.486  26.288  19.689  1.00  0.00     0.087 C 
BRANCH  42  44
HETATM   44  N13 UNL     1      18.341  25.315  19.220  1.00  0.00    -0.040 N 
ATOM     45 3H13 UNL     1      17.560  25.970  19.228  1.00  0.00     0.278 HD
ATOM     46 2H13 UNL     1      17.938  24.587  18.629  1.00  0.00     0.278 HD
ATOM     47 1H13 UNL     1      18.536  24.962  20.157  1.00  0.00     0.278 HD
ENDBRANCH  42  44
BRANCH  42  48
HETATM   48  O2  UNL     1      20.105  24.919  17.802  1.00  0.00    -0.359 OA
ATOM     49  H2  UNL     1      20.915  25.241  17.424  1.00  0.00     0.213 HD
ENDBRANCH  42  48
ENDBRANCH  36  42
ENDBRANCH  24  28
ENDBRANCH  15  20
ENDBRANCH  13  15
ENDBRANCH   1  13
TORSDOF 9
ENDMDL
MODEL 4
REMARK VINA RESULT: -8.642814194      5.519      9.769
REMARK  9 active torsions:
REMARK  status: ('A' for Active; 'I' for Inactive)
REMARK    1  A    between atoms: C2_2  and  O1_3 
REMARK    2  A    between atoms: C2_2  and  C3_5 
REMARK    3  A    between atoms: C3_5  and  N1_6 
REMARK    4  A    between atoms: C3_5  and  C7_20 
REMARK    5  A    between atoms: N1_6  and  C4_8 
REMARK    6  A    between atoms: C8_25  and  C9_26 
REMARK    7  A    between atoms: C10_34  and  C11_35 
REMARK    8  A    between atoms: C11_35  and  N13_37 
REMARK    9  A    between atoms: C11_35  and  O2_41 
ROOT
HETATM    1  C4  UNL     1      17.734  28.955  17.130  1.00  0.00     0.724 A 
HETATM    2  N2  UNL     1      17.458  29.330  18.393  1.00  0.00    -0.116 N 
ATOM      3  H2  UNL     1      17.139  30.256  18.674  1.00  0.00     0.206 HD
HETATM    4  N3  UNL     1      17.662  28.323  19.206  1.00  0.00    -0.116 N 
ATOM      5  H3  UNL     1      17.532  28.330  20.217  1.00  0.00     0.206 HD
HETATM    6  C5  UNL     1      18.080  27.264  18.456  1.00  0.00     0.721 A 
HETATM    7  N4  UNL     1      18.367  26.117  18.850  1.00  0.00    -0.232 N 
ATOM      8  H41 UNL     1      18.679  25.326  18.288  1.00  0.00     0.174 HD
ATOM      9  H42 UNL     1      18.334  25.815  19.823  1.00  0.00     0.174 HD
HETATM   10  N5  UNL     1      18.124  27.673  17.141  1.00  0.00     0.095 N 
HETATM   11  C6  UNL     1      18.492  26.822  16.078  1.00  0.00     0.221 C 
HETATM   12  N6  UNL     1      18.788  26.124  15.180  1.00  0.00    -0.170 NA
ENDROOT
BRANCH   1  13
HETATM   13  N1  UNL     1      17.621  29.715  15.953  1.00  0.00    -0.209 N 
ATOM     14  H1  UNL     1      16.702  29.920  15.561  1.00  0.00     0.178 HD
BRANCH  13  15
HETATM   15  C3  UNL     1      18.811  30.203  15.303  1.00  0.00     0.197 C 
BRANCH  15  16
HETATM   16  C2  UNL     1      18.720  30.130  13.794  1.00  0.00     0.144 C 
HETATM   17  C1  UNL     1      19.818  30.889  13.096  1.00  0.00     0.042 C 
BRANCH  16  18
HETATM   18  O1  UNL     1      18.535  28.840  13.359  1.00  0.00    -0.393 OA
ATOM     19  H1  UNL     1      18.070  28.756  12.535  1.00  0.00     0.210 HD
ENDBRANCH  16  18
ENDBRANCH  15  16
BRANCH  15  20
HETATM   20  C7  UNL     1      18.913  31.690  15.582  1.00  0.00     0.123 A 
HETATM   21  N7  UNL     1      18.425  32.233  16.710  1.00  0.00    -0.286 N 
HETATM   22  N8  UNL     1      18.625  33.563  16.622  1.00  0.00    -0.284 N 
ATOM     23  H7  UNL     1      17.987  31.734  17.484  1.00  0.00     0.188 HD
HETATM   24  C8  UNL     1      19.225  33.861  15.465  1.00  0.00     0.142 A 
ATOM     25  H8  UNL     1      18.356  34.242  17.333  1.00  0.00     0.188 HD
HETATM   26  N16 UNL     1      19.401  32.675  14.831  1.00  0.00    -0.328 N 
ATOM     27  H16 UNL     1      19.839  32.556  13.917  1.00  0.00     0.168 HD
BRANCH  24  28
HETATM   28  C9  UNL     1      19.581  35.214  14.969  1.00  0.00     0.285 A 
HETATM   29  N9  UNL     1      20.385  35.253  13.833  1.00  0.00    -0.289 N 
HETATM   30  N10 UNL     1      21.418  35.980  13.687  1.00  0.00    -0.208 N 
ATOM     31  H9  UNL     1      20.123  34.649  13.054  1.00  0.00     0.184 HD
HETATM   32  N11 UNL     1      21.851  36.832  14.702  1.00  0.00    -0.004 N 
ATOM     33  H10 UNL     1      21.939  35.938  12.812  1.00  0.00     0.210 HD
HETATM   34  N12 UNL     1      22.858  37.677  14.784  1.00  0.00    -0.247 N 
HETATM   35  C13 UNL     1      21.163  36.875  15.868  1.00  0.00     0.719 A 
HETATM   36  C10 UNL     1      22.885  38.295  15.966  1.00  0.00     0.177 A 
ATOM     37  H12 UNL     1      23.534  37.838  14.037  1.00  0.00     0.191 HD
HETATM   38  N14 UNL     1      21.810  37.781  16.643  1.00  0.00    -0.171 N 
ATOM     39  H14 UNL     1      21.536  38.042  17.591  1.00  0.00     0.186 HD
HETATM   40  N15 UNL     1      20.024  36.046  16.040  1.00  0.00    -0.193 N 
ATOM     41  H15 UNL     1      19.523  36.046  16.929  1.00  0.00     0.180 HD
BRANCH  36  42
HETATM   42  C11 UNL     1      23.827  39.315  16.506  1.00  0.00     0.279 C 
HETATM   43  C12 UNL     1      24.339  40.160  15.355  1.00  0.00     0.087 C 
BRANCH  42  44
HETATM   44  N13 UNL     1      23.205  40.177  17.472  1.00  0.00    -0.040 N 
ATOM     45 3H13 UNL     1      22.235  40.366  17.223  1.00  0.00     0.278 HD
ATOM     46 2H13 UNL     1      23.056  39.690  18.356  1.00  0.00     0.278 HD
ATOM     47 1H13 UNL     1      23.726  41.043  17.611  1.00  0.00     0.278 HD
ENDBRANCH  42  44
BRANCH  42  48
HETATM   48  O2  UNL     1      24.933  38.704  17.117  1.00  0.00    -0.359 OA
ATOM     49  H2  UNL     1      25.613  38.515  16.480  1.00  0.00     0.213 HD
ENDBRANCH  42  48
ENDBRANCH  36  42
ENDBRANCH  24  28
ENDBRANCH  15  20
ENDBRANCH  13  15
ENDBRANCH   1  13
TORSDOF 9
ENDMDL
MODEL 5
REMARK VINA RESULT: -8.599097375      1.144      1.715
REMARK  9 active torsions:
REMARK  status: ('A' for Active; 'I' for Inactive)
REMARK    1  A    between atoms: C2_2  and  O1_3 
REMARK    2  A    between atoms: C2_2  and  C3_5 
REMARK    3  A    between atoms: C3_5  and  N1_6 
REMARK    4  A    between atoms: C3_5  and  C7_20 
REMARK    5  A    between atoms: N1_6  and  C4_8 
REMARK    6  A    between atoms: C8_25  and  C9_26 
REMARK    7  A    between atoms: C10_34  and  C11_35 
REMARK    8  A    between atoms: C11_35  and  N13_37 
REMARK    9  A    between atoms: C11_35  and  O2_41 
ROOT
HETATM    1  C4  UNL     1      22.553  38.333  15.076  1.00  0.00     0.724 A 
HETATM    2  N2  UNL     1      22.416  38.406  13.740  1.00  0.00    -0.116 N 
ATOM      3  H2  UNL     1      21.800  37.818  13.180  1.00  0.00     0.206 HD
HETATM    4  N3  UNL     1      23.194  39.348  13.268  1.00  0.00    -0.116 N 
ATOM      5  H3  UNL     1      23.289  39.617  12.288  1.00  0.00     0.206 HD
HETATM    6  C5  UNL     1      23.855  39.905  14.322  1.00  0.00     0.721 A 
HETATM    7  N4  UNL     1      24.678  40.841  14.298  1.00  0.00    -0.232 N 
ATOM      8  H41 UNL     1      25.171  41.257  15.087  1.00  0.00     0.174 HD
ATOM      9  H42 UNL     1      24.982  41.322  13.452  1.00  0.00     0.174 HD
HETATM   10  N5  UNL     1      23.444  39.255  15.465  1.00  0.00     0.095 N 
HETATM   11  C6  UNL     1      23.908  39.591  16.755  1.00  0.00     0.221 C 
HETATM   12  N6  UNL     1      24.276  39.863  17.837  1.00  0.00    -0.170 NA
ENDROOT
BRANCH   1  13
HETATM   13  N1  UNL     1      21.884  37.483  15.974  1.00  0.00    -0.209 N 
ATOM     14  H1  UNL     1      22.330  37.209  16.850  1.00  0.00     0.178 HD
BRANCH  13  15
HETATM   15  C3  UNL     1      20.566  37.000  15.651  1.00  0.00     0.197 C 
BRANCH  15  16
HETATM   16  C2  UNL     1      20.598  35.728  14.831  1.00  0.00     0.144 C 
HETATM   17  C1  UNL     1      19.353  34.894  14.981  1.00  0.00     0.042 C 
BRANCH  16  18
HETATM   18  O1  UNL     1      20.985  35.969  13.535  1.00  0.00    -0.393 OA
ATOM     19  H1  UNL     1      21.182  35.193  13.023  1.00  0.00     0.210 HD
ENDBRANCH  16  18
ENDBRANCH  15  16
BRANCH  15  20
HETATM   20  C7  UNL     1      19.900  36.574  16.944  1.00  0.00     0.123 A 
HETATM   21  N7  UNL     1      20.608  36.089  17.978  1.00  0.00    -0.286 N 
HETATM   22  N8  UNL     1      19.721  35.757  18.937  1.00  0.00    -0.284 N 
ATOM     23  H7  UNL     1      21.622  35.990  18.027  1.00  0.00     0.188 HD
HETATM   24  C8  UNL     1      18.478  36.024  18.525  1.00  0.00     0.142 A 
ATOM     25  H8  UNL     1      19.964  35.360  19.845  1.00  0.00     0.188 HD
HETATM   26  N16 UNL     1      18.611  36.538  17.277  1.00  0.00    -0.328 N 
ATOM     27  H16 UNL     1      17.841  36.849  16.684  1.00  0.00     0.168 HD
BRANCH  24  28
HETATM   28  C9  UNL     1      17.218  35.766  19.268  1.00  0.00     0.285 A 
HETATM   29  N9  UNL     1      16.296  34.940  18.632  1.00  0.00    -0.289 N 
HETATM   30  N10 UNL     1      15.051  35.176  18.520  1.00  0.00    -0.208 N 
ATOM     31  H9  UNL     1      16.647  34.075  18.221  1.00  0.00     0.184 HD
HETATM   32  N11 UNL     1      14.486  36.337  19.047  1.00  0.00    -0.004 N 
ATOM     33  H10 UNL     1      14.456  34.504  18.037  1.00  0.00     0.210 HD
HETATM   34  N12 UNL     1      13.249  36.790  19.074  1.00  0.00    -0.247 N 
HETATM   35  C13 UNL     1      15.282  37.233  19.678  1.00  0.00     0.719 A 
HETATM   36  C10 UNL     1      13.171  37.966  19.700  1.00  0.00     0.177 A 
ATOM     37  H12 UNL     1      12.451  36.302  18.668  1.00  0.00     0.191 HD
HETATM   38  N14 UNL     1      14.462  38.236  20.077  1.00  0.00    -0.171 N 
ATOM     39  H14 UNL     1      14.760  39.070  20.584  1.00  0.00     0.186 HD
HETATM   40  N15 UNL     1      16.675  36.981  19.781  1.00  0.00    -0.193 N 
ATOM     41  H15 UNL     1      17.286  37.669  20.222  1.00  0.00     0.180 HD
BRANCH  36  42
HETATM   42  C11 UNL     1      12.001  38.846  19.969  1.00  0.00     0.279 C 
HETATM   43  C12 UNL     1      12.265  40.206  19.349  1.00  0.00     0.087 C 
BRANCH  42  44
HETATM   44  N13 UNL     1      10.782  38.318  19.422  1.00  0.00    -0.040 N 
ATOM     45 3H13 UNL     1      10.816  38.296  18.404  1.00  0.00     0.278 HD
ATOM     46 2H13 UNL     1      10.701  37.318  19.605  1.00  0.00     0.278 HD
ATOM     47 1H13 UNL     1       9.959  38.821  19.752  1.00  0.00     0.278 HD
ENDBRANCH  42  44
BRANCH  42  48
HETATM   48  O2  UNL     1      11.815  39.030  21.347  1.00  0.00    -0.359 OA
ATOM     49  H2  UNL     1      10.915  39.264  21.542  1.00  0.00     0.213 HD
ENDBRANCH  42  48
ENDBRANCH  36  42
ENDBRANCH  24  28
ENDBRANCH  15  20
ENDBRANCH  13  15
ENDBRANCH   1  13
TORSDOF 9
ENDMDL
