MODEL 1
REMARK VINA RESULT: -8.186433087      0.000      0.000
REMARK  12 active torsions:
REMARK  status: ('A' for Active; 'I' for Inactive)
REMARK    1  A    between atoms: N2_5  and  C3_6 
REMARK    2  A    between atoms: C3_6  and  O1_7 
REMARK    3  A    between atoms: C3_6  and  C4_9 
REMARK    4  A    between atoms: N4_13  and  C7_15 
REMARK    5  A    between atoms: C7_15  and  C8_16 
REMARK    6  A    between atoms: C8_16  and  C9_17 
REMARK    7  A    between atoms: C9_17  and  O2_19 
REMARK    8  A    between atoms: C9_17  and  C11_21 
REMARK    9  A    between atoms: N5_22  and  O3_24 
REMARK   10  A    between atoms: C12_26  and  N6_27 
REMARK   11  A    between atoms: N6_27  and  O4_29 
REMARK   12  A    between atoms: N8_33  and  N9_34 
ROOT
HETATM    1  C4  UNL     1      23.753  40.100  12.349  1.00  0.00     0.112 A 
HETATM    2  C5  UNL     1      22.889  39.349  11.540  1.00  0.00     0.104 A 
HETATM    3  N3  UNL     1      22.874  39.646  10.137  1.00  0.00    -0.098 NA
HETATM    4  C6  UNL     1      22.109  38.374  12.121  1.00  0.00     0.087 A 
HETATM    5  N4  UNL     1      21.311  37.652  11.516  1.00  0.00    -0.386 N 
ATOM      6  H4  UNL     1      20.868  37.021  12.184  1.00  0.00     0.159 HD
HETATM    7  C12 UNL     1      22.235  38.196  13.519  1.00  0.00     0.125 A 
HETATM    8  C13 UNL     1      23.087  38.946  14.274  1.00  0.00     0.168 A 
HETATM    9  N7  UNL     1      23.235  38.791  15.675  1.00  0.00    -0.078 NA
HETATM   10  N8  UNL     1      23.845  39.901  13.672  1.00  0.00    -0.244 N 
ENDROOT
BRANCH   1  11
HETATM   11  C3  UNL     1      24.590  41.146  11.732  1.00  0.00     0.300 C 
BRANCH  11  12
HETATM   12  N2  UNL     1      23.974  42.460  11.761  1.00  0.00    -0.206 N 
HETATM   13  N1  UNL     1      22.679  42.602  11.646  1.00  0.00    -0.291 N 
HETATM   14  C2  UNL     1      22.094  43.832  11.672  1.00  0.00     0.090 A 
ATOM     15  H1  UNL     1      22.094  41.774  11.534  1.00  0.00     0.187 HD
HETATM   16  C1  UNL     1      20.631  43.936  11.538  1.00  0.00     0.076 C 
HETATM   17  C15 UNL     1      22.848  44.978  11.821  1.00  0.00     0.273 A 
HETATM   18  N10 UNL     1      24.177  44.815  11.938  1.00  0.00    -0.272 N 
HETATM   19  O6  UNL     1      22.269  46.092  11.840  1.00  0.00    -0.266 OA
HETATM   20  C14 UNL     1      24.725  43.589  11.909  1.00  0.00     0.346 A 
ATOM     21  H10 UNL     1      24.777  45.632  12.051  1.00  0.00     0.173 HD
HETATM   22  O5  UNL     1      25.974  43.399  12.016  1.00  0.00    -0.245 OA
ENDBRANCH  11  12
BRANCH  11  23
HETATM   23  O1  UNL     1      24.952  40.799  10.433  1.00  0.00    -0.369 OA
ATOM     24  H1  UNL     1      25.763  41.226  10.184  1.00  0.00     0.212 HD
ENDBRANCH  11  23
ENDBRANCH   1  11
BRANCH  10  25
HETATM   25  N9  UNL     1      24.721  40.677  14.426  1.00  0.00    -0.337 N 
ATOM     26  H92 UNL     1      25.338  40.236  15.109  1.00  0.00     0.177 HD
ATOM     27  H91 UNL     1      24.743  41.688  14.292  1.00  0.00     0.177 HD
ENDBRANCH  10  25
BRANCH   5  28
HETATM   28  C7  UNL     1      20.802  37.392  10.248  1.00  0.00     0.123 C 
BRANCH  28  29
HETATM   29  C8  UNL     1      19.281  37.265  10.353  1.00  0.00     0.062 C 
BRANCH  29  30
HETATM   30  C9  UNL     1      18.591  37.732   9.098  1.00  0.00     0.089 C 
HETATM   31  C10 UNL     1      19.265  38.934   8.490  1.00  0.00     0.052 C 
BRANCH  30  32
HETATM   32  O2  UNL     1      18.661  36.686   8.181  1.00  0.00    -0.385 OA
ATOM     33  H2  UNL     1      17.783  36.553   7.845  1.00  0.00     0.211 HD
ENDBRANCH  30  32
BRANCH  30  34
HETATM   34  C11 UNL     1      17.150  37.999   9.338  1.00  0.00     0.124 C 
HETATM   35  N5  UNL     1      16.332  37.054   9.682  1.00  0.00    -0.281 N 
ATOM     36  H5  UNL     1      16.684  36.103   9.790  1.00  0.00     0.193 HD
BRANCH  35  37
HETATM   37  O3  UNL     1      15.008  37.308   9.902  1.00  0.00    -0.290 OA
ATOM     38  H3  UNL     1      14.643  37.297  10.779  1.00  0.00     0.244 HD
ENDBRANCH  35  37
ENDBRANCH  30  34
ENDBRANCH  29  30
ENDBRANCH  28  29
ENDBRANCH   5  28
BRANCH   7  39
HETATM   39  N6  UNL     1      21.441  37.190  14.169  1.00  0.00    -0.264 N 
ATOM     40  H6  UNL     1      21.441  36.249  13.775  1.00  0.00     0.194 HD
BRANCH  39  41
HETATM   41  O4  UNL     1      20.764  37.397  15.171  1.00  0.00    -0.289 OA
ATOM     42  H4  UNL     1      20.392  36.707  15.709  1.00  0.00     0.244 HD
ENDBRANCH  39  41
ENDBRANCH   7  39
TORSDOF 12
ENDMDL
MODEL 2
REMARK VINA RESULT: -8.184783128      3.477      6.595
REMARK  12 active torsions:
REMARK  status: ('A' for Active; 'I' for Inactive)
REMARK    1  A    between atoms: N2_5  and  C3_6 
REMARK    2  A    between atoms: C3_6  and  O1_7 
REMARK    3  A    between atoms: C3_6  and  C4_9 
REMARK    4  A    between atoms: N4_13  and  C7_15 
REMARK    5  A    between atoms: C7_15  and  C8_16 
REMARK    6  A    between atoms: C8_16  and  C9_17 
REMARK    7  A    between atoms: C9_17  and  O2_19 
REMARK    8  A    between atoms: C9_17  and  C11_21 
REMARK    9  A    between atoms: N5_22  and  O3_24 
REMARK   10  A    between atoms: C12_26  and  N6_27 
REMARK   11  A    between atoms: N6_27  and  O4_29 
REMARK   12  A    between atoms: N8_33  and  N9_34 
ROOT
HETATM    1  C4  UNL     1      20.636  37.622  10.763  1.00  0.00     0.112 A 
HETATM    2  C5  UNL     1      20.201  36.877  11.867  1.00  0.00     0.104 A 
HETATM    3  N3  UNL     1      19.041  36.052  11.693  1.00  0.00    -0.098 NA
HETATM    4  C6  UNL     1      20.900  36.968  13.051  1.00  0.00     0.087 A 
HETATM    5  N4  UNL     1      20.616  36.364  14.089  1.00  0.00    -0.386 N 
ATOM      6  H4  UNL     1      21.294  36.612  14.810  1.00  0.00     0.159 HD
HETATM    7  C12 UNL     1      22.027  37.824  13.070  1.00  0.00     0.125 A 
HETATM    8  C13 UNL     1      22.419  38.534  11.974  1.00  0.00     0.168 A 
HETATM    9  N7  UNL     1      23.542  39.398  11.963  1.00  0.00    -0.078 NA
HETATM   10  N8  UNL     1      21.709  38.423  10.820  1.00  0.00    -0.244 N 
ENDROOT
BRANCH   1  11
HETATM   11  C3  UNL     1      19.891  37.529   9.493  1.00  0.00     0.300 C 
BRANCH  11  12
HETATM   12  N2  UNL     1      18.615  38.221   9.529  1.00  0.00    -0.206 N 
HETATM   13  N1  UNL     1      17.520  37.603   9.890  1.00  0.00    -0.291 N 
HETATM   14  C2  UNL     1      16.320  38.246   9.926  1.00  0.00     0.090 A 
ATOM     15  H1  UNL     1      17.566  36.619  10.152  1.00  0.00     0.187 HD
HETATM   16  C1  UNL     1      15.118  37.504  10.341  1.00  0.00     0.076 C 
HETATM   17  C15 UNL     1      16.213  39.578   9.580  1.00  0.00     0.273 A 
HETATM   18  N10 UNL     1      17.347  40.198   9.211  1.00  0.00    -0.272 N 
HETATM   19  O6  UNL     1      15.088  40.132   9.627  1.00  0.00    -0.266 OA
HETATM   20  C14 UNL     1      18.516  39.538   9.186  1.00  0.00     0.346 A 
ATOM     21  H10 UNL     1      17.320  41.183   8.947  1.00  0.00     0.173 HD
HETATM   22  O5  UNL     1      19.604  40.092   8.843  1.00  0.00    -0.245 OA
ENDBRANCH  11  12
BRANCH  11  23
HETATM   23  O1  UNL     1      19.721  36.202   9.106  1.00  0.00    -0.369 OA
ATOM     24  H1  UNL     1      20.339  35.639   9.556  1.00  0.00     0.212 HD
ENDBRANCH  11  23
ENDBRANCH   1  11
BRANCH  10  25
HETATM   25  N9  UNL     1      22.095  39.140   9.690  1.00  0.00    -0.337 N 
ATOM     26  H92 UNL     1      21.474  39.198   8.883  1.00  0.00     0.177 HD
ATOM     27  H91 UNL     1      23.002  39.607   9.675  1.00  0.00     0.177 HD
ENDBRANCH  10  25
BRANCH   5  28
HETATM   28  C7  UNL     1      19.700  35.466  14.626  1.00  0.00     0.123 C 
BRANCH  28  29
HETATM   29  C8  UNL     1      20.075  35.205  16.087  1.00  0.00     0.062 C 
BRANCH  29  30
HETATM   30  C9  UNL     1      19.512  36.258  17.007  1.00  0.00     0.089 C 
HETATM   31  C10 UNL     1      20.073  36.155  18.401  1.00  0.00     0.052 C 
BRANCH  30  32
HETATM   32  O2  UNL     1      19.878  37.494  16.483  1.00  0.00    -0.385 OA
ATOM     33  H2  UNL     1      19.679  38.146  17.143  1.00  0.00     0.211 HD
ENDBRANCH  30  32
BRANCH  30  34
HETATM   34  C11 UNL     1      18.028  36.221  17.030  1.00  0.00     0.124 C 
HETATM   35  N5  UNL     1      17.334  37.130  17.639  1.00  0.00    -0.281 N 
ATOM     36  H5  UNL     1      17.818  37.891  18.117  1.00  0.00     0.193 HD
BRANCH  35  37
HETATM   37  O3  UNL     1      15.970  37.090  17.655  1.00  0.00    -0.290 OA
ATOM     38  H3  UNL     1      15.470  36.972  16.856  1.00  0.00     0.244 HD
ENDBRANCH  35  37
ENDBRANCH  30  34
ENDBRANCH  29  30
ENDBRANCH  28  29
ENDBRANCH   5  28
BRANCH   7  39
HETATM   39  N6  UNL     1      22.787  37.950  14.282  1.00  0.00    -0.264 N 
ATOM     40  H6  UNL     1      23.769  37.674  14.265  1.00  0.00     0.194 HD
BRANCH  39  41
HETATM   41  O4  UNL     1      22.323  38.371  15.338  1.00  0.00    -0.289 OA
ATOM     42  H4  UNL     1      22.791  38.354  16.165  1.00  0.00     0.244 HD
ENDBRANCH  39  41
ENDBRANCH   7  39
TORSDOF 12
ENDMDL
MODEL 3
REMARK VINA RESULT: -8.110072589      3.582      8.275
REMARK  12 active torsions:
REMARK  status: ('A' for Active; 'I' for Inactive)
REMARK    1  A    between atoms: N2_5  and  C3_6 
REMARK    2  A    between atoms: C3_6  and  O1_7 
REMARK    3  A    between atoms: C3_6  and  C4_9 
REMARK    4  A    between atoms: N4_13  and  C7_15 
REMARK    5  A    between atoms: C7_15  and  C8_16 
REMARK    6  A    between atoms: C8_16  and  C9_17 
REMARK    7  A    between atoms: C9_17  and  O2_19 
REMARK    8  A    between atoms: C9_17  and  C11_21 
REMARK    9  A    between atoms: N5_22  and  O3_24 
REMARK   10  A    between atoms: C12_26  and  N6_27 
REMARK   11  A    between atoms: N6_27  and  O4_29 
REMARK   12  A    between atoms: N8_33  and  N9_34 
ROOT
HETATM    1  C4  UNL     1      21.017  37.137  16.552  1.00  0.00     0.112 A 
HETATM    2  C5  UNL     1      21.380  37.521  15.254  1.00  0.00     0.104 A 
HETATM    3  N3  UNL     1      20.500  37.149  14.185  1.00  0.00    -0.098 NA
HETATM    4  C6  UNL     1      22.547  38.229  15.069  1.00  0.00     0.087 A 
HETATM    5  N4  UNL     1      22.973  38.620  13.978  1.00  0.00    -0.386 N 
ATOM      6  H4  UNL     1      23.851  39.116  14.127  1.00  0.00     0.159 HD
HETATM    7  C12 UNL     1      23.312  38.525  16.223  1.00  0.00     0.125 A 
HETATM    8  C13 UNL     1      22.926  38.134  17.470  1.00  0.00     0.168 A 
HETATM    9  N7  UNL     1      23.670  38.415  18.643  1.00  0.00    -0.078 NA
HETATM   10  N8  UNL     1      21.769  37.436  17.621  1.00  0.00    -0.244 N 
ENDROOT
BRANCH   1  11
HETATM   11  C3  UNL     1      19.769  36.378  16.756  1.00  0.00     0.300 C 
BRANCH  11  12
HETATM   12  N2  UNL     1      19.794  35.064  16.138  1.00  0.00    -0.206 N 
HETATM   13  N1  UNL     1      19.519  34.909  14.868  1.00  0.00    -0.291 N 
HETATM   14  C2  UNL     1      19.540  33.681  14.282  1.00  0.00     0.090 A 
ATOM     15  H1  UNL     1      19.285  35.727  14.305  1.00  0.00     0.187 HD
HETATM   16  C1  UNL     1      19.224  33.561  12.848  1.00  0.00     0.076 C 
HETATM   17  C15 UNL     1      19.852  32.549  15.007  1.00  0.00     0.273 A 
HETATM   18  N10 UNL     1      20.131  32.725  16.310  1.00  0.00    -0.272 N 
HETATM   19  O6  UNL     1      19.860  31.435  14.427  1.00  0.00    -0.266 OA
HETATM   20  C14 UNL     1      20.103  33.950  16.860  1.00  0.00     0.346 A 
ATOM     21  H10 UNL     1      20.368  31.919  16.888  1.00  0.00     0.173 HD
HETATM   22  O5  UNL     1      20.360  34.152  18.085  1.00  0.00    -0.245 OA
ENDBRANCH  11  12
BRANCH  11  23
HETATM   23  O1  UNL     1      18.662  37.105  16.326  1.00  0.00    -0.369 OA
ATOM     24  H1  UNL     1      18.890  38.018  16.194  1.00  0.00     0.212 HD
ENDBRANCH  11  23
ENDBRANCH   1  11
BRANCH  10  25
HETATM   25  N9  UNL     1      21.358  37.029  18.888  1.00  0.00    -0.337 N 
ATOM     26  H92 UNL     1      20.829  36.165  19.002  1.00  0.00     0.177 HD
ATOM     27  H91 UNL     1      21.589  37.601  19.701  1.00  0.00     0.177 HD
ENDBRANCH  10  25
BRANCH   5  28
HETATM   28  C7  UNL     1      22.680  38.625  12.619  1.00  0.00     0.123 C 
BRANCH  28  29
HETATM   29  C8  UNL     1      22.183  40.020  12.234  1.00  0.00     0.062 C 
BRANCH  29  30
HETATM   30  C9  UNL     1      23.078  40.673  11.212  1.00  0.00     0.089 C 
HETATM   31  C10 UNL     1      23.148  39.886   9.930  1.00  0.00     0.052 C 
BRANCH  30  32
HETATM   32  O2  UNL     1      22.526  41.919  10.926  1.00  0.00    -0.385 OA
ATOM     33  H2  UNL     1      21.625  41.771  10.667  1.00  0.00     0.211 HD
ENDBRANCH  30  32
BRANCH  30  34
HETATM   34  C11 UNL     1      24.437  40.917  11.759  1.00  0.00     0.124 C 
HETATM   35  N5  UNL     1      24.629  41.688  12.783  1.00  0.00    -0.281 N 
ATOM     36  H5  UNL     1      23.829  42.139  13.226  1.00  0.00     0.193 HD
BRANCH  35  37
HETATM   37  O3  UNL     1      25.882  41.907  13.280  1.00  0.00    -0.290 OA
ATOM     38  H3  UNL     1      26.049  41.906  14.215  1.00  0.00     0.244 HD
ENDBRANCH  35  37
ENDBRANCH  30  34
ENDBRANCH  29  30
ENDBRANCH  28  29
ENDBRANCH   5  28
BRANCH   7  39
HETATM   39  N6  UNL     1      24.536  39.262  16.078  1.00  0.00    -0.264 N 
ATOM     40  H6  UNL     1      25.380  38.881  16.505  1.00  0.00     0.194 HD
BRANCH  39  41
HETATM   41  O4  UNL     1      24.625  40.325  15.471  1.00  0.00    -0.289 OA
ATOM     42  H4  UNL     1      25.444  40.785  15.328  1.00  0.00     0.244 HD
ENDBRANCH  39  41
ENDBRANCH   7  39
TORSDOF 12
ENDMDL
MODEL 4
REMARK VINA RESULT: -8.092971743      3.625      8.014
REMARK  12 active torsions:
REMARK  status: ('A' for Active; 'I' for Inactive)
REMARK    1  A    between atoms: N2_5  and  C3_6 
REMARK    2  A    between atoms: C3_6  and  O1_7 
REMARK    3  A    between atoms: C3_6  and  C4_9 
REMARK    4  A    between atoms: N4_13  and  C7_15 
REMARK    5  A    between atoms: C7_15  and  C8_16 
REMARK    6  A    between atoms: C8_16  and  C9_17 
REMARK    7  A    between atoms: C9_17  and  O2_19 
REMARK    8  A    between atoms: C9_17  and  C11_21 
REMARK    9  A    between atoms: N5_22  and  O3_24 
REMARK   10  A    between atoms: C12_26  and  N6_27 
REMARK   11  A    between atoms: N6_27  and  O4_29 
REMARK   12  A    between atoms: N8_33  and  N9_34 
ROOT
HETATM    1  C4  UNL     1      20.787  36.998  16.821  1.00  0.00     0.112 A 
HETATM    2  C5  UNL     1      21.281  37.500  15.609  1.00  0.00     0.104 A 
HETATM    3  N3  UNL     1      20.524  37.226  14.423  1.00  0.00    -0.098 NA
HETATM    4  C6  UNL     1      22.452  38.226  15.615  1.00  0.00     0.087 A 
HETATM    5  N4  UNL     1      22.986  38.717  14.616  1.00  0.00    -0.386 N 
ATOM      6  H4  UNL     1      23.837  39.199  14.903  1.00  0.00     0.159 HD
HETATM    7  C12 UNL     1      23.087  38.416  16.866  1.00  0.00     0.125 A 
HETATM    8  C13 UNL     1      22.575  37.911  18.024  1.00  0.00     0.168 A 
HETATM    9  N7  UNL     1      23.187  38.084  19.290  1.00  0.00    -0.078 NA
HETATM   10  N8  UNL     1      21.417  37.199  17.987  1.00  0.00    -0.244 N 
ENDROOT
BRANCH   1  11
HETATM   11  C3  UNL     1      19.534  36.220  16.820  1.00  0.00     0.300 C 
BRANCH  11  12
HETATM   12  N2  UNL     1      19.655  34.944  16.138  1.00  0.00    -0.206 N 
HETATM   13  N1  UNL     1      19.380  34.829  14.865  1.00  0.00    -0.291 N 
HETATM   14  C2  UNL     1      19.491  33.636  14.218  1.00  0.00     0.090 A 
ATOM     15  H1  UNL     1      19.074  35.652  14.344  1.00  0.00     0.187 HD
HETATM   16  C1  UNL     1      19.168  33.561  12.783  1.00  0.00     0.076 C 
HETATM   17  C15 UNL     1      19.900  32.499  14.885  1.00  0.00     0.273 A 
HETATM   18  N10 UNL     1      20.180  32.633  16.192  1.00  0.00    -0.272 N 
HETATM   19  O6  UNL     1      19.989  31.418  14.251  1.00  0.00    -0.266 OA
HETATM   20  C14 UNL     1      20.060  33.824  16.802  1.00  0.00     0.346 A 
ATOM     21  H10 UNL     1      20.486  31.822  16.728  1.00  0.00     0.173 HD
HETATM   22  O5  UNL     1      20.315  33.986  18.034  1.00  0.00    -0.245 OA
ENDBRANCH  11  12
BRANCH  11  23
HETATM   23  O1  UNL     1      18.481  36.963  16.293  1.00  0.00    -0.369 OA
ATOM     24  H1  UNL     1      18.207  37.638  16.903  1.00  0.00     0.212 HD
ENDBRANCH  11  23
ENDBRANCH   1  11
BRANCH  10  25
HETATM   25  N9  UNL     1      20.880  36.676  19.160  1.00  0.00    -0.337 N 
ATOM     26  H92 UNL     1      19.991  36.176  19.138  1.00  0.00     0.177 HD
ATOM     27  H91 UNL     1      21.380  36.796  20.041  1.00  0.00     0.177 HD
ENDBRANCH  10  25
BRANCH   5  28
HETATM   28  C7  UNL     1      22.839  38.845  13.239  1.00  0.00     0.123 C 
BRANCH  28  29
HETATM   29  C8  UNL     1      23.574  40.110  12.789  1.00  0.00     0.062 C 
BRANCH  29  30
HETATM   30  C9  UNL     1      23.129  40.561  11.422  1.00  0.00     0.089 C 
HETATM   31  C10 UNL     1      22.874  42.044  11.365  1.00  0.00     0.052 C 
BRANCH  30  32
HETATM   32  O2  UNL     1      24.165  40.265  10.539  1.00  0.00    -0.385 OA
ATOM     33  H2  UNL     1      23.766  40.034   9.710  1.00  0.00     0.211 HD
ENDBRANCH  30  32
BRANCH  30  34
HETATM   34  C11 UNL     1      21.939  39.801  10.960  1.00  0.00     0.124 C 
HETATM   35  N5  UNL     1      20.887  40.401  10.499  1.00  0.00    -0.281 N 
ATOM     36  H5  UNL     1      20.873  41.420  10.451  1.00  0.00     0.193 HD
BRANCH  35  37
HETATM   37  O3  UNL     1      19.797  39.695  10.076  1.00  0.00    -0.290 OA
ATOM     38  H3  UNL     1      18.914  39.984  10.276  1.00  0.00     0.244 HD
ENDBRANCH  35  37
ENDBRANCH  30  34
ENDBRANCH  29  30
ENDBRANCH  28  29
ENDBRANCH   5  28
BRANCH   7  39
HETATM   39  N6  UNL     1      24.310  39.166  16.920  1.00  0.00    -0.264 N 
ATOM     40  H6  UNL     1      25.182  38.679  16.717  1.00  0.00     0.194 HD
BRANCH  39  41
HETATM   41  O4  UNL     1      24.366  40.360  17.198  1.00  0.00    -0.289 OA
ATOM     42  H4  UNL     1      24.526  40.692  18.075  1.00  0.00     0.244 HD
ENDBRANCH  39  41
ENDBRANCH   7  39
TORSDOF 12
ENDMDL
MODEL 5
REMARK VINA RESULT: -8.019878160      4.137      6.714
REMARK  12 active torsions:
REMARK  status: ('A' for Active; 'I' for Inactive)
REMARK    1  A    between atoms: N2_5  and  C3_6 
REMARK    2  A    between atoms: C3_6  and  O1_7 
REMARK    3  A    between atoms: C3_6  and  C4_9 
REMARK    4  A    between atoms: N4_13  and  C7_15 
REMARK    5  A    between atoms: C7_15  and  C8_16 
REMARK    6  A    between atoms: C8_16  and  C9_17 
REMARK    7  A    between atoms: C9_17  and  O2_19 
REMARK    8  A    between atoms: C9_17  and  C11_21 
REMARK    9  A    between atoms: N5_22  and  O3_24 
REMARK   10  A    between atoms: C12_26  and  N6_27 
REMARK   11  A    between atoms: N6_27  and  O4_29 
REMARK   12  A    between atoms: N8_33  and  N9_34 
ROOT
HETATM    1  C4  UNL     1      20.780  36.991  11.892  1.00  0.00     0.112 A 
HETATM    2  C5  UNL     1      20.156  36.018  12.684  1.00  0.00     0.104 A 
HETATM    3  N3  UNL     1      19.256  35.112  12.031  1.00  0.00    -0.098 NA
HETATM    4  C6  UNL     1      20.433  35.976  14.032  1.00  0.00     0.087 A 
HETATM    5  N4  UNL     1      19.947  35.170  14.831  1.00  0.00    -0.386 N 
ATOM      6  H4  UNL     1      20.321  35.361  15.760  1.00  0.00     0.159 HD
HETATM    7  C12 UNL     1      21.345  36.936  14.533  1.00  0.00     0.125 A 
HETATM    8  C13 UNL     1      21.932  37.868  13.731  1.00  0.00     0.168 A 
HETATM    9  N7  UNL     1      22.848  38.841  14.203  1.00  0.00    -0.078 NA
HETATM   10  N8  UNL     1      21.639  37.884  12.403  1.00  0.00    -0.244 N 
ENDROOT
BRANCH   1  11
HETATM   11  C3  UNL     1      20.486  37.041  10.447  1.00  0.00     0.300 C 
BRANCH  11  12
HETATM   12  N2  UNL     1      19.276  37.780  10.137  1.00  0.00    -0.206 N 
HETATM   13  N1  UNL     1      18.094  37.279  10.391  1.00  0.00    -0.291 N 
HETATM   14  C2  UNL     1      16.954  37.967  10.103  1.00  0.00     0.090 A 
ATOM     15  H1  UNL     1      18.025  36.354  10.815  1.00  0.00     0.187 HD
HETATM   16  C1  UNL     1      15.649  37.357  10.410  1.00  0.00     0.076 C 
HETATM   17  C15 UNL     1      17.003  39.221   9.529  1.00  0.00     0.273 A 
HETATM   18  N10 UNL     1      18.224  39.721   9.275  1.00  0.00    -0.272 N 
HETATM   19  O6  UNL     1      15.928  39.820   9.280  1.00  0.00    -0.266 OA
HETATM   20  C14 UNL     1      19.331  39.019   9.570  1.00  0.00     0.346 A 
ATOM     21  H10 UNL     1      18.312  40.644   8.851  1.00  0.00     0.173 HD
HETATM   22  O5  UNL     1      20.498  39.460   9.343  1.00  0.00    -0.245 OA
ENDBRANCH  11  12
BRANCH  11  23
HETATM   23  O1  UNL     1      20.437  35.761   9.900  1.00  0.00    -0.369 OA
ATOM     24  H1  UNL     1      21.286  35.509   9.556  1.00  0.00     0.212 HD
ENDBRANCH  11  23
ENDBRANCH   1  11
BRANCH  10  25
HETATM   25  N9  UNL     1      22.230  38.828  11.568  1.00  0.00    -0.337 N 
ATOM     26  H92 UNL     1      22.598  38.549  10.659  1.00  0.00     0.177 HD
ATOM     27  H91 UNL     1      22.293  39.801  11.870  1.00  0.00     0.177 HD
ENDBRANCH  10  25
BRANCH   5  28
HETATM   28  C7  UNL     1      19.069  34.094  14.913  1.00  0.00     0.123 C 
BRANCH  28  29
HETATM   29  C8  UNL     1      19.759  32.964  15.681  1.00  0.00     0.062 C 
BRANCH  29  30
HETATM   30  C9  UNL     1      19.507  31.620  15.047  1.00  0.00     0.089 C 
HETATM   31  C10 UNL     1      19.388  31.709  13.549  1.00  0.00     0.052 C 
BRANCH  30  32
HETATM   32  O2  UNL     1      20.605  30.817  15.347  1.00  0.00    -0.385 OA
ATOM     33  H2  UNL     1      20.769  30.907  16.278  1.00  0.00     0.211 HD
ENDBRANCH  30  32
BRANCH  30  34
HETATM   34  C11 UNL     1      18.315  30.958  15.635  1.00  0.00     0.124 C 
HETATM   35  N5  UNL     1      17.857  29.841  15.164  1.00  0.00    -0.281 N 
ATOM     36  H5  UNL     1      18.325  29.403  14.370  1.00  0.00     0.193 HD
BRANCH  35  37
HETATM   37  O3  UNL     1      16.760  29.239  15.710  1.00  0.00    -0.290 OA
ATOM     38  H3  UNL     1      15.881  29.543  15.515  1.00  0.00     0.244 HD
ENDBRANCH  35  37
ENDBRANCH  30  34
ENDBRANCH  29  30
ENDBRANCH  28  29
ENDBRANCH   5  28
BRANCH   7  39
HETATM   39  N6  UNL     1      21.665  36.930  15.933  1.00  0.00    -0.264 N 
ATOM     40  H6  UNL     1      22.417  36.320  16.252  1.00  0.00     0.194 HD
BRANCH  39  41
HETATM   41  O4  UNL     1      21.085  37.617  16.769  1.00  0.00    -0.289 OA
ATOM     42  H4  UNL     1      21.021  37.388  17.689  1.00  0.00     0.244 HD
ENDBRANCH  39  41
ENDBRANCH   7  39
TORSDOF 12
ENDMDL
