MODEL 1
REMARK VINA RESULT: -7.125206258      0.000      0.000
REMARK  12 active torsions:
REMARK  status: ('A' for Active; 'I' for Inactive)
REMARK    1  A    between atoms: S1_2  and  C2_3 
REMARK    2  A    between atoms: C2_3  and  C3_4 
REMARK    3  A    between atoms: C4_6  and  C5_7 
REMARK    4  A    between atoms: C4_6  and  C9_27 
REMARK    5  A    between atoms: C5_7  and  N1_8 
REMARK    6  A    between atoms: N1_8  and  C6_10 
REMARK    7  A    between atoms: C7_13  and  N3_14 
REMARK    8  A    between atoms: N4_17  and  N5_18 
REMARK    9  A    between atoms: C8_21  and  N6_22 
REMARK   10  A    between atoms: C9_27  and  N9_32 
REMARK   11  A    between atoms: N8_28  and  O1_30 
REMARK   12  A    between atoms: N9_32  and  O2_34 
ROOT
HETATM    1  C5  UNL     1      21.530  38.953  10.801  1.00  0.00     0.197 C 
ENDROOT
BRANCH   1   2
HETATM    2  C4  UNL     1      20.595  38.274   9.803  1.00  0.00     0.207 C 
HETATM    3  S2  UNL     1      20.697  39.211   8.293  1.00  0.00    -0.097 SA
HETATM    4  C3  UNL     1      18.964  39.525   7.875  1.00  0.00     0.210 C 
HETATM    5  S3  UNL     1      18.203  38.610   9.203  1.00  0.00     0.281 S 
HETATM    6  O3  UNL     1      19.348  38.284  10.309  1.00  0.00    -0.242 OA
HETATM    7  O4  UNL     1      17.487  37.402   8.668  1.00  0.00    -0.197 OA
HETATM    8  O5  UNL     1      17.128  39.472   9.851  1.00  0.00    -0.197 OA
BRANCH   4   9
HETATM    9  C2  UNL     1      18.595  40.970   8.022  1.00  0.00     0.106 C 
BRANCH   9  10
HETATM   10  S1  UNL     1      19.943  41.999   8.623  1.00  0.00    -0.171 SA
HETATM   11  C1  UNL     1      19.678  42.247  10.417  1.00  0.00     0.089 C 
ENDBRANCH   9  10
ENDBRANCH   4   9
BRANCH   2  12
HETATM   12  C9  UNL     1      21.016  36.874   9.537  1.00  0.00     0.170 C 
HETATM   13  N8  UNL     1      22.049  36.548   8.880  1.00  0.00    -0.252 N 
ATOM     14  H8  UNL     1      22.651  37.277   8.497  1.00  0.00     0.195 HD
BRANCH  13  15
HETATM   15  O1  UNL     1      22.370  35.233   8.677  1.00  0.00    -0.288 OA
ATOM     16  H1  UNL     1      22.121  34.787   7.876  1.00  0.00     0.244 HD
ENDBRANCH  13  15
BRANCH  12  17
HETATM   17  N9  UNL     1      20.192  35.847  10.059  1.00  0.00    -0.252 N 
ATOM     18  H9  UNL     1      19.767  35.157   9.439  1.00  0.00     0.195 HD
BRANCH  17  19
HETATM   19  O2  UNL     1      19.978  35.794  11.388  1.00  0.00    -0.288 OA
ATOM     20  H2  UNL     1      19.374  36.411  11.782  1.00  0.00     0.244 HD
ENDBRANCH  17  19
ENDBRANCH  12  17
ENDBRANCH   2  12
ENDBRANCH   1   2
BRANCH   1  21
HETATM   21  N1  UNL     1      21.759  38.135  11.964  1.00  0.00    -0.221 N 
ATOM     22  H1  UNL     1      21.409  37.177  11.982  1.00  0.00     0.177 HD
BRANCH  21  23
HETATM   23  C6  UNL     1      22.459  38.639  13.075  1.00  0.00     0.707 A 
HETATM   24  N2  UNL     1      22.252  38.129  14.302  1.00  0.00    -0.020 N 
HETATM   25  C7  UNL     1      22.879  38.557  15.403  1.00  0.00     0.726 A 
ATOM     26  H2  UNL     1      21.577  37.371  14.399  1.00  0.00     0.203 HD
HETATM   27  N4  UNL     1      23.777  39.563  15.288  1.00  0.00     0.084 N 
HETATM   28  C8  UNL     1      24.013  40.101  14.079  1.00  0.00     0.726 A 
HETATM   29  N7  UNL     1      23.359  39.638  13.002  1.00  0.00    -0.020 N 
ATOM     30  H7  UNL     1      23.550  40.059  12.093  1.00  0.00     0.203 HD
BRANCH  25  31
HETATM   31  N3  UNL     1      22.608  38.001  16.526  1.00  0.00    -0.232 N 
ATOM     32  H32 UNL     1      21.842  38.316  17.122  1.00  0.00     0.174 HD
ATOM     33  H31 UNL     1      23.178  37.215  16.837  1.00  0.00     0.174 HD
ENDBRANCH  25  31
BRANCH  27  34
HETATM   34  N5  UNL     1      24.409  39.982  16.449  1.00  0.00    -0.309 N 
ATOM     35  H52 UNL     1      24.056  40.734  17.042  1.00  0.00     0.178 HD
ATOM     36  H51 UNL     1      25.272  39.504  16.708  1.00  0.00     0.178 HD
ENDBRANCH  27  34
BRANCH  28  37
HETATM   37  N6  UNL     1      24.881  41.073  13.968  1.00  0.00    -0.232 N 
ATOM     38  H62 UNL     1      25.649  41.165  14.633  1.00  0.00     0.174 HD
ATOM     39  H61 UNL     1      24.785  41.745  13.207  1.00  0.00     0.174 HD
ENDBRANCH  28  37
ENDBRANCH  21  23
ENDBRANCH   1  21
TORSDOF 12
ENDMDL
MODEL 2
REMARK VINA RESULT: -7.076998156      0.951      1.961
REMARK  12 active torsions:
REMARK  status: ('A' for Active; 'I' for Inactive)
REMARK    1  A    between atoms: S1_2  and  C2_3 
REMARK    2  A    between atoms: C2_3  and  C3_4 
REMARK    3  A    between atoms: C4_6  and  C5_7 
REMARK    4  A    between atoms: C4_6  and  C9_27 
REMARK    5  A    between atoms: C5_7  and  N1_8 
REMARK    6  A    between atoms: N1_8  and  C6_10 
REMARK    7  A    between atoms: C7_13  and  N3_14 
REMARK    8  A    between atoms: N4_17  and  N5_18 
REMARK    9  A    between atoms: C8_21  and  N6_22 
REMARK   10  A    between atoms: C9_27  and  N9_32 
REMARK   11  A    between atoms: N8_28  and  O1_30 
REMARK   12  A    between atoms: N9_32  and  O2_34 
ROOT
HETATM    1  C5  UNL     1      21.861  38.951  10.804  1.00  0.00     0.197 C 
ENDROOT
BRANCH   1   2
HETATM    2  C4  UNL     1      21.108  38.325   9.633  1.00  0.00     0.207 C 
HETATM    3  S2  UNL     1      20.641  39.663   8.556  1.00  0.00    -0.097 SA
HETATM    4  C3  UNL     1      18.873  39.388   8.285  1.00  0.00     0.210 C 
HETATM    5  S3  UNL     1      18.699  37.868   9.202  1.00  0.00     0.281 S 
HETATM    6  O3  UNL     1      20.030  37.678  10.115  1.00  0.00    -0.242 OA
HETATM    7  O4  UNL     1      18.406  36.723   8.274  1.00  0.00    -0.197 OA
HETATM    8  O5  UNL     1      17.488  37.974  10.119  1.00  0.00    -0.197 OA
BRANCH   4   9
HETATM    9  C2  UNL     1      18.025  40.436   8.938  1.00  0.00     0.106 C 
BRANCH   9  10
HETATM   10  S1  UNL     1      18.687  42.101   8.774  1.00  0.00    -0.171 SA
HETATM   11  C1  UNL     1      19.122  42.680  10.456  1.00  0.00     0.089 C 
ENDBRANCH   9  10
ENDBRANCH   4   9
BRANCH   2  12
HETATM   12  C9  UNL     1      21.969  37.374   8.884  1.00  0.00     0.170 C 
HETATM   13  N8  UNL     1      22.958  37.713   8.169  1.00  0.00    -0.252 N 
ATOM     14  H8  UNL     1      23.202  38.700   8.085  1.00  0.00     0.195 HD
BRANCH  13  15
HETATM   15  O1  UNL     1      23.705  36.775   7.508  1.00  0.00    -0.288 OA
ATOM     16  H1  UNL     1      23.442  36.454   6.653  1.00  0.00     0.244 HD
ENDBRANCH  13  15
BRANCH  12  17
HETATM   17  N9  UNL     1      21.646  35.999   8.987  1.00  0.00    -0.252 N 
ATOM     18  H9  UNL     1      21.903  35.467   9.819  1.00  0.00     0.195 HD
BRANCH  17  19
HETATM   19  O2  UNL     1      20.994  35.403   7.970  1.00  0.00    -0.288 OA
ATOM     20  H2  UNL     1      21.403  35.379   7.113  1.00  0.00     0.244 HD
ENDBRANCH  17  19
ENDBRANCH  12  17
ENDBRANCH   2  12
ENDBRANCH   1   2
BRANCH   1  21
HETATM   21  N1  UNL     1      21.793  38.131  11.986  1.00  0.00    -0.221 N 
ATOM     22  H1  UNL     1      21.302  37.238  11.951  1.00  0.00     0.177 HD
BRANCH  21  23
HETATM   23  C6  UNL     1      22.395  38.546  13.188  1.00  0.00     0.707 A 
HETATM   24  N2  UNL     1      23.314  39.528  13.188  1.00  0.00    -0.020 N 
HETATM   25  C7  UNL     1      23.928  39.974  14.289  1.00  0.00     0.726 A 
ATOM     26  H2  UNL     1      23.557  39.958  12.296  1.00  0.00     0.203 HD
HETATM   27  N4  UNL     1      23.615  39.411  15.480  1.00  0.00     0.084 N 
HETATM   28  C8  UNL     1      22.701  38.426  15.523  1.00  0.00     0.726 A 
HETATM   29  N7  UNL     1      22.111  38.011  14.390  1.00  0.00    -0.020 N 
ATOM     30  H7  UNL     1      21.422  37.261  14.442  1.00  0.00     0.203 HD
BRANCH  25  31
HETATM   31  N3  UNL     1      24.790  40.918  14.179  1.00  0.00    -0.232 N 
ATOM     32  H32 UNL     1      24.930  41.432  13.310  1.00  0.00     0.174 HD
ATOM     33  H31 UNL     1      25.357  41.164  14.990  1.00  0.00     0.174 HD
ENDBRANCH  25  31
BRANCH  27  34
HETATM   34  N5  UNL     1      24.269  39.898  16.601  1.00  0.00    -0.309 N 
ATOM     35  H52 UNL     1      24.911  40.691  16.578  1.00  0.00     0.178 HD
ATOM     36  H51 UNL     1      24.088  39.426  17.488  1.00  0.00     0.178 HD
ENDBRANCH  27  34
BRANCH  28  37
HETATM   37  N6  UNL     1      22.399  37.882  16.673  1.00  0.00    -0.232 N 
ATOM     38  H62 UNL     1      21.483  38.033  17.096  1.00  0.00     0.174 HD
ATOM     39  H61 UNL     1      23.089  37.301  17.149  1.00  0.00     0.174 HD
ENDBRANCH  28  37
ENDBRANCH  21  23
ENDBRANCH   1  21
TORSDOF 12
ENDMDL
MODEL 3
REMARK VINA RESULT: -7.058937047      1.311      1.776
REMARK  12 active torsions:
REMARK  status: ('A' for Active; 'I' for Inactive)
REMARK    1  A    between atoms: S1_2  and  C2_3 
REMARK    2  A    between atoms: C2_3  and  C3_4 
REMARK    3  A    between atoms: C4_6  and  C5_7 
REMARK    4  A    between atoms: C4_6  and  C9_27 
REMARK    5  A    between atoms: C5_7  and  N1_8 
REMARK    6  A    between atoms: N1_8  and  C6_10 
REMARK    7  A    between atoms: C7_13  and  N3_14 
REMARK    8  A    between atoms: N4_17  and  N5_18 
REMARK    9  A    between atoms: C8_21  and  N6_22 
REMARK   10  A    between atoms: C9_27  and  N9_32 
REMARK   11  A    between atoms: N8_28  and  O1_30 
REMARK   12  A    between atoms: N9_32  and  O2_34 
ROOT
HETATM    1  C5  UNL     1      21.688  38.604  10.841  1.00  0.00     0.197 C 
ENDROOT
BRANCH   1   2
HETATM    2  C4  UNL     1      20.999  38.150   9.557  1.00  0.00     0.207 C 
HETATM    3  S2  UNL     1      20.451  39.626   8.726  1.00  0.00    -0.097 SA
HETATM    4  C3  UNL     1      18.712  39.284   8.361  1.00  0.00     0.210 C 
HETATM    5  S3  UNL     1      18.636  37.615   8.985  1.00  0.00     0.281 S 
HETATM    6  O3  UNL     1      19.964  37.355   9.885  1.00  0.00    -0.242 OA
HETATM    7  O4  UNL     1      18.441  36.640   7.859  1.00  0.00    -0.197 OA
HETATM    8  O5  UNL     1      17.407  37.469   9.873  1.00  0.00    -0.197 OA
BRANCH   4   9
HETATM    9  C2  UNL     1      17.781  40.135   9.170  1.00  0.00     0.106 C 
BRANCH   9  10
HETATM   10  S1  UNL     1      17.965  41.897   8.858  1.00  0.00    -0.171 SA
HETATM   11  C1  UNL     1      18.616  42.655  10.392  1.00  0.00     0.089 C 
ENDBRANCH   9  10
ENDBRANCH   4   9
BRANCH   2  12
HETATM   12  C9  UNL     1      21.938  37.413   8.672  1.00  0.00     0.170 C 
HETATM   13  N8  UNL     1      23.080  37.837   8.328  1.00  0.00    -0.252 N 
ATOM     14  H8  UNL     1      23.403  38.743   8.667  1.00  0.00     0.195 HD
BRANCH  13  15
HETATM   15  O1  UNL     1      23.889  37.097   7.508  1.00  0.00    -0.288 OA
ATOM     16  H1  UNL     1      24.825  37.043   7.661  1.00  0.00     0.244 HD
ENDBRANCH  13  15
BRANCH  12  17
HETATM   17  N9  UNL     1      21.507  36.153   8.190  1.00  0.00    -0.252 N 
ATOM     18  H9  UNL     1      20.837  36.093   7.423  1.00  0.00     0.195 HD
BRANCH  17  19
HETATM   19  O2  UNL     1      21.996  35.034   8.759  1.00  0.00    -0.288 OA
ATOM     20  H2  UNL     1      21.393  34.424   9.168  1.00  0.00     0.244 HD
ENDBRANCH  17  19
ENDBRANCH  12  17
ENDBRANCH   2  12
ENDBRANCH   1   2
BRANCH   1  21
HETATM   21  N1  UNL     1      21.901  37.509  11.752  1.00  0.00    -0.221 N 
ATOM     22  H1  UNL     1      21.931  36.555  11.392  1.00  0.00     0.177 HD
BRANCH  21  23
HETATM   23  C6  UNL     1      22.068  37.737  13.130  1.00  0.00     0.707 A 
HETATM   24  N2  UNL     1      21.355  37.036  14.030  1.00  0.00    -0.020 N 
HETATM   25  C7  UNL     1      21.459  37.198  15.353  1.00  0.00     0.726 A 
ATOM     26  H2  UNL     1      20.696  36.340  13.682  1.00  0.00     0.203 HD
HETATM   27  N4  UNL     1      22.330  38.120  15.827  1.00  0.00     0.084 N 
HETATM   28  C8  UNL     1      23.062  38.842  14.961  1.00  0.00     0.726 A 
HETATM   29  N7  UNL     1      22.922  38.644  13.640  1.00  0.00    -0.020 N 
ATOM     30  H7  UNL     1      23.485  39.202  12.998  1.00  0.00     0.203 HD
BRANCH  25  31
HETATM   31  N3  UNL     1      20.732  36.477  16.125  1.00  0.00    -0.232 N 
ATOM     32  H32 UNL     1      20.084  35.775  15.768  1.00  0.00     0.174 HD
ATOM     33  H31 UNL     1      20.803  36.610  17.134  1.00  0.00     0.174 HD
ENDBRANCH  25  31
BRANCH  27  34
HETATM   34  N5  UNL     1      22.413  38.262  17.204  1.00  0.00    -0.309 N 
ATOM     35  H52 UNL     1      23.297  38.317  17.711  1.00  0.00     0.178 HD
ATOM     36  H51 UNL     1      21.536  38.313  17.721  1.00  0.00     0.178 HD
ENDBRANCH  27  34
BRANCH  28  37
HETATM   37  N6  UNL     1      23.903  39.732  15.419  1.00  0.00    -0.232 N 
ATOM     38  H62 UNL     1      23.688  40.270  16.258  1.00  0.00     0.174 HD
ATOM     39  H61 UNL     1      24.784  39.887  14.928  1.00  0.00     0.174 HD
ENDBRANCH  28  37
ENDBRANCH  21  23
ENDBRANCH   1  21
TORSDOF 12
ENDMDL
MODEL 4
REMARK VINA RESULT: -7.055988724      1.254      2.041
REMARK  12 active torsions:
REMARK  status: ('A' for Active; 'I' for Inactive)
REMARK    1  A    between atoms: S1_2  and  C2_3 
REMARK    2  A    between atoms: C2_3  and  C3_4 
REMARK    3  A    between atoms: C4_6  and  C5_7 
REMARK    4  A    between atoms: C4_6  and  C9_27 
REMARK    5  A    between atoms: C5_7  and  N1_8 
REMARK    6  A    between atoms: N1_8  and  C6_10 
REMARK    7  A    between atoms: C7_13  and  N3_14 
REMARK    8  A    between atoms: N4_17  and  N5_18 
REMARK    9  A    between atoms: C8_21  and  N6_22 
REMARK   10  A    between atoms: C9_27  and  N9_32 
REMARK   11  A    between atoms: N8_28  and  O1_30 
REMARK   12  A    between atoms: N9_32  and  O2_34 
ROOT
HETATM    1  C5  UNL     1      22.263  38.502  10.790  1.00  0.00     0.197 C 
ENDROOT
BRANCH   1   2
HETATM    2  C4  UNL     1      21.191  38.391   9.709  1.00  0.00     0.207 C 
HETATM    3  S2  UNL     1      21.772  39.340   8.319  1.00  0.00    -0.097 SA
HETATM    4  C3  UNL     1      20.365  40.406   7.919  1.00  0.00     0.210 C 
HETATM    5  S3  UNL     1      19.208  39.776   9.122  1.00  0.00     0.281 S 
HETATM    6  O3  UNL     1      20.038  38.884  10.197  1.00  0.00    -0.242 OA
HETATM    7  O4  UNL     1      18.082  39.051   8.441  1.00  0.00    -0.197 OA
HETATM    8  O5  UNL     1      18.562  40.946   9.853  1.00  0.00    -0.197 OA
BRANCH   4   9
HETATM    9  C2  UNL     1      20.634  41.847   8.229  1.00  0.00     0.106 C 
BRANCH   9  10
HETATM   10  S1  UNL     1      22.142  42.110   9.174  1.00  0.00    -0.171 SA
HETATM   11  C1  UNL     1      21.668  42.187  10.941  1.00  0.00     0.089 C 
ENDBRANCH   9  10
ENDBRANCH   4   9
BRANCH   2  12
HETATM   12  C9  UNL     1      20.995  36.980   9.286  1.00  0.00     0.170 C 
HETATM   13  N8  UNL     1      21.931  36.193   8.958  1.00  0.00    -0.252 N 
ATOM     14  H8  UNL     1      22.896  36.524   8.977  1.00  0.00     0.195 HD
BRANCH  13  15
HETATM   15  O1  UNL     1      21.668  34.904   8.579  1.00  0.00    -0.288 OA
ATOM     16  H1  UNL     1      22.371  34.276   8.460  1.00  0.00     0.244 HD
ENDBRANCH  13  15
BRANCH  12  17
HETATM   17  N9  UNL     1      19.662  36.501   9.253  1.00  0.00    -0.252 N 
ATOM     18  H9  UNL     1      19.173  36.268  10.118  1.00  0.00     0.195 HD
BRANCH  17  19
HETATM   19  O2  UNL     1      19.049  36.357   8.062  1.00  0.00    -0.288 OA
ATOM     20  H2  UNL     1      18.825  37.133   7.563  1.00  0.00     0.244 HD
ENDBRANCH  17  19
ENDBRANCH  12  17
ENDBRANCH   2  12
ENDBRANCH   1   2
BRANCH   1  21
HETATM   21  N1  UNL     1      21.752  38.149  12.090  1.00  0.00    -0.221 N 
ATOM     22  H1  UNL     1      20.908  37.581  12.161  1.00  0.00     0.177 HD
BRANCH  21  23
HETATM   23  C6  UNL     1      22.402  38.579  13.261  1.00  0.00     0.707 A 
HETATM   24  N2  UNL     1      23.323  39.557  13.212  1.00  0.00    -0.020 N 
HETATM   25  C7  UNL     1      23.981  40.017  14.281  1.00  0.00     0.726 A 
ATOM     26  H2  UNL     1      23.533  39.974  12.305  1.00  0.00     0.203 HD
HETATM   27  N4  UNL     1      23.713  39.472  15.491  1.00  0.00     0.084 N 
HETATM   28  C8  UNL     1      22.798  38.491  15.584  1.00  0.00     0.726 A 
HETATM   29  N7  UNL     1      22.163  38.063  14.481  1.00  0.00    -0.020 N 
ATOM     30  H7  UNL     1      21.473  37.317  14.571  1.00  0.00     0.203 HD
BRANCH  25  31
HETATM   31  N3  UNL     1      24.842  40.955  14.124  1.00  0.00    -0.232 N 
ATOM     32  H32 UNL     1      24.899  41.507  13.269  1.00  0.00     0.174 HD
ATOM     33  H31 UNL     1      25.494  41.157  14.882  1.00  0.00     0.174 HD
ENDBRANCH  25  31
BRANCH  27  34
HETATM   34  N5  UNL     1      24.412  39.972  16.579  1.00  0.00    -0.309 N 
ATOM     35  H52 UNL     1      25.430  39.969  16.643  1.00  0.00     0.178 HD
ATOM     36  H51 UNL     1      23.864  40.359  17.347  1.00  0.00     0.178 HD
ENDBRANCH  27  34
BRANCH  28  37
HETATM   37  N6  UNL     1      22.538  37.966  16.753  1.00  0.00    -0.232 N 
ATOM     38  H62 UNL     1      23.071  37.166  17.095  1.00  0.00     0.174 HD
ATOM     39  H61 UNL     1      21.794  38.363  17.326  1.00  0.00     0.174 HD
ENDBRANCH  28  37
ENDBRANCH  21  23
ENDBRANCH   1  21
TORSDOF 12
ENDMDL
MODEL 5
REMARK VINA RESULT: -7.021637401      1.591      1.924
REMARK  12 active torsions:
REMARK  status: ('A' for Active; 'I' for Inactive)
REMARK    1  A    between atoms: S1_2  and  C2_3 
REMARK    2  A    between atoms: C2_3  and  C3_4 
REMARK    3  A    between atoms: C4_6  and  C5_7 
REMARK    4  A    between atoms: C4_6  and  C9_27 
REMARK    5  A    between atoms: C5_7  and  N1_8 
REMARK    6  A    between atoms: N1_8  and  C6_10 
REMARK    7  A    between atoms: C7_13  and  N3_14 
REMARK    8  A    between atoms: N4_17  and  N5_18 
REMARK    9  A    between atoms: C8_21  and  N6_22 
REMARK   10  A    between atoms: C9_27  and  N9_32 
REMARK   11  A    between atoms: N8_28  and  O1_30 
REMARK   12  A    between atoms: N9_32  and  O2_34 
ROOT
HETATM    1  C5  UNL     1      22.067  38.286  11.121  1.00  0.00     0.197 C 
ENDROOT
BRANCH   1   2
HETATM    2  C4  UNL     1      21.205  38.287   9.861  1.00  0.00     0.207 C 
HETATM    3  S2  UNL     1      22.080  39.252   8.648  1.00  0.00    -0.097 SA
HETATM    4  C3  UNL     1      20.830  40.420   8.058  1.00  0.00     0.210 C 
HETATM    5  S3  UNL     1      19.441  39.818   9.000  1.00  0.00     0.281 S 
HETATM    6  O3  UNL     1      20.011  38.832  10.159  1.00  0.00    -0.242 OA
HETATM    7  O4  UNL     1      18.419  39.194   8.093  1.00  0.00    -0.197 OA
HETATM    8  O5  UNL     1      18.738  40.996   9.662  1.00  0.00    -0.197 OA
BRANCH   4   9
HETATM    9  C2  UNL     1      21.117  41.828   8.483  1.00  0.00     0.106 C 
BRANCH   9  10
HETATM   10  S1  UNL     1      22.568  41.978   9.537  1.00  0.00    -0.171 SA
HETATM   11  C1  UNL     1      21.975  42.069  11.266  1.00  0.00     0.089 C 
ENDBRANCH   9  10
ENDBRANCH   4   9
BRANCH   2  12
HETATM   12  C9  UNL     1      21.011  36.909   9.339  1.00  0.00     0.170 C 
HETATM   13  N8  UNL     1      21.948  36.151   8.952  1.00  0.00    -0.252 N 
ATOM     14  H8  UNL     1      22.912  36.483   8.991  1.00  0.00     0.195 HD
BRANCH  13  15
HETATM   15  O1  UNL     1      21.687  34.891   8.482  1.00  0.00    -0.288 OA
ATOM     16  H1  UNL     1      22.346  34.208   8.522  1.00  0.00     0.244 HD
ENDBRANCH  13  15
BRANCH  12  17
HETATM   17  N9  UNL     1      19.679  36.430   9.276  1.00  0.00    -0.252 N 
ATOM     18  H9  UNL     1      19.199  36.121  10.122  1.00  0.00     0.195 HD
BRANCH  17  19
HETATM   19  O2  UNL     1      19.056  36.387   8.083  1.00  0.00    -0.288 OA
ATOM     20  H2  UNL     1      18.234  35.917   8.009  1.00  0.00     0.244 HD
ENDBRANCH  17  19
ENDBRANCH  12  17
ENDBRANCH   2  12
ENDBRANCH   1   2
BRANCH   1  21
HETATM   21  N1  UNL     1      21.511  37.445  12.150  1.00  0.00    -0.221 N 
ATOM     22  H1  UNL     1      20.887  36.680  11.892  1.00  0.00     0.177 HD
BRANCH  21  23
HETATM   23  C6  UNL     1      21.818  37.665  13.505  1.00  0.00     0.707 A 
HETATM   24  N2  UNL     1      21.166  36.992  14.471  1.00  0.00    -0.020 N 
HETATM   25  C7  UNL     1      21.402  37.148  15.777  1.00  0.00     0.726 A 
ATOM     26  H2  UNL     1      20.449  36.323  14.189  1.00  0.00     0.203 HD
HETATM   27  N4  UNL     1      22.351  38.033  16.164  1.00  0.00     0.084 N 
HETATM   28  C8  UNL     1      23.026  38.726  15.230  1.00  0.00     0.726 A 
HETATM   29  N7  UNL     1      22.753  38.535  13.929  1.00  0.00    -0.020 N 
ATOM     30  H7  UNL     1      23.274  39.071  13.235  1.00  0.00     0.203 HD
BRANCH  25  31
HETATM   31  N3  UNL     1      20.723  36.456  16.617  1.00  0.00    -0.232 N 
ATOM     32  H32 UNL     1      19.767  36.696  16.877  1.00  0.00     0.174 HD
ATOM     33  H31 UNL     1      21.154  35.635  17.041  1.00  0.00     0.174 HD
ENDBRANCH  25  31
BRANCH  27  34
HETATM   34  N5  UNL     1      22.571  38.170  17.526  1.00  0.00    -0.309 N 
ATOM     35  H52 UNL     1      22.336  39.011  18.052  1.00  0.00     0.178 HD
ATOM     36  H51 UNL     1      22.992  37.377  18.012  1.00  0.00     0.178 HD
ENDBRANCH  27  34
BRANCH  28  37
HETATM   37  N6  UNL     1      23.942  39.580  15.604  1.00  0.00    -0.232 N 
ATOM     38  H62 UNL     1      24.772  39.268  16.107  1.00  0.00     0.174 HD
ATOM     39  H61 UNL     1      23.822  40.570  15.387  1.00  0.00     0.174 HD
ENDBRANCH  28  37
ENDBRANCH  21  23
ENDBRANCH   1  21
TORSDOF 12
ENDMDL
