MODEL 1
REMARK VINA RESULT: -9.775581596      0.000      0.000
REMARK  10 active torsions:
REMARK  status: ('A' for Active; 'I' for Inactive)
REMARK    1  A    between atoms: C2_3  and  C10_28 
REMARK    2  A    between atoms: N2_4  and  N3_6 
REMARK       I    between atoms: N3_6  and  C3_8 
REMARK    3  A    between atoms: C3_8  and  O2_10 
REMARK    4  A    between atoms: O2_10  and  C4_11 
REMARK    5  A    between atoms: C4_11  and  C5_12 
REMARK    6  A    between atoms: N4_17  and  C8_18 
REMARK    7  A    between atoms: C9_24  and  N7_25 
REMARK    8  A    between atoms: N9_31  and  N10_32 
REMARK    9  A    between atoms: C12_35  and  N11_36 
REMARK   10  A    between atoms: C13_41  and  N13_42 
ROOT
HETATM    1  N1  UNL     1      16.577  29.344  18.539  1.00  0.00    -0.190 NA
HETATM    2  C1  UNL     1      17.531  28.864  18.035  1.00  0.00     0.120 C 
HETATM    3  C2  UNL     1      18.684  28.312  17.408  1.00  0.00     0.146 C 
HETATM    4  N2  UNL     1      19.324  28.992  16.515  1.00  0.00    -0.285 N 
ATOM      5  H2  UNL     1      20.147  28.573  16.081  1.00  0.00     0.188 HD
ENDROOT
BRANCH   3   6
HETATM    6  C10 UNL     1      19.171  26.988  17.747  1.00  0.00     0.090 A 
HETATM    7  C11 UNL     1      19.930  26.796  18.914  1.00  0.00     0.172 A 
HETATM    8  N8  UNL     1      20.212  27.896  19.748  1.00  0.00    -0.079 NA
HETATM    9  N9  UNL     1      20.389  25.581  19.243  1.00  0.00    -0.078 N 
HETATM   10  C12 UNL     1      20.156  24.504  18.495  1.00  0.00     0.699 A 
HETATM   11  N12 UNL     1      19.437  24.633  17.369  1.00  0.00    -0.175 N 
HETATM   12  C13 UNL     1      18.957  25.849  17.007  1.00  0.00     0.131 A 
ATOM     13  H12 UNL     1      19.251  23.816  16.787  1.00  0.00     0.186 HD
BRANCH   9  14
HETATM   14  N10 UNL     1      21.145  25.451  20.428  1.00  0.00    -0.323 N 
ATOM     15 2H10 UNL     1      22.141  25.244  20.367  1.00  0.00     0.178 HD
ATOM     16 1H10 UNL     1      20.666  25.570  21.321  1.00  0.00     0.178 HD
ENDBRANCH   9  14
BRANCH  10  17
HETATM   17  N11 UNL     1      20.612  23.347  18.841  1.00  0.00    -0.233 N 
ATOM     18 2H11 UNL     1      21.266  22.854  18.234  1.00  0.00     0.174 HD
ATOM     19 1H11 UNL     1      20.326  22.915  19.719  1.00  0.00     0.174 HD
ENDBRANCH  10  17
BRANCH  12  20
HETATM   20  N13 UNL     1      18.271  25.924  15.917  1.00  0.00    -0.384 N 
ATOM     21 2H13 UNL     1      18.763  26.188  15.064  1.00  0.00     0.157 HD
ATOM     22 1H13 UNL     1      17.273  25.719  15.941  1.00  0.00     0.157 HD
ENDBRANCH  12  20
ENDBRANCH   3   6
BRANCH   4  23
HETATM   23  N3  UNL     1      18.938  30.273  16.119  1.00  0.00    -0.244 N 
HETATM   24  C3  UNL     1      19.757  30.987  15.186  1.00  0.00     0.379 C 
HETATM   25  O1  UNL     1      20.798  30.460  14.742  1.00  0.00    -0.237 OA
ATOM     26  H3  UNL     1      18.086  30.695  16.488  1.00  0.00     0.192 HD
BRANCH  24  27
HETATM   27  O2  UNL     1      19.442  32.259  14.745  1.00  0.00    -0.297 OA
BRANCH  27  28
HETATM   28  C4  UNL     1      19.084  33.348  15.526  1.00  0.00     0.240 C 
BRANCH  28  29
HETATM   29  C5  UNL     1      19.685  34.634  15.168  1.00  0.00     0.070 A 
HETATM   30  C6  UNL     1      20.097  34.989  13.896  1.00  0.00     0.175 A 
HETATM   31  O3  UNL     1      20.574  36.205  13.996  1.00  0.00    -0.271 OA
HETATM   32  C7  UNL     1      20.487  36.625  15.229  1.00  0.00     0.378 A 
HETATM   33  O4  UNL     1      20.864  37.754  15.636  1.00  0.00    -0.237 OA
HETATM   34  N4  UNL     1      19.938  35.680  16.008  1.00  0.00    -0.238 N 
BRANCH  34  35
HETATM   35  C8  UNL     1      19.652  35.683  17.383  1.00  0.00     0.184 A 
HETATM   36  N5  UNL     1      20.345  35.179  18.418  1.00  0.00    -0.221 N 
HETATM   37  O5  UNL     1      19.719  35.402  19.520  1.00  0.00    -0.153 OA
ATOM     38  H5  UNL     1      21.237  34.691  18.341  1.00  0.00     0.198 HD
HETATM   39  N6  UNL     1      18.635  36.035  19.274  1.00  0.00    -0.222 N 
HETATM   40  C9  UNL     1      18.510  36.255  17.952  1.00  0.00     0.168 A 
ATOM     41  H6  UNL     1      17.961  36.332  19.979  1.00  0.00     0.198 HD
BRANCH  40  42
HETATM   42  N7  UNL     1      17.552  36.856  17.371  1.00  0.00    -0.381 N 
ATOM     43  H72 UNL     1      16.968  36.485  16.622  1.00  0.00     0.157 HD
ATOM     44  H71 UNL     1      17.195  37.796  17.542  1.00  0.00     0.157 HD
ENDBRANCH  40  42
ENDBRANCH  34  35
ENDBRANCH  28  29
ENDBRANCH  27  28
ENDBRANCH  24  27
ENDBRANCH   4  23
TORSDOF 10
ENDMDL
MODEL 2
REMARK VINA RESULT: -9.607745518      2.755      9.900
REMARK  10 active torsions:
REMARK  status: ('A' for Active; 'I' for Inactive)
REMARK    1  A    between atoms: C2_3  and  C10_28 
REMARK    2  A    between atoms: N2_4  and  N3_6 
REMARK       I    between atoms: N3_6  and  C3_8 
REMARK    3  A    between atoms: C3_8  and  O2_10 
REMARK    4  A    between atoms: O2_10  and  C4_11 
REMARK    5  A    between atoms: C4_11  and  C5_12 
REMARK    6  A    between atoms: N4_17  and  C8_18 
REMARK    7  A    between atoms: C9_24  and  N7_25 
REMARK    8  A    between atoms: N9_31  and  N10_32 
REMARK    9  A    between atoms: C12_35  and  N11_36 
REMARK   10  A    between atoms: C13_41  and  N13_42 
ROOT
HETATM    1  N1  UNL     1      17.477  35.736  18.027  1.00  0.00    -0.190 NA
HETATM    2  C1  UNL     1      18.401  35.469  17.342  1.00  0.00     0.120 C 
HETATM    3  C2  UNL     1      19.506  35.114  16.517  1.00  0.00     0.146 C 
HETATM    4  N2  UNL     1      19.663  33.891  16.135  1.00  0.00    -0.285 N 
ATOM      5  H2  UNL     1      20.463  33.663  15.544  1.00  0.00     0.188 HD
ENDROOT
BRANCH   3   6
HETATM    6  C10 UNL     1      20.476  36.102  16.084  1.00  0.00     0.090 A 
HETATM    7  C11 UNL     1      20.657  36.356  14.714  1.00  0.00     0.172 A 
HETATM    8  N8  UNL     1      19.890  35.647  13.769  1.00  0.00    -0.079 NA
HETATM    9  N9  UNL     1      21.549  37.265  14.295  1.00  0.00    -0.078 N 
HETATM   10  C12 UNL     1      22.302  37.966  15.140  1.00  0.00     0.699 A 
HETATM   11  N12 UNL     1      22.169  37.762  16.459  1.00  0.00    -0.175 N 
HETATM   12  C13 UNL     1      21.276  36.850  16.917  1.00  0.00     0.131 A 
ATOM     13  H12 UNL     1      22.741  38.292  17.118  1.00  0.00     0.186 HD
BRANCH   9  14
HETATM   14  N10 UNL     1      21.684  37.476  12.906  1.00  0.00    -0.323 N 
ATOM     15 2H10 UNL     1      20.869  37.376  12.302  1.00  0.00     0.178 HD
ATOM     16 1H10 UNL     1      22.604  37.725  12.543  1.00  0.00     0.178 HD
ENDBRANCH   9  14
BRANCH  10  17
HETATM   17  N11 UNL     1      23.152  38.834  14.703  1.00  0.00    -0.233 N 
ATOM     18 2H11 UNL     1      22.874  39.810  14.594  1.00  0.00     0.174 HD
ATOM     19 1H11 UNL     1      24.103  38.558  14.462  1.00  0.00     0.174 HD
ENDBRANCH  10  17
BRANCH  12  20
HETATM   20  N13 UNL     1      21.183  36.687  18.193  1.00  0.00    -0.384 N 
ATOM     21 2H13 UNL     1      20.258  36.510  18.583  1.00  0.00     0.157 HD
ATOM     22 1H13 UNL     1      22.025  36.740  18.765  1.00  0.00     0.157 HD
ENDBRANCH  12  20
ENDBRANCH   3   6
BRANCH   4  23
HETATM   23  N3  UNL     1      18.786  32.866  16.495  1.00  0.00    -0.244 N 
HETATM   24  C3  UNL     1      19.111  31.518  16.141  1.00  0.00     0.379 C 
HETATM   25  O1  UNL     1      20.167  31.276  15.518  1.00  0.00    -0.237 OA
ATOM     26  H3  UNL     1      17.927  33.075  17.004  1.00  0.00     0.192 HD
BRANCH  24  27
HETATM   27  O2  UNL     1      18.296  30.449  16.463  1.00  0.00    -0.297 OA
BRANCH  27  28
HETATM   28  C4  UNL     1      18.544  29.106  16.217  1.00  0.00     0.240 C 
BRANCH  28  29
HETATM   29  C5  UNL     1      18.419  28.200  17.359  1.00  0.00     0.070 A 
HETATM   30  C6  UNL     1      17.695  28.467  18.506  1.00  0.00     0.175 A 
HETATM   31  O3  UNL     1      17.834  27.416  19.276  1.00  0.00    -0.271 OA
HETATM   32  C7  UNL     1      18.585  26.523  18.691  1.00  0.00     0.378 A 
HETATM   33  O4  UNL     1      18.899  25.408  19.181  1.00  0.00    -0.237 OA
HETATM   34  N4  UNL     1      18.981  26.962  17.486  1.00  0.00    -0.238 N 
BRANCH  34  35
HETATM   35  C8  UNL     1      19.789  26.352  16.512  1.00  0.00     0.184 A 
HETATM   36  N5  UNL     1      21.104  26.479  16.268  1.00  0.00    -0.221 N 
HETATM   37  O5  UNL     1      21.444  25.736  15.274  1.00  0.00    -0.153 OA
ATOM     38  H5  UNL     1      21.741  27.078  16.794  1.00  0.00     0.198 HD
HETATM   39  N6  UNL     1      20.415  25.112  14.838  1.00  0.00    -0.222 N 
HETATM   40  C9  UNL     1      19.328  25.440  15.558  1.00  0.00     0.168 A 
ATOM     41  H6  UNL     1      20.419  24.458  14.055  1.00  0.00     0.198 HD
BRANCH  40  42
HETATM   42  N7  UNL     1      18.146  25.001  15.389  1.00  0.00    -0.381 N 
ATOM     43  H72 UNL     1      17.886  24.081  15.035  1.00  0.00     0.157 HD
ATOM     44  H71 UNL     1      17.261  25.474  15.572  1.00  0.00     0.157 HD
ENDBRANCH  40  42
ENDBRANCH  34  35
ENDBRANCH  28  29
ENDBRANCH  27  28
ENDBRANCH  24  27
ENDBRANCH   4  23
TORSDOF 10
ENDMDL
MODEL 3
REMARK VINA RESULT: -9.536858199      1.404      2.822
REMARK  10 active torsions:
REMARK  status: ('A' for Active; 'I' for Inactive)
REMARK    1  A    between atoms: C2_3  and  C10_28 
REMARK    2  A    between atoms: N2_4  and  N3_6 
REMARK       I    between atoms: N3_6  and  C3_8 
REMARK    3  A    between atoms: C3_8  and  O2_10 
REMARK    4  A    between atoms: O2_10  and  C4_11 
REMARK    5  A    between atoms: C4_11  and  C5_12 
REMARK    6  A    between atoms: N4_17  and  C8_18 
REMARK    7  A    between atoms: C9_24  and  N7_25 
REMARK    8  A    between atoms: N9_31  and  N10_32 
REMARK    9  A    between atoms: C12_35  and  N11_36 
REMARK   10  A    between atoms: C13_41  and  N13_42 
ROOT
HETATM    1  N1  UNL     1      16.505  29.373  18.911  1.00  0.00    -0.190 NA
HETATM    2  C1  UNL     1      17.378  28.887  18.281  1.00  0.00     0.120 C 
HETATM    3  C2  UNL     1      18.430  28.330  17.501  1.00  0.00     0.146 C 
HETATM    4  N2  UNL     1      18.909  28.984  16.496  1.00  0.00    -0.285 N 
ATOM      5  H2  UNL     1      19.662  28.561  15.953  1.00  0.00     0.188 HD
ENDROOT
BRANCH   3   6
HETATM    6  C10 UNL     1      18.992  27.027  17.806  1.00  0.00     0.090 A 
HETATM    7  C11 UNL     1      19.755  26.846  18.971  1.00  0.00     0.172 A 
HETATM    8  N8  UNL     1      19.970  27.936  19.837  1.00  0.00    -0.079 NA
HETATM    9  N9  UNL     1      20.282  25.650  19.269  1.00  0.00    -0.078 N 
HETATM   10  C12 UNL     1      20.115  24.583  18.490  1.00  0.00     0.699 A 
HETATM   11  N12 UNL     1      19.394  24.702  17.365  1.00  0.00    -0.175 N 
HETATM   12  C13 UNL     1      18.846  25.898  17.034  1.00  0.00     0.131 A 
ATOM     13  H12 UNL     1      19.258  23.892  16.759  1.00  0.00     0.186 HD
BRANCH   9  14
HETATM   14  N10 UNL     1      21.040  25.531  20.454  1.00  0.00    -0.323 N 
ATOM     15 2H10 UNL     1      21.999  25.188  20.404  1.00  0.00     0.178 HD
ATOM     16 1H10 UNL     1      20.600  25.794  21.336  1.00  0.00     0.178 HD
ENDBRANCH   9  14
BRANCH  10  17
HETATM   17  N11 UNL     1      20.635  23.445  18.807  1.00  0.00    -0.233 N 
ATOM     18 2H11 UNL     1      21.575  23.406  19.203  1.00  0.00     0.174 HD
ATOM     19 1H11 UNL     1      20.118  22.578  18.666  1.00  0.00     0.174 HD
ENDBRANCH  10  17
BRANCH  12  20
HETATM   20  N13 UNL     1      18.162  25.964  15.943  1.00  0.00    -0.384 N 
ATOM     21 2H13 UNL     1      18.396  26.702  15.279  1.00  0.00     0.157 HD
ATOM     22 1H13 UNL     1      17.418  25.286  15.779  1.00  0.00     0.157 HD
ENDBRANCH  12  20
ENDBRANCH   3   6
BRANCH   4  23
HETATM   23  N3  UNL     1      18.440  30.244  16.120  1.00  0.00    -0.244 N 
HETATM   24  C3  UNL     1      19.327  31.142  15.445  1.00  0.00     0.379 C 
HETATM   25  O1  UNL     1      20.502  30.791  15.202  1.00  0.00    -0.237 OA
ATOM     26  H3  UNL     1      17.479  30.520  16.322  1.00  0.00     0.192 HD
BRANCH  24  27
HETATM   27  O2  UNL     1      18.938  32.404  15.040  1.00  0.00    -0.297 OA
BRANCH  27  28
HETATM   28  C4  UNL     1      19.765  33.482  14.757  1.00  0.00     0.240 C 
BRANCH  28  29
HETATM   29  C5  UNL     1      19.676  34.629  15.662  1.00  0.00     0.070 A 
HETATM   30  C6  UNL     1      19.188  34.580  16.956  1.00  0.00     0.175 A 
HETATM   31  O3  UNL     1      19.276  35.802  17.423  1.00  0.00    -0.271 OA
HETATM   32  C7  UNL     1      19.781  36.596  16.518  1.00  0.00     0.378 A 
HETATM   33  O4  UNL     1      19.987  37.827  16.670  1.00  0.00    -0.237 OA
HETATM   34  N4  UNL     1      20.049  35.914  15.393  1.00  0.00    -0.238 N 
BRANCH  34  35
HETATM   35  C8  UNL     1      20.592  36.345  14.171  1.00  0.00     0.184 A 
HETATM   36  N5  UNL     1      20.134  36.203  12.917  1.00  0.00    -0.221 N 
HETATM   37  O5  UNL     1      20.948  36.751  12.083  1.00  0.00    -0.153 OA
ATOM     38  H5  UNL     1      19.267  35.730  12.662  1.00  0.00     0.198 HD
HETATM   39  N6  UNL     1      21.934  37.257  12.722  1.00  0.00    -0.222 N 
HETATM   40  C9  UNL     1      21.794  37.048  14.043  1.00  0.00     0.168 A 
ATOM     41  H6  UNL     1      22.716  37.750  12.291  1.00  0.00     0.198 HD
BRANCH  40  42
HETATM   42  N7  UNL     1      22.595  37.420  14.959  1.00  0.00    -0.381 N 
ATOM     43  H72 UNL     1      22.983  36.838  15.700  1.00  0.00     0.157 HD
ATOM     44  H71 UNL     1      22.990  38.347  15.118  1.00  0.00     0.157 HD
ENDBRANCH  40  42
ENDBRANCH  34  35
ENDBRANCH  28  29
ENDBRANCH  27  28
ENDBRANCH  24  27
ENDBRANCH   4  23
TORSDOF 10
ENDMDL
MODEL 4
REMARK VINA RESULT: -9.516885585      1.495      2.136
REMARK  10 active torsions:
REMARK  status: ('A' for Active; 'I' for Inactive)
REMARK    1  A    between atoms: C2_3  and  C10_28 
REMARK    2  A    between atoms: N2_4  and  N3_6 
REMARK       I    between atoms: N3_6  and  C3_8 
REMARK    3  A    between atoms: C3_8  and  O2_10 
REMARK    4  A    between atoms: O2_10  and  C4_11 
REMARK    5  A    between atoms: C4_11  and  C5_12 
REMARK    6  A    between atoms: N4_17  and  C8_18 
REMARK    7  A    between atoms: C9_24  and  N7_25 
REMARK    8  A    between atoms: N9_31  and  N10_32 
REMARK    9  A    between atoms: C12_35  and  N11_36 
REMARK   10  A    between atoms: C13_41  and  N13_42 
ROOT
HETATM    1  N1  UNL     1      16.544  29.314  19.135  1.00  0.00    -0.190 NA
HETATM    2  C1  UNL     1      17.380  28.814  18.467  1.00  0.00     0.120 C 
HETATM    3  C2  UNL     1      18.386  28.239  17.640  1.00  0.00     0.146 C 
HETATM    4  N2  UNL     1      18.826  28.884  16.611  1.00  0.00    -0.285 N 
ATOM      5  H2  UNL     1      19.547  28.449  16.035  1.00  0.00     0.188 HD
ENDROOT
BRANCH   3   6
HETATM    6  C10 UNL     1      18.942  26.929  17.923  1.00  0.00     0.090 A 
HETATM    7  C11 UNL     1      19.787  26.749  19.029  1.00  0.00     0.172 A 
HETATM    8  N8  UNL     1      20.089  27.846  19.860  1.00  0.00    -0.079 NA
HETATM    9  N9  UNL     1      20.311  25.546  19.307  1.00  0.00    -0.078 N 
HETATM   10  C12 UNL     1      20.063  24.472  18.559  1.00  0.00     0.699 A 
HETATM   11  N12 UNL     1      19.262  24.590  17.490  1.00  0.00    -0.175 N 
HETATM   12  C13 UNL     1      18.715  25.793  17.182  1.00  0.00     0.131 A 
ATOM     13  H12 UNL     1      19.064  23.775  16.908  1.00  0.00     0.186 HD
BRANCH   9  14
HETATM   14  N10 UNL     1      21.153  25.428  20.433  1.00  0.00    -0.323 N 
ATOM     15 2H10 UNL     1      21.966  24.814  20.388  1.00  0.00     0.178 HD
ATOM     16 1H10 UNL     1      20.921  25.965  21.268  1.00  0.00     0.178 HD
ENDBRANCH   9  14
BRANCH  10  17
HETATM   17  N11 UNL     1      20.583  23.328  18.854  1.00  0.00    -0.233 N 
ATOM     18 2H11 UNL     1      20.468  22.942  19.791  1.00  0.00     0.174 HD
ATOM     19 1H11 UNL     1      21.110  22.800  18.159  1.00  0.00     0.174 HD
ENDBRANCH  10  17
BRANCH  12  20
HETATM   20  N13 UNL     1      17.952  25.858  16.144  1.00  0.00    -0.384 N 
ATOM     21 2H13 UNL     1      17.762  26.779  15.751  1.00  0.00     0.157 HD
ATOM     22 1H13 UNL     1      17.567  24.998  15.754  1.00  0.00     0.157 HD
ENDBRANCH  12  20
ENDBRANCH   3   6
BRANCH   4  23
HETATM   23  N3  UNL     1      18.359  30.149  16.253  1.00  0.00    -0.244 N 
HETATM   24  C3  UNL     1      19.276  31.097  15.697  1.00  0.00     0.379 C 
HETATM   25  O1  UNL     1      20.475  30.783  15.540  1.00  0.00    -0.237 OA
ATOM     26  H3  UNL     1      17.378  30.396  16.386  1.00  0.00     0.192 HD
BRANCH  24  27
HETATM   27  O2  UNL     1      18.890  32.368  15.317  1.00  0.00    -0.297 OA
BRANCH  27  28
HETATM   28  C4  UNL     1      19.667  33.518  15.340  1.00  0.00     0.240 C 
BRANCH  28  29
HETATM   29  C5  UNL     1      19.652  34.340  14.130  1.00  0.00     0.070 A 
HETATM   30  C6  UNL     1      19.240  33.906  12.883  1.00  0.00     0.175 A 
HETATM   31  O3  UNL     1      19.379  34.931  12.077  1.00  0.00    -0.271 OA
HETATM   32  C7  UNL     1      19.844  35.960  12.732  1.00  0.00     0.378 A 
HETATM   33  O4  UNL     1      20.083  37.088  12.231  1.00  0.00    -0.237 OA
HETATM   34  N4  UNL     1      20.035  35.646  14.023  1.00  0.00    -0.238 N 
BRANCH  34  35
HETATM   35  C8  UNL     1      20.514  36.424  15.091  1.00  0.00     0.184 A 
HETATM   36  N5  UNL     1      19.947  36.727  16.270  1.00  0.00    -0.221 N 
HETATM   37  O5  UNL     1      20.735  37.474  16.961  1.00  0.00    -0.153 OA
ATOM     38  H5  UNL     1      19.026  36.412  16.574  1.00  0.00     0.198 HD
HETATM   39  N6  UNL     1      21.810  37.685  16.300  1.00  0.00    -0.222 N 
HETATM   40  C9  UNL     1      21.758  37.062  15.109  1.00  0.00     0.168 A 
ATOM     41  H6  UNL     1      22.596  38.246  16.629  1.00  0.00     0.198 HD
BRANCH  40  42
HETATM   42  N7  UNL     1      22.658  37.068  14.211  1.00  0.00    -0.381 N 
ATOM     43  H72 UNL     1      22.533  36.845  13.224  1.00  0.00     0.157 HD
ATOM     44  H71 UNL     1      23.649  37.292  14.306  1.00  0.00     0.157 HD
ENDBRANCH  40  42
ENDBRANCH  34  35
ENDBRANCH  28  29
ENDBRANCH  27  28
ENDBRANCH  24  27
ENDBRANCH   4  23
TORSDOF 10
ENDMDL
MODEL 5
REMARK VINA RESULT: -9.296226184      0.799      1.743
REMARK  10 active torsions:
REMARK  status: ('A' for Active; 'I' for Inactive)
REMARK    1  A    between atoms: C2_3  and  C10_28 
REMARK    2  A    between atoms: N2_4  and  N3_6 
REMARK       I    between atoms: N3_6  and  C3_8 
REMARK    3  A    between atoms: C3_8  and  O2_10 
REMARK    4  A    between atoms: O2_10  and  C4_11 
REMARK    5  A    between atoms: C4_11  and  C5_12 
REMARK    6  A    between atoms: N4_17  and  C8_18 
REMARK    7  A    between atoms: C9_24  and  N7_25 
REMARK    8  A    between atoms: N9_31  and  N10_32 
REMARK    9  A    between atoms: C12_35  and  N11_36 
REMARK   10  A    between atoms: C13_41  and  N13_42 
ROOT
HETATM    1  N1  UNL     1      16.805  29.266  19.460  1.00  0.00    -0.190 NA
HETATM    2  C1  UNL     1      17.598  28.691  18.800  1.00  0.00     0.120 C 
HETATM    3  C2  UNL     1      18.553  28.023  17.982  1.00  0.00     0.146 C 
HETATM    4  N2  UNL     1      18.973  28.575  16.893  1.00  0.00    -0.285 N 
ATOM      5  H2  UNL     1      19.657  28.075  16.324  1.00  0.00     0.188 HD
ENDROOT
BRANCH   3   6
HETATM    6  C10 UNL     1      19.079  26.719  18.342  1.00  0.00     0.090 A 
HETATM    7  C11 UNL     1      18.393  25.555  17.958  1.00  0.00     0.172 A 
HETATM    8  N8  UNL     1      17.196  25.663  17.224  1.00  0.00    -0.079 NA
HETATM    9  N9  UNL     1      18.863  24.342  18.281  1.00  0.00    -0.078 N 
HETATM   10  C12 UNL     1      19.989  24.175  18.974  1.00  0.00     0.699 A 
HETATM   11  N12 UNL     1      20.682  25.255  19.366  1.00  0.00    -0.175 N 
HETATM   12  C13 UNL     1      20.234  26.497  19.055  1.00  0.00     0.131 A 
ATOM     13  H12 UNL     1      21.546  25.141  19.897  1.00  0.00     0.186 HD
BRANCH   9  14
HETATM   14  N10 UNL     1      18.130  23.209  17.867  1.00  0.00    -0.323 N 
ATOM     15 2H10 UNL     1      17.159  23.320  17.577  1.00  0.00     0.178 HD
ATOM     16 1H10 UNL     1      18.598  22.304  17.870  1.00  0.00     0.178 HD
ENDBRANCH   9  14
BRANCH  10  17
HETATM   17  N11 UNL     1      20.414  22.992  19.268  1.00  0.00    -0.233 N 
ATOM     18 2H11 UNL     1      20.690  22.350  18.526  1.00  0.00     0.174 HD
ATOM     19 1H11 UNL     1      20.478  22.688  20.239  1.00  0.00     0.174 HD
ENDBRANCH  10  17
BRANCH  12  20
HETATM   20  N13 UNL     1      20.934  27.505  19.452  1.00  0.00    -0.384 N 
ATOM     21 2H13 UNL     1      21.950  27.429  19.395  1.00  0.00     0.157 HD
ATOM     22 1H13 UNL     1      20.458  28.334  19.806  1.00  0.00     0.157 HD
ENDBRANCH  12  20
ENDBRANCH   3   6
BRANCH   4  23
HETATM   23  N3  UNL     1      18.531  29.825  16.459  1.00  0.00    -0.244 N 
HETATM   24  C3  UNL     1      19.439  30.676  15.751  1.00  0.00     0.379 C 
HETATM   25  O1  UNL     1      20.608  30.292  15.532  1.00  0.00    -0.237 OA
ATOM     26  H3  UNL     1      17.575  30.129  16.643  1.00  0.00     0.192 HD
BRANCH  24  27
HETATM   27  O2  UNL     1      19.077  31.927  15.288  1.00  0.00    -0.297 OA
BRANCH  27  28
HETATM   28  C4  UNL     1      19.079  33.114  16.005  1.00  0.00     0.240 C 
BRANCH  28  29
HETATM   29  C5  UNL     1      19.649  34.282  15.334  1.00  0.00     0.070 A 
HETATM   30  C6  UNL     1      19.959  34.348  13.987  1.00  0.00     0.175 A 
HETATM   31  O3  UNL     1      20.443  35.549  13.784  1.00  0.00    -0.271 OA
HETATM   32  C7  UNL     1      20.453  36.227  14.900  1.00  0.00     0.378 A 
HETATM   33  O4  UNL     1      20.860  37.410  15.024  1.00  0.00    -0.237 OA
HETATM   34  N4  UNL     1      19.967  35.481  15.905  1.00  0.00    -0.238 N 
BRANCH  34  35
HETATM   35  C8  UNL     1      19.789  35.785  17.265  1.00  0.00     0.184 A 
HETATM   36  N5  UNL     1      20.614  35.613  18.311  1.00  0.00    -0.221 N 
HETATM   37  O5  UNL     1      20.054  36.030  19.391  1.00  0.00    -0.153 OA
ATOM     38  H5  UNL     1      21.550  35.210  18.256  1.00  0.00     0.198 HD
HETATM   39  N6  UNL     1      18.886  36.478  19.119  1.00  0.00    -0.222 N 
HETATM   40  C9  UNL     1      18.635  36.362  17.803  1.00  0.00     0.168 A 
ATOM     41  H6  UNL     1      18.238  36.868  19.803  1.00  0.00     0.198 HD
BRANCH  40  42
HETATM   42  N7  UNL     1      17.570  36.711  17.201  1.00  0.00    -0.381 N 
ATOM     43  H72 UNL     1      16.914  36.094  16.722  1.00  0.00     0.157 HD
ATOM     44  H71 UNL     1      17.181  37.647  17.090  1.00  0.00     0.157 HD
ENDBRANCH  40  42
ENDBRANCH  34  35
ENDBRANCH  28  29
ENDBRANCH  27  28
ENDBRANCH  24  27
ENDBRANCH   4  23
TORSDOF 10
ENDMDL
