MODEL 1
REMARK VINA RESULT: -4.582210394      0.000      0.000
REMARK  2 active torsions:
REMARK  status: ('A' for Active; 'I' for Inactive)
REMARK    1  A    between atoms: C1_4  and  C2_5 
REMARK    2  A    between atoms: C4_7  and  C5_8 
ROOT
HETATM    1  C2  UNL     1      -4.609   2.551  14.075  1.00  0.00     0.037 A 
HETATM    2  C3  UNL     1      -5.743   3.035  14.866  1.00  0.00     0.025 A 
HETATM    3  C4  UNL     1      -4.623   2.409  15.607  1.00  0.00     0.084 A 
ENDROOT
BRANCH   1   4
HETATM    4  C1  UNL     1      -3.576   3.424  13.519  1.00  0.00     0.058 C 
HETATM    5  N1  UNL     1      -2.794   2.969  12.618  1.00  0.00    -0.411 N 
ATOM      6  H12 UNL     1      -2.902   2.006  12.301  1.00  0.00     0.155 HD
ATOM      7  H11 UNL     1      -2.073   3.577  12.230  1.00  0.00     0.155 HD
ENDBRANCH   1   4
BRANCH   3   8
HETATM    8  C5  UNL     1      -4.731   1.024  16.125  1.00  0.00     0.236 C 
HETATM    9  N2  UNL     1      -6.011   0.487  16.468  1.00  0.00    -0.062 NA
HETATM   10  O1  UNL     1      -3.697   0.329  16.262  1.00  0.00    -0.276 OA
ENDBRANCH   3   8
TORSDOF 2
ENDMDL
MODEL 2
REMARK VINA RESULT: -4.308095404      1.176      1.176
REMARK  2 active torsions:
REMARK  status: ('A' for Active; 'I' for Inactive)
REMARK    1  A    between atoms: C1_4  and  C2_5 
REMARK    2  A    between atoms: C4_7  and  C5_8 
ROOT
HETATM    1  C2  UNL     1      -4.662   2.707  13.976  1.00  0.00     0.037 A 
HETATM    2  C3  UNL     1      -5.761   3.263  14.768  1.00  0.00     0.025 A 
HETATM    3  C4  UNL     1      -4.694   2.547  15.506  1.00  0.00     0.084 A 
ENDROOT
BRANCH   1   4
HETATM    4  C1  UNL     1      -3.564   3.507  13.435  1.00  0.00     0.058 C 
HETATM    5  N1  UNL     1      -2.727   2.961  12.641  1.00  0.00    -0.411 N 
ATOM      6  H12 UNL     1      -2.837   1.977  12.396  1.00  0.00     0.155 HD
ATOM      7  H11 UNL     1      -1.961   3.518  12.263  1.00  0.00     0.155 HD
ENDBRANCH   1   4
BRANCH   3   8
HETATM    8  C5  UNL     1      -4.906   1.168  16.006  1.00  0.00     0.236 C 
HETATM    9  N2  UNL     1      -3.786   0.304  16.218  1.00  0.00    -0.062 NA
HETATM   10  O1  UNL     1      -6.069   0.763  16.241  1.00  0.00    -0.276 OA
ENDBRANCH   3   8
TORSDOF 2
ENDMDL
MODEL 3
REMARK VINA RESULT: -4.272820224      1.645      1.774
REMARK  2 active torsions:
REMARK  status: ('A' for Active; 'I' for Inactive)
REMARK    1  A    between atoms: C1_4  and  C2_5 
REMARK    2  A    between atoms: C4_7  and  C5_8 
ROOT
HETATM    1  C2  UNL     1      -4.019   3.228  14.434  1.00  0.00     0.037 A 
HETATM    2  C3  UNL     1      -4.555   2.309  13.427  1.00  0.00     0.025 A 
HETATM    3  C4  UNL     1      -4.936   2.060  14.837  1.00  0.00     0.084 A 
ENDROOT
BRANCH   1   4
HETATM    4  C1  UNL     1      -4.546   4.572  14.669  1.00  0.00     0.058 C 
HETATM    5  N1  UNL     1      -3.890   5.581  14.248  1.00  0.00    -0.411 N 
ATOM      6  H12 UNL     1      -3.009   5.436  13.755  1.00  0.00     0.155 HD
ATOM      7  H11 UNL     1      -4.257   6.519  14.412  1.00  0.00     0.155 HD
ENDBRANCH   1   4
BRANCH   3   8
HETATM    8  C5  UNL     1      -4.295   0.978  15.621  1.00  0.00     0.236 C 
HETATM    9  N2  UNL     1      -4.667  -0.384  15.396  1.00  0.00    -0.062 NA
HETATM   10  O1  UNL     1      -3.429   1.262  16.481  1.00  0.00    -0.276 OA
ENDBRANCH   3   8
TORSDOF 2
ENDMDL
MODEL 4
REMARK VINA RESULT: -4.103456762      1.301      1.738
REMARK  2 active torsions:
REMARK  status: ('A' for Active; 'I' for Inactive)
REMARK    1  A    between atoms: C1_4  and  C2_5 
REMARK    2  A    between atoms: C4_7  and  C5_8 
ROOT
HETATM    1  C2  UNL     1      -4.730   2.203  15.169  1.00  0.00     0.037 A 
HETATM    2  C3  UNL     1      -3.626   1.825  16.055  1.00  0.00     0.025 A 
HETATM    3  C4  UNL     1      -4.702   0.826  15.857  1.00  0.00     0.084 A 
ENDROOT
BRANCH   1   4
HETATM    4  C1  UNL     1      -4.639   2.196  13.710  1.00  0.00     0.058 C 
HETATM    5  N1  UNL     1      -3.575   2.620  13.149  1.00  0.00    -0.411 N 
ATOM      6  H12 UNL     1      -2.804   2.957  13.726  1.00  0.00     0.155 HD
ATOM      7  H11 UNL     1      -3.511   2.615  12.131  1.00  0.00     0.155 HD
ENDBRANCH   1   4
BRANCH   3   8
HETATM    8  C5  UNL     1      -5.736   0.603  16.895  1.00  0.00     0.236 C 
HETATM    9  N2  UNL     1      -7.122   0.705  16.557  1.00  0.00    -0.062 NA
HETATM   10  O1  UNL     1      -5.392   0.326  18.067  1.00  0.00    -0.276 OA
ENDBRANCH   3   8
TORSDOF 2
ENDMDL
MODEL 5
REMARK VINA RESULT: -3.930995627      3.166      3.433
REMARK  2 active torsions:
REMARK  status: ('A' for Active; 'I' for Inactive)
REMARK    1  A    between atoms: C1_4  and  C2_5 
REMARK    2  A    between atoms: C4_7  and  C5_8 
ROOT
HETATM    1  C2  UNL     1      -2.840   3.935  13.085  1.00  0.00     0.037 A 
HETATM    2  C3  UNL     1      -3.822   4.585  12.213  1.00  0.00     0.025 A 
HETATM    3  C4  UNL     1      -4.300   3.451  13.039  1.00  0.00     0.084 A 
ENDROOT
BRANCH   1   4
HETATM    4  C1  UNL     1      -2.387   4.495  14.357  1.00  0.00     0.058 C 
HETATM    5  N1  UNL     1      -1.468   3.897  15.010  1.00  0.00    -0.411 N 
ATOM      6  H12 UNL     1      -1.065   3.038  14.634  1.00  0.00     0.155 HD
ATOM      7  H11 UNL     1      -1.152   4.287  15.898  1.00  0.00     0.155 HD
ENDBRANCH   1   4
BRANCH   3   8
HETATM    8  C5  UNL     1      -4.517   2.112  12.443  1.00  0.00     0.236 C 
HETATM    9  N2  UNL     1      -5.378   1.964  11.311  1.00  0.00    -0.062 NA
HETATM   10  O1  UNL     1      -3.944   1.111  12.934  1.00  0.00    -0.276 OA
ENDBRANCH   3   8
TORSDOF 2
ENDMDL
