MODEL 1
REMARK VINA RESULT: -5.037468173      0.000      0.000
REMARK  3 active torsions:
REMARK  status: ('A' for Active; 'I' for Inactive)
REMARK    1  A    between atoms: C2_2  and  N1_3 
REMARK    2  A    between atoms: C2_2  and  C4_7 
REMARK    3  A    between atoms: N1_3  and  C3_5 
ROOT
HETATM    1  C1  UNL     1      -4.016   2.990  14.947  1.00  0.00     0.043 C 
HETATM    2  C2  UNL     1      -4.709   1.701  14.490  1.00  0.00     0.180 C 
ENDROOT
BRANCH   2   3
HETATM    3  N1  UNL     1      -4.235   1.437  13.152  1.00  0.00    -0.354 N 
ATOM      4  H1  UNL     1      -3.664   0.608  12.990  1.00  0.00     0.162 HD
BRANCH   3   5
HETATM    5  C3  UNL     1      -4.533   2.284  12.051  1.00  0.00     0.349 C 
HETATM    6  O1  UNL     1      -5.562   2.022  11.380  1.00  0.00    -0.284 OA
ENDBRANCH   3   5
ENDBRANCH   2   3
BRANCH   2   7
HETATM    7  C4  UNL     1      -4.330   0.639  15.444  1.00  0.00     0.196 C 
HETATM    8  O2  UNL     1      -4.716  -0.534  15.247  1.00  0.00    -0.646 OA
HETATM    9  O3  UNL     1      -3.558   0.903  16.555  1.00  0.00    -0.646 OA
ENDBRANCH   2   7
TORSDOF 3
ENDMDL
MODEL 2
REMARK VINA RESULT: -5.018403344      0.271      1.158
REMARK  3 active torsions:
REMARK  status: ('A' for Active; 'I' for Inactive)
REMARK    1  A    between atoms: C2_2  and  N1_3 
REMARK    2  A    between atoms: C2_2  and  C4_7 
REMARK    3  A    between atoms: N1_3  and  C3_5 
ROOT
HETATM    1  C1  UNL     1      -3.978   3.079  14.900  1.00  0.00     0.043 C 
HETATM    2  C2  UNL     1      -4.657   1.764  14.500  1.00  0.00     0.180 C 
ENDROOT
BRANCH   2   3
HETATM    3  N1  UNL     1      -4.167   1.438  13.182  1.00  0.00    -0.354 N 
ATOM      4  H1  UNL     1      -3.461   0.708  13.089  1.00  0.00     0.162 HD
BRANCH   3   5
HETATM    5  C3  UNL     1      -4.627   2.093  12.008  1.00  0.00     0.349 C 
HETATM    6  O1  UNL     1      -5.343   1.429  11.217  1.00  0.00    -0.284 OA
ENDBRANCH   3   5
ENDBRANCH   2   3
BRANCH   2   7
HETATM    7  C4  UNL     1      -4.282   0.753  15.510  1.00  0.00     0.196 C 
HETATM    8  O2  UNL     1      -3.577   1.090  16.486  1.00  0.00    -0.646 OA
HETATM    9  O3  UNL     1      -4.689  -0.560  15.408  1.00  0.00    -0.646 OA
ENDBRANCH   2   7
TORSDOF 3
ENDMDL
MODEL 3
REMARK VINA RESULT: -4.563049646      2.248      2.503
REMARK  3 active torsions:
REMARK  status: ('A' for Active; 'I' for Inactive)
REMARK    1  A    between atoms: C2_2  and  N1_3 
REMARK    2  A    between atoms: C2_2  and  C4_7 
REMARK    3  A    between atoms: N1_3  and  C3_5 
ROOT
HETATM    1  C1  UNL     1      -5.926   2.977  15.198  1.00  0.00     0.043 C 
HETATM    2  C2  UNL     1      -4.678   2.120  14.959  1.00  0.00     0.180 C 
ENDROOT
BRANCH   2   3
HETATM    3  N1  UNL     1      -3.542   2.982  15.185  1.00  0.00    -0.354 N 
ATOM      4  H1  UNL     1      -2.989   2.851  16.031  1.00  0.00     0.162 HD
BRANCH   3   5
HETATM    5  C3  UNL     1      -3.164   4.007  14.277  1.00  0.00     0.349 C 
HETATM    6  O1  UNL     1      -2.176   3.787  13.533  1.00  0.00    -0.284 OA
ENDBRANCH   3   5
ENDBRANCH   2   3
BRANCH   2   7
HETATM    7  C4  UNL     1      -4.732   0.993  15.912  1.00  0.00     0.196 C 
HETATM    8  O2  UNL     1      -3.669   0.544  16.396  1.00  0.00    -0.646 OA
HETATM    9  O3  UNL     1      -5.926   0.416  16.288  1.00  0.00    -0.646 OA
ENDBRANCH   2   7
TORSDOF 3
ENDMDL
MODEL 4
REMARK VINA RESULT: -4.519538004      1.192      3.756
REMARK  3 active torsions:
REMARK  status: ('A' for Active; 'I' for Inactive)
REMARK    1  A    between atoms: C2_2  and  N1_3 
REMARK    2  A    between atoms: C2_2  and  C4_7 
REMARK    3  A    between atoms: N1_3  and  C3_5 
ROOT
HETATM    1  C1  UNL     1      -4.905   2.933  13.708  1.00  0.00     0.043 C 
HETATM    2  C2  UNL     1      -4.135   1.722  13.169  1.00  0.00     0.180 C 
ENDROOT
BRANCH   2   3
HETATM    3  N1  UNL     1      -4.195   0.711  14.199  1.00  0.00    -0.354 N 
ATOM      4  H1  UNL     1      -3.997  -0.257  13.946  1.00  0.00     0.162 HD
BRANCH   3   5
HETATM    5  C3  UNL     1      -4.517   1.010  15.550  1.00  0.00     0.349 C 
HETATM    6  O1  UNL     1      -3.716   0.623  16.436  1.00  0.00    -0.284 OA
ENDBRANCH   3   5
ENDBRANCH   2   3
BRANCH   2   7
HETATM    7  C4  UNL     1      -4.804   1.299  11.922  1.00  0.00     0.196 C 
HETATM    8  O2  UNL     1      -4.620   0.141  11.486  1.00  0.00    -0.646 OA
HETATM    9  O3  UNL     1      -5.631   2.148  11.218  1.00  0.00    -0.646 OA
ENDBRANCH   2   7
TORSDOF 3
ENDMDL
MODEL 5
REMARK VINA RESULT: -4.495434178      1.354      1.761
REMARK  3 active torsions:
REMARK  status: ('A' for Active; 'I' for Inactive)
REMARK    1  A    between atoms: C2_2  and  N1_3 
REMARK    2  A    between atoms: C2_2  and  C4_7 
REMARK    3  A    between atoms: N1_3  and  C3_5 
ROOT
HETATM    1  C1  UNL     1      -4.302   3.122  15.090  1.00  0.00     0.043 C 
HETATM    2  C2  UNL     1      -4.666   1.754  14.501  1.00  0.00     0.180 C 
ENDROOT
BRANCH   2   3
HETATM    3  N1  UNL     1      -3.921   1.630  13.270  1.00  0.00    -0.354 N 
ATOM      4  H1  UNL     1      -3.673   0.698  12.940  1.00  0.00     0.162 HD
BRANCH   3   5
HETATM    5  C3  UNL     1      -3.519   2.754  12.499  1.00  0.00     0.349 C 
HETATM    6  O1  UNL     1      -2.293   3.025  12.464  1.00  0.00    -0.284 OA
ENDBRANCH   3   5
ENDBRANCH   2   3
BRANCH   2   7
HETATM    7  C4  UNL     1      -4.285   0.733  15.498  1.00  0.00     0.196 C 
HETATM    8  O2  UNL     1      -3.585   1.062  16.481  1.00  0.00    -0.646 OA
HETATM    9  O3  UNL     1      -4.681  -0.582  15.378  1.00  0.00    -0.646 OA
ENDBRANCH   2   7
TORSDOF 3
ENDMDL
