MODEL 1
REMARK VINA RESULT: -3.938625955      0.000      0.000
REMARK  2 active torsions:
REMARK  status: ('A' for Active; 'I' for Inactive)
REMARK    1  A    between atoms: C3_3  and  N1_4 
REMARK    2  A    between atoms: C3_3  and  N2_8 
ROOT
HETATM    1  C1  UNL     1      -6.884   1.118  17.644  1.00  0.00     0.016 C 
HETATM    2  C2  UNL     1      -6.099   1.150  16.723  1.00  0.00    -0.053 C 
HETATM    3  C3  UNL     1      -5.135   1.216  15.589  1.00  0.00     0.495 C 
ENDROOT
BRANCH   3   4
HETATM    4  N1  UNL     1      -3.958   0.502  16.044  1.00  0.00    -0.037 N 
ATOM      5  H13 UNL     1      -3.480   0.951  16.825  1.00  0.00     0.278 HD
ATOM      6  H12 UNL     1      -4.168  -0.376  16.520  1.00  0.00     0.278 HD
ATOM      7  H11 UNL     1      -3.373   0.389  15.216  1.00  0.00     0.278 HD
ENDBRANCH   3   4
BRANCH   3   8
HETATM    8  N2  UNL     1      -4.855   2.590  15.370  1.00  0.00     0.131 N 
HETATM    9  C4  UNL     1      -4.106   2.957  14.196  1.00  0.00     0.278 C 
HETATM   10  C5  UNL     1      -4.802   4.329  14.315  1.00  0.00     0.061 C 
HETATM   11  C6  UNL     1      -5.908   3.457  14.927  1.00  0.00     0.278 C 
ENDBRANCH   3   8
TORSDOF 2
ENDMDL
MODEL 2
REMARK VINA RESULT: -3.742135303      1.029      1.083
REMARK  2 active torsions:
REMARK  status: ('A' for Active; 'I' for Inactive)
REMARK    1  A    between atoms: C3_3  and  N1_4 
REMARK    2  A    between atoms: C3_3  and  N2_8 
ROOT
HETATM    1  C1  UNL     1      -6.942   1.408  17.061  1.00  0.00     0.016 C 
HETATM    2  C2  UNL     1      -6.000   1.393  16.301  1.00  0.00    -0.053 C 
HETATM    3  C3  UNL     1      -4.850   1.397  15.355  1.00  0.00     0.495 C 
ENDROOT
BRANCH   3   4
HETATM    4  N1  UNL     1      -3.666   1.324  16.189  1.00  0.00    -0.037 N 
ATOM      5  H13 UNL     1      -3.868   1.306  17.189  1.00  0.00     0.278 HD
ATOM      6  H12 UNL     1      -3.188   0.424  16.147  1.00  0.00     0.278 HD
ATOM      7  H11 UNL     1      -3.084   2.111  15.902  1.00  0.00     0.278 HD
ENDBRANCH   3   4
BRANCH   3   8
HETATM    8  N2  UNL     1      -4.909   2.625  14.644  1.00  0.00     0.131 N 
HETATM    9  C4  UNL     1      -3.847   3.579  14.838  1.00  0.00     0.278 C 
HETATM   10  C5  UNL     1      -4.213   4.105  13.435  1.00  0.00     0.061 C 
HETATM   11  C6  UNL     1      -4.616   2.636  13.240  1.00  0.00     0.278 C 
ENDBRANCH   3   8
TORSDOF 2
ENDMDL
MODEL 3
REMARK VINA RESULT: -3.707709198      1.192      3.404
REMARK  2 active torsions:
REMARK  status: ('A' for Active; 'I' for Inactive)
REMARK    1  A    between atoms: C3_3  and  N1_4 
REMARK    2  A    between atoms: C3_3  and  N2_8 
ROOT
HETATM    1  C1  UNL     1      -4.547   3.021  14.067  1.00  0.00     0.016 C 
HETATM    2  C2  UNL     1      -4.390   2.245  14.983  1.00  0.00    -0.053 C 
HETATM    3  C3  UNL     1      -4.219   1.302  16.122  1.00  0.00     0.495 C 
ENDROOT
BRANCH   3   4
HETATM    4  N1  UNL     1      -4.215  -0.021  15.528  1.00  0.00    -0.037 N 
ATOM      5  H13 UNL     1      -4.902  -0.140  14.784  1.00  0.00     0.278 HD
ATOM      6  H12 UNL     1      -3.390  -0.215  14.961  1.00  0.00     0.278 HD
ATOM      7  H11 UNL     1      -4.338  -0.668  16.307  1.00  0.00     0.278 HD
ENDBRANCH   3   4
BRANCH   3   8
HETATM    8  N2  UNL     1      -5.338   1.483  16.976  1.00  0.00     0.131 N 
HETATM    9  C4  UNL     1      -6.639   1.639  16.375  1.00  0.00     0.278 C 
HETATM   10  C5  UNL     1      -7.197   1.098  17.708  1.00  0.00     0.061 C 
HETATM   11  C6  UNL     1      -5.849   0.362  17.709  1.00  0.00     0.278 C 
ENDBRANCH   3   8
TORSDOF 2
ENDMDL
MODEL 4
REMARK VINA RESULT: -3.549357494      1.902      2.292
REMARK  2 active torsions:
REMARK  status: ('A' for Active; 'I' for Inactive)
REMARK    1  A    between atoms: C3_3  and  N1_4 
REMARK    2  A    between atoms: C3_3  and  N2_8 
ROOT
HETATM    1  C1  UNL     1      -4.596   1.161  16.232  1.00  0.00     0.016 C 
HETATM    2  C2  UNL     1      -4.623   1.827  15.222  1.00  0.00    -0.053 C 
HETATM    3  C3  UNL     1      -4.650   2.669  13.994  1.00  0.00     0.495 C 
ENDROOT
BRANCH   3   4
HETATM    4  N1  UNL     1      -3.703   2.053  13.085  1.00  0.00    -0.037 N 
ATOM      5  H13 UNL     1      -3.670   2.494  12.165  1.00  0.00     0.278 HD
ATOM      6  H12 UNL     1      -2.728   2.219  13.332  1.00  0.00     0.278 HD
ATOM      7  H11 UNL     1      -3.958   1.065  13.057  1.00  0.00     0.278 HD
ENDBRANCH   3   4
BRANCH   3   8
HETATM    8  N2  UNL     1      -4.229   3.969  14.380  1.00  0.00     0.131 N 
HETATM    9  C4  UNL     1      -3.653   4.827  13.376  1.00  0.00     0.278 C 
HETATM   10  C5  UNL     1      -4.124   5.997  14.264  1.00  0.00     0.061 C 
HETATM   11  C6  UNL     1      -5.215   4.979  14.629  1.00  0.00     0.278 C 
ENDBRANCH   3   8
TORSDOF 2
ENDMDL
MODEL 5
REMARK VINA RESULT: -3.515904915      2.867      3.677
REMARK  2 active torsions:
REMARK  status: ('A' for Active; 'I' for Inactive)
REMARK    1  A    between atoms: C3_3  and  N1_4 
REMARK    2  A    between atoms: C3_3  and  N2_8 
ROOT
HETATM    1  C1  UNL     1      -5.513   5.537  14.745  1.00  0.00     0.016 C 
HETATM    2  C2  UNL     1      -4.866   4.532  14.553  1.00  0.00    -0.053 C 
HETATM    3  C3  UNL     1      -4.089   3.288  14.297  1.00  0.00     0.495 C 
ENDROOT
BRANCH   3   4
HETATM    4  N1  UNL     1      -2.753   3.734  13.950  1.00  0.00    -0.037 N 
ATOM      5  H13 UNL     1      -2.738   4.548  13.336  1.00  0.00     0.278 HD
ATOM      6  H12 UNL     1      -2.248   4.160  14.727  1.00  0.00     0.278 HD
ATOM      7  H11 UNL     1      -2.288   2.915  13.558  1.00  0.00     0.278 HD
ENDBRANCH   3   4
BRANCH   3   8
HETATM    8  N2  UNL     1      -4.716   2.631  13.206  1.00  0.00     0.131 N 
HETATM    9  C4  UNL     1      -4.405   3.073  11.871  1.00  0.00     0.278 C 
HETATM   10  C5  UNL     1      -4.793   1.647  11.427  1.00  0.00     0.061 C 
HETATM   11  C6  UNL     1      -4.279   1.316  12.836  1.00  0.00     0.278 C 
ENDBRANCH   3   8
TORSDOF 2
ENDMDL
