MODEL 1
REMARK VINA RESULT: -4.847131502      0.000      0.000
REMARK  1 active torsions:
REMARK  status: ('A' for Active; 'I' for Inactive)
REMARK       I    between atoms: C1_2  and  N2_4 
REMARK    1  A    between atoms: N2_4  and  C2_6 
ROOT
HETATM    1  N1  UNL     1      -5.624   0.037  17.497  1.00  0.00    -0.040 NA
HETATM    2  C1  UNL     1      -4.909   0.672  16.452  1.00  0.00     0.329 C 
HETATM    3  O1  UNL     1      -3.774   0.224  16.121  1.00  0.00    -0.251 OA
HETATM    4  N2  UNL     1      -5.446   1.799  15.769  1.00  0.00    -0.341 N 
ATOM      5  H2  UNL     1      -6.364   2.141  16.055  1.00  0.00     0.164 HD
ENDROOT
BRANCH   4   6
HETATM    6  C2  UNL     1      -4.773   2.481  14.707  1.00  0.00     0.085 A 
HETATM    7  C3  UNL     1      -5.489   3.734  14.216  1.00  0.00     0.025 A 
HETATM    8  C4  UNL     1      -4.268   4.560  14.538  1.00  0.00     0.004 A 
HETATM    9  C5  UNL     1      -3.592   3.317  15.076  1.00  0.00     0.025 A 
ENDBRANCH   4   6
TORSDOF 1
ENDMDL
MODEL 2
REMARK VINA RESULT: -4.809522408      1.314      1.628
REMARK  1 active torsions:
REMARK  status: ('A' for Active; 'I' for Inactive)
REMARK       I    between atoms: C1_2  and  N2_4 
REMARK    1  A    between atoms: N2_4  and  C2_6 
ROOT
HETATM    1  N1  UNL     1      -4.654  -0.438  15.280  1.00  0.00    -0.040 NA
HETATM    2  C1  UNL     1      -4.239   0.889  15.552  1.00  0.00     0.329 C 
HETATM    3  O1  UNL     1      -3.475   1.105  16.536  1.00  0.00    -0.251 OA
HETATM    4  N2  UNL     1      -4.663   1.977  14.739  1.00  0.00    -0.341 N 
ATOM      5  H2  UNL     1      -5.279   1.776  13.951  1.00  0.00     0.164 HD
ENDROOT
BRANCH   4   6
HETATM    6  C2  UNL     1      -4.277   3.336  14.963  1.00  0.00     0.085 A 
HETATM    7  C3  UNL     1      -3.335   3.901  13.906  1.00  0.00     0.025 A 
HETATM    8  C4  UNL     1      -4.325   4.998  13.607  1.00  0.00     0.004 A 
HETATM    9  C5  UNL     1      -5.275   4.393  14.618  1.00  0.00     0.025 A 
ENDBRANCH   4   6
TORSDOF 1
ENDMDL
MODEL 3
REMARK VINA RESULT: -4.555139118      1.438      1.544
REMARK  1 active torsions:
REMARK  status: ('A' for Active; 'I' for Inactive)
REMARK       I    between atoms: C1_2  and  N2_4 
REMARK    1  A    between atoms: N2_4  and  C2_6 
ROOT
HETATM    1  N1  UNL     1      -3.987   0.206  16.230  1.00  0.00    -0.040 NA
HETATM    2  C1  UNL     1      -4.323   1.112  15.194  1.00  0.00     0.329 C 
HETATM    3  O1  UNL     1      -4.349   0.699  14.000  1.00  0.00    -0.251 OA
HETATM    4  N2  UNL     1      -4.632   2.472  15.475  1.00  0.00    -0.341 N 
ATOM      5  H2  UNL     1      -4.605   2.780  16.447  1.00  0.00     0.164 HD
ENDROOT
BRANCH   4   6
HETATM    6  C2  UNL     1      -4.979   3.432  14.473  1.00  0.00     0.085 A 
HETATM    7  C3  UNL     1      -6.035   4.440  14.912  1.00  0.00     0.025 A 
HETATM    8  C4  UNL     1      -5.078   5.571  14.625  1.00  0.00     0.004 A 
HETATM    9  C5  UNL     1      -4.021   4.556  14.248  1.00  0.00     0.025 A 
ENDBRANCH   4   6
TORSDOF 1
ENDMDL
MODEL 4
REMARK VINA RESULT: -4.366142627      2.326      2.513
REMARK  1 active torsions:
REMARK  status: ('A' for Active; 'I' for Inactive)
REMARK       I    between atoms: C1_2  and  N2_4 
REMARK    1  A    between atoms: N2_4  and  C2_6 
ROOT
HETATM    1  N1  UNL     1      -3.906   0.446  16.277  1.00  0.00    -0.040 NA
HETATM    2  C1  UNL     1      -4.575   1.348  15.414  1.00  0.00     0.329 C 
HETATM    3  O1  UNL     1      -5.613   1.941  15.828  1.00  0.00    -0.251 OA
HETATM    4  N2  UNL     1      -4.101   1.598  14.096  1.00  0.00    -0.341 N 
ATOM      5  H2  UNL     1      -3.263   1.108  13.786  1.00  0.00     0.164 HD
ENDROOT
BRANCH   4   6
HETATM    6  C2  UNL     1      -4.733   2.498  13.180  1.00  0.00     0.085 A 
HETATM    7  C3  UNL     1      -3.868   3.684  12.771  1.00  0.00     0.025 A 
HETATM    8  C4  UNL     1      -3.994   3.280  11.323  1.00  0.00     0.004 A 
HETATM    9  C5  UNL     1      -4.803   2.073  11.750  1.00  0.00     0.025 A 
ENDBRANCH   4   6
TORSDOF 1
ENDMDL
MODEL 5
REMARK VINA RESULT: -4.316930499      3.148      3.561
REMARK  1 active torsions:
REMARK  status: ('A' for Active; 'I' for Inactive)
REMARK       I    between atoms: C1_2  and  N2_4 
REMARK    1  A    between atoms: N2_4  and  C2_6 
ROOT
HETATM    1  N1  UNL     1      -4.320  -0.696  11.993  1.00  0.00    -0.040 NA
HETATM    2  C1  UNL     1      -4.528   0.703  12.068  1.00  0.00     0.329 C 
HETATM    3  O1  UNL     1      -5.258   1.264  11.201  1.00  0.00    -0.251 OA
HETATM    4  N2  UNL     1      -3.933   1.483  13.098  1.00  0.00    -0.341 N 
ATOM      5  H2  UNL     1      -3.349   1.007  13.785  1.00  0.00     0.164 HD
ENDROOT
BRANCH   4   6
HETATM    6  C2  UNL     1      -4.107   2.897  13.226  1.00  0.00     0.085 A 
HETATM    7  C3  UNL     1      -4.056   3.406  14.662  1.00  0.00     0.025 A 
HETATM    8  C4  UNL     1      -2.909   4.317  14.301  1.00  0.00     0.004 A 
HETATM    9  C5  UNL     1      -2.933   3.760  12.894  1.00  0.00     0.025 A 
ENDBRANCH   4   6
TORSDOF 1
ENDMDL
