MODEL 1
REMARK VINA RESULT: -5.160736060      0.000      0.000
REMARK  2 active torsions:
REMARK  status: ('A' for Active; 'I' for Inactive)
REMARK    1  A    between atoms: C3_3  and  C4_4 
REMARK    2  A    between atoms: C4_4  and  C5_6 
ROOT
HETATM    1  C1  UNL     1      -4.801   4.431  14.076  1.00  0.00     0.112 C 
HETATM    2  C2  UNL     1      -4.760   3.174  14.827  1.00  0.00    -0.102 C 
HETATM    3  C3  UNL     1      -4.714   2.135  15.468  1.00  0.00    -0.019 C 
ENDROOT
BRANCH   3   4
HETATM    4  C4  UNL     1      -4.643   0.923  16.233  1.00  0.00     0.289 C 
HETATM    5  O1  UNL     1      -3.608   0.242  16.224  1.00  0.00    -0.273 OA
BRANCH   4   6
HETATM    6  C5  UNL     1      -5.813   0.535  17.002  1.00  0.00     0.313 C 
HETATM    7  N1  UNL     1      -7.108   0.895  16.549  1.00  0.00    -0.054 NA
HETATM    8  O2  UNL     1      -5.727  -0.118  18.067  1.00  0.00    -0.267 OA
ENDBRANCH   4   6
ENDBRANCH   3   4
TORSDOF 2
ENDMDL
MODEL 2
REMARK VINA RESULT: -5.007771189      1.170      1.170
REMARK  2 active torsions:
REMARK  status: ('A' for Active; 'I' for Inactive)
REMARK    1  A    between atoms: C3_3  and  C4_4 
REMARK    2  A    between atoms: C4_4  and  C5_6 
ROOT
HETATM    1  C1  UNL     1      -4.499   4.544  13.915  1.00  0.00     0.112 C 
HETATM    2  C2  UNL     1      -4.549   3.304  14.693  1.00  0.00    -0.102 C 
HETATM    3  C3  UNL     1      -4.590   2.281  15.360  1.00  0.00    -0.019 C 
ENDROOT
BRANCH   3   4
HETATM    4  C4  UNL     1      -4.630   1.092  16.161  1.00  0.00     0.289 C 
HETATM    5  O1  UNL     1      -3.676   0.301  16.149  1.00  0.00    -0.273 OA
BRANCH   4   6
HETATM    6  C5  UNL     1      -5.814   0.856  16.970  1.00  0.00     0.313 C 
HETATM    7  N1  UNL     1      -5.753  -0.042  18.067  1.00  0.00    -0.054 NA
HETATM    8  O2  UNL     1      -6.907   1.422  16.738  1.00  0.00    -0.267 OA
ENDBRANCH   4   6
ENDBRANCH   3   4
TORSDOF 2
ENDMDL
MODEL 3
REMARK VINA RESULT: -4.998059005      1.391      1.922
REMARK  2 active torsions:
REMARK  status: ('A' for Active; 'I' for Inactive)
REMARK    1  A    between atoms: C3_3  and  C4_4 
REMARK    2  A    between atoms: C4_4  and  C5_6 
ROOT
HETATM    1  C1  UNL     1      -5.764   5.543  14.705  1.00  0.00     0.112 C 
HETATM    2  C2  UNL     1      -5.390   4.127  14.672  1.00  0.00    -0.102 C 
HETATM    3  C3  UNL     1      -5.057   2.951  14.645  1.00  0.00    -0.019 C 
ENDROOT
BRANCH   3   4
HETATM    4  C4  UNL     1      -4.645   1.578  14.608  1.00  0.00     0.289 C 
HETATM    5  O1  UNL     1      -4.333   1.051  13.531  1.00  0.00    -0.273 OA
BRANCH   4   6
HETATM    6  C5  UNL     1      -4.611   0.844  15.862  1.00  0.00     0.313 C 
HETATM    7  N1  UNL     1      -5.808   0.301  16.396  1.00  0.00    -0.054 NA
HETATM    8  O2  UNL     1      -3.551   0.665  16.503  1.00  0.00    -0.267 OA
ENDBRANCH   4   6
ENDBRANCH   3   4
TORSDOF 2
ENDMDL
MODEL 4
REMARK VINA RESULT: -4.935687064      1.983      2.360
REMARK  2 active torsions:
REMARK  status: ('A' for Active; 'I' for Inactive)
REMARK    1  A    between atoms: C3_3  and  C4_4 
REMARK    2  A    between atoms: C4_4  and  C5_6 
ROOT
HETATM    1  C1  UNL     1      -5.403   5.358  14.712  1.00  0.00     0.112 C 
HETATM    2  C2  UNL     1      -5.036   3.950  14.542  1.00  0.00    -0.102 C 
HETATM    3  C3  UNL     1      -4.715   2.781  14.385  1.00  0.00    -0.019 C 
ENDROOT
BRANCH   3   4
HETATM    4  C4  UNL     1      -4.329   1.415  14.182  1.00  0.00     0.289 C 
HETATM    5  O1  UNL     1      -4.044   1.011  13.046  1.00  0.00    -0.273 OA
BRANCH   4   6
HETATM    6  C5  UNL     1      -4.287   0.540  15.341  1.00  0.00     0.313 C 
HETATM    7  N1  UNL     1      -3.799   1.031  16.580  1.00  0.00    -0.054 NA
HETATM    8  O2  UNL     1      -4.670  -0.651  15.295  1.00  0.00    -0.267 OA
ENDBRANCH   4   6
ENDBRANCH   3   4
TORSDOF 2
ENDMDL
MODEL 5
REMARK VINA RESULT: -4.915696166      1.685      2.243
REMARK  2 active torsions:
REMARK  status: ('A' for Active; 'I' for Inactive)
REMARK    1  A    between atoms: C3_3  and  C4_4 
REMARK    2  A    between atoms: C4_4  and  C5_6 
ROOT
HETATM    1  C1  UNL     1      -5.871   5.219  14.680  1.00  0.00     0.112 C 
HETATM    2  C2  UNL     1      -5.845   3.833  15.152  1.00  0.00    -0.102 C 
HETATM    3  C3  UNL     1      -5.825   2.682  15.565  1.00  0.00    -0.019 C 
ENDROOT
BRANCH   3   4
HETATM    4  C4  UNL     1      -5.797   1.341  16.071  1.00  0.00     0.289 C 
HETATM    5  O1  UNL     1      -6.823   0.833  16.547  1.00  0.00    -0.273 OA
BRANCH   4   6
HETATM    6  C5  UNL     1      -4.540   0.615  16.006  1.00  0.00     0.313 C 
HETATM    7  N1  UNL     1      -4.512  -0.707  15.493  1.00  0.00    -0.054 NA
HETATM    8  O2  UNL     1      -3.458   1.116  16.391  1.00  0.00    -0.267 OA
ENDBRANCH   4   6
ENDBRANCH   3   4
TORSDOF 2
ENDMDL
