MODEL 1
REMARK VINA RESULT: -4.868228270      0.000      0.000
REMARK  5 active torsions:
REMARK  status: ('A' for Active; 'I' for Inactive)
REMARK    1  A    between atoms: C5_11  and  N4_12 
REMARK    2  A    between atoms: N4_12  and  C6_14 
REMARK    3  A    between atoms: C6_14  and  C7_15 
REMARK    4  A    between atoms: C7_15  and  N5_16 
REMARK    5  A    between atoms: C7_15  and  N6_20 
ROOT
HETATM    1  C1  UNL     1      20.352   0.569  33.587  1.00  0.00     0.179 C 
HETATM    2  N1  UNL     1      19.095   1.206  33.315  1.00  0.00    -0.280 N 
HETATM    3  N2  UNL     1      18.900   2.197  32.461  1.00  0.00    -0.307 N 
ATOM      4  H2  UNL     1      19.626   2.629  31.890  1.00  0.00     0.186 HD
HETATM    5  C2  UNL     1      17.603   2.548  32.459  1.00  0.00     0.128 A 
HETATM    6  C3  UNL     1      16.970   1.716  33.369  1.00  0.00     0.095 A 
HETATM    7  C4  UNL     1      15.668   1.580  33.812  1.00  0.00     0.275 A 
HETATM    8  O1  UNL     1      14.811   2.352  33.319  1.00  0.00    -0.267 OA
HETATM    9  N3  UNL     1      15.358   0.646  34.736  1.00  0.00    -0.155 N 
ATOM     10  H3  UNL     1      14.391   0.563  35.048  1.00  0.00     0.187 HD
HETATM   11  C5  UNL     1      16.283  -0.178  35.261  1.00  0.00     0.682 A 
HETATM   12  N7  UNL     1      17.547  -0.032  34.819  1.00  0.00    -0.174 N 
ATOM     13  H7  UNL     1      18.265  -0.646  35.202  1.00  0.00     0.186 HD
HETATM   14  C8  UNL     1      17.914   0.876  33.903  1.00  0.00     0.154 A 
ENDROOT
BRANCH  11  15
HETATM   15  N4  UNL     1      15.968  -1.058  36.138  1.00  0.00    -0.222 N 
ATOM     16  H4  UNL     1      15.282  -0.826  36.856  1.00  0.00     0.177 HD
BRANCH  15  17
HETATM   17  C6  UNL     1      16.559  -2.359  36.128  1.00  0.00     0.200 C 
BRANCH  17  18
HETATM   18  C7  UNL     1      15.537  -3.437  36.402  1.00  0.00     0.396 C 
BRANCH  18  19
HETATM   19  N5  UNL     1      14.351  -3.228  35.625  1.00  0.00    -0.049 N 
ATOM     20  H53 UNL     1      14.568  -2.849  34.703  1.00  0.00     0.276 HD
ATOM     21  H52 UNL     1      13.931  -4.111  35.335  1.00  0.00     0.276 HD
ATOM     22  H51 UNL     1      13.685  -2.641  36.127  1.00  0.00     0.276 HD
ENDBRANCH  18  19
BRANCH  18  23
HETATM   23  N6  UNL     1      16.035  -4.757  36.182  1.00  0.00    -0.049 N 
ATOM     24  H63 UNL     1      16.173  -4.931  35.187  1.00  0.00     0.276 HD
ATOM     25  H62 UNL     1      17.000  -4.837  36.502  1.00  0.00     0.276 HD
ATOM     26  H61 UNL     1      15.453  -5.483  36.601  1.00  0.00     0.276 HD
ENDBRANCH  18  23
ENDBRANCH  17  18
ENDBRANCH  15  17
ENDBRANCH  11  15
TORSDOF 5
ENDMDL
MODEL 2
REMARK VINA RESULT: -4.744161281      2.619      5.364
REMARK  5 active torsions:
REMARK  status: ('A' for Active; 'I' for Inactive)
REMARK    1  A    between atoms: C5_11  and  N4_12 
REMARK    2  A    between atoms: N4_12  and  C6_14 
REMARK    3  A    between atoms: C6_14  and  C7_15 
REMARK    4  A    between atoms: C7_15  and  N5_16 
REMARK    5  A    between atoms: C7_15  and  N6_20 
ROOT
HETATM    1  C1  UNL     1      19.551  -1.394  36.881  1.00  0.00     0.179 C 
HETATM    2  N1  UNL     1      18.337  -2.151  36.768  1.00  0.00    -0.280 N 
HETATM    3  N2  UNL     1      18.147  -3.378  37.223  1.00  0.00    -0.307 N 
ATOM      4  H2  UNL     1      18.846  -3.935  37.713  1.00  0.00     0.186 HD
HETATM    5  C2  UNL     1      16.895  -3.779  36.944  1.00  0.00     0.128 A 
HETATM    6  C3  UNL     1      16.287  -2.727  36.277  1.00  0.00     0.095 A 
HETATM    7  C4  UNL     1      15.031  -2.522  35.737  1.00  0.00     0.275 A 
HETATM    8  O1  UNL     1      14.203  -3.458  35.839  1.00  0.00    -0.267 OA
HETATM    9  N3  UNL     1      14.734  -1.352  35.132  1.00  0.00    -0.155 N 
ATOM     10  H3  UNL     1      13.801  -1.222  34.742  1.00  0.00     0.187 HD
HETATM   11  C5  UNL     1      15.627  -0.352  35.026  1.00  0.00     0.682 A 
HETATM   12  N7  UNL     1      16.847  -0.569  35.557  1.00  0.00    -0.174 N 
ATOM     13  H7  UNL     1      17.541   0.175  35.488  1.00  0.00     0.186 HD
HETATM   14  C8  UNL     1      17.199  -1.708  36.170  1.00  0.00     0.154 A 
ENDROOT
BRANCH  11  15
HETATM   15  N4  UNL     1      15.326   0.751  34.447  1.00  0.00    -0.222 N 
ATOM     16  H4  UNL     1      14.378   0.889  34.097  1.00  0.00     0.177 HD
BRANCH  15  17
HETATM   17  C6  UNL     1      16.292   1.791  34.283  1.00  0.00     0.200 C 
BRANCH  17  18
HETATM   18  C7  UNL     1      15.824   3.088  34.899  1.00  0.00     0.396 C 
BRANCH  18  19
HETATM   19  N5  UNL     1      15.823   3.006  36.329  1.00  0.00    -0.049 N 
ATOM     20  H53 UNL     1      16.764   2.870  36.698  1.00  0.00     0.276 HD
ATOM     21  H52 UNL     1      15.617   3.908  36.757  1.00  0.00     0.276 HD
ATOM     22  H51 UNL     1      15.183   2.280  36.652  1.00  0.00     0.276 HD
ENDBRANCH  18  19
BRANCH  18  23
HETATM   23  N6  UNL     1      16.584   4.220  34.477  1.00  0.00    -0.049 N 
ATOM     24  H63 UNL     1      17.583   4.045  34.581  1.00  0.00     0.276 HD
ATOM     25  H62 UNL     1      16.537   4.331  33.464  1.00  0.00     0.276 HD
ATOM     26  H61 UNL     1      16.316   5.085  34.949  1.00  0.00     0.276 HD
ENDBRANCH  18  23
ENDBRANCH  17  18
ENDBRANCH  15  17
ENDBRANCH  11  15
TORSDOF 5
ENDMDL
MODEL 3
REMARK VINA RESULT: -4.702503721      2.745      5.821
REMARK  5 active torsions:
REMARK  status: ('A' for Active; 'I' for Inactive)
REMARK    1  A    between atoms: C5_11  and  N4_12 
REMARK    2  A    between atoms: N4_12  and  C6_14 
REMARK    3  A    between atoms: C6_14  and  C7_15 
REMARK    4  A    between atoms: C7_15  and  N5_16 
REMARK    5  A    between atoms: C7_15  and  N6_20 
ROOT
HETATM    1  C1  UNL     1      17.324  -2.986  39.676  1.00  0.00     0.179 C 
HETATM    2  N1  UNL     1      16.873  -3.203  38.330  1.00  0.00    -0.280 N 
HETATM    3  N2  UNL     1      16.674  -4.380  37.764  1.00  0.00    -0.307 N 
ATOM      4  H2  UNL     1      16.817  -5.281  38.219  1.00  0.00     0.186 HD
HETATM    5  C2  UNL     1      16.253  -4.211  36.498  1.00  0.00     0.128 A 
HETATM    6  C3  UNL     1      16.194  -2.843  36.285  1.00  0.00     0.095 A 
HETATM    7  C4  UNL     1      15.843  -2.046  35.211  1.00  0.00     0.275 A 
HETATM    8  O1  UNL     1      15.487  -2.627  34.158  1.00  0.00    -0.267 OA
HETATM    9  N3  UNL     1      15.890  -0.701  35.319  1.00  0.00    -0.155 N 
ATOM     10  H3  UNL     1      15.626  -0.133  34.514  1.00  0.00     0.187 HD
HETATM   11  C5  UNL     1      16.274  -0.085  36.451  1.00  0.00     0.682 A 
HETATM   12  N7  UNL     1      16.613  -0.876  37.488  1.00  0.00    -0.174 N 
ATOM     13  H7  UNL     1      16.907  -0.431  38.357  1.00  0.00     0.186 HD
HETATM   14  C8  UNL     1      16.585  -2.216  37.441  1.00  0.00     0.154 A 
ENDROOT
BRANCH  11  15
HETATM   15  N4  UNL     1      16.312   1.194  36.532  1.00  0.00    -0.222 N 
ATOM     16  H4  UNL     1      15.982   1.651  37.382  1.00  0.00     0.177 HD
BRANCH  15  17
HETATM   17  C6  UNL     1      16.808   1.991  35.456  1.00  0.00     0.200 C 
BRANCH  17  18
HETATM   18  C7  UNL     1      15.754   2.937  34.931  1.00  0.00     0.396 C 
BRANCH  18  19
HETATM   19  N5  UNL     1      16.323   4.213  34.613  1.00  0.00    -0.049 N 
ATOM     20  H53 UNL     1      16.108   4.909  35.327  1.00  0.00     0.276 HD
ATOM     21  H52 UNL     1      17.339   4.205  34.704  1.00  0.00     0.276 HD
ATOM     22  H51 UNL     1      16.030   4.521  33.686  1.00  0.00     0.276 HD
ENDBRANCH  18  19
BRANCH  18  23
HETATM   23  N6  UNL     1      15.047   2.425  33.802  1.00  0.00    -0.049 N 
ATOM     24  H63 UNL     1      15.400   1.505  33.540  1.00  0.00     0.276 HD
ATOM     25  H62 UNL     1      14.092   2.172  34.057  1.00  0.00     0.276 HD
ATOM     26  H61 UNL     1      15.053   3.057  33.001  1.00  0.00     0.276 HD
ENDBRANCH  18  23
ENDBRANCH  17  18
ENDBRANCH  15  17
ENDBRANCH  11  15
TORSDOF 5
ENDMDL
MODEL 4
REMARK VINA RESULT: -4.693093399      1.919      5.492
REMARK  5 active torsions:
REMARK  status: ('A' for Active; 'I' for Inactive)
REMARK    1  A    between atoms: C5_11  and  N4_12 
REMARK    2  A    between atoms: N4_12  and  C6_14 
REMARK    3  A    between atoms: C6_14  and  C7_15 
REMARK    4  A    between atoms: C7_15  and  N5_16 
REMARK    5  A    between atoms: C7_15  and  N6_20 
ROOT
HETATM    1  C1  UNL     1      18.433  -3.524  36.879  1.00  0.00     0.179 C 
HETATM    2  N1  UNL     1      17.157  -3.060  36.413  1.00  0.00    -0.280 N 
HETATM    3  N2  UNL     1      16.044  -3.771  36.375  1.00  0.00    -0.307 N 
ATOM      4  H2  UNL     1      15.958  -4.742  36.675  1.00  0.00     0.186 HD
HETATM    5  C2  UNL     1      15.041  -3.024  35.882  1.00  0.00     0.128 A 
HETATM    6  C3  UNL     1      15.582  -1.778  35.604  1.00  0.00     0.095 A 
HETATM    7  C4  UNL     1      15.078  -0.598  35.091  1.00  0.00     0.275 A 
HETATM    8  O1  UNL     1      13.862  -0.578  34.786  1.00  0.00    -0.267 OA
HETATM    9  N3  UNL     1      15.884   0.475  34.936  1.00  0.00    -0.155 N 
ATOM     10  H3  UNL     1      15.490   1.335  34.556  1.00  0.00     0.187 HD
HETATM   11  C5  UNL     1      17.188   0.446  35.264  1.00  0.00     0.682 A 
HETATM   12  N7  UNL     1      17.663  -0.712  35.763  1.00  0.00    -0.174 N 
ATOM     13  H7  UNL     1      18.649  -0.757  36.019  1.00  0.00     0.186 HD
HETATM   14  C8  UNL     1      16.912  -1.808  35.941  1.00  0.00     0.154 A 
ENDROOT
BRANCH  11  15
HETATM   15  N4  UNL     1      17.935   1.476  35.109  1.00  0.00    -0.222 N 
ATOM     16  H4  UNL     1      18.664   1.672  35.794  1.00  0.00     0.177 HD
BRANCH  15  17
HETATM   17  C6  UNL     1      17.767   2.353  33.994  1.00  0.00     0.200 C 
BRANCH  17  18
HETATM   18  C7  UNL     1      17.464   3.765  34.436  1.00  0.00     0.396 C 
BRANCH  18  19
HETATM   19  N5  UNL     1      17.956   4.717  33.486  1.00  0.00    -0.049 N 
ATOM     20  H53 UNL     1      18.972   4.681  33.410  1.00  0.00     0.276 HD
ATOM     21  H52 UNL     1      17.719   4.451  32.530  1.00  0.00     0.276 HD
ATOM     22  H51 UNL     1      17.628   5.657  33.708  1.00  0.00     0.276 HD
ENDBRANCH  18  19
BRANCH  18  23
HETATM   23  N6  UNL     1      16.076   3.994  34.680  1.00  0.00    -0.049 N 
ATOM     24  H63 UNL     1      15.718   4.730  34.071  1.00  0.00     0.276 HD
ATOM     25  H62 UNL     1      15.515   3.211  34.345  1.00  0.00     0.276 HD
ATOM     26  H61 UNL     1      15.866   4.198  35.658  1.00  0.00     0.276 HD
ENDBRANCH  18  23
ENDBRANCH  17  18
ENDBRANCH  15  17
ENDBRANCH  11  15
TORSDOF 5
ENDMDL
MODEL 5
REMARK VINA RESULT: -4.662879334      3.691      5.835
REMARK  5 active torsions:
REMARK  status: ('A' for Active; 'I' for Inactive)
REMARK    1  A    between atoms: C5_11  and  N4_12 
REMARK    2  A    between atoms: N4_12  and  C6_14 
REMARK    3  A    between atoms: C6_14  and  C7_15 
REMARK    4  A    between atoms: C7_15  and  N5_16 
REMARK    5  A    between atoms: C7_15  and  N6_20 
ROOT
HETATM    1  C1  UNL     1      15.421  -0.172  34.710  1.00  0.00     0.179 C 
HETATM    2  N1  UNL     1      15.389  -1.461  35.342  1.00  0.00    -0.280 N 
HETATM    3  N2  UNL     1      14.374  -2.307  35.317  1.00  0.00    -0.307 N 
ATOM      4  H2  UNL     1      13.486  -2.144  34.842  1.00  0.00     0.186 HD
HETATM    5  C2  UNL     1      14.687  -3.415  36.011  1.00  0.00     0.128 A 
HETATM    6  C3  UNL     1      15.976  -3.227  36.486  1.00  0.00     0.095 A 
HETATM    7  C4  UNL     1      16.844  -3.985  37.250  1.00  0.00     0.275 A 
HETATM    8  O1  UNL     1      16.440  -5.108  37.634  1.00  0.00    -0.267 OA
HETATM    9  N3  UNL     1      18.071  -3.511  37.555  1.00  0.00    -0.155 N 
ATOM     10  H3  UNL     1      18.695  -4.087  38.119  1.00  0.00     0.187 HD
HETATM   11  C5  UNL     1      18.498  -2.305  37.140  1.00  0.00     0.682 A 
HETATM   12  N7  UNL     1      17.639  -1.579  36.397  1.00  0.00    -0.174 N 
ATOM     13  H7  UNL     1      17.941  -0.662  36.071  1.00  0.00     0.186 HD
HETATM   14  C8  UNL     1      16.410  -1.997  36.062  1.00  0.00     0.154 A 
ENDROOT
BRANCH  11  15
HETATM   15  N4  UNL     1      19.667  -1.873  37.440  1.00  0.00    -0.222 N 
ATOM     16  H4  UNL     1      19.860  -1.578  38.397  1.00  0.00     0.177 HD
BRANCH  15  17
HETATM   17  C6  UNL     1      20.704  -1.799  36.461  1.00  0.00     0.200 C 
BRANCH  17  18
HETATM   18  C7  UNL     1      21.298  -3.158  36.173  1.00  0.00     0.396 C 
BRANCH  18  19
HETATM   19  N5  UNL     1      22.231  -3.090  35.089  1.00  0.00    -0.049 N 
ATOM     20  H53 UNL     1      22.936  -2.369  35.244  1.00  0.00     0.276 HD
ATOM     21  H52 UNL     1      22.845  -3.905  35.069  1.00  0.00     0.276 HD
ATOM     22  H51 UNL     1      21.748  -2.961  34.200  1.00  0.00     0.276 HD
ENDBRANCH  18  19
BRANCH  18  23
HETATM   23  N6  UNL     1      21.918  -3.755  37.312  1.00  0.00    -0.049 N 
ATOM     24  H63 UNL     1      22.893  -3.465  37.387  1.00  0.00     0.276 HD
ATOM     25  H62 UNL     1      21.555  -3.351  38.176  1.00  0.00     0.276 HD
ATOM     26  H61 UNL     1      21.840  -4.772  37.327  1.00  0.00     0.276 HD
ENDBRANCH  18  23
ENDBRANCH  17  18
ENDBRANCH  15  17
ENDBRANCH  11  15
TORSDOF 5
ENDMDL
