MODEL 1
REMARK VINA RESULT: -5.765938402      0.000      0.000
REMARK  4 active torsions:
REMARK  status: ('A' for Active; 'I' for Inactive)
REMARK    1  A    between atoms: N1_1  and  S1_4 
REMARK    2  A    between atoms: S1_4  and  N2_7 
REMARK    3  A    between atoms: N2_7  and  C1_9 
REMARK    4  A    between atoms: C4_18  and  O5_19 
ROOT
HETATM    1  C1  UNL     1      15.819  -1.139  36.305  1.00  0.00     0.171 A 
HETATM    2  N3  UNL     1      16.631  -1.956  36.990  1.00  0.00    -0.301 N 
ATOM      3  H3  UNL     1      17.430  -1.566  37.492  1.00  0.00     0.171 HD
HETATM    4  C2  UNL     1      16.408  -3.285  37.029  1.00  0.00     0.315 A 
HETATM    5  O3  UNL     1      17.178  -4.036  37.675  1.00  0.00    -0.262 OA
HETATM    6  C3  UNL     1      15.330  -3.822  36.355  1.00  0.00     0.315 A 
HETATM    7  O4  UNL     1      15.079  -5.063  36.362  1.00  0.00    -0.262 OA
HETATM    8  N4  UNL     1      14.501  -3.012  35.659  1.00  0.00    -0.296 N 
ATOM      9  H4  UNL     1      13.701  -3.399  35.158  1.00  0.00     0.171 HD
HETATM   10  C4  UNL     1      14.744  -1.690  35.636  1.00  0.00     0.189 A 
ENDROOT
BRANCH   1  11
HETATM   11  N2  UNL     1      16.062   0.261  36.270  1.00  0.00    -0.249 N 
ATOM     12  H2  UNL     1      16.069   0.768  37.155  1.00  0.00     0.182 HD
BRANCH  11  13
HETATM   13  S1  UNL     1      16.345   1.149  34.835  1.00  0.00     0.318 S 
HETATM   14  O1  UNL     1      17.169   0.354  33.865  1.00  0.00    -0.183 OA
HETATM   15  O2  UNL     1      15.015   1.486  34.191  1.00  0.00    -0.183 OA
BRANCH  13  16
HETATM   16  N1  UNL     1      17.172   2.627  35.133  1.00  0.00    -0.311 N 
ATOM     17  H12 UNL     1      18.055   2.720  35.636  1.00  0.00     0.170 HD
ATOM     18  H11 UNL     1      16.620   3.379  34.719  1.00  0.00     0.170 HD
ENDBRANCH  13  16
ENDBRANCH  11  13
ENDBRANCH   1  11
BRANCH  10  19
HETATM   19  O5  UNL     1      13.849  -0.895  34.896  1.00  0.00    -0.343 OA
ATOM     20  H5  UNL     1      12.967  -0.721  35.202  1.00  0.00     0.219 HD
ENDBRANCH  10  19
TORSDOF 4
ENDMDL
MODEL 2
REMARK VINA RESULT: -5.756283273      1.105      1.310
REMARK  4 active torsions:
REMARK  status: ('A' for Active; 'I' for Inactive)
REMARK    1  A    between atoms: N1_1  and  S1_4 
REMARK    2  A    between atoms: S1_4  and  N2_7 
REMARK    3  A    between atoms: N2_7  and  C1_9 
REMARK    4  A    between atoms: C4_18  and  O5_19 
ROOT
HETATM    1  C1  UNL     1      16.294  -1.413  35.483  1.00  0.00     0.171 A 
HETATM    2  N3  UNL     1      17.092  -2.265  36.143  1.00  0.00    -0.301 N 
ATOM      3  H3  UNL     1      18.057  -1.999  36.339  1.00  0.00     0.171 HD
HETATM    4  C2  UNL     1      16.639  -3.466  36.553  1.00  0.00     0.315 A 
HETATM    5  O3  UNL     1      17.398  -4.252  37.169  1.00  0.00    -0.262 OA
HETATM    6  C3  UNL     1      15.334  -3.835  36.293  1.00  0.00     0.315 A 
HETATM    7  O4  UNL     1      14.862  -4.952  36.658  1.00  0.00    -0.262 OA
HETATM    8  N4  UNL     1      14.515  -2.988  35.629  1.00  0.00    -0.296 N 
ATOM      9  H4  UNL     1      13.550  -3.251  35.432  1.00  0.00     0.171 HD
HETATM   10  C4  UNL     1      14.991  -1.795  35.230  1.00  0.00     0.189 A 
ENDROOT
BRANCH   1  11
HETATM   11  N2  UNL     1      16.781  -0.148  35.055  1.00  0.00    -0.249 N 
ATOM     12  H2  UNL     1      17.471  -0.130  34.303  1.00  0.00     0.182 HD
BRANCH  11  13
HETATM   13  S1  UNL     1      16.283   1.346  35.722  1.00  0.00     0.318 S 
HETATM   14  O1  UNL     1      15.155   1.939  34.930  1.00  0.00    -0.183 OA
HETATM   15  O2  UNL     1      15.819   1.121  37.148  1.00  0.00    -0.183 OA
BRANCH  13  16
HETATM   16  N1  UNL     1      17.557   2.501  35.763  1.00  0.00    -0.311 N 
ATOM     17  H12 UNL     1      17.816   3.067  36.571  1.00  0.00     0.170 HD
ATOM     18  H11 UNL     1      17.995   2.511  34.842  1.00  0.00     0.170 HD
ENDBRANCH  13  16
ENDBRANCH  11  13
ENDBRANCH   1  11
BRANCH  10  19
HETATM   19  O5  UNL     1      14.096  -0.955  34.543  1.00  0.00    -0.343 OA
ATOM     20  H5  UNL     1      13.975  -1.017  33.604  1.00  0.00     0.219 HD
ENDBRANCH  10  19
TORSDOF 4
ENDMDL
MODEL 3
REMARK VINA RESULT: -5.722086002      0.956      1.156
REMARK  4 active torsions:
REMARK  status: ('A' for Active; 'I' for Inactive)
REMARK    1  A    between atoms: N1_1  and  S1_4 
REMARK    2  A    between atoms: S1_4  and  N2_7 
REMARK    3  A    between atoms: N2_7  and  C1_9 
REMARK    4  A    between atoms: C4_18  and  O5_19 
ROOT
HETATM    1  C1  UNL     1      15.785  -1.138  36.329  1.00  0.00     0.171 A 
HETATM    2  N3  UNL     1      16.585  -1.935  37.052  1.00  0.00    -0.301 N 
ATOM      3  H3  UNL     1      17.336  -1.524  37.607  1.00  0.00     0.171 HD
HETATM    4  C2  UNL     1      16.412  -3.272  37.057  1.00  0.00     0.315 A 
HETATM    5  O3  UNL     1      17.169  -4.004  37.738  1.00  0.00    -0.262 OA
HETATM    6  C3  UNL     1      15.399  -3.838  36.311  1.00  0.00     0.315 A 
HETATM    7  O4  UNL     1      15.196  -5.088  36.284  1.00  0.00    -0.262 OA
HETATM    8  N4  UNL     1      14.582  -3.049  35.577  1.00  0.00    -0.296 N 
ATOM      9  H4  UNL     1      13.830  -3.457  35.022  1.00  0.00     0.171 HD
HETATM   10  C4  UNL     1      14.775  -1.718  35.588  1.00  0.00     0.189 A 
ENDROOT
BRANCH   1  11
HETATM   11  N2  UNL     1      15.975   0.271  36.330  1.00  0.00    -0.249 N 
ATOM     12  H2  UNL     1      15.916   0.762  37.222  1.00  0.00     0.182 HD
BRANCH  11  13
HETATM   13  S1  UNL     1      16.298   1.194  34.926  1.00  0.00     0.318 S 
HETATM   14  O1  UNL     1      15.035   1.478  34.168  1.00  0.00    -0.183 OA
HETATM   15  O2  UNL     1      16.935   2.508  35.333  1.00  0.00    -0.183 OA
BRANCH  13  16
HETATM   16  N1  UNL     1      17.382   0.397  33.855  1.00  0.00    -0.311 N 
ATOM     17  H12 UNL     1      17.862   0.833  33.067  1.00  0.00     0.170 HD
ATOM     18  H11 UNL     1      17.452  -0.576  34.152  1.00  0.00     0.170 HD
ENDBRANCH  13  16
ENDBRANCH  11  13
ENDBRANCH   1  11
BRANCH  10  19
HETATM   19  O5  UNL     1      13.896  -0.946  34.806  1.00  0.00    -0.343 OA
ATOM     20  H5  UNL     1      13.033  -1.261  34.568  1.00  0.00     0.219 HD
ENDBRANCH  10  19
TORSDOF 4
ENDMDL
MODEL 4
REMARK VINA RESULT: -5.651943676      0.952      1.149
REMARK  4 active torsions:
REMARK  status: ('A' for Active; 'I' for Inactive)
REMARK    1  A    between atoms: N1_1  and  S1_4 
REMARK    2  A    between atoms: S1_4  and  N2_7 
REMARK    3  A    between atoms: N2_7  and  C1_9 
REMARK    4  A    between atoms: C4_18  and  O5_19 
ROOT
HETATM    1  C1  UNL     1      15.841  -1.126  36.321  1.00  0.00     0.171 A 
HETATM    2  N3  UNL     1      16.612  -1.958  37.037  1.00  0.00    -0.301 N 
ATOM      3  H3  UNL     1      17.398  -1.583  37.568  1.00  0.00     0.171 HD
HETATM    4  C2  UNL     1      16.363  -3.282  37.066  1.00  0.00     0.315 A 
HETATM    5  O3  UNL     1      17.093  -4.048  37.740  1.00  0.00    -0.262 OA
HETATM    6  C3  UNL     1      15.302  -3.800  36.352  1.00  0.00     0.315 A 
HETATM    7  O4  UNL     1      15.028  -5.036  36.348  1.00  0.00    -0.262 OA
HETATM    8  N4  UNL     1      14.514  -2.975  35.625  1.00  0.00    -0.296 N 
ATOM      9  H4  UNL     1      13.727  -3.348  35.094  1.00  0.00     0.171 HD
HETATM   10  C4  UNL     1      14.783  -1.658  35.611  1.00  0.00     0.189 A 
ENDROOT
BRANCH   1  11
HETATM   11  N2  UNL     1      16.111   0.269  36.296  1.00  0.00    -0.249 N 
ATOM     12  H2  UNL     1      15.995   0.795  37.162  1.00  0.00     0.182 HD
BRANCH  11  13
HETATM   13  S1  UNL     1      16.620   1.121  34.902  1.00  0.00     0.318 S 
HETATM   14  O1  UNL     1      17.540   2.249  35.268  1.00  0.00    -0.183 OA
HETATM   15  O2  UNL     1      17.351   0.168  33.978  1.00  0.00    -0.183 OA
BRANCH  13  16
HETATM   16  N1  UNL     1      15.299   1.789  34.026  1.00  0.00    -0.311 N 
ATOM     17  H12 UNL     1      14.623   1.256  33.479  1.00  0.00     0.170 HD
ATOM     18  H11 UNL     1      15.322   2.800  34.156  1.00  0.00     0.170 HD
ENDBRANCH  13  16
ENDBRANCH  11  13
ENDBRANCH   1  11
BRANCH  10  19
HETATM   19  O5  UNL     1      13.931  -0.847  34.838  1.00  0.00    -0.343 OA
ATOM     20  H5  UNL     1      13.770   0.062  35.062  1.00  0.00     0.219 HD
ENDBRANCH  10  19
TORSDOF 4
ENDMDL
MODEL 5
REMARK VINA RESULT: -5.568273129      2.017      2.269
REMARK  4 active torsions:
REMARK  status: ('A' for Active; 'I' for Inactive)
REMARK    1  A    between atoms: N1_1  and  S1_4 
REMARK    2  A    between atoms: S1_4  and  N2_7 
REMARK    3  A    between atoms: N2_7  and  C1_9 
REMARK    4  A    between atoms: C4_18  and  O5_19 
ROOT
HETATM    1  C1  UNL     1      15.841  -1.149  36.408  1.00  0.00     0.171 A 
HETATM    2  N3  UNL     1      16.560  -2.013  37.140  1.00  0.00    -0.301 N 
ATOM      3  H3  UNL     1      17.307  -1.663  37.740  1.00  0.00     0.171 HD
HETATM    4  C2  UNL     1      16.311  -3.337  37.095  1.00  0.00     0.315 A 
HETATM    5  O3  UNL     1      16.992  -4.132  37.786  1.00  0.00    -0.262 OA
HETATM    6  C3  UNL     1      15.302  -3.820  36.287  1.00  0.00     0.315 A 
HETATM    7  O4  UNL     1      15.029  -5.054  36.212  1.00  0.00    -0.262 OA
HETATM    8  N4  UNL     1      14.567  -2.963  35.543  1.00  0.00    -0.296 N 
ATOM      9  H4  UNL     1      13.819  -3.310  34.943  1.00  0.00     0.171 HD
HETATM   10  C4  UNL     1      14.835  -1.647  35.604  1.00  0.00     0.189 A 
ENDROOT
BRANCH   1  11
HETATM   11  N2  UNL     1      16.112   0.246  36.461  1.00  0.00    -0.249 N 
ATOM     12  H2  UNL     1      16.224   0.746  35.579  1.00  0.00     0.182 HD
BRANCH  11  13
HETATM   13  S1  UNL     1      16.263   1.136  37.914  1.00  0.00     0.318 S 
HETATM   14  O1  UNL     1      14.937   1.266  38.604  1.00  0.00    -0.183 OA
HETATM   15  O2  UNL     1      17.231   0.421  38.836  1.00  0.00    -0.183 OA
BRANCH  13  16
HETATM   16  N1  UNL     1      16.870   2.723  37.648  1.00  0.00    -0.311 N 
ATOM     17  H12 UNL     1      16.651   3.313  36.845  1.00  0.00     0.170 HD
ATOM     18  H11 UNL     1      17.479   2.957  38.431  1.00  0.00     0.170 HD
ENDBRANCH  13  16
ENDBRANCH  11  13
ENDBRANCH   1  11
BRANCH  10  19
HETATM   19  O5  UNL     1      14.039  -0.802  34.809  1.00  0.00    -0.343 OA
ATOM     20  H5  UNL     1      14.065   0.142  34.905  1.00  0.00     0.219 HD
ENDBRANCH  10  19
TORSDOF 4
ENDMDL
