MODEL 1
REMARK VINA RESULT: -5.926980819      0.000      0.000
REMARK  4 active torsions:
REMARK  status: ('A' for Active; 'I' for Inactive)
REMARK    1  A    between atoms: N1_1  and  N2_4 
REMARK    2  A    between atoms: N2_4  and  C1_5 
REMARK    3  A    between atoms: C1_5  and  C2_6 
REMARK    4  A    between atoms: C2_6  and  N3_7 
ROOT
HETATM    1  N3  UNL     1      16.159  -0.682  35.412  1.00  0.00    -0.261 N 
HETATM    2  C3  UNL     1      14.910  -1.113  35.138  1.00  0.00     0.334 A 
HETATM    3  O1  UNL     1      14.161  -0.315  34.538  1.00  0.00    -0.246 OA
HETATM    4  N4  UNL     1      14.430  -2.319  35.463  1.00  0.00    -0.274 N 
ATOM      5  H4  UNL     1      13.471  -2.569  35.220  1.00  0.00     0.173 HD
HETATM    6  C4  UNL     1      15.210  -3.201  36.110  1.00  0.00     0.269 A 
HETATM    7  O2  UNL     1      14.815  -4.347  36.440  1.00  0.00    -0.267 OA
HETATM    8  C5  UNL     1      16.484  -2.843  36.422  1.00  0.00     0.144 A 
HETATM    9  C6  UNL     1      17.336  -3.713  37.105  1.00  0.00     0.265 A 
HETATM   10  O3  UNL     1      16.926  -4.851  37.427  1.00  0.00    -0.267 OA
HETATM   11  N5  UNL     1      18.577  -3.288  37.393  1.00  0.00    -0.319 N 
ATOM     12  H5  UNL     1      19.206  -3.918  37.893  1.00  0.00     0.169 HD
HETATM   13  C7  UNL     1      19.025  -2.074  37.054  1.00  0.00     0.185 A 
HETATM   14  N6  UNL     1      18.194  -1.265  36.404  1.00  0.00    -0.337 N 
ATOM     15  H6  UNL     1      18.538  -0.340  36.146  1.00  0.00     0.168 HD
HETATM   16  C8  UNL     1      16.929  -1.582  36.063  1.00  0.00     0.137 A 
ENDROOT
BRANCH   1  17
HETATM   17  C2  UNL     1      16.671   0.590  35.103  1.00  0.00     0.094 C 
BRANCH  17  18
HETATM   18  C1  UNL     1      16.472   1.759  35.923  1.00  0.00     0.179 C 
BRANCH  18  19
HETATM   19  N2  UNL     1      15.434   2.637  35.463  1.00  0.00    -0.143 NA
BRANCH  19  20
HETATM   20  N1  UNL     1      15.207   2.511  34.093  1.00  0.00    -0.348 N 
ATOM     21  H12 UNL     1      14.991   1.621  33.645  1.00  0.00     0.172 HD
ATOM     22  H11 UNL     1      15.283   3.403  33.606  1.00  0.00     0.172 HD
ENDBRANCH  19  20
ENDBRANCH  18  19
ENDBRANCH  17  18
ENDBRANCH   1  17
TORSDOF 4
ENDMDL
MODEL 2
REMARK VINA RESULT: -5.538982790      2.270      5.079
REMARK  4 active torsions:
REMARK  status: ('A' for Active; 'I' for Inactive)
REMARK    1  A    between atoms: N1_1  and  N2_4 
REMARK    2  A    between atoms: N2_4  and  C1_5 
REMARK    3  A    between atoms: C1_5  and  C2_6 
REMARK    4  A    between atoms: C2_6  and  N3_7 
ROOT
HETATM    1  N3  UNL     1      16.079  -3.048  36.495  1.00  0.00    -0.261 N 
HETATM    2  C3  UNL     1      15.315  -3.113  35.386  1.00  0.00     0.334 A 
HETATM    3  O1  UNL     1      15.038  -4.254  34.963  1.00  0.00    -0.246 OA
HETATM    4  N4  UNL     1      14.842  -2.052  34.721  1.00  0.00    -0.274 N 
ATOM      5  H4  UNL     1      14.269  -2.187  33.888  1.00  0.00     0.173 HD
HETATM    6  C4  UNL     1      15.122  -0.811  35.150  1.00  0.00     0.269 A 
HETATM    7  O2  UNL     1      14.705   0.222  34.567  1.00  0.00    -0.267 OA
HETATM    8  C5  UNL     1      15.888  -0.659  36.262  1.00  0.00     0.144 A 
HETATM    9  C6  UNL     1      16.221   0.607  36.747  1.00  0.00     0.265 A 
HETATM   10  O3  UNL     1      15.798   1.625  36.155  1.00  0.00    -0.267 OA
HETATM   11  N5  UNL     1      16.993   0.682  37.844  1.00  0.00    -0.319 N 
ATOM     12  H5  UNL     1      17.242   1.604  38.204  1.00  0.00     0.169 HD
HETATM   13  C7  UNL     1      17.450  -0.399  38.485  1.00  0.00     0.185 A 
HETATM   14  N6  UNL     1      17.118  -1.593  38.003  1.00  0.00    -0.337 N 
ATOM     15  H6  UNL     1      17.467  -2.416  38.494  1.00  0.00     0.168 HD
HETATM   16  C8  UNL     1      16.351  -1.790  36.912  1.00  0.00     0.137 A 
ENDROOT
BRANCH   1  17
HETATM   17  C2  UNL     1      16.607  -4.149  37.191  1.00  0.00     0.094 C 
BRANCH  17  18
HETATM   18  C1  UNL     1      15.817  -5.265  37.651  1.00  0.00     0.179 C 
BRANCH  18  19
HETATM   19  N2  UNL     1      16.188  -5.761  38.945  1.00  0.00    -0.143 NA
BRANCH  19  20
HETATM   20  N1  UNL     1      15.459  -6.894  39.305  1.00  0.00    -0.348 N 
ATOM     21  H12 UNL     1      15.560  -7.356  40.208  1.00  0.00     0.172 HD
ATOM     22  H11 UNL     1      14.826  -7.195  38.565  1.00  0.00     0.172 HD
ENDBRANCH  19  20
ENDBRANCH  18  19
ENDBRANCH  17  18
ENDBRANCH   1  17
TORSDOF 4
ENDMDL
MODEL 3
REMARK VINA RESULT: -5.495138479      1.411      1.620
REMARK  4 active torsions:
REMARK  status: ('A' for Active; 'I' for Inactive)
REMARK    1  A    between atoms: N1_1  and  N2_4 
REMARK    2  A    between atoms: N2_4  and  C1_5 
REMARK    3  A    between atoms: C1_5  and  C2_6 
REMARK    4  A    between atoms: C2_6  and  N3_7 
ROOT
HETATM    1  N3  UNL     1      16.192  -0.650  35.397  1.00  0.00    -0.261 N 
HETATM    2  C3  UNL     1      14.936  -1.058  35.124  1.00  0.00     0.334 A 
HETATM    3  O1  UNL     1      14.199  -0.243  34.531  1.00  0.00    -0.246 OA
HETATM    4  N4  UNL     1      14.436  -2.258  35.442  1.00  0.00    -0.274 N 
ATOM      5  H4  UNL     1      13.472  -2.489  35.199  1.00  0.00     0.173 HD
HETATM    6  C4  UNL     1      15.203  -3.157  36.081  1.00  0.00     0.269 A 
HETATM    7  O2  UNL     1      14.789  -4.299  36.404  1.00  0.00    -0.267 OA
HETATM    8  C5  UNL     1      16.483  -2.823  36.392  1.00  0.00     0.144 A 
HETATM    9  C6  UNL     1      17.322  -3.713  37.067  1.00  0.00     0.265 A 
HETATM   10  O3  UNL     1      16.894  -4.845  37.381  1.00  0.00    -0.267 OA
HETATM   11  N5  UNL     1      18.571  -3.311  37.355  1.00  0.00    -0.319 N 
ATOM     12  H5  UNL     1      19.190  -3.955  37.848  1.00  0.00     0.169 HD
HETATM   13  C7  UNL     1      19.038  -2.102  37.022  1.00  0.00     0.185 A 
HETATM   14  N6  UNL     1      18.220  -1.274  36.380  1.00  0.00    -0.337 N 
ATOM     15  H6  UNL     1      18.579  -0.354  36.128  1.00  0.00     0.168 HD
HETATM   16  C8  UNL     1      16.949  -1.568  36.040  1.00  0.00     0.137 A 
ENDROOT
BRANCH   1  17
HETATM   17  C2  UNL     1      16.726   0.615  35.095  1.00  0.00     0.094 C 
BRANCH  17  18
HETATM   18  C1  UNL     1      17.397   0.931  33.858  1.00  0.00     0.179 C 
BRANCH  18  19
HETATM   19  N2  UNL     1      18.810   0.685  33.870  1.00  0.00    -0.143 NA
BRANCH  19  20
HETATM   20  N1  UNL     1      19.475   1.385  32.864  1.00  0.00    -0.348 N 
ATOM     21  H12 UNL     1      19.698   2.378  32.932  1.00  0.00     0.172 HD
ATOM     22  H11 UNL     1      19.707   0.791  32.069  1.00  0.00     0.172 HD
ENDBRANCH  19  20
ENDBRANCH  18  19
ENDBRANCH  17  18
ENDBRANCH   1  17
TORSDOF 4
ENDMDL
MODEL 4
REMARK VINA RESULT: -5.480084853      0.848      1.129
REMARK  4 active torsions:
REMARK  status: ('A' for Active; 'I' for Inactive)
REMARK    1  A    between atoms: N1_1  and  N2_4 
REMARK    2  A    between atoms: N2_4  and  C1_5 
REMARK    3  A    between atoms: C1_5  and  C2_6 
REMARK    4  A    between atoms: C2_6  and  N3_7 
ROOT
HETATM    1  N3  UNL     1      16.204  -0.642  35.407  1.00  0.00    -0.261 N 
HETATM    2  C3  UNL     1      14.946  -1.038  35.126  1.00  0.00     0.334 A 
HETATM    3  O1  UNL     1      14.219  -0.213  34.535  1.00  0.00    -0.246 OA
HETATM    4  N4  UNL     1      14.434  -2.235  35.434  1.00  0.00    -0.274 N 
ATOM      5  H4  UNL     1      13.470  -2.458  35.186  1.00  0.00     0.173 HD
HETATM    6  C4  UNL     1      15.191  -3.145  36.071  1.00  0.00     0.269 A 
HETATM    7  O2  UNL     1      14.766  -4.285  36.386  1.00  0.00    -0.267 OA
HETATM    8  C5  UNL     1      16.472  -2.823  36.391  1.00  0.00     0.144 A 
HETATM    9  C6  UNL     1      17.300  -3.724  37.064  1.00  0.00     0.265 A 
HETATM   10  O3  UNL     1      16.862  -4.855  37.369  1.00  0.00    -0.267 OA
HETATM   11  N5  UNL     1      18.551  -3.334  37.360  1.00  0.00    -0.319 N 
ATOM     12  H5  UNL     1      19.162  -3.986  37.852  1.00  0.00     0.169 HD
HETATM   13  C7  UNL     1      19.030  -2.127  37.037  1.00  0.00     0.185 A 
HETATM   14  N6  UNL     1      18.222  -1.289  36.397  1.00  0.00    -0.337 N 
ATOM     15  H6  UNL     1      18.589  -0.370  36.152  1.00  0.00     0.168 HD
HETATM   16  C8  UNL     1      16.950  -1.570  36.049  1.00  0.00     0.137 A 
ENDROOT
BRANCH   1  17
HETATM   17  C2  UNL     1      16.749   0.620  35.116  1.00  0.00     0.094 C 
BRANCH  17  18
HETATM   18  C1  UNL     1      16.892   1.679  36.086  1.00  0.00     0.179 C 
BRANCH  18  19
HETATM   19  N2  UNL     1      15.734   1.891  36.907  1.00  0.00    -0.143 NA
BRANCH  19  20
HETATM   20  N1  UNL     1      15.931   1.459  38.218  1.00  0.00    -0.348 N 
ATOM     21  H12 UNL     1      15.839   0.485  38.502  1.00  0.00     0.172 HD
ATOM     22  H11 UNL     1      16.174   2.227  38.844  1.00  0.00     0.172 HD
ENDBRANCH  19  20
ENDBRANCH  18  19
ENDBRANCH  17  18
ENDBRANCH   1  17
TORSDOF 4
ENDMDL
MODEL 5
REMARK VINA RESULT: -5.294342307      1.905      4.746
REMARK  4 active torsions:
REMARK  status: ('A' for Active; 'I' for Inactive)
REMARK    1  A    between atoms: N1_1  and  N2_4 
REMARK    2  A    between atoms: N2_4  and  C1_5 
REMARK    3  A    between atoms: C1_5  and  C2_6 
REMARK    4  A    between atoms: C2_6  and  N3_7 
ROOT
HETATM    1  N3  UNL     1      16.257  -2.751  36.170  1.00  0.00    -0.261 N 
HETATM    2  C3  UNL     1      15.008  -2.684  35.665  1.00  0.00     0.334 A 
HETATM    3  O1  UNL     1      14.305  -3.710  35.775  1.00  0.00    -0.246 OA
HETATM    4  N4  UNL     1      14.484  -1.610  35.063  1.00  0.00    -0.274 N 
ATOM      5  H4  UNL     1      13.528  -1.641  34.707  1.00  0.00     0.173 HD
HETATM    6  C4  UNL     1      15.215  -0.492  34.928  1.00  0.00     0.269 A 
HETATM    7  O2  UNL     1      14.776   0.547  34.374  1.00  0.00    -0.267 OA
HETATM    8  C5  UNL     1      16.485  -0.477  35.412  1.00  0.00     0.144 A 
HETATM    9  C6  UNL     1      17.296   0.653  35.289  1.00  0.00     0.265 A 
HETATM   10  O3  UNL     1      16.844   1.679  34.734  1.00  0.00    -0.267 OA
HETATM   11  N5  UNL     1      18.546   0.592  35.778  1.00  0.00    -0.319 N 
ATOM     12  H5  UNL     1      19.145   1.414  35.691  1.00  0.00     0.169 HD
HETATM   13  C7  UNL     1      19.039  -0.499  36.373  1.00  0.00     0.185 A 
HETATM   14  N6  UNL     1      18.247  -1.562  36.478  1.00  0.00    -0.337 N 
ATOM     15  H6  UNL     1      18.625  -2.393  36.933  1.00  0.00     0.168 HD
HETATM   16  C8  UNL     1      16.978  -1.616  36.025  1.00  0.00     0.137 A 
ENDROOT
BRANCH   1  17
HETATM   17  C2  UNL     1      16.834  -3.878  36.781  1.00  0.00     0.094 C 
BRANCH  17  18
HETATM   18  C1  UNL     1      16.577  -4.275  38.144  1.00  0.00     0.179 C 
BRANCH  18  19
HETATM   19  N2  UNL     1      16.182  -5.646  38.297  1.00  0.00    -0.143 NA
BRANCH  19  20
HETATM   20  N1  UNL     1      15.041  -5.952  37.557  1.00  0.00    -0.348 N 
ATOM     21  H12 UNL     1      14.557  -6.847  37.626  1.00  0.00     0.172 HD
ATOM     22  H11 UNL     1      14.757  -5.183  36.951  1.00  0.00     0.172 HD
ENDBRANCH  19  20
ENDBRANCH  18  19
ENDBRANCH  17  18
ENDBRANCH   1  17
TORSDOF 4
ENDMDL
