MODEL 1
REMARK VINA RESULT: -5.259906264      0.000      0.000
REMARK  5 active torsions:
REMARK  status: ('A' for Active; 'I' for Inactive)
REMARK    1  A    between atoms: N1_1  and  N2_4 
REMARK    2  A    between atoms: N3_6  and  C1_8 
REMARK    3  A    between atoms: C2_10  and  C3_11 
REMARK    4  A    between atoms: C3_11  and  O2_12 
REMARK    5  A    between atoms: C7_19  and  O5_20 
ROOT
HETATM    1  C1  UNL     1      34.992  16.867 -18.562  1.00  0.00     0.292 C 
HETATM    2  O1  UNL     1      33.888  16.058 -18.569  1.00  0.00    -0.350 OA
HETATM    3  C2  UNL     1      33.517  15.622 -17.287  1.00  0.00     0.179 C 
HETATM    4  C4  UNL     1      33.407  16.753 -16.314  1.00  0.00     0.186 C 
HETATM    5  O3  UNL     1      33.679  17.981 -16.948  1.00  0.00    -0.346 OA
HETATM    6  C5  UNL     1      34.960  17.929 -17.491  1.00  0.00     0.310 C 
HETATM    7  O4  UNL     1      35.940  17.724 -16.519  1.00  0.00    -0.354 OA
HETATM    8  C6  UNL     1      35.324  17.835 -15.277  1.00  0.00     0.205 C 
HETATM    9  C7  UNL     1      34.360  16.649 -15.155  1.00  0.00     0.173 C 
ENDROOT
BRANCH   1  10
HETATM   10  N3  UNL     1      36.238  16.125 -18.462  1.00  0.00    -0.289 N 
HETATM   11  N2  UNL     1      36.443  15.298 -19.367  1.00  0.00    -0.251 N 
ATOM     12  H2  UNL     1      35.954  15.715 -20.159  1.00  0.00     0.207 HD
ATOM     13  H3  UNL     1      36.899  16.273 -17.700  1.00  0.00     0.184 HD
BRANCH  11  14
HETATM   14  N1  UNL     1      36.901  14.261 -19.855  1.00  0.00    -0.331 N 
ATOM     15  H12 UNL     1      36.438  13.571 -19.263  1.00  0.00     0.178 HD
ATOM     16  H11 UNL     1      37.469  13.714 -20.502  1.00  0.00     0.178 HD
ENDBRANCH  11  14
ENDBRANCH   1  10
BRANCH   3  17
HETATM   17  C3  UNL     1      32.158  14.938 -17.492  1.00  0.00     0.198 C 
BRANCH  17  18
HETATM   18  O2  UNL     1      31.971  14.537 -18.791  1.00  0.00    -0.398 OA
ATOM     19  H2  UNL     1      32.206  13.626 -18.922  1.00  0.00     0.209 HD
ENDBRANCH  17  18
ENDBRANCH   3  17
BRANCH   9  20
HETATM   20  O5  UNL     1      35.118  15.506 -15.149  1.00  0.00    -0.391 OA
ATOM     21  H5  UNL     1      35.026  14.981 -14.363  1.00  0.00     0.210 HD
ENDBRANCH   9  20
TORSDOF 5
ENDMDL
MODEL 2
REMARK VINA RESULT: -5.012011970      2.903      4.428
REMARK  5 active torsions:
REMARK  status: ('A' for Active; 'I' for Inactive)
REMARK    1  A    between atoms: N1_1  and  N2_4 
REMARK    2  A    between atoms: N3_6  and  C1_8 
REMARK    3  A    between atoms: C2_10  and  C3_11 
REMARK    4  A    between atoms: C3_11  and  O2_12 
REMARK    5  A    between atoms: C7_19  and  O5_20 
ROOT
HETATM    1  C1  UNL     1      34.917  16.456 -21.061  1.00  0.00     0.292 C 
HETATM    2  O1  UNL     1      35.109  17.376 -20.066  1.00  0.00    -0.350 OA
HETATM    3  C2  UNL     1      34.655  16.934 -18.813  1.00  0.00     0.179 C 
HETATM    4  C4  UNL     1      35.182  15.577 -18.466  1.00  0.00     0.186 C 
HETATM    5  O3  UNL     1      36.031  15.100 -19.483  1.00  0.00    -0.346 OA
HETATM    6  C5  UNL     1      35.315  15.052 -20.676  1.00  0.00     0.310 C 
HETATM    7  O4  UNL     1      34.214  14.198 -20.601  1.00  0.00    -0.354 OA
HETATM    8  C6  UNL     1      34.305  13.507 -19.397  1.00  0.00     0.205 C 
HETATM    9  C7  UNL     1      34.109  14.540 -18.281  1.00  0.00     0.173 C 
ENDROOT
BRANCH   1  10
HETATM   10  N3  UNL     1      33.554  16.445 -21.567  1.00  0.00    -0.289 N 
HETATM   11  N2  UNL     1      33.442  16.426 -22.805  1.00  0.00    -0.251 N 
ATOM     12  H2  UNL     1      34.286  15.930 -23.093  1.00  0.00     0.207 HD
ATOM     13  H3  UNL     1      32.744  16.452 -20.948  1.00  0.00     0.184 HD
BRANCH  11  14
HETATM   14  N1  UNL     1      32.894  16.664 -23.885  1.00  0.00    -0.331 N 
ATOM     15  H12 UNL     1      33.337  15.952 -24.465  1.00  0.00     0.178 HD
ATOM     16  H11 UNL     1      32.261  17.160 -24.513  1.00  0.00     0.178 HD
ENDBRANCH  11  14
ENDBRANCH   1  10
BRANCH   3  17
HETATM   17  C3  UNL     1      35.165  17.992 -17.824  1.00  0.00     0.198 C 
BRANCH  17  18
HETATM   18  O2  UNL     1      35.546  19.149 -18.455  1.00  0.00    -0.398 OA
ATOM     19  H2  UNL     1      35.025  19.322 -19.231  1.00  0.00     0.209 HD
ENDBRANCH  17  18
ENDBRANCH   3  17
BRANCH   9  20
HETATM   20  O5  UNL     1      32.831  15.025 -18.394  1.00  0.00    -0.391 OA
ATOM     21  H5  UNL     1      32.618  15.365 -19.255  1.00  0.00     0.210 HD
ENDBRANCH   9  20
TORSDOF 5
ENDMDL
MODEL 3
REMARK VINA RESULT: -4.933468124      3.317      4.469
REMARK  5 active torsions:
REMARK  status: ('A' for Active; 'I' for Inactive)
REMARK    1  A    between atoms: N1_1  and  N2_4 
REMARK    2  A    between atoms: N3_6  and  C1_8 
REMARK    3  A    between atoms: C2_10  and  C3_11 
REMARK    4  A    between atoms: C3_11  and  O2_12 
REMARK    5  A    between atoms: C7_19  and  O5_20 
ROOT
HETATM    1  C1  UNL     1      33.277  14.443 -18.343  1.00  0.00     0.292 C 
HETATM    2  O1  UNL     1      32.280  14.451 -19.279  1.00  0.00    -0.350 OA
HETATM    3  C2  UNL     1      32.664  15.051 -20.488  1.00  0.00     0.179 C 
HETATM    4  C4  UNL     1      33.953  14.499 -21.010  1.00  0.00     0.186 C 
HETATM    5  O3  UNL     1      34.439  13.487 -20.160  1.00  0.00    -0.346 OA
HETATM    6  C5  UNL     1      34.620  14.021 -18.888  1.00  0.00     0.310 C 
HETATM    7  O4  UNL     1      35.543  15.068 -18.878  1.00  0.00    -0.354 OA
HETATM    8  C6  UNL     1      36.139  15.109 -20.133  1.00  0.00     0.205 C 
HETATM    9  C7  UNL     1      35.048  15.524 -21.127  1.00  0.00     0.173 C 
ENDROOT
BRANCH   1  10
HETATM   10  N3  UNL     1      33.420  15.717 -17.656  1.00  0.00    -0.289 N 
HETATM   11  N2  UNL     1      34.025  15.676 -16.571  1.00  0.00    -0.251 N 
ATOM     12  H2  UNL     1      34.665  14.893 -16.707  1.00  0.00     0.207 HD
ATOM     13  H3  UNL     1      33.048  16.585 -18.039  1.00  0.00     0.184 HD
BRANCH  11  14
HETATM   14  N1  UNL     1      34.294  16.041 -15.423  1.00  0.00    -0.331 N 
ATOM     15  H12 UNL     1      33.427  15.783 -14.951  1.00  0.00     0.178 HD
ATOM     16  H11 UNL     1      34.880  16.447 -14.693  1.00  0.00     0.178 HD
ENDBRANCH  11  14
ENDBRANCH   1  10
BRANCH   3  17
HETATM   17  C3  UNL     1      31.506  14.753 -21.451  1.00  0.00     0.198 C 
BRANCH  17  18
HETATM   18  O2  UNL     1      31.136  15.857 -22.174  1.00  0.00    -0.398 OA
ATOM     19  H2  UNL     1      31.857  16.211 -22.683  1.00  0.00     0.209 HD
ENDBRANCH  17  18
ENDBRANCH   3  17
BRANCH   9  20
HETATM   20  O5  UNL     1      34.663  16.799 -20.801  1.00  0.00    -0.391 OA
ATOM     21  H5  UNL     1      34.783  17.021 -19.885  1.00  0.00     0.210 HD
ENDBRANCH   9  20
TORSDOF 5
ENDMDL
MODEL 4
REMARK VINA RESULT: -4.896151482      1.913      3.745
REMARK  5 active torsions:
REMARK  status: ('A' for Active; 'I' for Inactive)
REMARK    1  A    between atoms: N1_1  and  N2_4 
REMARK    2  A    between atoms: N3_6  and  C1_8 
REMARK    3  A    between atoms: C2_10  and  C3_11 
REMARK    4  A    between atoms: C3_11  and  O2_12 
REMARK    5  A    between atoms: C7_19  and  O5_20 
ROOT
HETATM    1  C1  UNL     1      35.211  16.177 -18.844  1.00  0.00     0.292 C 
HETATM    2  O1  UNL     1      35.404  16.512 -17.531  1.00  0.00    -0.350 OA
HETATM    3  C2  UNL     1      34.269  16.292 -16.734  1.00  0.00     0.179 C 
HETATM    4  C4  UNL     1      33.713  14.914 -16.911  1.00  0.00     0.186 C 
HETATM    5  O3  UNL     1      34.496  14.176 -17.819  1.00  0.00    -0.346 OA
HETATM    6  C5  UNL     1      34.521  14.849 -19.037  1.00  0.00     0.310 C 
HETATM    7  O4  UNL     1      33.248  14.995 -19.590  1.00  0.00    -0.354 OA
HETATM    8  C6  UNL     1      32.372  14.233 -18.824  1.00  0.00     0.205 C 
HETATM    9  C7  UNL     1      32.305  14.893 -17.443  1.00  0.00     0.173 C 
ENDROOT
BRANCH   1  10
HETATM   10  N3  UNL     1      34.497  17.199 -19.591  1.00  0.00    -0.289 N 
HETATM   11  N2  UNL     1      34.604  17.132 -20.828  1.00  0.00    -0.251 N 
ATOM     12  H2  UNL     1      34.732  16.131 -20.982  1.00  0.00     0.207 HD
ATOM     13  H3  UNL     1      33.945  17.923 -19.131  1.00  0.00     0.184 HD
BRANCH  11  14
HETATM   14  N1  UNL     1      34.643  17.583 -21.976  1.00  0.00    -0.331 N 
ATOM     15  H12 UNL     1      35.328  16.950 -22.388  1.00  0.00     0.178 HD
ATOM     16  H11 UNL     1      34.384  18.219 -22.731  1.00  0.00     0.178 HD
ENDBRANCH  11  14
ENDBRANCH   1  10
BRANCH   3  17
HETATM   17  C3  UNL     1      34.762  16.507 -15.296  1.00  0.00     0.198 C 
BRANCH  17  18
HETATM   18  O2  UNL     1      35.487  17.663 -15.165  1.00  0.00    -0.398 OA
ATOM     19  H2  UNL     1      36.033  17.832 -15.924  1.00  0.00     0.209 HD
ENDBRANCH  17  18
ENDBRANCH   3  17
BRANCH   9  20
HETATM   20  O5  UNL     1      31.748  16.135 -17.610  1.00  0.00    -0.391 OA
ATOM     21  H5  UNL     1      32.370  16.852 -17.556  1.00  0.00     0.210 HD
ENDBRANCH   9  20
TORSDOF 5
ENDMDL
MODEL 5
REMARK VINA RESULT: -4.801822396      2.568      3.985
REMARK  5 active torsions:
REMARK  status: ('A' for Active; 'I' for Inactive)
REMARK    1  A    between atoms: N1_1  and  N2_4 
REMARK    2  A    between atoms: N3_6  and  C1_8 
REMARK    3  A    between atoms: C2_10  and  C3_11 
REMARK    4  A    between atoms: C3_11  and  O2_12 
REMARK    5  A    between atoms: C7_19  and  O5_20 
ROOT
HETATM    1  C1  UNL     1      35.148  16.834 -18.564  1.00  0.00     0.292 C 
HETATM    2  O1  UNL     1      35.962  16.272 -19.509  1.00  0.00    -0.350 OA
HETATM    3  C2  UNL     1      35.792  14.883 -19.625  1.00  0.00     0.179 C 
HETATM    4  C4  UNL     1      34.355  14.499 -19.787  1.00  0.00     0.186 C 
HETATM    5  O3  UNL     1      33.536  15.645 -19.810  1.00  0.00    -0.346 OA
HETATM    6  C5  UNL     1      33.720  16.350 -18.624  1.00  0.00     0.310 C 
HETATM    7  O4  UNL     1      33.373  15.599 -17.500  1.00  0.00    -0.354 OA
HETATM    8  C6  UNL     1      32.759  14.436 -17.951  1.00  0.00     0.205 C 
HETATM    9  C7  UNL     1      33.834  13.623 -18.680  1.00  0.00     0.173 C 
ENDROOT
BRANCH   1  10
HETATM   10  N3  UNL     1      35.652  16.667 -17.210  1.00  0.00    -0.289 N 
HETATM   11  N2  UNL     1      35.169  17.435 -16.360  1.00  0.00    -0.251 N 
ATOM     12  H2  UNL     1      34.234  17.609 -16.729  1.00  0.00     0.207 HD
ATOM     13  H3  UNL     1      36.354  15.967 -16.974  1.00  0.00     0.184 HD
BRANCH  11  14
HETATM   14  N1  UNL     1      35.175  18.108 -15.325  1.00  0.00    -0.331 N 
ATOM     15  H12 UNL     1      35.008  17.372 -14.639  1.00  0.00     0.178 HD
ATOM     16  H11 UNL     1      35.251  18.966 -14.778  1.00  0.00     0.178 HD
ENDBRANCH  11  14
ENDBRANCH   1  10
BRANCH   3  17
HETATM   17  C3  UNL     1      36.608  14.499 -20.868  1.00  0.00     0.198 C 
BRANCH  17  18
HETATM   18  O2  UNL     1      36.243  13.275 -21.369  1.00  0.00    -0.398 OA
ATOM     19  H2  UNL     1      36.983  12.684 -21.446  1.00  0.00     0.209 HD
ENDBRANCH  17  18
ENDBRANCH   3  17
BRANCH   9  20
HETATM   20  O5  UNL     1      34.779  13.268 -17.751  1.00  0.00    -0.391 OA
ATOM     21  H5  UNL     1      34.581  12.467 -17.280  1.00  0.00     0.210 HD
ENDBRANCH   9  20
TORSDOF 5
ENDMDL
