MODEL 1
REMARK VINA RESULT: -6.587041924      0.000      0.000
REMARK  4 active torsions:
REMARK  status: ('A' for Active; 'I' for Inactive)
REMARK    1  A    between atoms: N2_3  and  C2_4 
REMARK    2  A    between atoms: N2_3  and  C3_7 
REMARK    3  A    between atoms: C2_4  and  O1_5 
REMARK    4  A    between atoms: C6_11  and  O3_12 
ROOT
HETATM    1  N1  UNL     1      33.548  16.205 -21.629  1.00  0.00    -0.172 NA
HETATM    2  C1  UNL     1      34.293  15.679 -20.916  1.00  0.00     0.185 C 
HETATM    3  N2  UNL     1      35.195  15.047 -20.062  1.00  0.00    -0.252 N 
ENDROOT
BRANCH   3   4
HETATM    4  C2  UNL     1      36.536  14.794 -20.535  1.00  0.00     0.305 C 
BRANCH   4   5
HETATM    5  O1  UNL     1      37.378  14.375 -19.508  1.00  0.00    -0.381 OA
ATOM      6  H1  UNL     1      38.292  14.533 -19.713  1.00  0.00     0.211 HD
ENDBRANCH   4   5
ENDBRANCH   3   4
BRANCH   3   7
HETATM    7  C3  UNL     1      34.779  14.660 -18.750  1.00  0.00     0.352 C 
HETATM    8  O2  UNL     1      33.565  13.891 -18.789  1.00  0.00    -0.319 OA
HETATM    9  C4  UNL     1      32.348  14.478 -18.477  1.00  0.00     0.140 C 
HETATM   10  C5  UNL     1      32.313  15.343 -17.478  1.00  0.00     0.062 C 
HETATM   11  C6  UNL     1      33.621  15.603 -16.775  1.00  0.00     0.177 A 
HETATM   12  C7  UNL     1      33.522  16.781 -15.898  1.00  0.00     0.038 A 
HETATM   13  N3  UNL     1      34.603  15.768 -17.831  1.00  0.00    -0.308 N 
HETATM   14  C8  UNL     1      34.206  17.885 -15.996  1.00  0.00     0.002 A 
HETATM   15  C9  UNL     1      35.180  17.992 -17.081  1.00  0.00     0.017 A 
HETATM   16  C10 UNL     1      35.337  16.979 -17.920  1.00  0.00     0.093 A 
BRANCH  11  17
HETATM   17  O3  UNL     1      33.897  14.487 -15.977  1.00  0.00    -0.364 OA
ATOM     18  H3  UNL     1      34.817  14.523 -15.746  1.00  0.00     0.213 HD
ENDBRANCH  11  17
ENDBRANCH   3   7
TORSDOF 4
ENDMDL
MODEL 2
REMARK VINA RESULT: -6.072432923      1.324      1.876
REMARK  4 active torsions:
REMARK  status: ('A' for Active; 'I' for Inactive)
REMARK    1  A    between atoms: N2_3  and  C2_4 
REMARK    2  A    between atoms: N2_3  and  C3_7 
REMARK    3  A    between atoms: C2_4  and  O1_5 
REMARK    4  A    between atoms: C6_11  and  O3_12 
ROOT
HETATM    1  N1  UNL     1      36.196  13.360 -21.619  1.00  0.00    -0.172 NA
HETATM    2  C1  UNL     1      35.474  14.010 -20.990  1.00  0.00     0.185 C 
HETATM    3  N2  UNL     1      34.603  14.797 -20.238  1.00  0.00    -0.252 N 
ENDROOT
BRANCH   3   4
HETATM    4  C2  UNL     1      33.927  15.895 -20.886  1.00  0.00     0.305 C 
BRANCH   4   5
HETATM    5  O1  UNL     1      32.658  15.534 -21.330  1.00  0.00    -0.381 OA
ATOM      6  H1  UNL     1      32.267  14.866 -20.780  1.00  0.00     0.211 HD
ENDBRANCH   4   5
ENDBRANCH   3   4
BRANCH   3   7
HETATM    7  C3  UNL     1      34.402  14.507 -18.852  1.00  0.00     0.352 C 
HETATM    8  O2  UNL     1      33.143  13.851 -18.630  1.00  0.00    -0.319 OA
HETATM    9  C4  UNL     1      32.055  14.559 -18.142  1.00  0.00     0.140 C 
HETATM   10  C5  UNL     1      32.273  15.467 -17.205  1.00  0.00     0.062 C 
HETATM   11  C6  UNL     1      33.704  15.637 -16.762  1.00  0.00     0.177 A 
HETATM   12  C7  UNL     1      33.863  16.856 -15.953  1.00  0.00     0.038 A 
HETATM   13  N3  UNL     1      34.488  15.666 -17.983  1.00  0.00    -0.308 N 
HETATM   14  C8  UNL     1      34.606  17.888 -16.236  1.00  0.00     0.002 A 
HETATM   15  C9  UNL     1      35.372  17.858 -17.481  1.00  0.00     0.017 A 
HETATM   16  C10 UNL     1      35.290  16.800 -18.273  1.00  0.00     0.093 A 
BRANCH  11  17
HETATM   17  O3  UNL     1      34.028  14.536 -15.961  1.00  0.00    -0.364 OA
ATOM     18  H3  UNL     1      33.381  13.862 -16.129  1.00  0.00     0.213 HD
ENDBRANCH  11  17
ENDBRANCH   3   7
TORSDOF 4
ENDMDL
MODEL 3
REMARK VINA RESULT: -6.015366237      1.939      4.855
REMARK  4 active torsions:
REMARK  status: ('A' for Active; 'I' for Inactive)
REMARK    1  A    between atoms: N2_3  and  C2_4 
REMARK    2  A    between atoms: N2_3  and  C3_7 
REMARK    3  A    between atoms: C2_4  and  O1_5 
REMARK    4  A    between atoms: C6_11  and  O3_12 
ROOT
HETATM    1  N1  UNL     1      35.226  17.988 -18.781  1.00  0.00    -0.172 NA
HETATM    2  C1  UNL     1      34.890  16.909 -18.532  1.00  0.00     0.185 C 
HETATM    3  N2  UNL     1      34.482  15.611 -18.226  1.00  0.00    -0.252 N 
ENDROOT
BRANCH   3   4
HETATM    4  C2  UNL     1      33.720  15.390 -17.020  1.00  0.00     0.305 C 
BRANCH   4   5
HETATM    5  O1  UNL     1      33.388  16.586 -16.389  1.00  0.00    -0.381 OA
ATOM      6  H1  UNL     1      33.602  17.341 -16.925  1.00  0.00     0.211 HD
ENDBRANCH   4   5
ENDBRANCH   3   4
BRANCH   3   7
HETATM    7  C3  UNL     1      34.828  14.534 -19.101  1.00  0.00     0.352 C 
HETATM    8  O2  UNL     1      36.157  14.689 -19.626  1.00  0.00    -0.319 OA
HETATM    9  C4  UNL     1      36.357  15.159 -20.914  1.00  0.00     0.140 C 
HETATM   10  C5  UNL     1      35.533  14.745 -21.863  1.00  0.00     0.062 C 
HETATM   11  C6  UNL     1      34.448  13.791 -21.433  1.00  0.00     0.177 A 
HETATM   12  C7  UNL     1      33.433  13.639 -22.488  1.00  0.00     0.038 A 
HETATM   13  N3  UNL     1      33.906  14.346 -20.206  1.00  0.00    -0.308 N 
HETATM   14  C8  UNL     1      32.170  13.947 -22.404  1.00  0.00     0.002 A 
HETATM   15  C9  UNL     1      31.684  14.503 -21.143  1.00  0.00     0.017 A 
HETATM   16  C10 UNL     1      32.528  14.675 -20.136  1.00  0.00     0.093 A 
BRANCH  11  17
HETATM   17  O3  UNL     1      35.046  12.544 -21.221  1.00  0.00    -0.364 OA
ATOM     18  H3  UNL     1      35.133  12.427 -20.282  1.00  0.00     0.213 HD
ENDBRANCH  11  17
ENDBRANCH   3   7
TORSDOF 4
ENDMDL
MODEL 4
REMARK VINA RESULT: -5.945448940      2.014      3.837
REMARK  4 active torsions:
REMARK  status: ('A' for Active; 'I' for Inactive)
REMARK    1  A    between atoms: N2_3  and  C2_4 
REMARK    2  A    between atoms: N2_3  and  C3_7 
REMARK    3  A    between atoms: C2_4  and  O1_5 
REMARK    4  A    between atoms: C6_11  and  O3_12 
ROOT
HETATM    1  N1  UNL     1      36.835  17.815 -16.333  1.00  0.00    -0.172 NA
HETATM    2  C1  UNL     1      36.236  17.530 -17.282  1.00  0.00     0.185 C 
HETATM    3  N2  UNL     1      35.514  17.193 -18.426  1.00  0.00    -0.252 N 
ENDROOT
BRANCH   3   4
HETATM    4  C2  UNL     1      35.009  18.254 -19.264  1.00  0.00     0.305 C 
BRANCH   4   5
HETATM    5  O1  UNL     1      35.503  19.498 -18.882  1.00  0.00    -0.381 OA
ATOM      6  H1  UNL     1      35.145  20.200 -19.411  1.00  0.00     0.211 HD
ENDBRANCH   4   5
ENDBRANCH   3   4
BRANCH   3   7
HETATM    7  C3  UNL     1      35.284  15.817 -18.740  1.00  0.00     0.352 C 
HETATM    8  O2  UNL     1      35.539  15.546 -20.129  1.00  0.00    -0.319 OA
HETATM    9  C4  UNL     1      34.491  15.426 -21.028  1.00  0.00     0.140 C 
HETATM   10  C5  UNL     1      33.398  14.796 -20.629  1.00  0.00     0.062 C 
HETATM   11  C6  UNL     1      33.411  14.269 -19.216  1.00  0.00     0.177 A 
HETATM   12  C7  UNL     1      32.060  13.863 -18.794  1.00  0.00     0.038 A 
HETATM   13  N3  UNL     1      33.954  15.344 -18.406  1.00  0.00    -0.308 N 
HETATM   14  C8  UNL     1      31.367  14.365 -17.813  1.00  0.00     0.002 A 
HETATM   15  C9  UNL     1      31.968  15.446 -17.034  1.00  0.00     0.017 A 
HETATM   16  C10 UNL     1      33.181  15.877 -17.343  1.00  0.00     0.093 A 
BRANCH  11  17
HETATM   17  O3  UNL     1      34.233  13.137 -19.199  1.00  0.00    -0.364 OA
ATOM     18  H3  UNL     1      34.471  12.973 -18.294  1.00  0.00     0.213 HD
ENDBRANCH  11  17
ENDBRANCH   3   7
TORSDOF 4
ENDMDL
MODEL 5
REMARK VINA RESULT: -5.861418835      2.130      4.870
REMARK  4 active torsions:
REMARK  status: ('A' for Active; 'I' for Inactive)
REMARK    1  A    between atoms: N2_3  and  C2_4 
REMARK    2  A    between atoms: N2_3  and  C3_7 
REMARK    3  A    between atoms: C2_4  and  O1_5 
REMARK    4  A    between atoms: C6_11  and  O3_12 
ROOT
HETATM    1  N1  UNL     1      33.933  15.776 -16.048  1.00  0.00    -0.172 NA
HETATM    2  C1  UNL     1      34.320  15.876 -17.135  1.00  0.00     0.185 C 
HETATM    3  N2  UNL     1      34.784  16.003 -18.443  1.00  0.00    -0.252 N 
ENDROOT
BRANCH   3   4
HETATM    4  C2  UNL     1      34.977  17.327 -18.984  1.00  0.00     0.305 C 
BRANCH   4   5
HETATM    5  O1  UNL     1      34.986  18.300 -17.988  1.00  0.00    -0.381 OA
ATOM      6  H1  UNL     1      34.110  18.600 -17.778  1.00  0.00     0.211 HD
ENDBRANCH   4   5
ENDBRANCH   3   4
BRANCH   3   7
HETATM    7  C3  UNL     1      35.054  14.831 -19.217  1.00  0.00     0.352 C 
HETATM    8  O2  UNL     1      36.330  14.917 -19.873  1.00  0.00    -0.319 OA
HETATM    9  C4  UNL     1      36.411  15.238 -21.219  1.00  0.00     0.140 C 
HETATM   10  C5  UNL     1      35.508  14.723 -22.037  1.00  0.00     0.062 C 
HETATM   11  C6  UNL     1      34.469  13.831 -21.406  1.00  0.00     0.177 A 
HETATM   12  C7  UNL     1      33.364  13.566 -22.341  1.00  0.00     0.038 A 
HETATM   13  N3  UNL     1      34.038  14.525 -20.206  1.00  0.00    -0.308 N 
HETATM   14  C8  UNL     1      32.113  13.889 -22.180  1.00  0.00     0.002 A 
HETATM   15  C9  UNL     1      31.740  14.588 -20.951  1.00  0.00     0.017 A 
HETATM   16  C10 UNL     1      32.670  14.868 -20.051  1.00  0.00     0.093 A 
BRANCH  11  17
HETATM   17  O3  UNL     1      35.090  12.612 -21.108  1.00  0.00    -0.364 OA
ATOM     18  H3  UNL     1      35.009  12.057 -21.874  1.00  0.00     0.213 HD
ENDBRANCH  11  17
ENDBRANCH   3   7
TORSDOF 4
ENDMDL
