MODEL 1
REMARK VINA RESULT: -6.906897038      0.000      0.000
REMARK  18 active torsions:
REMARK  status: ('A' for Active; 'I' for Inactive)
REMARK    1  A    between atoms: N1_1  and  C1_5 
REMARK    2  A    between atoms: C1_5  and  O1_6 
REMARK    3  A    between atoms: C1_5  and  C2_8 
REMARK    4  A    between atoms: C3_9  and  N2_10 
REMARK    5  A    between atoms: N2_10  and  O2_12 
REMARK    6  A    between atoms: C4_14  and  O3_15 
REMARK    7  A    between atoms: C5_17  and  N3_18 
REMARK    8  A    between atoms: N3_18  and  C6_20 
REMARK    9  A    between atoms: C7_22  and  O5_23 
REMARK   10  A    between atoms: O5_23  and  C8_24 
REMARK   11  A    between atoms: C9_26  and  C10_27 
REMARK   12  A    between atoms: C10_27  and  O7_28 
REMARK   13  A    between atoms: C11_30  and  O8_31 
REMARK   14  A    between atoms: C12_33  and  O9_34 
REMARK   15  A    between atoms: C13_36  and  O10_37 
REMARK   16  A    between atoms: C14_39  and  O11_40 
REMARK   17  A    between atoms: C15_42  and  O12_43 
REMARK   18  A    between atoms: C18_48  and  O14_49 
ROOT
HETATM    1  C6  UNL     1       0.320   5.176  37.842  1.00  0.00     0.256 C 
HETATM    2  O4  UNL     1       1.420   5.025  38.675  1.00  0.00    -0.332 OA
HETATM    3  C7  UNL     1       0.946   4.851  39.945  1.00  0.00     0.297 C 
HETATM    4  C14 UNL     1      -0.432   5.385  40.027  1.00  0.00     0.206 C 
HETATM    5  C15 UNL     1      -0.705   5.921  38.652  1.00  0.00     0.200 C 
ENDROOT
BRANCH   1   6
HETATM    6  N3  UNL     1       0.564   5.663  36.540  1.00  0.00    -0.359 N 
ATOM      7  H3  UNL     1       0.451   6.666  36.393  1.00  0.00     0.162 HD
BRANCH   6   8
HETATM    8  C5  UNL     1       0.949   4.892  35.420  1.00  0.00     0.070 C 
HETATM    9  C4  UNL     1       2.332   4.700  35.256  1.00  0.00     0.121 C 
HETATM   10  C3  UNL     1       2.988   3.585  34.755  1.00  0.00     0.103 C 
HETATM   11  C2  UNL     1       2.434   2.455  34.219  1.00  0.00     0.066 C 
HETATM   12  C18 UNL     1       1.158   2.358  33.660  1.00  0.00     0.129 C 
HETATM   13  C17 UNL     1       0.091   3.225  33.840  1.00  0.00     0.207 C 
HETATM   14  C16 UNL     1      -0.035   4.389  34.596  1.00  0.00     0.089 C 
HETATM   15  O13 UNL     1      -0.957   2.932  33.224  1.00  0.00    -0.285 OA
BRANCH   9  16
HETATM   16  O3  UNL     1       3.138   5.738  35.637  1.00  0.00    -0.356 OA
ATOM     17  H3  UNL     1       3.263   5.838  36.573  1.00  0.00     0.218 HD
ENDBRANCH   9  16
BRANCH  10  18
HETATM   18  N2  UNL     1       4.403   3.614  34.802  1.00  0.00    -0.266 N 
ATOM     19  H2  UNL     1       4.904   3.197  35.586  1.00  0.00     0.194 HD
BRANCH  18  20
HETATM   20  O2  UNL     1       5.079   4.207  33.788  1.00  0.00    -0.289 OA
ATOM     21  H2  UNL     1       5.991   4.437  33.919  1.00  0.00     0.244 HD
ENDBRANCH  18  20
ENDBRANCH  10  18
BRANCH  11  22
HETATM   22  C1  UNL     1       3.174   1.192  34.187  1.00  0.00     0.356 C 
BRANCH  22  23
HETATM   23  N1  UNL     1       3.491   0.840  35.571  1.00  0.00    -0.049 N 
ATOM     24  H13 UNL     1       2.676   0.882  36.183  1.00  0.00     0.277 HD
ATOM     25  H12 UNL     1       3.700  -0.153  35.685  1.00  0.00     0.277 HD
ATOM     26  H11 UNL     1       4.251   1.440  35.890  1.00  0.00     0.277 HD
ENDBRANCH  22  23
BRANCH  22  27
HETATM   27  O1  UNL     1       4.336   1.190  33.464  1.00  0.00    -0.366 OA
ATOM     28  H1  UNL     1       4.319   0.448  32.871  1.00  0.00     0.212 HD
ENDBRANCH  22  27
ENDBRANCH  11  22
BRANCH  12  29
HETATM   29  O14 UNL     1       0.942   1.263  32.827  1.00  0.00    -0.356 OA
ATOM     30  H14 UNL     1       1.383   1.288  31.987  1.00  0.00     0.218 HD
ENDBRANCH  12  29
ENDBRANCH   6   8
ENDBRANCH   1   6
BRANCH   5  31
HETATM   31  O12 UNL     1      -2.008   5.617  38.231  1.00  0.00    -0.388 OA
ATOM     32  H12 UNL     1      -2.539   5.296  38.951  1.00  0.00     0.210 HD
ENDBRANCH   5  31
BRANCH   3  33
HETATM   33  O5  UNL     1       1.058   3.533  40.385  1.00  0.00    -0.326 OA
BRANCH  33  34
HETATM   34  C8  UNL     1       0.798   2.645  39.383  1.00  0.00     0.294 C 
HETATM   35  O6  UNL     1      -0.295   1.819  39.636  1.00  0.00    -0.348 OA
HETATM   36  C9  UNL     1      -0.707   1.313  38.384  1.00  0.00     0.179 C 
HETATM   37  C11 UNL     1       0.337   0.381  37.814  1.00  0.00     0.180 C 
HETATM   38  C12 UNL     1       1.552   0.366  38.713  1.00  0.00     0.183 C 
HETATM   39  C13 UNL     1       1.980   1.737  39.124  1.00  0.00     0.204 C 
BRANCH  36  40
HETATM   40  C10 UNL     1      -2.068   0.707  38.471  1.00  0.00     0.198 C 
BRANCH  40  41
HETATM   41  O7  UNL     1      -2.274  -0.016  37.281  1.00  0.00    -0.398 OA
ATOM     42  H7  UNL     1      -2.249   0.610  36.567  1.00  0.00     0.209 HD
ENDBRANCH  40  41
ENDBRANCH  36  40
BRANCH  37  43
HETATM   43  O8  UNL     1       0.760   0.777  36.546  1.00  0.00    -0.390 OA
ATOM     44  H8  UNL     1       1.627   0.450  36.339  1.00  0.00     0.210 HD
ENDBRANCH  37  43
BRANCH  38  45
HETATM   45  O9  UNL     1       1.201  -0.376  39.853  1.00  0.00    -0.390 OA
ATOM     46  H9  UNL     1       0.598  -1.051  39.565  1.00  0.00     0.210 HD
ENDBRANCH  38  45
BRANCH  39  47
HETATM   47  O10 UNL     1       2.735   2.313  38.086  1.00  0.00    -0.388 OA
ATOM     48  H10 UNL     1       2.349   2.035  37.264  1.00  0.00     0.210 HD
ENDBRANCH  39  47
ENDBRANCH  33  34
ENDBRANCH   3  33
BRANCH   4  49
HETATM   49  O11 UNL     1      -1.372   4.377  40.265  1.00  0.00    -0.388 OA
ATOM     50  H11 UNL     1      -1.707   4.005  39.458  1.00  0.00     0.210 HD
ENDBRANCH   4  49
TORSDOF 18
ENDMDL
MODEL 2
REMARK VINA RESULT: -6.870234254      2.243      6.325
REMARK  18 active torsions:
REMARK  status: ('A' for Active; 'I' for Inactive)
REMARK    1  A    between atoms: N1_1  and  C1_5 
REMARK    2  A    between atoms: C1_5  and  O1_6 
REMARK    3  A    between atoms: C1_5  and  C2_8 
REMARK    4  A    between atoms: C3_9  and  N2_10 
REMARK    5  A    between atoms: N2_10  and  O2_12 
REMARK    6  A    between atoms: C4_14  and  O3_15 
REMARK    7  A    between atoms: C5_17  and  N3_18 
REMARK    8  A    between atoms: N3_18  and  C6_20 
REMARK    9  A    between atoms: C7_22  and  O5_23 
REMARK   10  A    between atoms: O5_23  and  C8_24 
REMARK   11  A    between atoms: C9_26  and  C10_27 
REMARK   12  A    between atoms: C10_27  and  O7_28 
REMARK   13  A    between atoms: C11_30  and  O8_31 
REMARK   14  A    between atoms: C12_33  and  O9_34 
REMARK   15  A    between atoms: C13_36  and  O10_37 
REMARK   16  A    between atoms: C14_39  and  O11_40 
REMARK   17  A    between atoms: C15_42  and  O12_43 
REMARK   18  A    between atoms: C18_48  and  O14_49 
ROOT
HETATM    1  C6  UNL     1       1.702   1.268  39.015  1.00  0.00     0.256 C 
HETATM    2  O4  UNL     1       2.653   1.659  38.082  1.00  0.00    -0.332 OA
HETATM    3  C7  UNL     1       2.888   0.585  37.270  1.00  0.00     0.297 C 
HETATM    4  C14 UNL     1       2.474  -0.653  37.967  1.00  0.00     0.206 C 
HETATM    5  C15 UNL     1       1.988  -0.180  39.306  1.00  0.00     0.200 C 
ENDROOT
BRANCH   1   6
HETATM    6  N3  UNL     1       1.520   2.107  40.135  1.00  0.00    -0.359 N 
ATOM      7  H3  UNL     1       2.142   1.959  40.929  1.00  0.00     0.162 HD
BRANCH   6   8
HETATM    8  C5  UNL     1       0.557   3.134  40.259  1.00  0.00     0.070 C 
HETATM    9  C4  UNL     1       0.460   4.017  39.170  1.00  0.00     0.121 C 
HETATM   10  C3  UNL     1      -0.674   4.644  38.674  1.00  0.00     0.103 C 
HETATM   11  C2  UNL     1      -1.941   4.618  39.190  1.00  0.00     0.066 C 
HETATM   12  C18 UNL     1      -2.277   4.347  40.517  1.00  0.00     0.129 C 
HETATM   13  C17 UNL     1      -1.492   3.719  41.473  1.00  0.00     0.207 C 
HETATM   14  C16 UNL     1      -0.205   3.187  41.407  1.00  0.00     0.089 C 
HETATM   15  O13 UNL     1      -2.009   3.595  42.605  1.00  0.00    -0.285 OA
BRANCH   9  16
HETATM   16  O3  UNL     1       1.626   4.299  38.511  1.00  0.00    -0.356 OA
ATOM     17  H3  UNL     1       2.345   3.700  38.677  1.00  0.00     0.218 HD
ENDBRANCH   9  16
BRANCH  10  18
HETATM   18  N2  UNL     1      -0.507   5.402  37.490  1.00  0.00    -0.266 N 
ATOM     19  H2  UNL     1      -1.000   5.145  36.635  1.00  0.00     0.194 HD
BRANCH  18  20
HETATM   20  O2  UNL     1       0.322   6.474  37.512  1.00  0.00    -0.289 OA
ATOM     21  H2  UNL     1       0.925   6.602  36.790  1.00  0.00     0.244 HD
ENDBRANCH  18  20
ENDBRANCH  10  18
BRANCH  11  22
HETATM   22  C1  UNL     1      -3.107   4.888  38.345  1.00  0.00     0.356 C 
BRANCH  22  23
HETATM   23  N1  UNL     1      -3.110   3.887  37.278  1.00  0.00    -0.049 N 
ATOM     24  H13 UNL     1      -4.044   3.526  37.082  1.00  0.00     0.277 HD
ATOM     25  H12 UNL     1      -2.921   4.292  36.361  1.00  0.00     0.277 HD
ATOM     26  H11 UNL     1      -2.450   3.151  37.525  1.00  0.00     0.277 HD
ENDBRANCH  22  23
BRANCH  22  27
HETATM   27  O1  UNL     1      -3.165   6.130  37.773  1.00  0.00    -0.366 OA
ATOM     28  H1  UNL     1      -2.305   6.529  37.835  1.00  0.00     0.212 HD
ENDBRANCH  22  27
ENDBRANCH  11  22
BRANCH  12  29
HETATM   29  O14 UNL     1      -3.545   4.757  40.920  1.00  0.00    -0.356 OA
ATOM     30  H14 UNL     1      -4.182   4.875  40.226  1.00  0.00     0.218 HD
ENDBRANCH  12  29
ENDBRANCH   6   8
ENDBRANCH   1   6
BRANCH   5  31
HETATM   31  O12 UNL     1       0.826  -0.861  39.700  1.00  0.00    -0.388 OA
ATOM     32  H12 UNL     1       0.533  -1.465  39.028  1.00  0.00     0.210 HD
ENDBRANCH   5  31
BRANCH   3  33
HETATM   33  O5  UNL     1       2.315   0.730  36.007  1.00  0.00    -0.326 OA
BRANCH  33  34
HETATM   34  C8  UNL     1       2.042   2.036  35.726  1.00  0.00     0.294 C 
HETATM   35  O6  UNL     1       1.076   2.207  34.737  1.00  0.00    -0.348 OA
HETATM   36  C9  UNL     1       0.586   3.523  34.886  1.00  0.00     0.179 C 
HETATM   37  C11 UNL     1       1.654   4.534  34.538  1.00  0.00     0.180 C 
HETATM   38  C12 UNL     1       2.954   3.821  34.246  1.00  0.00     0.183 C 
HETATM   39  C13 UNL     1       3.278   2.775  35.261  1.00  0.00     0.204 C 
BRANCH  36  40
HETATM   40  C10 UNL     1      -0.686   3.710  34.129  1.00  0.00     0.198 C 
BRANCH  40  41
HETATM   41  O7  UNL     1      -1.410   4.725  34.784  1.00  0.00    -0.398 OA
ATOM     42  H7  UNL     1      -1.781   4.339  35.569  1.00  0.00     0.209 HD
ENDBRANCH  40  41
ENDBRANCH  36  40
BRANCH  37  43
HETATM   43  O8  UNL     1       1.892   5.427  35.582  1.00  0.00    -0.390 OA
ATOM     44  H8  UNL     1       2.190   6.273  35.268  1.00  0.00     0.210 HD
ENDBRANCH  37  43
BRANCH  38  45
HETATM   45  O9  UNL     1       2.810   3.220  32.984  1.00  0.00    -0.390 OA
ATOM     46  H9  UNL     1       3.430   2.500  32.952  1.00  0.00     0.210 HD
ENDBRANCH  38  45
BRANCH  39  47
HETATM   47  O10 UNL     1       3.851   3.391  36.389  1.00  0.00    -0.388 OA
ATOM     48  H10 UNL     1       4.426   4.079  36.077  1.00  0.00     0.210 HD
ENDBRANCH  39  47
ENDBRANCH  33  34
ENDBRANCH   3  33
BRANCH   4  49
HETATM   49  O11 UNL     1       1.391  -1.273  37.336  1.00  0.00    -0.388 OA
ATOM     50  H11 UNL     1       1.460  -1.235  36.390  1.00  0.00     0.210 HD
ENDBRANCH   4  49
TORSDOF 18
ENDMDL
MODEL 3
REMARK VINA RESULT: -6.825781416      2.124      6.452
REMARK  18 active torsions:
REMARK  status: ('A' for Active; 'I' for Inactive)
REMARK    1  A    between atoms: N1_1  and  C1_5 
REMARK    2  A    between atoms: C1_5  and  O1_6 
REMARK    3  A    between atoms: C1_5  and  C2_8 
REMARK    4  A    between atoms: C3_9  and  N2_10 
REMARK    5  A    between atoms: N2_10  and  O2_12 
REMARK    6  A    between atoms: C4_14  and  O3_15 
REMARK    7  A    between atoms: C5_17  and  N3_18 
REMARK    8  A    between atoms: N3_18  and  C6_20 
REMARK    9  A    between atoms: C7_22  and  O5_23 
REMARK   10  A    between atoms: O5_23  and  C8_24 
REMARK   11  A    between atoms: C9_26  and  C10_27 
REMARK   12  A    between atoms: C10_27  and  O7_28 
REMARK   13  A    between atoms: C11_30  and  O8_31 
REMARK   14  A    between atoms: C12_33  and  O9_34 
REMARK   15  A    between atoms: C13_36  and  O10_37 
REMARK   16  A    between atoms: C14_39  and  O11_40 
REMARK   17  A    between atoms: C15_42  and  O12_43 
REMARK   18  A    between atoms: C18_48  and  O14_49 
ROOT
HETATM    1  C6  UNL     1       2.263   1.640  37.663  1.00  0.00     0.256 C 
HETATM    2  O4  UNL     1       2.967   1.792  36.477  1.00  0.00    -0.332 OA
HETATM    3  C7  UNL     1       2.665   0.719  35.686  1.00  0.00     0.297 C 
HETATM    4  C14 UNL     1       2.164  -0.385  36.534  1.00  0.00     0.206 C 
HETATM    5  C15 UNL     1       2.232   0.159  37.932  1.00  0.00     0.200 C 
ENDROOT
BRANCH   1   6
HETATM    6  N3  UNL     1       2.642   2.464  38.745  1.00  0.00    -0.359 N 
ATOM      7  H3  UNL     1       3.642   2.574  38.913  1.00  0.00     0.162 HD
BRANCH   6   8
HETATM    8  C5  UNL     1       1.767   3.152  39.616  1.00  0.00     0.070 C 
HETATM    9  C4  UNL     1       1.077   4.240  39.056  1.00  0.00     0.121 C 
HETATM   10  C3  UNL     1      -0.209   4.677  39.341  1.00  0.00     0.103 C 
HETATM   11  C2  UNL     1      -1.063   4.205  40.300  1.00  0.00     0.066 C 
HETATM   12  C18 UNL     1      -0.691   3.517  41.457  1.00  0.00     0.129 C 
HETATM   13  C17 UNL     1       0.511   2.870  41.703  1.00  0.00     0.207 C 
HETATM   14  C16 UNL     1       1.650   2.709  40.916  1.00  0.00     0.089 C 
HETATM   15  O13 UNL     1       0.616   2.327  42.825  1.00  0.00    -0.285 OA
BRANCH   9  16
HETATM   16  O3  UNL     1       1.750   4.964  38.110  1.00  0.00    -0.356 OA
ATOM     17  H3  UNL     1       2.688   5.040  38.242  1.00  0.00     0.218 HD
ENDBRANCH   9  16
BRANCH  10  18
HETATM   18  N2  UNL     1      -0.702   5.739  38.546  1.00  0.00    -0.266 N 
ATOM     19  H2  UNL     1      -1.245   5.548  37.704  1.00  0.00     0.194 HD
BRANCH  18  20
HETATM   20  O2  UNL     1      -0.441   7.015  38.924  1.00  0.00    -0.289 OA
ATOM     21  H2  UNL     1      -1.161   7.630  38.988  1.00  0.00     0.244 HD
ENDBRANCH  18  20
ENDBRANCH  10  18
BRANCH  11  22
HETATM   22  C1  UNL     1      -2.510   4.394  40.183  1.00  0.00     0.356 C 
BRANCH  22  23
HETATM   23  N1  UNL     1      -3.094   3.090  39.868  1.00  0.00    -0.049 N 
ATOM     24  H13 UNL     1      -2.986   2.839  38.886  1.00  0.00     0.277 HD
ATOM     25  H12 UNL     1      -2.563   2.316  40.269  1.00  0.00     0.277 HD
ATOM     26  H11 UNL     1      -4.069   3.093  40.167  1.00  0.00     0.277 HD
ENDBRANCH  22  23
BRANCH  22  27
HETATM   27  O1  UNL     1      -2.928   5.293  39.239  1.00  0.00    -0.366 OA
ATOM     28  H1  UNL     1      -2.941   4.858  38.396  1.00  0.00     0.212 HD
ENDBRANCH  22  27
ENDBRANCH  11  22
BRANCH  12  29
HETATM   29  O14 UNL     1      -1.641   3.481  42.474  1.00  0.00    -0.356 OA
ATOM     30  H14 UNL     1      -1.755   4.287  42.963  1.00  0.00     0.218 HD
ENDBRANCH  12  29
ENDBRANCH   6   8
ENDBRANCH   1   6
BRANCH   5  31
HETATM   31  O12 UNL     1       1.101  -0.200  38.679  1.00  0.00    -0.388 OA
ATOM     32  H12 UNL     1       1.345  -0.582  39.514  1.00  0.00     0.210 HD
ENDBRANCH   5  31
BRANCH   3  33
HETATM   33  O5  UNL     1       1.806   1.047  34.638  1.00  0.00    -0.326 OA
BRANCH  33  34
HETATM   34  C8  UNL     1       1.103   2.186  34.903  1.00  0.00     0.294 C 
HETATM   35  O6  UNL     1      -0.215   1.954  35.288  1.00  0.00    -0.348 OA
HETATM   36  C9  UNL     1      -0.646   3.125  35.949  1.00  0.00     0.179 C 
HETATM   37  C11 UNL     1      -0.742   4.280  34.981  1.00  0.00     0.180 C 
HETATM   38  C12 UNL     1      -0.238   3.851  33.623  1.00  0.00     0.183 C 
HETATM   39  C13 UNL     1       1.051   3.101  33.699  1.00  0.00     0.204 C 
BRANCH  36  40
HETATM   40  C10 UNL     1      -1.903   2.877  36.714  1.00  0.00     0.198 C 
BRANCH  40  41
HETATM   41  O7  UNL     1      -2.595   4.101  36.777  1.00  0.00    -0.398 OA
ATOM     42  H7  UNL     1      -3.062   4.115  37.604  1.00  0.00     0.209 HD
ENDBRANCH  40  41
ENDBRANCH  36  40
BRANCH  37  43
HETATM   43  O8  UNL     1       0.026   5.371  35.386  1.00  0.00    -0.390 OA
ATOM     44  H8  UNL     1      -0.336   6.196  35.085  1.00  0.00     0.210 HD
ENDBRANCH  37  43
BRANCH  38  45
HETATM   45  O9  UNL     1      -1.229   3.024  33.068  1.00  0.00    -0.390 OA
ATOM     46  H9  UNL     1      -1.714   3.557  32.449  1.00  0.00     0.210 HD
ENDBRANCH  38  45
BRANCH  39  47
HETATM   47  O10 UNL     1       2.111   4.018  33.819  1.00  0.00    -0.388 OA
ATOM     48  H10 UNL     1       2.269   4.385  32.957  1.00  0.00     0.210 HD
ENDBRANCH  39  47
ENDBRANCH  33  34
ENDBRANCH   3  33
BRANCH   4  49
HETATM   49  O11 UNL     1       0.821  -0.678  36.277  1.00  0.00    -0.388 OA
ATOM     50  H11 UNL     1       0.513  -1.418  36.787  1.00  0.00     0.210 HD
ENDBRANCH   4  49
TORSDOF 18
ENDMDL
MODEL 4
REMARK VINA RESULT: -6.757039072      2.776      6.243
REMARK  18 active torsions:
REMARK  status: ('A' for Active; 'I' for Inactive)
REMARK    1  A    between atoms: N1_1  and  C1_5 
REMARK    2  A    between atoms: C1_5  and  O1_6 
REMARK    3  A    between atoms: C1_5  and  C2_8 
REMARK    4  A    between atoms: C3_9  and  N2_10 
REMARK    5  A    between atoms: N2_10  and  O2_12 
REMARK    6  A    between atoms: C4_14  and  O3_15 
REMARK    7  A    between atoms: C5_17  and  N3_18 
REMARK    8  A    between atoms: N3_18  and  C6_20 
REMARK    9  A    between atoms: C7_22  and  O5_23 
REMARK   10  A    between atoms: O5_23  and  C8_24 
REMARK   11  A    between atoms: C9_26  and  C10_27 
REMARK   12  A    between atoms: C10_27  and  O7_28 
REMARK   13  A    between atoms: C11_30  and  O8_31 
REMARK   14  A    between atoms: C12_33  and  O9_34 
REMARK   15  A    between atoms: C13_36  and  O10_37 
REMARK   16  A    between atoms: C14_39  and  O11_40 
REMARK   17  A    between atoms: C15_42  and  O12_43 
REMARK   18  A    between atoms: C18_48  and  O14_49 
ROOT
HETATM    1  C6  UNL     1      -0.102   2.769  35.991  1.00  0.00     0.256 C 
HETATM    2  O4  UNL     1       1.278   2.627  36.035  1.00  0.00    -0.332 OA
HETATM    3  C7  UNL     1       1.820   3.790  35.568  1.00  0.00     0.297 C 
HETATM    4  C14 UNL     1       0.813   4.504  34.750  1.00  0.00     0.206 C 
HETATM    5  C15 UNL     1      -0.387   3.603  34.770  1.00  0.00     0.200 C 
ENDROOT
BRANCH   1   6
HETATM    6  N3  UNL     1      -0.874   1.597  36.141  1.00  0.00    -0.359 N 
ATOM      7  H3  UNL     1      -0.663   0.821  35.513  1.00  0.00     0.162 HD
BRANCH   6   8
HETATM    8  C5  UNL     1      -1.911   1.396  37.081  1.00  0.00     0.070 C 
HETATM    9  C4  UNL     1      -1.513   1.336  38.427  1.00  0.00     0.121 C 
HETATM   10  C3  UNL     1      -2.202   1.785  39.544  1.00  0.00     0.103 C 
HETATM   11  C2  UNL     1      -3.467   2.303  39.599  1.00  0.00     0.066 C 
HETATM   12  C18 UNL     1      -4.478   2.089  38.660  1.00  0.00     0.129 C 
HETATM   13  C17 UNL     1      -4.335   1.638  37.357  1.00  0.00     0.207 C 
HETATM   14  C16 UNL     1      -3.205   1.287  36.620  1.00  0.00     0.089 C 
HETATM   15  O13 UNL     1      -5.395   1.515  36.704  1.00  0.00    -0.285 OA
BRANCH   9  16
HETATM   16  O3  UNL     1      -0.294   0.765  38.675  1.00  0.00    -0.356 OA
ATOM     17  H3  UNL     1      -0.315  -0.048  39.167  1.00  0.00     0.218 HD
ENDBRANCH   9  16
BRANCH  10  18
HETATM   18  N2  UNL     1      -1.518   1.700  40.781  1.00  0.00    -0.266 N 
ATOM     19  H2  UNL     1      -1.315   2.541  41.321  1.00  0.00     0.194 HD
BRANCH  18  20
HETATM   20  O2  UNL     1      -1.137   0.480  41.235  1.00  0.00    -0.289 OA
ATOM     21  H2  UNL     1      -1.786  -0.078  41.646  1.00  0.00     0.244 HD
ENDBRANCH  18  20
ENDBRANCH  10  18
BRANCH  11  22
HETATM   22  C1  UNL     1      -3.882   3.170  40.704  1.00  0.00     0.356 C 
BRANCH  22  23
HETATM   23  N1  UNL     1      -4.824   2.408  41.522  1.00  0.00    -0.049 N 
ATOM     24  H13 UNL     1      -5.794   2.684  41.364  1.00  0.00     0.277 HD
ATOM     25  H12 UNL     1      -4.905   1.436  41.225  1.00  0.00     0.277 HD
ATOM     26  H11 UNL     1      -4.547   2.497  42.500  1.00  0.00     0.277 HD
ENDBRANCH  22  23
BRANCH  22  27
HETATM   27  O1  UNL     1      -4.473   4.355  40.353  1.00  0.00    -0.366 OA
ATOM     28  H1  UNL     1      -4.006   5.061  40.783  1.00  0.00     0.212 HD
ENDBRANCH  22  27
ENDBRANCH  11  22
BRANCH  12  29
HETATM   29  O14 UNL     1      -5.773   2.361  39.090  1.00  0.00    -0.356 OA
ATOM     30  H14 UNL     1      -6.375   2.671  38.423  1.00  0.00     0.218 HD
ENDBRANCH  12  29
ENDBRANCH   6   8
ENDBRANCH   1   6
BRANCH   5  31
HETATM   31  O12 UNL     1      -1.576   4.333  34.916  1.00  0.00    -0.388 OA
ATOM     32  H12 UNL     1      -1.434   5.260  34.760  1.00  0.00     0.210 HD
ENDBRANCH   5  31
BRANCH   3  33
HETATM   33  O5  UNL     1       2.368   4.574  36.582  1.00  0.00    -0.326 OA
BRANCH  33  34
HETATM   34  C8  UNL     1       1.910   4.198  37.810  1.00  0.00     0.294 C 
HETATM   35  O6  UNL     1       1.175   5.186  38.461  1.00  0.00    -0.348 OA
HETATM   36  C9  UNL     1       0.411   4.526  39.449  1.00  0.00     0.179 C 
HETATM   37  C11 UNL     1       1.306   3.960  40.527  1.00  0.00     0.180 C 
HETATM   38  C12 UNL     1       2.754   4.180  40.155  1.00  0.00     0.183 C 
HETATM   39  C13 UNL     1       3.045   3.817  38.735  1.00  0.00     0.204 C 
BRANCH  36  40
HETATM   40  C10 UNL     1      -0.670   5.411  39.971  1.00  0.00     0.198 C 
BRANCH  40  41
HETATM   41  O7  UNL     1      -0.622   6.605  39.228  1.00  0.00    -0.398 OA
ATOM     42  H7  UNL     1      -0.424   7.305  39.838  1.00  0.00     0.209 HD
ENDBRANCH  40  41
ENDBRANCH  36  40
BRANCH  37  43
HETATM   43  O8  UNL     1       1.122   2.589  40.696  1.00  0.00    -0.390 OA
ATOM     44  H8  UNL     1       1.900   2.161  41.033  1.00  0.00     0.210 HD
ENDBRANCH  37  43
BRANCH  38  45
HETATM   45  O9  UNL     1       3.018   5.545  40.353  1.00  0.00    -0.390 OA
ATOM     46  H9  UNL     1       2.225   6.014  40.119  1.00  0.00     0.210 HD
ENDBRANCH  38  45
BRANCH  39  47
HETATM   47  O10 UNL     1       3.216   2.424  38.642  1.00  0.00    -0.388 OA
ATOM     48  H10 UNL     1       2.856   2.039  39.433  1.00  0.00     0.210 HD
ENDBRANCH  39  47
ENDBRANCH  33  34
ENDBRANCH   3  33
BRANCH   4  49
HETATM   49  O11 UNL     1       0.424   5.713  35.334  1.00  0.00    -0.388 OA
ATOM     50  H11 UNL     1      -0.506   5.734  35.524  1.00  0.00     0.210 HD
ENDBRANCH   4  49
TORSDOF 18
ENDMDL
MODEL 5
REMARK VINA RESULT: -6.738329647      1.711      3.287
REMARK  18 active torsions:
REMARK  status: ('A' for Active; 'I' for Inactive)
REMARK    1  A    between atoms: N1_1  and  C1_5 
REMARK    2  A    between atoms: C1_5  and  O1_6 
REMARK    3  A    between atoms: C1_5  and  C2_8 
REMARK    4  A    between atoms: C3_9  and  N2_10 
REMARK    5  A    between atoms: N2_10  and  O2_12 
REMARK    6  A    between atoms: C4_14  and  O3_15 
REMARK    7  A    between atoms: C5_17  and  N3_18 
REMARK    8  A    between atoms: N3_18  and  C6_20 
REMARK    9  A    between atoms: C7_22  and  O5_23 
REMARK   10  A    between atoms: O5_23  and  C8_24 
REMARK   11  A    between atoms: C9_26  and  C10_27 
REMARK   12  A    between atoms: C10_27  and  O7_28 
REMARK   13  A    between atoms: C11_30  and  O8_31 
REMARK   14  A    between atoms: C12_33  and  O9_34 
REMARK   15  A    between atoms: C13_36  and  O10_37 
REMARK   16  A    between atoms: C14_39  and  O11_40 
REMARK   17  A    between atoms: C15_42  and  O12_43 
REMARK   18  A    between atoms: C18_48  and  O14_49 
ROOT
HETATM    1  C6  UNL     1      -1.126   3.029  36.078  1.00  0.00     0.256 C 
HETATM    2  O4  UNL     1      -1.442   4.171  36.803  1.00  0.00    -0.332 OA
HETATM    3  C7  UNL     1      -1.934   3.761  38.010  1.00  0.00     0.297 C 
HETATM    4  C14 UNL     1      -2.411   2.365  37.893  1.00  0.00     0.206 C 
HETATM    5  C15 UNL     1      -2.164   2.007  36.456  1.00  0.00     0.200 C 
ENDROOT
BRANCH   1   6
HETATM    6  N3  UNL     1      -0.882   3.193  34.698  1.00  0.00    -0.359 N 
ATOM      7  H3  UNL     1      -1.619   3.634  34.148  1.00  0.00     0.162 HD
BRANCH   6   8
HETATM    8  C5  UNL     1       0.287   2.803  34.006  1.00  0.00     0.070 C 
HETATM    9  C4  UNL     1       1.344   3.728  34.023  1.00  0.00     0.121 C 
HETATM   10  C3  UNL     1       2.708   3.469  34.053  1.00  0.00     0.103 C 
HETATM   11  C2  UNL     1       3.334   2.255  33.976  1.00  0.00     0.066 C 
HETATM   12  C18 UNL     1       2.796   1.094  33.419  1.00  0.00     0.129 C 
HETATM   13  C17 UNL     1       1.460   0.820  33.167  1.00  0.00     0.207 C 
HETATM   14  C16 UNL     1       0.307   1.571  33.388  1.00  0.00     0.089 C 
HETATM   15  O13 UNL     1       1.221  -0.294  32.651  1.00  0.00    -0.285 OA
BRANCH   9  16
HETATM   16  O3  UNL     1       0.995   5.051  34.011  1.00  0.00    -0.356 OA
ATOM     17  H3  UNL     1       0.281   5.281  33.429  1.00  0.00     0.218 HD
ENDBRANCH   9  16
BRANCH  10  18
HETATM   18  N2  UNL     1       3.558   4.594  34.178  1.00  0.00    -0.266 N 
ATOM     19  H2  UNL     1       4.295   4.766  33.494  1.00  0.00     0.194 HD
BRANCH  18  20
HETATM   20  O2  UNL     1       3.377   5.437  35.224  1.00  0.00    -0.289 OA
ATOM     21  H2  UNL     1       2.956   6.274  35.070  1.00  0.00     0.244 HD
ENDBRANCH  18  20
ENDBRANCH  10  18
BRANCH  11  22
HETATM   22  C1  UNL     1       4.689   2.069  34.499  1.00  0.00     0.356 C 
BRANCH  22  23
HETATM   23  N1  UNL     1       4.598   1.122  35.610  1.00  0.00    -0.049 N 
ATOM     24  H13 UNL     1       4.469   1.584  36.510  1.00  0.00     0.277 HD
ATOM     25  H12 UNL     1       3.728   0.589  35.601  1.00  0.00     0.277 HD
ATOM     26  H11 UNL     1       5.424   0.524  35.592  1.00  0.00     0.277 HD
ENDBRANCH  22  23
BRANCH  22  27
HETATM   27  O1  UNL     1       5.326   3.196  34.943  1.00  0.00    -0.366 OA
ATOM     28  H1  UNL     1       5.088   3.918  34.374  1.00  0.00     0.212 HD
ENDBRANCH  22  27
ENDBRANCH  11  22
BRANCH  12  29
HETATM   29  O14 UNL     1       3.712   0.102  33.079  1.00  0.00    -0.356 OA
ATOM     30  H14 UNL     1       3.461  -0.787  33.298  1.00  0.00     0.218 HD
ENDBRANCH  12  29
ENDBRANCH   6   8
ENDBRANCH   1   6
BRANCH   5  31
HETATM   31  O12 UNL     1      -1.665   0.702  36.330  1.00  0.00    -0.388 OA
ATOM     32  H12 UNL     1      -1.020   0.512  37.001  1.00  0.00     0.210 HD
ENDBRANCH   5  31
BRANCH   3  33
HETATM   33  O5  UNL     1      -1.029   3.953  39.053  1.00  0.00    -0.326 OA
BRANCH  33  34
HETATM   34  C8  UNL     1       0.249   3.672  38.668  1.00  0.00     0.294 C 
HETATM   35  O6  UNL     1       0.811   2.587  39.337  1.00  0.00    -0.348 OA
HETATM   36  C9  UNL     1       1.892   2.148  38.541  1.00  0.00     0.179 C 
HETATM   37  C11 UNL     1       2.994   3.182  38.520  1.00  0.00     0.180 C 
HETATM   38  C12 UNL     1       2.550   4.416  39.269  1.00  0.00     0.183 C 
HETATM   39  C13 UNL     1       1.170   4.850  38.895  1.00  0.00     0.204 C 
BRANCH  36  40
HETATM   40  C10 UNL     1       2.350   0.791  38.960  1.00  0.00     0.198 C 
BRANCH  40  41
HETATM   41  O7  UNL     1       3.532   0.517  38.247  1.00  0.00    -0.398 OA
ATOM     42  H7  UNL     1       4.258   0.783  38.799  1.00  0.00     0.209 HD
ENDBRANCH  40  41
ENDBRANCH  36  40
BRANCH  37  43
HETATM   43  O8  UNL     1       3.322   3.574  37.223  1.00  0.00    -0.390 OA
ATOM     44  H8  UNL     1       4.227   3.381  37.009  1.00  0.00     0.210 HD
ENDBRANCH  37  43
BRANCH  38  45
HETATM   45  O9  UNL     1       2.584   4.094  40.636  1.00  0.00    -0.390 OA
ATOM     46  H9  UNL     1       2.622   4.917  41.110  1.00  0.00     0.210 HD
ENDBRANCH  38  45
BRANCH  39  47
HETATM   47  O10 UNL     1       1.227   5.580  37.694  1.00  0.00    -0.388 OA
ATOM     48  H10 UNL     1       0.874   6.445  37.869  1.00  0.00     0.210 HD
ENDBRANCH  39  47
ENDBRANCH  33  34
ENDBRANCH   3  33
BRANCH   4  49
HETATM   49  O11 UNL     1      -1.651   1.483  38.668  1.00  0.00    -0.388 OA
ATOM     50  H11 UNL     1      -1.560   0.633  38.255  1.00  0.00     0.210 HD
ENDBRANCH   4  49
TORSDOF 18
ENDMDL
