MODEL 1
REMARK VINA RESULT: -7.282152387      0.000      0.000
REMARK  16 active torsions:
REMARK  status: ('A' for Active; 'I' for Inactive)
REMARK    1  A    between atoms: N1_1  and  C1_5 
REMARK    2  A    between atoms: C1_5  and  C2_6 
REMARK    3  A    between atoms: C3_10  and  C4_11 
REMARK    4  A    between atoms: C6_16  and  N4_17 
REMARK    5  A    between atoms: N4_17  and  C7_19 
REMARK    6  A    between atoms: C8_22  and  N7_23 
REMARK    7  A    between atoms: C9_30  and  C10_31 
REMARK    8  A    between atoms: C10_31  and  O3_32 
REMARK    9  A    between atoms: C10_31  and  C11_34 
REMARK   10  A    between atoms: C11_34  and  O4_35 
REMARK   11  A    between atoms: C11_34  and  C12_37 
REMARK   12  A    between atoms: C12_37  and  O5_38 
REMARK   13  A    between atoms: C12_37  and  C13_40 
REMARK   14  A    between atoms: C13_40  and  O6_41 
REMARK   15  A    between atoms: N11_49  and  O7_51 
REMARK   16  A    between atoms: N12_54  and  O8_56 
ROOT
HETATM    1  C4  UNL     1       2.073   1.350  37.800  1.00  0.00     0.155 A 
HETATM    2  O1  UNL     1       2.076   0.474  38.792  1.00  0.00    -0.235 OA
HETATM    3  N3  UNL     1       2.931  -0.468  38.601  1.00  0.00    -0.255 N 
ATOM      4  H3  UNL     1       3.107  -1.251  39.231  1.00  0.00     0.195 HD
HETATM    5  C5  UNL     1       3.548  -0.247  37.440  1.00  0.00     0.128 A 
HETATM    6  C6  UNL     1       4.534  -0.921  36.751  1.00  0.00     0.137 A 
HETATM    7  N8  UNL     1       4.933  -0.407  35.575  1.00  0.00    -0.328 N 
ATOM      8  H8  UNL     1       5.661  -0.888  35.047  1.00  0.00     0.169 HD
HETATM    9  C9  UNL     1       4.400   0.728  35.071  1.00  0.00     0.115 A 
HETATM   10  N9  UNL     1       3.440   1.393  35.734  1.00  0.00    -0.340 N 
ATOM     11  H9  UNL     1       3.043   2.249  35.347  1.00  0.00     0.167 HD
HETATM   12  C14 UNL     1       3.016   0.921  36.899  1.00  0.00     0.102 A 
ENDROOT
BRANCH   1  13
HETATM   13  C3  UNL     1       1.175   2.506  37.812  1.00  0.00     0.349 C 
HETATM   14  N2  UNL     1       1.971   3.709  37.653  1.00  0.00    -0.036 N 
HETATM   15  C2  UNL     1       1.217   4.914  37.585  1.00  0.00     0.269 C 
ATOM     16  H22 UNL     1       2.580   3.625  36.839  1.00  0.00     0.281 HD
ATOM     17  H21 UNL     1       2.672   3.771  38.391  1.00  0.00     0.281 HD
HETATM   18  C16 UNL     1      -0.241   4.768  37.639  1.00  0.00     0.109 C 
HETATM   19  C15 UNL     1      -0.830   3.579  37.007  1.00  0.00     0.149 C 
HETATM   20  N12 UNL     1      -1.016   5.647  38.220  1.00  0.00    -0.267 N 
HETATM   21  N10 UNL     1       0.074   2.454  36.902  1.00  0.00    -0.340 N 
HETATM   22  N11 UNL     1      -2.033   3.557  36.594  1.00  0.00    -0.251 N 
ATOM     23  H10 UNL     1      -0.062   1.692  36.238  1.00  0.00     0.163 HD
ATOM     24  H11 UNL     1      -2.421   2.720  36.158  1.00  0.00     0.196 HD
ATOM     25  H12 UNL     1      -2.029   5.531  38.249  1.00  0.00     0.194 HD
BRANCH  15  26
HETATM   26  C1  UNL     1       1.572   5.588  36.258  1.00  0.00     0.269 C 
BRANCH  26  27
HETATM   27  N1  UNL     1       2.917   5.328  35.847  1.00  0.00    -0.077 N 
ATOM     28  H13 UNL     1       3.441   6.197  35.739  1.00  0.00     0.274 HD
ATOM     29  H12 UNL     1       3.455   4.904  36.603  1.00  0.00     0.274 HD
ATOM     30  H11 UNL     1       2.969   4.762  35.000  1.00  0.00     0.274 HD
ENDBRANCH  26  27
ENDBRANCH  15  26
BRANCH  22  31
HETATM   31  O7  UNL     1      -2.796   4.685  36.747  1.00  0.00    -0.288 OA
ATOM     32  H7  UNL     1      -3.647   4.717  36.326  1.00  0.00     0.244 HD
ENDBRANCH  22  31
BRANCH  20  33
HETATM   33  O8  UNL     1      -0.398   6.731  38.789  1.00  0.00    -0.290 OA
ATOM     34  H8  UNL     1      -0.868   7.172  39.487  1.00  0.00     0.244 HD
ENDBRANCH  20  33
ENDBRANCH   1  13
BRANCH   6  35
HETATM   35  N4  UNL     1       5.117  -2.134  37.270  1.00  0.00    -0.334 N 
ATOM     36  H4  UNL     1       4.599  -3.009  37.181  1.00  0.00     0.165 HD
BRANCH  35  37
HETATM   37  C7  UNL     1       6.399  -2.150  37.906  1.00  0.00     0.341 C 
HETATM   38  N5  UNL     1       7.189  -1.057  37.409  1.00  0.00    -0.091 NA
HETATM   39  N6  UNL     1       7.856  -1.511  36.287  1.00  0.00    -0.084 NA
HETATM   40  C8  UNL     1       7.827  -2.938  36.388  1.00  0.00     0.434 C 
HETATM   41  O2  UNL     1       7.154  -3.268  37.561  1.00  0.00    -0.305 OA
BRANCH  40  42
HETATM   42  N7  UNL     1       9.174  -3.458  36.471  1.00  0.00    -0.037 N 
ATOM     43  H73 UNL     1       9.591  -3.584  35.549  1.00  0.00     0.279 HD
ATOM     44  H72 UNL     1       9.828  -2.767  36.839  1.00  0.00     0.279 HD
ATOM     45  H71 UNL     1       9.184  -4.321  37.015  1.00  0.00     0.279 HD
ENDBRANCH  40  42
ENDBRANCH  35  37
ENDBRANCH   6  35
BRANCH   9  46
HETATM   46  C10 UNL     1       4.852   1.292  33.761  1.00  0.00     0.217 C 
BRANCH  46  47
HETATM   47  O3  UNL     1       3.845   2.015  33.148  1.00  0.00    -0.385 OA
ATOM     48  H3  UNL     1       4.083   2.259  32.261  1.00  0.00     0.210 HD
ENDBRANCH  46  47
BRANCH  46  49
HETATM   49  C11 UNL     1       6.023   2.176  34.036  1.00  0.00     0.185 C 
BRANCH  49  50
HETATM   50  O4  UNL     1       5.636   3.516  34.099  1.00  0.00    -0.390 OA
ATOM     51  H4  UNL     1       5.652   3.916  33.238  1.00  0.00     0.210 HD
ENDBRANCH  49  50
BRANCH  49  52
HETATM   52  C12 UNL     1       7.156   2.054  33.072  1.00  0.00     0.173 C 
BRANCH  52  53
HETATM   53  O5  UNL     1       7.906   3.196  32.917  1.00  0.00    -0.391 OA
ATOM     54  H5  UNL     1       7.578   3.802  32.262  1.00  0.00     0.210 HD
ENDBRANCH  52  53
BRANCH  52  55
HETATM   55  C13 UNL     1       8.021   0.824  33.315  1.00  0.00     0.198 C 
BRANCH  55  56
HETATM   56  O6  UNL     1       9.371   1.201  33.155  1.00  0.00    -0.398 OA
ATOM     57  H6  UNL     1       9.600   1.783  33.870  1.00  0.00     0.209 HD
ENDBRANCH  55  56
ENDBRANCH  52  55
ENDBRANCH  49  52
ENDBRANCH  46  49
ENDBRANCH   9  46
TORSDOF 16
ENDMDL
MODEL 2
REMARK VINA RESULT: -7.148918752      2.206      4.576
REMARK  16 active torsions:
REMARK  status: ('A' for Active; 'I' for Inactive)
REMARK    1  A    between atoms: N1_1  and  C1_5 
REMARK    2  A    between atoms: C1_5  and  C2_6 
REMARK    3  A    between atoms: C3_10  and  C4_11 
REMARK    4  A    between atoms: C6_16  and  N4_17 
REMARK    5  A    between atoms: N4_17  and  C7_19 
REMARK    6  A    between atoms: C8_22  and  N7_23 
REMARK    7  A    between atoms: C9_30  and  C10_31 
REMARK    8  A    between atoms: C10_31  and  O3_32 
REMARK    9  A    between atoms: C10_31  and  C11_34 
REMARK   10  A    between atoms: C11_34  and  O4_35 
REMARK   11  A    between atoms: C11_34  and  C12_37 
REMARK   12  A    between atoms: C12_37  and  O5_38 
REMARK   13  A    between atoms: C12_37  and  C13_40 
REMARK   14  A    between atoms: C13_40  and  O6_41 
REMARK   15  A    between atoms: N11_49  and  O7_51 
REMARK   16  A    between atoms: N12_54  and  O8_56 
ROOT
HETATM    1  C4  UNL     1       2.232   3.950  35.865  1.00  0.00     0.155 A 
HETATM    2  O1  UNL     1       2.991   4.812  35.207  1.00  0.00    -0.235 OA
HETATM    3  N3  UNL     1       3.979   4.235  34.620  1.00  0.00    -0.255 N 
ATOM      4  H3  UNL     1       4.692   4.698  34.056  1.00  0.00     0.195 HD
HETATM    5  C5  UNL     1       3.911   2.927  34.872  1.00  0.00     0.128 A 
HETATM    6  C6  UNL     1       4.694   1.853  34.505  1.00  0.00     0.137 A 
HETATM    7  N8  UNL     1       4.330   0.637  34.949  1.00  0.00    -0.328 N 
ATOM      8  H8  UNL     1       4.893  -0.173  34.691  1.00  0.00     0.169 HD
HETATM    9  C9  UNL     1       3.240   0.455  35.727  1.00  0.00     0.115 A 
HETATM   10  N9  UNL     1       2.471   1.495  36.090  1.00  0.00    -0.340 N 
ATOM     11  H9  UNL     1       1.649   1.350  36.677  1.00  0.00     0.167 HD
HETATM   12  C14 UNL     1       2.793   2.713  35.674  1.00  0.00     0.102 A 
ENDROOT
BRANCH   1  13
HETATM   13  C3  UNL     1       1.050   4.394  36.606  1.00  0.00     0.349 C 
HETATM   14  N2  UNL     1      -0.114   3.720  36.062  1.00  0.00    -0.036 N 
HETATM   15  C2  UNL     1      -1.335   4.012  36.732  1.00  0.00     0.269 C 
ATOM     16  H22 UNL     1       0.042   2.713  36.031  1.00  0.00     0.281 HD
ATOM     17  H21 UNL     1      -0.203   3.915  35.064  1.00  0.00     0.281 HD
HETATM   18  C16 UNL     1      -1.239   4.904  37.892  1.00  0.00     0.109 C 
HETATM   19  C15 UNL     1      -0.030   4.813  38.723  1.00  0.00     0.149 C 
HETATM   20  N12 UNL     1      -2.178   5.760  38.201  1.00  0.00    -0.267 N 
HETATM   21  N10 UNL     1       1.127   4.288  38.030  1.00  0.00    -0.340 N 
HETATM   22  N11 UNL     1      -0.019   5.169  39.944  1.00  0.00    -0.251 N 
ATOM     23  H10 UNL     1       1.926   3.879  38.514  1.00  0.00     0.163 HD
ATOM     24  H11 UNL     1       0.832   5.096  40.502  1.00  0.00     0.196 HD
ATOM     25  H12 UNL     1      -2.096   6.374  39.012  1.00  0.00     0.194 HD
BRANCH  15  26
HETATM   26  C1  UNL     1      -1.910   2.678  37.213  1.00  0.00     0.269 C 
BRANCH  26  27
HETATM   27  N1  UNL     1      -3.340   2.656  37.207  1.00  0.00    -0.077 N 
ATOM     28  H13 UNL     1      -3.715   3.068  38.062  1.00  0.00     0.274 HD
ATOM     29  H12 UNL     1      -3.713   3.317  36.527  1.00  0.00     0.274 HD
ATOM     30  H11 UNL     1      -3.721   1.721  37.055  1.00  0.00     0.274 HD
ENDBRANCH  26  27
ENDBRANCH  15  26
BRANCH  22  31
HETATM   31  O7  UNL     1      -1.178   5.651  40.493  1.00  0.00    -0.288 OA
ATOM     32  H7  UNL     1      -1.990   5.194  40.310  1.00  0.00     0.244 HD
ENDBRANCH  22  31
BRANCH  20  33
HETATM   33  O8  UNL     1      -3.277   5.791  37.383  1.00  0.00    -0.290 OA
ATOM     34  H8  UNL     1      -3.669   4.955  37.162  1.00  0.00     0.244 HD
ENDBRANCH  20  33
ENDBRANCH   1  13
BRANCH   6  35
HETATM   35  N4  UNL     1       5.861   2.023  33.675  1.00  0.00    -0.334 N 
ATOM     36  H4  UNL     1       6.342   2.923  33.677  1.00  0.00     0.165 HD
BRANCH  35  37
HETATM   37  C7  UNL     1       6.367   0.970  32.849  1.00  0.00     0.341 C 
HETATM   38  N5  UNL     1       7.220   0.119  33.633  1.00  0.00    -0.091 NA
HETATM   39  N6  UNL     1       8.496   0.645  33.564  1.00  0.00    -0.084 NA
HETATM   40  C8  UNL     1       8.488   1.496  32.413  1.00  0.00     0.434 C 
HETATM   41  O2  UNL     1       7.217   1.435  31.848  1.00  0.00    -0.305 OA
BRANCH  40  42
HETATM   42  N7  UNL     1       9.446   1.024  31.439  1.00  0.00    -0.037 N 
ATOM     43  H73 UNL     1       9.212   0.093  31.094  1.00  0.00     0.279 HD
ATOM     44  H72 UNL     1       9.375   1.532  30.557  1.00  0.00     0.279 HD
ATOM     45  H71 UNL     1      10.389   1.062  31.826  1.00  0.00     0.279 HD
ENDBRANCH  40  42
ENDBRANCH  35  37
ENDBRANCH   6  35
BRANCH   9  46
HETATM   46  C10 UNL     1       2.843  -0.901  36.216  1.00  0.00     0.217 C 
BRANCH  46  47
HETATM   47  O3  UNL     1       2.942  -1.849  35.213  1.00  0.00    -0.385 OA
ATOM     48  H3  UNL     1       2.711  -2.714  35.529  1.00  0.00     0.210 HD
ENDBRANCH  46  47
BRANCH  46  49
HETATM   49  C11 UNL     1       3.753  -1.253  37.345  1.00  0.00     0.185 C 
BRANCH  49  50
HETATM   50  O4  UNL     1       4.260  -0.106  37.958  1.00  0.00    -0.390 OA
ATOM     51  H4  UNL     1       5.019   0.223  37.492  1.00  0.00     0.210 HD
ENDBRANCH  49  50
BRANCH  49  52
HETATM   52  C12 UNL     1       4.897  -2.145  36.989  1.00  0.00     0.173 C 
BRANCH  52  53
HETATM   53  O5  UNL     1       5.711  -1.668  35.989  1.00  0.00    -0.391 OA
ATOM     54  H5  UNL     1       6.581  -1.414  36.272  1.00  0.00     0.210 HD
ENDBRANCH  52  53
BRANCH  52  55
HETATM   55  C13 UNL     1       5.689  -2.619  38.201  1.00  0.00     0.198 C 
BRANCH  55  56
HETATM   56  O6  UNL     1       6.758  -1.723  38.401  1.00  0.00    -0.398 OA
ATOM     57  H6  UNL     1       6.538  -1.160  39.135  1.00  0.00     0.209 HD
ENDBRANCH  55  56
ENDBRANCH  52  55
ENDBRANCH  49  52
ENDBRANCH  46  49
ENDBRANCH   9  46
TORSDOF 16
ENDMDL
MODEL 3
REMARK VINA RESULT: -7.072747681      3.580      8.378
REMARK  16 active torsions:
REMARK  status: ('A' for Active; 'I' for Inactive)
REMARK    1  A    between atoms: N1_1  and  C1_5 
REMARK    2  A    between atoms: C1_5  and  C2_6 
REMARK    3  A    between atoms: C3_10  and  C4_11 
REMARK    4  A    between atoms: C6_16  and  N4_17 
REMARK    5  A    between atoms: N4_17  and  C7_19 
REMARK    6  A    between atoms: C8_22  and  N7_23 
REMARK    7  A    between atoms: C9_30  and  C10_31 
REMARK    8  A    between atoms: C10_31  and  O3_32 
REMARK    9  A    between atoms: C10_31  and  C11_34 
REMARK   10  A    between atoms: C11_34  and  O4_35 
REMARK   11  A    between atoms: C11_34  and  C12_37 
REMARK   12  A    between atoms: C12_37  and  O5_38 
REMARK   13  A    between atoms: C12_37  and  C13_40 
REMARK   14  A    between atoms: C13_40  and  O6_41 
REMARK   15  A    between atoms: N11_49  and  O7_51 
REMARK   16  A    between atoms: N12_54  and  O8_56 
ROOT
HETATM    1  C4  UNL     1       3.604   1.925  33.542  1.00  0.00     0.155 A 
HETATM    2  O1  UNL     1       4.776   2.188  34.099  1.00  0.00    -0.235 OA
HETATM    3  N3  UNL     1       4.651   2.620  35.303  1.00  0.00    -0.255 N 
ATOM      4  H3  UNL     1       5.416   2.885  35.924  1.00  0.00     0.195 HD
HETATM    5  C5  UNL     1       3.352   2.663  35.602  1.00  0.00     0.128 A 
HETATM    6  C6  UNL     1       2.655   3.039  36.731  1.00  0.00     0.137 A 
HETATM    7  N8  UNL     1       1.314   2.956  36.689  1.00  0.00    -0.328 N 
ATOM      8  H8  UNL     1       0.776   3.229  37.512  1.00  0.00     0.169 HD
HETATM    9  C9  UNL     1       0.656   2.523  35.591  1.00  0.00     0.115 A 
HETATM   10  N9  UNL     1       1.326   2.154  34.487  1.00  0.00    -0.340 N 
ATOM     11  H9  UNL     1       0.822   1.827  33.662  1.00  0.00     0.167 HD
HETATM   12  C14 UNL     1       2.651   2.219  34.484  1.00  0.00     0.102 A 
ENDROOT
BRANCH   1  13
HETATM   13  C3  UNL     1       3.513   1.420  32.171  1.00  0.00     0.349 C 
HETATM   14  N2  UNL     1       4.805   0.876  31.795  1.00  0.00    -0.036 N 
HETATM   15  C2  UNL     1       4.847   0.290  30.498  1.00  0.00     0.269 C 
ATOM     16  H22 UNL     1       5.126   0.208  32.496  1.00  0.00     0.281 HD
ATOM     17  H21 UNL     1       5.530   1.587  31.886  1.00  0.00     0.281 HD
HETATM   18  C16 UNL     1       3.584   0.278  29.753  1.00  0.00     0.109 C 
HETATM   19  C15 UNL     1       2.342   0.106  30.520  1.00  0.00     0.149 C 
HETATM   20  N12 UNL     1       3.532   0.413  28.454  1.00  0.00    -0.267 N 
HETATM   21  N10 UNL     1       2.440   0.514  31.906  1.00  0.00    -0.340 N 
HETATM   22  N11 UNL     1       1.282  -0.363  29.996  1.00  0.00    -0.251 N 
ATOM     23  H10 UNL     1       1.800   0.185  32.628  1.00  0.00     0.163 HD
ATOM     24  H11 UNL     1       0.432  -0.473  30.549  1.00  0.00     0.196 HD
ATOM     25  H12 UNL     1       2.646   0.402  27.950  1.00  0.00     0.194 HD
BRANCH  15  26
HETATM   26  C1  UNL     1       5.299  -1.161  30.679  1.00  0.00     0.269 C 
BRANCH  26  27
HETATM   27  N1  UNL     1       5.480  -1.518  32.052  1.00  0.00    -0.077 N 
ATOM     28  H13 UNL     1       5.625  -2.523  32.151  1.00  0.00     0.274 HD
ATOM     29  H12 UNL     1       6.379  -1.186  32.401  1.00  0.00     0.274 HD
ATOM     30  H11 UNL     1       4.716  -1.199  32.648  1.00  0.00     0.274 HD
ENDBRANCH  26  27
ENDBRANCH  15  26
BRANCH  22  31
HETATM   31  O7  UNL     1       1.310  -0.716  28.673  1.00  0.00    -0.288 OA
ATOM     32  H7  UNL     1       2.053  -0.445  28.148  1.00  0.00     0.244 HD
ENDBRANCH  22  31
BRANCH  20  33
HETATM   33  O8  UNL     1       4.729   0.569  27.802  1.00  0.00    -0.290 OA
ATOM     34  H8  UNL     1       4.740   0.365  26.875  1.00  0.00     0.244 HD
ENDBRANCH  20  33
ENDBRANCH   1  13
BRANCH   6  35
HETATM   35  N4  UNL     1       3.336   3.504  37.914  1.00  0.00    -0.334 N 
ATOM     36  H4  UNL     1       4.107   2.952  38.289  1.00  0.00     0.165 HD
BRANCH  35  37
HETATM   37  C7  UNL     1       2.963   4.716  38.578  1.00  0.00     0.341 C 
HETATM   38  N5  UNL     1       3.442   4.681  39.933  1.00  0.00    -0.091 NA
HETATM   39  N6  UNL     1       2.460   4.082  40.698  1.00  0.00    -0.084 NA
HETATM   40  C8  UNL     1       1.265   4.184  39.918  1.00  0.00     0.434 C 
HETATM   41  O2  UNL     1       1.585   4.840  38.733  1.00  0.00    -0.305 OA
BRANCH  40  42
HETATM   42  N7  UNL     1       0.276   4.968  40.623  1.00  0.00    -0.037 N 
ATOM     43  H73 UNL     1       0.182   4.678  41.596  1.00  0.00     0.279 HD
ATOM     44  H72 UNL     1       0.591   5.925  40.783  1.00  0.00     0.279 HD
ATOM     45  H71 UNL     1      -0.616   4.937  40.128  1.00  0.00     0.279 HD
ENDBRANCH  40  42
ENDBRANCH  35  37
ENDBRANCH   6  35
BRANCH   9  46
HETATM   46  C10 UNL     1      -0.836   2.435  35.555  1.00  0.00     0.217 C 
BRANCH  46  47
HETATM   47  O3  UNL     1      -1.320   1.635  36.574  1.00  0.00    -0.385 OA
ATOM     48  H3  UNL     1      -2.267   1.563  36.540  1.00  0.00     0.210 HD
ENDBRANCH  46  47
BRANCH  46  49
HETATM   49  C11 UNL     1      -1.369   3.822  35.695  1.00  0.00     0.185 C 
BRANCH  49  50
HETATM   50  O4  UNL     1      -0.576   4.737  35.002  1.00  0.00    -0.390 OA
ATOM     51  H4  UNL     1       0.095   5.103  35.565  1.00  0.00     0.210 HD
ENDBRANCH  49  50
BRANCH  49  52
HETATM   52  C12 UNL     1      -1.533   4.304  37.099  1.00  0.00     0.173 C 
BRANCH  52  53
HETATM   53  O5  UNL     1      -0.724   5.361  37.443  1.00  0.00    -0.391 OA
ATOM     54  H5  UNL     1      -0.288   5.783  36.712  1.00  0.00     0.210 HD
ENDBRANCH  52  53
BRANCH  52  55
HETATM   55  C13 UNL     1      -2.987   4.541  37.487  1.00  0.00     0.198 C 
BRANCH  55  56
HETATM   56  O6  UNL     1      -3.187   5.931  37.606  1.00  0.00    -0.398 OA
ATOM     57  H6  UNL     1      -2.559   6.368  37.043  1.00  0.00     0.209 HD
ENDBRANCH  55  56
ENDBRANCH  52  55
ENDBRANCH  49  52
ENDBRANCH  46  49
ENDBRANCH   9  46
TORSDOF 16
ENDMDL
MODEL 4
REMARK VINA RESULT: -7.062157013      2.341      5.074
REMARK  16 active torsions:
REMARK  status: ('A' for Active; 'I' for Inactive)
REMARK    1  A    between atoms: N1_1  and  C1_5 
REMARK    2  A    between atoms: C1_5  and  C2_6 
REMARK    3  A    between atoms: C3_10  and  C4_11 
REMARK    4  A    between atoms: C6_16  and  N4_17 
REMARK    5  A    between atoms: N4_17  and  C7_19 
REMARK    6  A    between atoms: C8_22  and  N7_23 
REMARK    7  A    between atoms: C9_30  and  C10_31 
REMARK    8  A    between atoms: C10_31  and  O3_32 
REMARK    9  A    between atoms: C10_31  and  C11_34 
REMARK   10  A    between atoms: C11_34  and  O4_35 
REMARK   11  A    between atoms: C11_34  and  C12_37 
REMARK   12  A    between atoms: C12_37  and  O5_38 
REMARK   13  A    between atoms: C12_37  and  C13_40 
REMARK   14  A    between atoms: C13_40  and  O6_41 
REMARK   15  A    between atoms: N11_49  and  O7_51 
REMARK   16  A    between atoms: N12_54  and  O8_56 
ROOT
HETATM    1  C4  UNL     1       2.233   3.973  35.906  1.00  0.00     0.155 A 
HETATM    2  O1  UNL     1       2.946   4.821  35.181  1.00  0.00    -0.235 OA
HETATM    3  N3  UNL     1       3.955   4.250  34.625  1.00  0.00    -0.255 N 
ATOM      4  H3  UNL     1       4.642   4.706  34.023  1.00  0.00     0.195 HD
HETATM    5  C5  UNL     1       3.951   2.962  34.969  1.00  0.00     0.128 A 
HETATM    6  C6  UNL     1       4.781   1.902  34.670  1.00  0.00     0.137 A 
HETATM    7  N8  UNL     1       4.477   0.705  35.201  1.00  0.00    -0.328 N 
ATOM      8  H8  UNL     1       5.076  -0.094  34.994  1.00  0.00     0.169 HD
HETATM    9  C9  UNL     1       3.403   0.528  36.001  1.00  0.00     0.115 A 
HETATM   10  N9  UNL     1       2.588   1.553  36.299  1.00  0.00    -0.340 N 
ATOM     11  H9  UNL     1       1.779   1.412  36.904  1.00  0.00     0.167 HD
HETATM   12  C14 UNL     1       2.851   2.753  35.796  1.00  0.00     0.102 A 
ENDROOT
BRANCH   1  13
HETATM   13  C3  UNL     1       1.037   4.413  36.627  1.00  0.00     0.349 C 
HETATM   14  N2  UNL     1      -0.115   3.730  36.067  1.00  0.00    -0.036 N 
HETATM   15  C2  UNL     1      -1.348   4.017  36.717  1.00  0.00     0.269 C 
ATOM     16  H22 UNL     1       0.048   2.723  36.043  1.00  0.00     0.281 HD
ATOM     17  H21 UNL     1      -0.188   3.920  35.067  1.00  0.00     0.281 HD
HETATM   18  C16 UNL     1      -1.275   4.914  37.875  1.00  0.00     0.109 C 
HETATM   19  C15 UNL     1      -0.079   4.833  38.724  1.00  0.00     0.149 C 
HETATM   20  N12 UNL     1      -2.224   5.765  38.166  1.00  0.00    -0.267 N 
HETATM   21  N10 UNL     1       1.092   4.313  38.052  1.00  0.00    -0.340 N 
HETATM   22  N11 UNL     1      -0.089   5.194  39.944  1.00  0.00    -0.251 N 
ATOM     23  H10 UNL     1       1.886   3.911  38.550  1.00  0.00     0.163 HD
ATOM     24  H11 UNL     1       0.753   5.129  40.515  1.00  0.00     0.196 HD
ATOM     25  H12 UNL     1      -2.158   6.383  38.975  1.00  0.00     0.194 HD
BRANCH  15  26
HETATM   26  C1  UNL     1      -1.922   2.681  37.193  1.00  0.00     0.269 C 
BRANCH  26  27
HETATM   27  N1  UNL     1      -3.352   2.661  37.197  1.00  0.00    -0.077 N 
ATOM     28  H13 UNL     1      -3.715   2.635  38.150  1.00  0.00     0.274 HD
ATOM     29  H12 UNL     1      -3.731   3.561  36.900  1.00  0.00     0.274 HD
ATOM     30  H11 UNL     1      -3.739   1.901  36.637  1.00  0.00     0.274 HD
ENDBRANCH  26  27
ENDBRANCH  15  26
BRANCH  22  31
HETATM   31  O7  UNL     1      -1.259   5.671  40.473  1.00  0.00    -0.288 OA
ATOM     32  H7  UNL     1      -1.655   5.199  41.196  1.00  0.00     0.244 HD
ENDBRANCH  22  31
BRANCH  20  33
HETATM   33  O8  UNL     1      -3.311   5.787  37.330  1.00  0.00    -0.290 OA
ATOM     34  H8  UNL     1      -3.886   6.540  37.396  1.00  0.00     0.244 HD
ENDBRANCH  20  33
ENDBRANCH   1  13
BRANCH   6  35
HETATM   35  N4  UNL     1       5.933   2.067  33.818  1.00  0.00    -0.334 N 
ATOM     36  H4  UNL     1       6.434   2.956  33.831  1.00  0.00     0.165 HD
BRANCH  35  37
HETATM   37  C7  UNL     1       6.396   1.025  32.954  1.00  0.00     0.341 C 
HETATM   38  N5  UNL     1       7.402   0.256  33.634  1.00  0.00    -0.091 NA
HETATM   39  N6  UNL     1       8.618   0.862  33.383  1.00  0.00    -0.084 NA
HETATM   40  C8  UNL     1       8.398   1.675  32.226  1.00  0.00     0.434 C 
HETATM   41  O2  UNL     1       7.072   1.514  31.838  1.00  0.00    -0.305 OA
BRANCH  40  42
HETATM   42  N7  UNL     1       9.249   1.238  31.141  1.00  0.00    -0.037 N 
ATOM     43  H73 UNL     1       8.760   1.247  30.246  1.00  0.00     0.279 HD
ATOM     44  H72 UNL     1       9.973   1.922  30.924  1.00  0.00     0.279 HD
ATOM     45  H71 UNL     1       9.641   0.320  31.352  1.00  0.00     0.279 HD
ENDBRANCH  40  42
ENDBRANCH  35  37
ENDBRANCH   6  35
BRANCH   9  46
HETATM   46  C10 UNL     1       3.074  -0.808  36.588  1.00  0.00     0.217 C 
BRANCH  46  47
HETATM   47  O3  UNL     1       3.942  -1.786  36.137  1.00  0.00    -0.385 OA
ATOM     48  H3  UNL     1       4.083  -2.455  36.796  1.00  0.00     0.210 HD
ENDBRANCH  46  47
BRANCH  46  49
HETATM   49  C11 UNL     1       3.171  -0.681  38.072  1.00  0.00     0.185 C 
BRANCH  49  50
HETATM   50  O4  UNL     1       3.776   0.524  38.434  1.00  0.00    -0.390 OA
ATOM     51  H4  UNL     1       4.720   0.471  38.351  1.00  0.00     0.210 HD
ENDBRANCH  49  50
BRANCH  49  52
HETATM   52  C12 UNL     1       3.885  -1.795  38.763  1.00  0.00     0.173 C 
BRANCH  52  53
HETATM   53  O5  UNL     1       5.225  -1.575  38.981  1.00  0.00    -0.391 OA
ATOM     54  H5  UNL     1       5.715  -1.311  38.211  1.00  0.00     0.210 HD
ENDBRANCH  52  53
BRANCH  52  55
HETATM   55  C13 UNL     1       3.169  -2.281  40.016  1.00  0.00     0.198 C 
BRANCH  55  56
HETATM   56  O6  UNL     1       2.059  -1.441  40.239  1.00  0.00    -0.398 OA
ATOM     57  H6  UNL     1       1.803  -1.065  39.404  1.00  0.00     0.209 HD
ENDBRANCH  55  56
ENDBRANCH  52  55
ENDBRANCH  49  52
ENDBRANCH  46  49
ENDBRANCH   9  46
TORSDOF 16
ENDMDL
MODEL 5
REMARK VINA RESULT: -7.020440338      2.469      5.166
REMARK  16 active torsions:
REMARK  status: ('A' for Active; 'I' for Inactive)
REMARK    1  A    between atoms: N1_1  and  C1_5 
REMARK    2  A    between atoms: C1_5  and  C2_6 
REMARK    3  A    between atoms: C3_10  and  C4_11 
REMARK    4  A    between atoms: C6_16  and  N4_17 
REMARK    5  A    between atoms: N4_17  and  C7_19 
REMARK    6  A    between atoms: C8_22  and  N7_23 
REMARK    7  A    between atoms: C9_30  and  C10_31 
REMARK    8  A    between atoms: C10_31  and  O3_32 
REMARK    9  A    between atoms: C10_31  and  C11_34 
REMARK   10  A    between atoms: C11_34  and  O4_35 
REMARK   11  A    between atoms: C11_34  and  C12_37 
REMARK   12  A    between atoms: C12_37  and  O5_38 
REMARK   13  A    between atoms: C12_37  and  C13_40 
REMARK   14  A    between atoms: C13_40  and  O6_41 
REMARK   15  A    between atoms: N11_49  and  O7_51 
REMARK   16  A    between atoms: N12_54  and  O8_56 
ROOT
HETATM    1  C4  UNL     1       2.244   3.977  35.801  1.00  0.00     0.155 A 
HETATM    2  O1  UNL     1       2.840   4.783  34.936  1.00  0.00    -0.235 OA
HETATM    3  N3  UNL     1       3.855   4.226  34.378  1.00  0.00    -0.255 N 
ATOM      4  H3  UNL     1       4.464   4.656  33.681  1.00  0.00     0.195 HD
HETATM    5  C5  UNL     1       3.977   2.990  34.865  1.00  0.00     0.128 A 
HETATM    6  C6  UNL     1       4.869   1.966  34.629  1.00  0.00     0.137 A 
HETATM    7  N8  UNL     1       4.697   0.821  35.312  1.00  0.00    -0.328 N 
ATOM      8  H8  UNL     1       5.344   0.049  35.155  1.00  0.00     0.169 HD
HETATM    9  C9  UNL     1       3.692   0.662  36.202  1.00  0.00     0.115 A 
HETATM   10  N9  UNL     1       2.818   1.653  36.439  1.00  0.00    -0.340 N 
ATOM     11  H9  UNL     1       2.062   1.525  37.111  1.00  0.00     0.167 HD
HETATM   12  C14 UNL     1       2.950   2.800  35.786  1.00  0.00     0.102 A 
ENDROOT
BRANCH   1  13
HETATM   13  C3  UNL     1       1.064   4.410  36.551  1.00  0.00     0.349 C 
HETATM   14  N2  UNL     1      -0.097   3.716  36.023  1.00  0.00    -0.036 N 
HETATM   15  C2  UNL     1      -1.315   3.996  36.703  1.00  0.00     0.269 C 
ATOM     16  H22 UNL     1       0.073   2.711  35.998  1.00  0.00     0.281 HD
ATOM     17  H21 UNL     1      -0.198   3.902  35.025  1.00  0.00     0.281 HD
HETATM   18  C16 UNL     1      -1.219   4.898  37.856  1.00  0.00     0.109 C 
HETATM   19  C15 UNL     1      -0.001   4.829  38.675  1.00  0.00     0.149 C 
HETATM   20  N12 UNL     1      -2.167   5.743  38.168  1.00  0.00    -0.267 N 
HETATM   21  N10 UNL     1       1.156   4.315  37.974  1.00  0.00    -0.340 N 
HETATM   22  N11 UNL     1       0.017   5.194  39.894  1.00  0.00    -0.251 N 
ATOM     23  H10 UNL     1       1.966   3.921  38.453  1.00  0.00     0.163 HD
ATOM     24  H11 UNL     1       0.874   5.138  40.443  1.00  0.00     0.196 HD
ATOM     25  H12 UNL     1      -2.085   6.364  38.974  1.00  0.00     0.194 HD
BRANCH  15  26
HETATM   26  C1  UNL     1      -1.866   2.658  37.199  1.00  0.00     0.269 C 
BRANCH  26  27
HETATM   27  N1  UNL     1      -3.296   2.607  37.182  1.00  0.00    -0.077 N 
ATOM     28  H13 UNL     1      -3.665   2.414  38.113  1.00  0.00     0.274 HD
ATOM     29  H12 UNL     1      -3.693   3.534  37.036  1.00  0.00     0.274 HD
ATOM     30  H11 UNL     1      -3.660   1.941  36.500  1.00  0.00     0.274 HD
ENDBRANCH  26  27
ENDBRANCH  15  26
BRANCH  22  31
HETATM   31  O7  UNL     1      -1.143   5.665  40.451  1.00  0.00    -0.288 OA
ATOM     32  H7  UNL     1      -1.086   6.174  41.251  1.00  0.00     0.244 HD
ENDBRANCH  22  31
BRANCH  20  33
HETATM   33  O8  UNL     1      -3.275   5.754  37.360  1.00  0.00    -0.290 OA
ATOM     34  H8  UNL     1      -3.462   4.954  36.882  1.00  0.00     0.244 HD
ENDBRANCH  20  33
ENDBRANCH   1  13
BRANCH   6  35
HETATM   35  N4  UNL     1       5.949   2.113  33.684  1.00  0.00    -0.334 N 
ATOM     36  H4  UNL     1       6.380   3.030  33.565  1.00  0.00     0.165 HD
BRANCH  35  37
HETATM   37  C7  UNL     1       6.435   1.014  32.907  1.00  0.00     0.341 C 
HETATM   38  N5  UNL     1       7.462   0.329  33.644  1.00  0.00    -0.091 NA
HETATM   39  N6  UNL     1       8.662   0.941  33.338  1.00  0.00    -0.084 NA
HETATM   40  C8  UNL     1       8.420   1.650  32.119  1.00  0.00     0.434 C 
HETATM   41  O2  UNL     1       7.096   1.425  31.752  1.00  0.00    -0.305 OA
BRANCH  40  42
HETATM   42  N7  UNL     1       9.278   1.144  31.071  1.00  0.00    -0.037 N 
ATOM     43  H73 UNL     1       9.015   0.202  30.784  1.00  0.00     0.279 HD
ATOM     44  H72 UNL     1       9.118   1.621  30.183  1.00  0.00     0.279 HD
ATOM     45  H71 UNL     1      10.254   1.196  31.361  1.00  0.00     0.279 HD
ENDBRANCH  40  42
ENDBRANCH  35  37
ENDBRANCH   6  35
BRANCH   9  46
HETATM   46  C10 UNL     1       3.509  -0.616  36.957  1.00  0.00     0.217 C 
BRANCH  46  47
HETATM   47  O3  UNL     1       3.106  -0.381  38.259  1.00  0.00    -0.385 OA
ATOM     48  H3  UNL     1       2.701  -1.150  38.642  1.00  0.00     0.210 HD
ENDBRANCH  46  47
BRANCH  46  49
HETATM   49  C11 UNL     1       2.475  -1.416  36.237  1.00  0.00     0.185 C 
BRANCH  49  50
HETATM   50  O4  UNL     1       2.288  -0.942  34.937  1.00  0.00    -0.390 OA
ATOM     51  H4  UNL     1       1.488  -0.435  34.870  1.00  0.00     0.210 HD
ENDBRANCH  49  50
BRANCH  49  52
HETATM   52  C12 UNL     1       1.144  -1.493  36.909  1.00  0.00     0.173 C 
BRANCH  52  53
HETATM   53  O5  UNL     1       0.314  -0.423  36.668  1.00  0.00    -0.391 OA
ATOM     54  H5  UNL     1       0.211   0.173  37.400  1.00  0.00     0.210 HD
ENDBRANCH  52  53
BRANCH  52  55
HETATM   55  C13 UNL     1       0.441  -2.827  36.700  1.00  0.00     0.198 C 
BRANCH  55  56
HETATM   56  O6  UNL     1       0.492  -3.137  35.325  1.00  0.00    -0.398 OA
ATOM     57  H6  UNL     1       1.296  -2.776  34.972  1.00  0.00     0.209 HD
ENDBRANCH  55  56
ENDBRANCH  52  55
ENDBRANCH  49  52
ENDBRANCH  46  49
ENDBRANCH   9  46
TORSDOF 16
ENDMDL
