MODEL 1
REMARK VINA RESULT: -6.817856399      0.000      0.000
REMARK  19 active torsions:
REMARK  status: ('A' for Active; 'I' for Inactive)
REMARK    1  A    between atoms: C2_2  and  C3_4 
REMARK    2  A    between atoms: C6_8  and  O3_9 
REMARK    3  A    between atoms: C7_11  and  O4_12 
REMARK    4  A    between atoms: C8_14  and  C9_15 
REMARK    5  A    between atoms: C9_15  and  O5_16 
REMARK    6  A    between atoms: C9_15  and  O6_18 
REMARK    7  A    between atoms: O6_18  and  C10_19 
REMARK    8  A    between atoms: C11_21  and  C12_22 
REMARK    9  A    between atoms: C12_22  and  O8_23 
REMARK   10  A    between atoms: C13_25  and  O9_26 
REMARK   11  A    between atoms: C13_25  and  C14_28 
REMARK   12  A    between atoms: C14_28  and  O10_29 
REMARK   13  A    between atoms: C15_31  and  O11_32 
REMARK   14  A    between atoms: O11_32  and  C16_33 
REMARK   15  A    between atoms: C17_37  and  N2_38 
REMARK   16  A    between atoms: N2_38  and  N3_39 
REMARK   17  A    between atoms: C18_42  and  O12_43 
REMARK   18  A    between atoms: C18_42  and  O13_45 
REMARK   19  A    between atoms: C19_47  and  O14_48 
ROOT
HETATM    1  C10 UNL     1       0.007   3.517  37.123  1.00  0.00     0.296 C 
HETATM    2  O7  UNL     1       1.332   3.249  36.726  1.00  0.00    -0.348 OA
HETATM    3  C11 UNL     1       1.438   3.649  35.408  1.00  0.00     0.187 C 
HETATM    4  C13 UNL     1       0.004   3.761  34.853  1.00  0.00     0.137 C 
HETATM    5  C15 UNL     1      -0.709   2.965  35.898  1.00  0.00     0.218 C 
ENDROOT
BRANCH   1   6
HETATM    6  O6  UNL     1      -0.100   4.852  37.314  1.00  0.00    -0.325 OA
BRANCH   6   7
HETATM    7  C9  UNL     1       0.301   5.354  38.547  1.00  0.00     0.298 C 
BRANCH   7   8
HETATM    8  C8  UNL     1      -0.221   4.645  39.687  1.00  0.00     0.050 A 
HETATM    9  C3  UNL     1       0.465   3.831  40.521  1.00  0.00     0.073 A 
HETATM   10  C4  UNL     1      -0.142   3.181  41.635  1.00  0.00     0.189 A 
HETATM   11  O2  UNL     1       0.476   2.394  42.458  1.00  0.00    -0.287 OA
HETATM   12  C5  UNL     1      -1.508   3.403  41.866  1.00  0.00     0.095 A 
HETATM   13  C6  UNL     1      -2.206   4.223  41.030  1.00  0.00     0.103 A 
HETATM   14  C7  UNL     1      -1.604   4.838  39.965  1.00  0.00     0.111 A 
BRANCH   9  15
HETATM   15  C2  UNL     1       1.871   3.544  40.339  1.00  0.00     0.160 C 
HETATM   16  C1  UNL     1       2.403   2.359  39.595  1.00  0.00     0.097 C 
HETATM   17  O1  UNL     1       2.742   4.293  40.809  1.00  0.00    -0.293 OA
ENDBRANCH   9  15
BRANCH  13  18
HETATM   18  O3  UNL     1      -3.569   4.443  41.263  1.00  0.00    -0.358 OA
ATOM     19  H3  UNL     1      -4.194   4.274  40.568  1.00  0.00     0.217 HD
ENDBRANCH  13  18
BRANCH  14  20
HETATM   20  O4  UNL     1      -2.270   5.676  39.091  1.00  0.00    -0.357 OA
ATOM     21  H4  UNL     1      -2.958   6.274  39.359  1.00  0.00     0.217 HD
ENDBRANCH  14  20
ENDBRANCH   7   8
BRANCH   7  22
HETATM   22  O5  UNL     1      -0.304   6.669  38.640  1.00  0.00    -0.367 OA
ATOM     23  H5  UNL     1      -0.409   6.940  37.735  1.00  0.00     0.213 HD
ENDBRANCH   7  22
ENDBRANCH   6   7
ENDBRANCH   1   6
BRANCH   5  24
HETATM   24  O11 UNL     1      -2.055   3.034  35.962  1.00  0.00    -0.343 OA
BRANCH  24  25
HETATM   25  C16 UNL     1      -2.480   2.356  37.112  1.00  0.00     0.358 C 
HETATM   26  N1  UNL     1      -3.584   3.053  37.746  1.00  0.00    -0.021 N 
HETATM   27  C17 UNL     1      -3.990   2.111  38.766  1.00  0.00     0.364 C 
ATOM     28  H12 UNL     1      -3.364   3.990  38.087  1.00  0.00     0.282 HD
ATOM     29  H11 UNL     1      -4.326   3.352  37.114  1.00  0.00     0.282 HD
HETATM   30  C18 UNL     1      -4.111   0.850  37.921  1.00  0.00     0.236 C 
HETATM   31  C19 UNL     1      -2.979   0.985  36.900  1.00  0.00     0.240 C 
BRANCH  27  32
HETATM   32  N2  UNL     1      -5.233   2.471  39.387  1.00  0.00    -0.109 NA
BRANCH  32  33
HETATM   33  N3  UNL     1      -5.213   1.931  40.690  1.00  0.00    -0.346 N 
ATOM     34  H32 UNL     1      -5.335   0.947  40.929  1.00  0.00     0.172 HD
ATOM     35  H31 UNL     1      -5.054   2.709  41.331  1.00  0.00     0.172 HD
ENDBRANCH  32  33
ENDBRANCH  27  32
BRANCH  30  36
HETATM   36  O12 UNL     1      -3.955  -0.229  38.761  1.00  0.00    -0.361 OA
ATOM     37  H12 UNL     1      -3.610   0.095  39.584  1.00  0.00     0.213 HD
ENDBRANCH  30  36
BRANCH  30  38
HETATM   38  O13 UNL     1      -5.286   0.832  37.203  1.00  0.00    -0.361 OA
ATOM     39  H13 UNL     1      -5.162   1.164  36.322  1.00  0.00     0.213 HD
ENDBRANCH  30  38
BRANCH  31  40
HETATM   40  O14 UNL     1      -2.040  -0.000  37.267  1.00  0.00    -0.386 OA
ATOM     41  H14 UNL     1      -2.408  -0.665  37.838  1.00  0.00     0.210 HD
ENDBRANCH  31  40
ENDBRANCH  24  25
ENDBRANCH   5  24
BRANCH   3  42
HETATM   42  C12 UNL     1       2.196   4.933  35.242  1.00  0.00     0.199 C 
BRANCH  42  43
HETATM   43  O8  UNL     1       2.992   5.207  36.348  1.00  0.00    -0.398 OA
ATOM     44  H8  UNL     1       2.733   6.013  36.777  1.00  0.00     0.209 HD
ENDBRANCH  42  43
ENDBRANCH   3  42
BRANCH   4  45
HETATM   45  O9  UNL     1      -0.362   5.110  34.847  1.00  0.00    -0.382 OA
ATOM     46  H9  UNL     1      -0.130   5.488  35.687  1.00  0.00     0.210 HD
ENDBRANCH   4  45
BRANCH   4  47
HETATM   47  C14 UNL     1      -0.018   3.192  33.474  1.00  0.00     0.207 C 
BRANCH  47  48
HETATM   48  O10 UNL     1      -1.320   3.188  32.975  1.00  0.00    -0.398 OA
ATOM     49  H10 UNL     1      -1.476   2.398  32.472  1.00  0.00     0.209 HD
ENDBRANCH  47  48
ENDBRANCH   4  47
TORSDOF 19
ENDMDL
MODEL 2
REMARK VINA RESULT: -6.803017605      3.335      6.714
REMARK  19 active torsions:
REMARK  status: ('A' for Active; 'I' for Inactive)
REMARK    1  A    between atoms: C2_2  and  C3_4 
REMARK    2  A    between atoms: C6_8  and  O3_9 
REMARK    3  A    between atoms: C7_11  and  O4_12 
REMARK    4  A    between atoms: C8_14  and  C9_15 
REMARK    5  A    between atoms: C9_15  and  O5_16 
REMARK    6  A    between atoms: C9_15  and  O6_18 
REMARK    7  A    between atoms: O6_18  and  C10_19 
REMARK    8  A    between atoms: C11_21  and  C12_22 
REMARK    9  A    between atoms: C12_22  and  O8_23 
REMARK   10  A    between atoms: C13_25  and  O9_26 
REMARK   11  A    between atoms: C13_25  and  C14_28 
REMARK   12  A    between atoms: C14_28  and  O10_29 
REMARK   13  A    between atoms: C15_31  and  O11_32 
REMARK   14  A    between atoms: O11_32  and  C16_33 
REMARK   15  A    between atoms: C17_37  and  N2_38 
REMARK   16  A    between atoms: N2_38  and  N3_39 
REMARK   17  A    between atoms: C18_42  and  O12_43 
REMARK   18  A    between atoms: C18_42  and  O13_45 
REMARK   19  A    between atoms: C19_47  and  O14_48 
ROOT
HETATM    1  C10 UNL     1      -1.297   2.196  36.359  1.00  0.00     0.296 C 
HETATM    2  O7  UNL     1      -2.591   2.333  36.899  1.00  0.00    -0.348 OA
HETATM    3  C11 UNL     1      -2.518   3.337  37.846  1.00  0.00     0.187 C 
HETATM    4  C13 UNL     1      -1.029   3.517  38.202  1.00  0.00     0.137 C 
HETATM    5  C15 UNL     1      -0.506   2.226  37.659  1.00  0.00     0.218 C 
ENDROOT
BRANCH   1   6
HETATM    6  O6  UNL     1      -1.091   3.240  35.522  1.00  0.00    -0.325 OA
BRANCH   6   7
HETATM    7  C9  UNL     1      -0.545   2.959  34.275  1.00  0.00     0.298 C 
BRANCH   7   8
HETATM    8  C8  UNL     1       0.879   3.152  34.180  1.00  0.00     0.050 A 
HETATM    9  C3  UNL     1       1.788   2.273  33.702  1.00  0.00     0.073 A 
HETATM   10  C4  UNL     1       3.182   2.564  33.638  1.00  0.00     0.189 A 
HETATM   11  O2  UNL     1       4.087   1.752  33.188  1.00  0.00    -0.287 OA
HETATM   12  C5  UNL     1       3.617   3.817  34.094  1.00  0.00     0.095 A 
HETATM   13  C6  UNL     1       2.707   4.709  34.578  1.00  0.00     0.103 A 
HETATM   14  C7  UNL     1       1.371   4.410  34.630  1.00  0.00     0.111 A 
BRANCH   9  15
HETATM   15  C2  UNL     1       1.417   0.958  33.226  1.00  0.00     0.160 C 
HETATM   16  C1  UNL     1       1.606   0.482  31.820  1.00  0.00     0.097 C 
HETATM   17  O1  UNL     1       0.903   0.124  33.989  1.00  0.00    -0.293 OA
ENDBRANCH   9  15
BRANCH  13  18
HETATM   18  O3  UNL     1       3.144   5.959  35.033  1.00  0.00    -0.358 OA
ATOM     19  H3  UNL     1       3.349   6.075  35.953  1.00  0.00     0.217 HD
ENDBRANCH  13  18
BRANCH  14  20
HETATM   20  O4  UNL     1       0.412   5.281  35.112  1.00  0.00    -0.357 OA
ATOM     21  H4  UNL     1      -0.233   5.041  35.767  1.00  0.00     0.217 HD
ENDBRANCH  14  20
ENDBRANCH   7   8
BRANCH   7  22
HETATM   22  O5  UNL     1      -1.098   3.959  33.381  1.00  0.00    -0.367 OA
ATOM     23  H5  UNL     1      -2.032   3.934  33.555  1.00  0.00     0.213 HD
ENDBRANCH   7  22
ENDBRANCH   6   7
ENDBRANCH   1   6
BRANCH   5  24
HETATM   24  O11 UNL     1       0.825   2.077  37.505  1.00  0.00    -0.343 OA
BRANCH  24  25
HETATM   25  C16 UNL     1       1.149   0.731  37.719  1.00  0.00     0.358 C 
HETATM   26  N1  UNL     1       1.907   0.196  36.603  1.00  0.00    -0.021 N 
HETATM   27  C17 UNL     1       2.301  -1.104  37.101  1.00  0.00     0.364 C 
ATOM     28  H12 UNL     1       1.413   0.185  35.711  1.00  0.00     0.282 HD
ATOM     29  H11 UNL     1       2.674   0.785  36.280  1.00  0.00     0.282 HD
HETATM   30  C18 UNL     1       2.881  -0.701  38.450  1.00  0.00     0.236 C 
HETATM   31  C19 UNL     1       1.984   0.453  38.903  1.00  0.00     0.240 C 
BRANCH  27  32
HETATM   32  N2  UNL     1       3.272  -1.746  36.260  1.00  0.00    -0.109 NA
BRANCH  32  33
HETATM   33  N3  UNL     1       3.694  -0.789  35.315  1.00  0.00    -0.346 N 
ATOM     34  H32 UNL     1       3.233   0.100  35.120  1.00  0.00     0.172 HD
ATOM     35  H31 UNL     1       4.536  -1.159  34.873  1.00  0.00     0.172 HD
ENDBRANCH  32  33
ENDBRANCH  27  32
BRANCH  30  36
HETATM   36  O12 UNL     1       2.808  -1.798  39.278  1.00  0.00    -0.361 OA
ATOM     37  H12 UNL     1       1.932  -1.824  39.642  1.00  0.00     0.213 HD
ENDBRANCH  30  36
BRANCH  30  38
HETATM   38  O13 UNL     1       4.150  -0.183  38.321  1.00  0.00    -0.361 OA
ATOM     39  H13 UNL     1       4.188   0.725  38.600  1.00  0.00     0.213 HD
ENDBRANCH  30  38
BRANCH  31  40
HETATM   40  O14 UNL     1       1.242  -0.066  39.983  1.00  0.00    -0.386 OA
ATOM     41  H14 UNL     1       1.785  -0.521  40.617  1.00  0.00     0.210 HD
ENDBRANCH  31  40
ENDBRANCH  24  25
ENDBRANCH   5  24
BRANCH   3  42
HETATM   42  C12 UNL     1      -3.135   4.625  37.386  1.00  0.00     0.199 C 
BRANCH  42  43
HETATM   43  O8  UNL     1      -3.053   5.612  38.362  1.00  0.00    -0.398 OA
ATOM     44  H8  UNL     1      -3.795   6.204  38.326  1.00  0.00     0.209 HD
ENDBRANCH  42  43
ENDBRANCH   3  42
BRANCH   4  45
HETATM   45  O9  UNL     1      -0.544   4.635  37.517  1.00  0.00    -0.382 OA
ATOM     46  H9  UNL     1      -0.366   5.320  38.150  1.00  0.00     0.210 HD
ENDBRANCH   4  45
BRANCH   4  47
HETATM   47  C14 UNL     1      -0.911   3.699  39.678  1.00  0.00     0.207 C 
BRANCH  47  48
HETATM   48  O10 UNL     1      -0.454   2.524  40.273  1.00  0.00    -0.398 OA
ATOM     49  H10 UNL     1      -0.096   2.710  41.133  1.00  0.00     0.209 HD
ENDBRANCH  47  48
ENDBRANCH   4  47
TORSDOF 19
ENDMDL
MODEL 3
REMARK VINA RESULT: -6.774476826      4.221      6.356
REMARK  19 active torsions:
REMARK  status: ('A' for Active; 'I' for Inactive)
REMARK    1  A    between atoms: C2_2  and  C3_4 
REMARK    2  A    between atoms: C6_8  and  O3_9 
REMARK    3  A    between atoms: C7_11  and  O4_12 
REMARK    4  A    between atoms: C8_14  and  C9_15 
REMARK    5  A    between atoms: C9_15  and  O5_16 
REMARK    6  A    between atoms: C9_15  and  O6_18 
REMARK    7  A    between atoms: O6_18  and  C10_19 
REMARK    8  A    between atoms: C11_21  and  C12_22 
REMARK    9  A    between atoms: C12_22  and  O8_23 
REMARK   10  A    between atoms: C13_25  and  O9_26 
REMARK   11  A    between atoms: C13_25  and  C14_28 
REMARK   12  A    between atoms: C14_28  and  O10_29 
REMARK   13  A    between atoms: C15_31  and  O11_32 
REMARK   14  A    between atoms: O11_32  and  C16_33 
REMARK   15  A    between atoms: C17_37  and  N2_38 
REMARK   16  A    between atoms: N2_38  and  N3_39 
REMARK   17  A    between atoms: C18_42  and  O12_43 
REMARK   18  A    between atoms: C18_42  and  O13_45 
REMARK   19  A    between atoms: C19_47  and  O14_48 
ROOT
HETATM    1  C10 UNL     1       1.834   3.877  34.922  1.00  0.00     0.296 C 
HETATM    2  O7  UNL     1       1.169   4.002  33.687  1.00  0.00    -0.348 OA
HETATM    3  C11 UNL     1       0.504   2.810  33.475  1.00  0.00     0.187 C 
HETATM    4  C13 UNL     1       1.142   1.763  34.408  1.00  0.00     0.137 C 
HETATM    5  C15 UNL     1       2.413   2.483  34.725  1.00  0.00     0.218 C 
ENDROOT
BRANCH   1   6
HETATM    6  O6  UNL     1       0.907   3.994  35.900  1.00  0.00    -0.325 OA
BRANCH   6   7
HETATM    7  C9  UNL     1       1.201   4.844  36.960  1.00  0.00     0.298 C 
BRANCH   7   8
HETATM    8  C8  UNL     1       0.344   4.697  38.109  1.00  0.00     0.050 A 
HETATM    9  C3  UNL     1       0.729   4.585  39.400  1.00  0.00     0.073 A 
HETATM   10  C4  UNL     1      -0.201   4.455  40.473  1.00  0.00     0.189 A 
HETATM   11  O2  UNL     1       0.124   4.344  41.723  1.00  0.00    -0.287 OA
HETATM   12  C5  UNL     1      -1.568   4.445  40.164  1.00  0.00     0.095 A 
HETATM   13  C6  UNL     1      -1.965   4.558  38.864  1.00  0.00     0.103 A 
HETATM   14  C7  UNL     1      -1.055   4.682  37.848  1.00  0.00     0.111 A 
BRANCH   9  15
HETATM   15  C2  UNL     1       2.121   4.574  39.795  1.00  0.00     0.160 C 
HETATM   16  C1  UNL     1       3.102   3.513  39.405  1.00  0.00     0.097 C 
HETATM   17  O1  UNL     1       2.592   5.477  40.503  1.00  0.00    -0.293 OA
ENDBRANCH   9  15
BRANCH  13  18
HETATM   18  O3  UNL     1      -3.332   4.548  38.559  1.00  0.00    -0.358 OA
ATOM     19  H3  UNL     1      -3.606   4.466  37.653  1.00  0.00     0.217 HD
ENDBRANCH  13  18
BRANCH  14  20
HETATM   20  O4  UNL     1      -1.409   4.800  36.517  1.00  0.00    -0.357 OA
ATOM     21  H4  UNL     1      -1.058   4.245  35.830  1.00  0.00     0.217 HD
ENDBRANCH  14  20
ENDBRANCH   7   8
BRANCH   7  22
HETATM   22  O5  UNL     1       0.912   6.179  36.471  1.00  0.00    -0.367 OA
ATOM     23  H5  UNL     1       1.769   6.568  36.341  1.00  0.00     0.213 HD
ENDBRANCH   7  22
ENDBRANCH   6   7
ENDBRANCH   1   6
BRANCH   5  24
HETATM   24  O11 UNL     1       3.171   2.044  35.750  1.00  0.00    -0.343 OA
BRANCH  24  25
HETATM   25  C16 UNL     1       4.502   1.969  35.319  1.00  0.00     0.358 C 
HETATM   26  N1  UNL     1       4.929   0.587  35.193  1.00  0.00    -0.021 N 
HETATM   27  C17 UNL     1       6.224   0.729  34.563  1.00  0.00     0.364 C 
ATOM     28  H12 UNL     1       4.928   0.054  36.063  1.00  0.00     0.282 HD
ATOM     29  H11 UNL     1       4.275  -0.024  34.704  1.00  0.00     0.282 HD
HETATM   30  C18 UNL     1       5.852   1.646  33.407  1.00  0.00     0.236 C 
HETATM   31  C19 UNL     1       4.783   2.567  34.001  1.00  0.00     0.240 C 
BRANCH  27  32
HETATM   32  N2  UNL     1       6.758  -0.526  34.112  1.00  0.00    -0.109 NA
BRANCH  32  33
HETATM   33  N3  UNL     1       8.007  -0.250  33.518  1.00  0.00    -0.346 N 
ATOM     34  H32 UNL     1       8.650   0.491  33.797  1.00  0.00     0.172 HD
ATOM     35  H31 UNL     1       8.135  -0.929  32.767  1.00  0.00     0.172 HD
ENDBRANCH  32  33
ENDBRANCH  27  32
BRANCH  30  36
HETATM   36  O12 UNL     1       6.992   2.318  33.026  1.00  0.00    -0.361 OA
ATOM     37  H12 UNL     1       6.887   3.227  33.281  1.00  0.00     0.213 HD
ENDBRANCH  30  36
BRANCH  30  38
HETATM   38  O13 UNL     1       5.246   0.953  32.384  1.00  0.00    -0.361 OA
ATOM     39  H13 UNL     1       4.299   0.998  32.443  1.00  0.00     0.213 HD
ENDBRANCH  30  38
BRANCH  31  40
HETATM   40  O14 UNL     1       5.404   3.829  34.096  1.00  0.00    -0.386 OA
ATOM     41  H14 UNL     1       6.333   3.798  33.902  1.00  0.00     0.210 HD
ENDBRANCH  31  40
ENDBRANCH  24  25
ENDBRANCH   5  24
BRANCH   3  42
HETATM   42  C12 UNL     1      -0.977   2.916  33.695  1.00  0.00     0.199 C 
BRANCH  42  43
HETATM   43  O8  UNL     1      -1.383   4.238  33.835  1.00  0.00    -0.398 OA
ATOM     44  H8  UNL     1      -1.649   4.614  33.005  1.00  0.00     0.209 HD
ENDBRANCH  42  43
ENDBRANCH   3  42
BRANCH   4  45
HETATM   45  O9  UNL     1       0.313   1.601  35.522  1.00  0.00    -0.382 OA
ATOM     46  H9  UNL     1      -0.260   2.356  35.582  1.00  0.00     0.210 HD
ENDBRANCH   4  45
BRANCH   4  47
HETATM   47  C14 UNL     1       1.289   0.482  33.657  1.00  0.00     0.207 C 
BRANCH  47  48
HETATM   48  O10 UNL     1       2.575   0.377  33.131  1.00  0.00    -0.398 OA
ATOM     49  H10 UNL     1       2.976  -0.439  33.406  1.00  0.00     0.209 HD
ENDBRANCH  47  48
ENDBRANCH   4  47
TORSDOF 19
ENDMDL
MODEL 4
REMARK VINA RESULT: -6.699798024      2.225      4.090
REMARK  19 active torsions:
REMARK  status: ('A' for Active; 'I' for Inactive)
REMARK    1  A    between atoms: C2_2  and  C3_4 
REMARK    2  A    between atoms: C6_8  and  O3_9 
REMARK    3  A    between atoms: C7_11  and  O4_12 
REMARK    4  A    between atoms: C8_14  and  C9_15 
REMARK    5  A    between atoms: C9_15  and  O5_16 
REMARK    6  A    between atoms: C9_15  and  O6_18 
REMARK    7  A    between atoms: O6_18  and  C10_19 
REMARK    8  A    between atoms: C11_21  and  C12_22 
REMARK    9  A    between atoms: C12_22  and  O8_23 
REMARK   10  A    between atoms: C13_25  and  O9_26 
REMARK   11  A    between atoms: C13_25  and  C14_28 
REMARK   12  A    between atoms: C14_28  and  O10_29 
REMARK   13  A    between atoms: C15_31  and  O11_32 
REMARK   14  A    between atoms: O11_32  and  C16_33 
REMARK   15  A    between atoms: C17_37  and  N2_38 
REMARK   16  A    between atoms: N2_38  and  N3_39 
REMARK   17  A    between atoms: C18_42  and  O12_43 
REMARK   18  A    between atoms: C18_42  and  O13_45 
REMARK   19  A    between atoms: C19_47  and  O14_48 
ROOT
HETATM    1  C10 UNL     1       0.971   1.749  36.100  1.00  0.00     0.296 C 
HETATM    2  O7  UNL     1       0.814   1.099  34.860  1.00  0.00    -0.348 OA
HETATM    3  C11 UNL     1       1.532   1.835  33.937  1.00  0.00     0.187 C 
HETATM    4  C13 UNL     1       1.775   3.225  34.556  1.00  0.00     0.137 C 
HETATM    5  C15 UNL     1       0.742   3.180  35.635  1.00  0.00     0.218 C 
ENDROOT
BRANCH   1   6
HETATM    6  O6  UNL     1       2.215   1.471  36.553  1.00  0.00    -0.325 OA
BRANCH   6   7
HETATM    7  C9  UNL     1       2.318   0.836  37.785  1.00  0.00     0.298 C 
BRANCH   7   8
HETATM    8  C8  UNL     1       1.912   1.635  38.913  1.00  0.00     0.050 A 
HETATM    9  C3  UNL     1       1.045   1.282  39.889  1.00  0.00     0.073 A 
HETATM   10  C4  UNL     1       0.715   2.143  40.976  1.00  0.00     0.189 A 
HETATM   11  O2  UNL     1      -0.109   1.846  41.931  1.00  0.00    -0.287 OA
HETATM   12  C5  UNL     1       1.321   3.407  41.024  1.00  0.00     0.095 A 
HETATM   13  C6  UNL     1       2.196   3.771  40.044  1.00  0.00     0.103 A 
HETATM   14  C7  UNL     1       2.500   2.928  39.008  1.00  0.00     0.111 A 
BRANCH   9  15
HETATM   15  C2  UNL     1       0.372   0.001  39.899  1.00  0.00     0.160 C 
HETATM   16  C1  UNL     1      -0.932  -0.275  39.218  1.00  0.00     0.097 C 
HETATM   17  O1  UNL     1       0.859  -0.972  40.496  1.00  0.00    -0.293 OA
ENDBRANCH   9  15
BRANCH  13  18
HETATM   18  O3  UNL     1       2.799   5.034  40.095  1.00  0.00    -0.358 OA
ATOM     19  H3  UNL     1       3.504   5.239  39.492  1.00  0.00     0.217 HD
ENDBRANCH  13  18
BRANCH  14  20
HETATM   20  O4  UNL     1       3.380   3.252  37.993  1.00  0.00    -0.357 OA
ATOM     21  H4  UNL     1       3.603   2.661  37.283  1.00  0.00     0.217 HD
ENDBRANCH  14  20
ENDBRANCH   7   8
BRANCH   7  22
HETATM   22  O5  UNL     1       3.739   0.629  37.992  1.00  0.00    -0.367 OA
ATOM     23  H5  UNL     1       4.095   0.572  37.113  1.00  0.00     0.213 HD
ENDBRANCH   7  22
ENDBRANCH   6   7
ENDBRANCH   1   6
BRANCH   5  24
HETATM   24  O11 UNL     1       0.789   4.100  36.619  1.00  0.00    -0.343 OA
BRANCH  24  25
HETATM   25  C16 UNL     1      -0.521   4.501  36.915  1.00  0.00     0.358 C 
HETATM   26  N1  UNL     1      -1.461   3.423  36.669  1.00  0.00    -0.021 N 
HETATM   27  C17 UNL     1      -2.688   3.964  37.213  1.00  0.00     0.364 C 
ATOM     28  H12 UNL     1      -1.519   3.114  35.698  1.00  0.00     0.282 HD
ATOM     29  H11 UNL     1      -1.186   2.516  37.043  1.00  0.00     0.282 HD
HETATM   30  C18 UNL     1      -2.193   4.406  38.583  1.00  0.00     0.236 C 
HETATM   31  C19 UNL     1      -0.768   4.898  38.314  1.00  0.00     0.240 C 
BRANCH  27  32
HETATM   32  N2  UNL     1      -3.732   2.981  37.303  1.00  0.00    -0.109 NA
BRANCH  32  33
HETATM   33  N3  UNL     1      -3.149   1.734  36.998  1.00  0.00    -0.346 N 
ATOM     34  H32 UNL     1      -2.872   1.024  37.675  1.00  0.00     0.172 HD
ATOM     35  H31 UNL     1      -3.063   1.687  35.982  1.00  0.00     0.172 HD
ENDBRANCH  32  33
ENDBRANCH  27  32
BRANCH  30  36
HETATM   36  O12 UNL     1      -3.033   5.402  39.027  1.00  0.00    -0.361 OA
ATOM     37  H12 UNL     1      -2.490   6.106  39.364  1.00  0.00     0.213 HD
ENDBRANCH  30  36
BRANCH  30  38
HETATM   38  O13 UNL     1      -2.082   3.343  39.450  1.00  0.00    -0.361 OA
ATOM     39  H13 UNL     1      -2.787   3.335  40.087  1.00  0.00     0.213 HD
ENDBRANCH  30  38
BRANCH  31  40
HETATM   40  O14 UNL     1      -0.829   6.297  38.481  1.00  0.00    -0.386 OA
ATOM     41  H14 UNL     1      -0.512   6.579  39.331  1.00  0.00     0.210 HD
ENDBRANCH  31  40
ENDBRANCH  24  25
ENDBRANCH   5  24
BRANCH   3  42
HETATM   42  C12 UNL     1       2.819   1.177  33.533  1.00  0.00     0.199 C 
BRANCH  42  43
HETATM   43  O8  UNL     1       3.377   1.783  32.413  1.00  0.00    -0.398 OA
ATOM     44  H8  UNL     1       3.502   1.163  31.704  1.00  0.00     0.209 HD
ENDBRANCH  42  43
ENDBRANCH   3  42
BRANCH   4  45
HETATM   45  O9  UNL     1       3.082   3.265  35.051  1.00  0.00    -0.382 OA
ATOM     46  H9  UNL     1       3.158   4.007  35.639  1.00  0.00     0.210 HD
ENDBRANCH   4  45
BRANCH   4  47
HETATM   47  C14 UNL     1       1.571   4.259  33.500  1.00  0.00     0.207 C 
BRANCH  47  48
HETATM   48  O10 UNL     1       0.249   4.701  33.508  1.00  0.00    -0.398 OA
ATOM     49  H10 UNL     1       0.074   5.228  32.737  1.00  0.00     0.209 HD
ENDBRANCH  47  48
ENDBRANCH   4  47
TORSDOF 19
ENDMDL
MODEL 5
REMARK VINA RESULT: -6.651222755      3.116      6.301
REMARK  19 active torsions:
REMARK  status: ('A' for Active; 'I' for Inactive)
REMARK    1  A    between atoms: C2_2  and  C3_4 
REMARK    2  A    between atoms: C6_8  and  O3_9 
REMARK    3  A    between atoms: C7_11  and  O4_12 
REMARK    4  A    between atoms: C8_14  and  C9_15 
REMARK    5  A    between atoms: C9_15  and  O5_16 
REMARK    6  A    between atoms: C9_15  and  O6_18 
REMARK    7  A    between atoms: O6_18  and  C10_19 
REMARK    8  A    between atoms: C11_21  and  C12_22 
REMARK    9  A    between atoms: C12_22  and  O8_23 
REMARK   10  A    between atoms: C13_25  and  O9_26 
REMARK   11  A    between atoms: C13_25  and  C14_28 
REMARK   12  A    between atoms: C14_28  and  O10_29 
REMARK   13  A    between atoms: C15_31  and  O11_32 
REMARK   14  A    between atoms: O11_32  and  C16_33 
REMARK   15  A    between atoms: C17_37  and  N2_38 
REMARK   16  A    between atoms: N2_38  and  N3_39 
REMARK   17  A    between atoms: C18_42  and  O12_43 
REMARK   18  A    between atoms: C18_42  and  O13_45 
REMARK   19  A    between atoms: C19_47  and  O14_48 
ROOT
HETATM    1  C10 UNL     1       0.373   0.014  37.080  1.00  0.00     0.296 C 
HETATM    2  O7  UNL     1       0.330  -1.324  36.642  1.00  0.00    -0.348 OA
HETATM    3  C11 UNL     1       1.489  -1.924  37.096  1.00  0.00     0.187 C 
HETATM    4  C13 UNL     1       2.475  -0.794  37.449  1.00  0.00     0.137 C 
HETATM    5  C15 UNL     1       1.816   0.326  36.711  1.00  0.00     0.218 C 
ENDROOT
BRANCH   1   6
HETATM    6  O6  UNL     1       0.091   0.021  38.403  1.00  0.00    -0.325 OA
BRANCH   6   7
HETATM    7  C9  UNL     1      -0.853   0.938  38.850  1.00  0.00     0.298 C 
BRANCH   7   8
HETATM    8  C8  UNL     1      -0.373   2.292  38.966  1.00  0.00     0.050 A 
HETATM    9  C3  UNL     1      -0.864   3.384  38.339  1.00  0.00     0.073 A 
HETATM   10  C4  UNL     1      -0.325   4.690  38.530  1.00  0.00     0.189 A 
HETATM   11  O2  UNL     1      -0.764   5.763  37.950  1.00  0.00    -0.287 OA
HETATM   12  C5  UNL     1       0.760   4.834  39.407  1.00  0.00     0.095 A 
HETATM   13  C6  UNL     1       1.262   3.738  40.042  1.00  0.00     0.103 A 
HETATM   14  C7  UNL     1       0.728   2.491  39.846  1.00  0.00     0.111 A 
BRANCH   9  15
HETATM   15  C2  UNL     1      -1.972   3.312  37.412  1.00  0.00     0.160 C 
HETATM   16  C1  UNL     1      -3.411   3.448  37.800  1.00  0.00     0.097 C 
HETATM   17  O1  UNL     1      -1.780   3.125  36.200  1.00  0.00    -0.293 OA
ENDBRANCH   9  15
BRANCH  13  18
HETATM   18  O3  UNL     1       2.345   3.885  40.917  1.00  0.00    -0.358 OA
ATOM     19  H3  UNL     1       3.225   3.717  40.602  1.00  0.00     0.217 HD
ENDBRANCH  13  18
BRANCH  14  20
HETATM   20  O4  UNL     1       1.202   1.352  40.467  1.00  0.00    -0.357 OA
ATOM     21  H4  UNL     1       0.967   1.101  41.353  1.00  0.00     0.217 HD
ENDBRANCH  14  20
ENDBRANCH   7   8
BRANCH   7  22
HETATM   22  O5  UNL     1      -1.149   0.549  40.216  1.00  0.00    -0.367 OA
ATOM     23  H5  UNL     1      -2.021   0.176  40.167  1.00  0.00     0.213 HD
ENDBRANCH   7  22
ENDBRANCH   6   7
ENDBRANCH   1   6
BRANCH   5  24
HETATM   24  O11 UNL     1       2.198   1.592  36.974  1.00  0.00    -0.343 OA
BRANCH  24  25
HETATM   25  C16 UNL     1       2.405   2.255  35.757  1.00  0.00     0.358 C 
HETATM   26  N1  UNL     1       1.235   3.027  35.381  1.00  0.00    -0.021 N 
HETATM   27  C17 UNL     1       1.718   3.769  34.237  1.00  0.00     0.364 C 
ATOM     28  H12 UNL     1       0.391   2.478  35.214  1.00  0.00     0.282 HD
ATOM     29  H11 UNL     1       0.834   3.595  36.127  1.00  0.00     0.282 HD
HETATM   30  C18 UNL     1       3.002   4.342  34.822  1.00  0.00     0.236 C 
HETATM   31  C19 UNL     1       3.514   3.228  35.738  1.00  0.00     0.240 C 
BRANCH  27  32
HETATM   32  N2  UNL     1       0.805   4.796  33.819  1.00  0.00    -0.109 NA
BRANCH  32  33
HETATM   33  N3  UNL     1      -0.046   5.059  34.913  1.00  0.00    -0.346 N 
ATOM     34  H32 UNL     1      -1.054   4.906  34.934  1.00  0.00     0.172 HD
ATOM     35  H31 UNL     1       0.540   5.424  35.663  1.00  0.00     0.172 HD
ENDBRANCH  32  33
ENDBRANCH  27  32
BRANCH  30  36
HETATM   36  O12 UNL     1       3.852   4.611  33.773  1.00  0.00    -0.361 OA
ATOM     37  H12 UNL     1       3.669   5.494  33.475  1.00  0.00     0.213 HD
ENDBRANCH  30  36
BRANCH  30  38
HETATM   38  O13 UNL     1       2.751   5.428  35.629  1.00  0.00    -0.361 OA
ATOM     39  H13 UNL     1       3.051   5.281  36.518  1.00  0.00     0.213 HD
ENDBRANCH  30  38
BRANCH  31  40
HETATM   40  O14 UNL     1       4.666   2.730  35.096  1.00  0.00    -0.386 OA
ATOM     41  H14 UNL     1       4.911   3.240  34.333  1.00  0.00     0.210 HD
ENDBRANCH  31  40
ENDBRANCH  24  25
ENDBRANCH   5  24
BRANCH   3  42
HETATM   42  C12 UNL     1       1.259  -2.841  38.261  1.00  0.00     0.199 C 
BRANCH  42  43
HETATM   43  O8  UNL     1      -0.001  -2.658  38.818  1.00  0.00    -0.398 OA
ATOM     44  H8  UNL     1       0.032  -2.106  39.590  1.00  0.00     0.209 HD
ENDBRANCH  42  43
ENDBRANCH   3  42
BRANCH   4  45
HETATM   45  O9  UNL     1       2.464  -0.616  38.836  1.00  0.00    -0.382 OA
ATOM     46  H9  UNL     1       3.321  -0.309  39.106  1.00  0.00     0.210 HD
ENDBRANCH   4  45
BRANCH   4  47
HETATM   47  C14 UNL     1       3.834  -1.180  36.970  1.00  0.00     0.207 C 
BRANCH  47  48
HETATM   48  O10 UNL     1       4.592  -0.041  36.702  1.00  0.00    -0.398 OA
ATOM     49  H10 UNL     1       4.951  -0.085  35.823  1.00  0.00     0.209 HD
ENDBRANCH  47  48
ENDBRANCH   4  47
TORSDOF 19
ENDMDL
