MODEL 1
REMARK VINA RESULT: -7.309552557      0.000      0.000
REMARK  13 active torsions:
REMARK  status: ('A' for Active; 'I' for Inactive)
REMARK    1  A    between atoms: N1_1  and  C1_4 
REMARK    2  A    between atoms: C2_7  and  N3_8 
REMARK    3  A    between atoms: N4_11  and  O1_12 
REMARK    4  A    between atoms: N7_21  and  C7_22 
REMARK    5  A    between atoms: C8_25  and  C9_26 
REMARK    6  A    between atoms: C9_26  and  N9_27 
REMARK    7  A    between atoms: N9_27  and  O3_28 
REMARK    8  A    between atoms: O3_28  and  C10_29 
REMARK    9  A    between atoms: C10_29  and  C11_30 
REMARK   10  A    between atoms: C11_30  and  O4_31 
REMARK   11  A    between atoms: C11_30  and  N10_33 
REMARK       I    between atoms: N10_33  and  C12_35 
REMARK       I    between atoms: C12_35  and  N11_36 
REMARK       I    between atoms: C12_35  and  N12_40 
REMARK   12  A    between atoms: C13_44  and  O5_45 
REMARK   13  A    between atoms: C14_47  and  O6_48 
ROOT
HETATM    1  C7  UNL     1       0.220   4.678  37.075  1.00  0.00     0.286 C 
HETATM    2  O2  UNL     1       0.354   5.767  36.225  1.00  0.00    -0.257 OA
HETATM    3  N8  UNL     1       0.669   5.252  34.978  1.00  0.00    -0.089 NA
HETATM    4  C8  UNL     1       1.976   4.722  35.051  1.00  0.00     0.154 C 
HETATM    5  C13 UNL     1       2.202   3.685  36.113  1.00  0.00     0.174 C 
HETATM    6  C14 UNL     1       1.615   4.181  37.432  1.00  0.00     0.199 C 
ENDROOT
BRANCH   1   7
HETATM    7  N7  UNL     1      -0.591   4.914  38.215  1.00  0.00    -0.295 N 
HETATM    8  C6  UNL     1      -0.454   5.810  39.226  1.00  0.00     0.188 A 
HETATM    9  N6  UNL     1      -1.498   5.636  40.074  1.00  0.00    -0.347 N 
HETATM   10  C5  UNL     1      -2.292   4.632  39.601  1.00  0.00     0.105 A 
ATOM     11  H6  UNL     1      -1.662   6.170  40.928  1.00  0.00     0.167 HD
HETATM   12  C4  UNL     1      -3.462   4.066  40.062  1.00  0.00     0.109 A 
HETATM   13  C15 UNL     1      -1.724   4.195  38.454  1.00  0.00     0.140 A 
HETATM   14  C3  UNL     1      -4.081   3.040  39.354  1.00  0.00     0.138 A 
HETATM   15  N5  UNL     1      -4.053   4.487  41.251  1.00  0.00    -0.097 NA
HETATM   16  N4  UNL     1      -5.208   2.485  39.736  1.00  0.00    -0.049 N 
HETATM   17  C16 UNL     1      -3.465   2.621  38.189  1.00  0.00     0.110 A 
HETATM   18  C2  UNL     1      -5.815   1.508  39.040  1.00  0.00     0.704 A 
HETATM   19  N2  UNL     1      -5.268   1.044  37.885  1.00  0.00    -0.173 N 
HETATM   20  C1  UNL     1      -4.101   1.613  37.485  1.00  0.00     0.144 A 
ATOM     21  H2  UNL     1      -5.713   0.303  37.344  1.00  0.00     0.186 HD
HETATM   22  N13 UNL     1      -2.313   3.197  37.766  1.00  0.00    -0.335 N 
ATOM     23  H13 UNL     1      -1.881   2.867  36.903  1.00  0.00     0.168 HD
BRANCH  16  24
HETATM   24  O1  UNL     1      -5.793   2.942  40.918  1.00  0.00    -0.269 OA
ATOM     25  H1  UNL     1      -5.233   3.218  41.634  1.00  0.00     0.245 HD
ENDBRANCH  16  24
BRANCH  18  26
HETATM   26  N3  UNL     1      -6.924   0.984  39.414  1.00  0.00    -0.232 N 
ATOM     27  H32 UNL     1      -7.480   0.387  38.803  1.00  0.00     0.174 HD
ATOM     28  H31 UNL     1      -7.232   1.179  40.366  1.00  0.00     0.174 HD
ENDBRANCH  18  26
BRANCH  20  29
HETATM   29  N1  UNL     1      -3.523   1.231  36.399  1.00  0.00    -0.383 N 
ATOM     30  H12 UNL     1      -4.141   0.944  35.640  1.00  0.00     0.157 HD
ATOM     31  H11 UNL     1      -2.506   1.223  36.327  1.00  0.00     0.157 HD
ENDBRANCH  20  29
ENDBRANCH   1   7
BRANCH   6  32
HETATM   32  O6  UNL     1       1.482   3.089  38.267  1.00  0.00    -0.388 OA
ATOM     33  H6  UNL     1       1.840   3.320  39.116  1.00  0.00     0.210 HD
ENDBRANCH   6  32
BRANCH   5  34
HETATM   34  O5  UNL     1       1.712   2.453  35.730  1.00  0.00    -0.391 OA
ATOM     35  H5  UNL     1       2.404   1.889  35.405  1.00  0.00     0.210 HD
ENDBRANCH   5  34
BRANCH   4  36
HETATM   36  C9  UNL     1       2.523   4.337  33.704  1.00  0.00     0.168 C 
BRANCH  36  37
HETATM   37  N9  UNL     1       3.986   4.074  33.895  1.00  0.00    -0.099 NA
BRANCH  37  38
HETATM   38  O3  UNL     1       4.261   2.979  33.383  1.00  0.00    -0.282 OA
BRANCH  38  39
HETATM   39  C10 UNL     1       3.797   1.754  33.335  1.00  0.00     0.248 C 
BRANCH  39  40
HETATM   40  C11 UNL     1       4.608   0.977  34.414  1.00  0.00     0.242 C 
BRANCH  40  41
HETATM   41  O4  UNL     1       5.302   1.911  35.194  1.00  0.00    -0.375 OA
ATOM     42  H4  UNL     1       5.944   1.442  35.714  1.00  0.00     0.212 HD
ENDBRANCH  40  41
BRANCH  40  43
HETATM   43  N10 UNL     1       3.845   0.069  35.100  1.00  0.00    -0.347 N 
HETATM   44  C12 UNL     1       3.906  -0.185  36.466  1.00  0.00     0.478 C 
HETATM   45  N11 UNL     1       5.206  -0.757  36.868  1.00  0.00    -0.033 N 
HETATM   46  N12 UNL     1       3.485   0.809  37.401  1.00  0.00    -0.033 N 
ATOM     47 3H11 UNL     1       5.424  -1.594  36.327  1.00  0.00     0.278 HD
ATOM     48 2H11 UNL     1       5.979  -0.164  36.567  1.00  0.00     0.278 HD
ATOM     49 1H11 UNL     1       5.251  -0.944  37.869  1.00  0.00     0.278 HD
ATOM     50 3H12 UNL     1       4.000   1.668  37.210  1.00  0.00     0.278 HD
ATOM     51 2H12 UNL     1       2.532   1.085  37.167  1.00  0.00     0.278 HD
ATOM     52 1H12 UNL     1       3.530   0.622  38.403  1.00  0.00     0.278 HD
ATOM     53  H10 UNL     1       3.170  -0.471  34.559  1.00  0.00     0.159 HD
ENDBRANCH  40  43
ENDBRANCH  39  40
ENDBRANCH  38  39
ENDBRANCH  37  38
ENDBRANCH  36  37
ENDBRANCH   4  36
TORSDOF 13
ENDMDL
MODEL 2
REMARK VINA RESULT: -7.117977055      2.085      2.468
REMARK  13 active torsions:
REMARK  status: ('A' for Active; 'I' for Inactive)
REMARK    1  A    between atoms: N1_1  and  C1_4 
REMARK    2  A    between atoms: C2_7  and  N3_8 
REMARK    3  A    between atoms: N4_11  and  O1_12 
REMARK    4  A    between atoms: N7_21  and  C7_22 
REMARK    5  A    between atoms: C8_25  and  C9_26 
REMARK    6  A    between atoms: C9_26  and  N9_27 
REMARK    7  A    between atoms: N9_27  and  O3_28 
REMARK    8  A    between atoms: O3_28  and  C10_29 
REMARK    9  A    between atoms: C10_29  and  C11_30 
REMARK   10  A    between atoms: C11_30  and  O4_31 
REMARK   11  A    between atoms: C11_30  and  N10_33 
REMARK       I    between atoms: N10_33  and  C12_35 
REMARK       I    between atoms: C12_35  and  N11_36 
REMARK       I    between atoms: C12_35  and  N12_40 
REMARK   12  A    between atoms: C13_44  and  O5_45 
REMARK   13  A    between atoms: C14_47  and  O6_48 
ROOT
HETATM    1  C7  UNL     1       0.685   4.732  37.051  1.00  0.00     0.286 C 
HETATM    2  O2  UNL     1       0.700   5.699  36.056  1.00  0.00    -0.257 OA
HETATM    3  N8  UNL     1       1.149   5.069  34.906  1.00  0.00    -0.089 NA
HETATM    4  C8  UNL     1       2.514   4.759  35.092  1.00  0.00     0.154 C 
HETATM    5  C13 UNL     1       2.836   3.927  36.300  1.00  0.00     0.174 C 
HETATM    6  C14 UNL     1       2.118   4.507  37.516  1.00  0.00     0.199 C 
ENDROOT
BRANCH   1   7
HETATM    7  N7  UNL     1      -0.208   4.998  38.121  1.00  0.00    -0.295 N 
HETATM    8  C6  UNL     1      -0.155   5.937  39.101  1.00  0.00     0.188 A 
HETATM    9  N6  UNL     1      -1.253   5.777  39.882  1.00  0.00    -0.347 N 
HETATM   10  C5  UNL     1      -1.997   4.740  39.397  1.00  0.00     0.105 A 
ATOM     11  H6  UNL     1      -1.486   6.341  40.699  1.00  0.00     0.167 HD
HETATM   12  C4  UNL     1      -3.187   4.172  39.798  1.00  0.00     0.109 A 
HETATM   13  C15 UNL     1      -1.343   4.268  38.311  1.00  0.00     0.140 A 
HETATM   14  C3  UNL     1      -3.740   3.107  39.092  1.00  0.00     0.138 A 
HETATM   15  N5  UNL     1      -3.866   4.629  40.925  1.00  0.00    -0.097 NA
HETATM   16  N4  UNL     1      -4.882   2.548  39.416  1.00  0.00    -0.049 N 
HETATM   17  C16 UNL     1      -3.036   2.653  37.990  1.00  0.00     0.110 A 
HETATM   18  C2  UNL     1      -5.423   1.533  38.721  1.00  0.00     0.704 A 
HETATM   19  N2  UNL     1      -4.789   1.033  37.627  1.00  0.00    -0.173 N 
HETATM   20  C1  UNL     1      -3.606   1.607  37.286  1.00  0.00     0.144 A 
ATOM     21  H2  UNL     1      -5.184   0.263  37.088  1.00  0.00     0.186 HD
HETATM   22  N13 UNL     1      -1.867   3.233  37.625  1.00  0.00    -0.335 N 
ATOM     23  H13 UNL     1      -1.371   2.878  36.808  1.00  0.00     0.168 HD
BRANCH  16  24
HETATM   24  O1  UNL     1      -5.555   3.041  40.535  1.00  0.00    -0.269 OA
ATOM     25  H1  UNL     1      -5.931   2.427  41.156  1.00  0.00     0.245 HD
ENDBRANCH  16  24
BRANCH  18  26
HETATM   26  N3  UNL     1      -6.547   1.004  39.038  1.00  0.00    -0.232 N 
ATOM     27  H32 UNL     1      -7.388   1.126  38.475  1.00  0.00     0.174 HD
ATOM     28  H31 UNL     1      -6.571   0.435  39.884  1.00  0.00     0.174 HD
ENDBRANCH  18  26
BRANCH  20  29
HETATM   29  N1  UNL     1      -2.948   1.193  36.259  1.00  0.00    -0.383 N 
ATOM     30  H12 UNL     1      -2.804   1.875  35.514  1.00  0.00     0.157 HD
ATOM     31  H11 UNL     1      -2.603   0.234  36.215  1.00  0.00     0.157 HD
ENDBRANCH  20  29
ENDBRANCH   1   7
BRANCH   6  32
HETATM   32  O6  UNL     1       2.105   3.535  38.496  1.00  0.00    -0.388 OA
ATOM     33  H6  UNL     1       2.076   3.967  39.341  1.00  0.00     0.210 HD
ENDBRANCH   6  32
BRANCH   5  34
HETATM   34  O5  UNL     1       2.551   2.594  36.085  1.00  0.00    -0.391 OA
ATOM     35  H5  UNL     1       2.774   2.064  36.842  1.00  0.00     0.210 HD
ENDBRANCH   5  34
BRANCH   4  36
HETATM   36  C9  UNL     1       3.178   4.279  33.831  1.00  0.00     0.168 C 
BRANCH  36  37
HETATM   37  N9  UNL     1       4.601   3.971  34.187  1.00  0.00    -0.099 NA
BRANCH  37  38
HETATM   38  O3  UNL     1       4.836   2.789  33.894  1.00  0.00    -0.282 OA
BRANCH  38  39
HETATM   39  C10 UNL     1       5.783   1.895  34.039  1.00  0.00     0.248 C 
BRANCH  39  40
HETATM   40  C11 UNL     1       6.768   2.162  32.864  1.00  0.00     0.242 C 
BRANCH  40  41
HETATM   41  O4  UNL     1       7.660   3.166  33.262  1.00  0.00    -0.375 OA
ATOM     42  H4  UNL     1       7.498   3.359  34.178  1.00  0.00     0.212 HD
ENDBRANCH  40  41
BRANCH  40  43
HETATM   43  N10 UNL     1       7.335   1.014  32.374  1.00  0.00    -0.347 N 
HETATM   44  C12 UNL     1       8.651   0.868  31.950  1.00  0.00     0.478 C 
HETATM   45  N11 UNL     1       8.948   1.692  30.762  1.00  0.00    -0.033 N 
HETATM   46  N12 UNL     1       9.721   0.941  32.892  1.00  0.00    -0.033 N 
ATOM     47 3H11 UNL     1       8.292   1.498  30.005  1.00  0.00     0.278 HD
ATOM     48 2H11 UNL     1       8.720   2.672  30.927  1.00  0.00     0.278 HD
ATOM     49 1H11 UNL     1       9.913   1.584  30.451  1.00  0.00     0.278 HD
ATOM     50 3H12 UNL     1       9.643   1.822  33.399  1.00  0.00     0.278 HD
ATOM     51 2H12 UNL     1       9.544   0.262  33.632  1.00  0.00     0.278 HD
ATOM     52 1H12 UNL     1      10.687   0.833  32.580  1.00  0.00     0.278 HD
ATOM     53  H10 UNL     1       6.735   0.191  32.315  1.00  0.00     0.159 HD
ENDBRANCH  40  43
ENDBRANCH  39  40
ENDBRANCH  38  39
ENDBRANCH  37  38
ENDBRANCH  36  37
ENDBRANCH   4  36
TORSDOF 13
ENDMDL
MODEL 3
REMARK VINA RESULT: -7.107974492      3.003      4.259
REMARK  13 active torsions:
REMARK  status: ('A' for Active; 'I' for Inactive)
REMARK    1  A    between atoms: N1_1  and  C1_4 
REMARK    2  A    between atoms: C2_7  and  N3_8 
REMARK    3  A    between atoms: N4_11  and  O1_12 
REMARK    4  A    between atoms: N7_21  and  C7_22 
REMARK    5  A    between atoms: C8_25  and  C9_26 
REMARK    6  A    between atoms: C9_26  and  N9_27 
REMARK    7  A    between atoms: N9_27  and  O3_28 
REMARK    8  A    between atoms: O3_28  and  C10_29 
REMARK    9  A    between atoms: C10_29  and  C11_30 
REMARK   10  A    between atoms: C11_30  and  O4_31 
REMARK   11  A    between atoms: C11_30  and  N10_33 
REMARK       I    between atoms: N10_33  and  C12_35 
REMARK       I    between atoms: C12_35  and  N11_36 
REMARK       I    between atoms: C12_35  and  N12_40 
REMARK   12  A    between atoms: C13_44  and  O5_45 
REMARK   13  A    between atoms: C14_47  and  O6_48 
ROOT
HETATM    1  C7  UNL     1       2.828   3.245  36.283  1.00  0.00     0.286 C 
HETATM    2  O2  UNL     1       2.305   2.010  35.923  1.00  0.00    -0.257 OA
HETATM    3  N8  UNL     1       3.154   1.491  34.960  1.00  0.00    -0.089 NA
HETATM    4  C8  UNL     1       3.003   2.271  33.792  1.00  0.00     0.154 C 
HETATM    5  C13 UNL     1       3.241   3.744  33.955  1.00  0.00     0.174 C 
HETATM    6  C14 UNL     1       2.486   4.242  35.184  1.00  0.00     0.199 C 
ENDROOT
BRANCH   1   7
HETATM    7  N7  UNL     1       2.452   3.694  37.574  1.00  0.00    -0.295 N 
HETATM    8  C6  UNL     1       3.192   4.266  38.559  1.00  0.00     0.188 A 
HETATM    9  N6  UNL     1       2.364   4.514  39.605  1.00  0.00    -0.347 N 
HETATM   10  C5  UNL     1       1.104   4.100  39.281  1.00  0.00     0.105 A 
ATOM     11  H6  UNL     1       2.638   4.941  40.489  1.00  0.00     0.167 HD
HETATM   12  C4  UNL     1      -0.094   4.124  39.963  1.00  0.00     0.109 A 
HETATM   13  C15 UNL     1       1.170   3.597  38.028  1.00  0.00     0.140 A 
HETATM   14  C3  UNL     1      -1.257   3.636  39.372  1.00  0.00     0.138 A 
HETATM   15  N5  UNL     1      -0.181   4.618  41.262  1.00  0.00    -0.097 NA
HETATM   16  N4  UNL     1      -2.426   3.659  39.967  1.00  0.00    -0.049 N 
HETATM   17  C16 UNL     1      -1.143   3.127  38.090  1.00  0.00     0.110 A 
HETATM   18  C2  UNL     1      -3.551   3.205  39.388  1.00  0.00     0.704 A 
HETATM   19  N2  UNL     1      -3.518   2.691  38.130  1.00  0.00    -0.173 N 
HETATM   20  C1  UNL     1      -2.310   2.663  37.508  1.00  0.00     0.144 A 
ATOM     21  H2  UNL     1      -4.360   2.341  37.674  1.00  0.00     0.186 HD
HETATM   22  N13 UNL     1       0.051   3.116  37.450  1.00  0.00    -0.335 N 
ATOM     23  H13 UNL     1       0.104   2.735  36.506  1.00  0.00     0.168 HD
BRANCH  16  24
HETATM   24  O1  UNL     1      -2.491   4.182  41.260  1.00  0.00    -0.269 OA
ATOM     25  H1  UNL     1      -1.683   4.337  41.737  1.00  0.00     0.245 HD
ENDBRANCH  16  24
BRANCH  18  26
HETATM   26  N3  UNL     1      -4.692   3.247  39.972  1.00  0.00    -0.232 N 
ATOM     27  H32 UNL     1      -5.091   4.114  40.332  1.00  0.00     0.174 HD
ATOM     28  H31 UNL     1      -5.203   2.369  40.057  1.00  0.00     0.174 HD
ENDBRANCH  18  26
BRANCH  20  29
HETATM   29  N1  UNL     1      -2.197   2.195  36.313  1.00  0.00    -0.383 N 
ATOM     30  H12 UNL     1      -2.844   1.447  36.063  1.00  0.00     0.157 HD
ATOM     31  H11 UNL     1      -1.492   2.564  35.675  1.00  0.00     0.157 HD
ENDBRANCH  20  29
ENDBRANCH   1   7
BRANCH   6  32
HETATM   32  O6  UNL     1       3.018   5.467  35.534  1.00  0.00    -0.388 OA
ATOM     33  H6  UNL     1       3.955   5.361  35.650  1.00  0.00     0.210 HD
ENDBRANCH   6  32
BRANCH   5  34
HETATM   34  O5  UNL     1       4.589   4.038  33.990  1.00  0.00    -0.391 OA
ATOM     35  H5  UNL     1       4.793   4.657  34.682  1.00  0.00     0.210 HD
ENDBRANCH   5  34
BRANCH   4  36
HETATM   36  C9  UNL     1       3.700   1.674  32.601  1.00  0.00     0.168 C 
BRANCH  36  37
HETATM   37  N9  UNL     1       4.926   0.988  33.121  1.00  0.00    -0.099 NA
BRANCH  37  38
HETATM   38  O3  UNL     1       5.916   1.681  32.842  1.00  0.00    -0.282 OA
BRANCH  38  39
HETATM   39  C10 UNL     1       7.224   1.623  32.905  1.00  0.00     0.248 C 
BRANCH  39  40
HETATM   40  C11 UNL     1       7.666   1.042  31.530  1.00  0.00     0.242 C 
BRANCH  40  41
HETATM   41  O4  UNL     1       6.629   1.257  30.612  1.00  0.00    -0.375 OA
ATOM     42  H4  UNL     1       6.842   2.028  30.101  1.00  0.00     0.212 HD
ENDBRANCH  40  41
BRANCH  40  43
HETATM   43  N10 UNL     1       8.908   1.472  31.145  1.00  0.00    -0.347 N 
HETATM   44  C12 UNL     1       9.206   2.175  29.982  1.00  0.00     0.478 C 
HETATM   45  N11 UNL     1       8.949   1.377  28.768  1.00  0.00    -0.033 N 
HETATM   46  N12 UNL     1       8.739   3.513  29.812  1.00  0.00    -0.033 N 
ATOM     47 3H11 UNL     1       9.446   0.487  28.799  1.00  0.00     0.278 HD
ATOM     48 2H11 UNL     1       7.991   1.028  28.753  1.00  0.00     0.278 HD
ATOM     49 1H11 UNL     1       9.168   1.892  27.916  1.00  0.00     0.278 HD
ATOM     50 3H12 UNL     1       7.727   3.519  29.940  1.00  0.00     0.278 HD
ATOM     51 2H12 UNL     1       9.049   4.066  30.611  1.00  0.00     0.278 HD
ATOM     52 1H12 UNL     1       8.958   4.028  28.960  1.00  0.00     0.278 HD
ATOM     53  H10 UNL     1       9.686   1.258  31.768  1.00  0.00     0.159 HD
ENDBRANCH  40  43
ENDBRANCH  39  40
ENDBRANCH  38  39
ENDBRANCH  37  38
ENDBRANCH  36  37
ENDBRANCH   4  36
TORSDOF 13
ENDMDL
MODEL 4
REMARK VINA RESULT: -7.086857543      1.917      2.952
REMARK  13 active torsions:
REMARK  status: ('A' for Active; 'I' for Inactive)
REMARK    1  A    between atoms: N1_1  and  C1_4 
REMARK    2  A    between atoms: C2_7  and  N3_8 
REMARK    3  A    between atoms: N4_11  and  O1_12 
REMARK    4  A    between atoms: N7_21  and  C7_22 
REMARK    5  A    between atoms: C8_25  and  C9_26 
REMARK    6  A    between atoms: C9_26  and  N9_27 
REMARK    7  A    between atoms: N9_27  and  O3_28 
REMARK    8  A    between atoms: O3_28  and  C10_29 
REMARK    9  A    between atoms: C10_29  and  C11_30 
REMARK   10  A    between atoms: C11_30  and  O4_31 
REMARK   11  A    between atoms: C11_30  and  N10_33 
REMARK       I    between atoms: N10_33  and  C12_35 
REMARK       I    between atoms: C12_35  and  N11_36 
REMARK       I    between atoms: C12_35  and  N12_40 
REMARK   12  A    between atoms: C13_44  and  O5_45 
REMARK   13  A    between atoms: C14_47  and  O6_48 
ROOT
HETATM    1  C7  UNL     1       2.545   3.244  36.128  1.00  0.00     0.286 C 
HETATM    2  O2  UNL     1       1.836   2.122  35.720  1.00  0.00    -0.257 OA
HETATM    3  N8  UNL     1       2.574   1.543  34.701  1.00  0.00    -0.089 NA
HETATM    4  C8  UNL     1       2.510   2.403  33.583  1.00  0.00     0.154 C 
HETATM    5  C13 UNL     1       2.967   3.814  33.818  1.00  0.00     0.174 C 
HETATM    6  C14 UNL     1       2.326   4.344  35.098  1.00  0.00     0.199 C 
ENDROOT
BRANCH   1   7
HETATM    7  N7  UNL     1       2.274   3.667  37.454  1.00  0.00    -0.295 N 
HETATM    8  C6  UNL     1       3.092   4.211  38.391  1.00  0.00     0.188 A 
HETATM    9  N6  UNL     1       2.349   4.442  39.502  1.00  0.00    -0.347 N 
HETATM   10  C5  UNL     1       1.064   4.043  39.268  1.00  0.00     0.105 A 
ATOM     11  H6  UNL     1       2.694   4.847  40.372  1.00  0.00     0.167 HD
HETATM   12  C4  UNL     1      -0.078   4.060  40.040  1.00  0.00     0.109 A 
HETATM   13  C15 UNL     1       1.030   3.568  38.002  1.00  0.00     0.140 A 
HETATM   14  C3  UNL     1      -1.287   3.594  39.530  1.00  0.00     0.138 A 
HETATM   15  N5  UNL     1      -0.060   4.526  41.353  1.00  0.00    -0.097 NA
HETATM   16  N4  UNL     1      -2.407   3.611  40.214  1.00  0.00    -0.049 N 
HETATM   17  C16 UNL     1      -1.276   3.113  38.233  1.00  0.00     0.110 A 
HETATM   18  C2  UNL     1      -3.576   3.179  39.713  1.00  0.00     0.704 A 
HETATM   19  N2  UNL     1      -3.644   2.692  38.445  1.00  0.00    -0.173 N 
HETATM   20  C1  UNL     1      -2.488   2.671  37.732  1.00  0.00     0.144 A 
ATOM     21  H2  UNL     1      -4.522   2.359  38.048  1.00  0.00     0.186 HD
HETATM   22  N13 UNL     1      -0.134   3.109  37.503  1.00  0.00    -0.335 N 
ATOM     23  H13 UNL     1      -0.157   2.748  36.549  1.00  0.00     0.168 HD
BRANCH  16  24
HETATM   24  O1  UNL     1      -2.367   4.106  41.519  1.00  0.00    -0.269 OA
ATOM     25  H1  UNL     1      -1.706   4.749  41.750  1.00  0.00     0.245 HD
ENDBRANCH  16  24
BRANCH  18  26
HETATM   26  N3  UNL     1      -4.668   3.215  40.384  1.00  0.00    -0.232 N 
ATOM     27  H32 UNL     1      -5.514   2.735  40.080  1.00  0.00     0.174 HD
ATOM     28  H31 UNL     1      -4.659   3.743  41.257  1.00  0.00     0.174 HD
ENDBRANCH  18  26
BRANCH  20  29
HETATM   29  N1  UNL     1      -2.471   2.228  36.522  1.00  0.00    -0.383 N 
ATOM     30  H12 UNL     1      -3.353   2.285  36.013  1.00  0.00     0.157 HD
ATOM     31  H11 UNL     1      -1.615   1.846  36.121  1.00  0.00     0.157 HD
ENDBRANCH  20  29
ENDBRANCH   1   7
BRANCH   6  32
HETATM   32  O6  UNL     1       3.042   5.455  35.494  1.00  0.00    -0.388 OA
ATOM     33  H6  UNL     1       2.428   6.157  35.669  1.00  0.00     0.210 HD
ENDBRANCH   6  32
BRANCH   5  34
HETATM   34  O5  UNL     1       4.345   3.905  33.823  1.00  0.00    -0.391 OA
ATOM     35  H5  UNL     1       4.634   4.803  33.929  1.00  0.00     0.210 HD
ENDBRANCH   5  34
BRANCH   4  36
HETATM   36  C9  UNL     1       3.079   1.781  32.338  1.00  0.00     0.168 C 
BRANCH  36  37
HETATM   37  N9  UNL     1       4.116   0.797  32.787  1.00  0.00    -0.099 NA
BRANCH  37  38
HETATM   38  O3  UNL     1       5.239   1.290  32.600  1.00  0.00    -0.282 OA
BRANCH  38  39
HETATM   39  C10 UNL     1       6.484   1.103  32.963  1.00  0.00     0.248 C 
BRANCH  39  40
HETATM   40  C11 UNL     1       6.409   0.730  34.473  1.00  0.00     0.242 C 
BRANCH  40  41
HETATM   41  O4  UNL     1       5.514   1.610  35.095  1.00  0.00    -0.375 OA
ATOM     42  H4  UNL     1       5.434   1.354  36.006  1.00  0.00     0.212 HD
ENDBRANCH  40  41
BRANCH  40  43
HETATM   43  N10 UNL     1       6.182  -0.605  34.680  1.00  0.00    -0.347 N 
HETATM   44  C12 UNL     1       5.274  -1.150  35.581  1.00  0.00     0.478 C 
HETATM   45  N11 UNL     1       5.629  -0.846  36.981  1.00  0.00    -0.033 N 
HETATM   46  N12 UNL     1       3.870  -0.988  35.373  1.00  0.00    -0.033 N 
ATOM     47 3H11 UNL     1       6.582  -1.143  37.193  1.00  0.00     0.278 HD
ATOM     48 2H11 UNL     1       5.735   0.158  37.125  1.00  0.00     0.278 HD
ATOM     49 1H11 UNL     1       4.963  -1.246  37.642  1.00  0.00     0.278 HD
ATOM     50 3H12 UNL     1       3.672   0.008  35.280  1.00  0.00     0.278 HD
ATOM     51 2H12 UNL     1       3.643  -1.331  34.440  1.00  0.00     0.278 HD
ATOM     52 1H12 UNL     1       3.204  -1.388  36.034  1.00  0.00     0.278 HD
ATOM     53  H10 UNL     1       6.728  -1.260  34.121  1.00  0.00     0.159 HD
ENDBRANCH  40  43
ENDBRANCH  39  40
ENDBRANCH  38  39
ENDBRANCH  37  38
ENDBRANCH  36  37
ENDBRANCH   4  36
TORSDOF 13
ENDMDL
MODEL 5
REMARK VINA RESULT: -7.046664047      3.498      5.891
REMARK  13 active torsions:
REMARK  status: ('A' for Active; 'I' for Inactive)
REMARK    1  A    between atoms: N1_1  and  C1_4 
REMARK    2  A    between atoms: C2_7  and  N3_8 
REMARK    3  A    between atoms: N4_11  and  O1_12 
REMARK    4  A    between atoms: N7_21  and  C7_22 
REMARK    5  A    between atoms: C8_25  and  C9_26 
REMARK    6  A    between atoms: C9_26  and  N9_27 
REMARK    7  A    between atoms: N9_27  and  O3_28 
REMARK    8  A    between atoms: O3_28  and  C10_29 
REMARK    9  A    between atoms: C10_29  and  C11_30 
REMARK   10  A    between atoms: C11_30  and  O4_31 
REMARK   11  A    between atoms: C11_30  and  N10_33 
REMARK       I    between atoms: N10_33  and  C12_35 
REMARK       I    between atoms: C12_35  and  N11_36 
REMARK       I    between atoms: C12_35  and  N12_40 
REMARK   12  A    between atoms: C13_44  and  O5_45 
REMARK   13  A    between atoms: C14_47  and  O6_48 
ROOT
HETATM    1  C7  UNL     1       3.181   3.084  33.932  1.00  0.00     0.286 C 
HETATM    2  O2  UNL     1       4.079   3.868  34.644  1.00  0.00    -0.257 OA
HETATM    3  N8  UNL     1       5.249   3.891  33.904  1.00  0.00    -0.089 NA
HETATM    4  C8  UNL     1       5.817   2.599  33.958  1.00  0.00     0.154 C 
HETATM    5  C13 UNL     1       4.932   1.478  33.496  1.00  0.00     0.174 C 
HETATM    6  C14 UNL     1       3.557   1.623  34.141  1.00  0.00     0.199 C 
ENDROOT
BRANCH   1   7
HETATM    7  N7  UNL     1       1.815   3.349  34.208  1.00  0.00    -0.295 N 
HETATM    8  C6  UNL     1       0.745   3.424  33.375  1.00  0.00     0.188 A 
HETATM    9  N6  UNL     1      -0.346   3.701  34.131  1.00  0.00    -0.347 N 
HETATM   10  C5  UNL     1       0.033   3.801  35.439  1.00  0.00     0.105 A 
ATOM     11  H6  UNL     1      -1.297   3.816  33.780  1.00  0.00     0.167 HD
HETATM   12  C4  UNL     1      -0.665   4.055  36.600  1.00  0.00     0.109 A 
HETATM   13  C15 UNL     1       1.367   3.581  35.474  1.00  0.00     0.140 A 
HETATM   14  C3  UNL     1      -0.011   4.085  37.829  1.00  0.00     0.138 A 
HETATM   15  N5  UNL     1      -2.035   4.305  36.584  1.00  0.00    -0.097 NA
HETATM   16  N4  UNL     1      -0.632   4.297  38.966  1.00  0.00    -0.049 N 
HETATM   17  C16 UNL     1       1.354   3.859  37.819  1.00  0.00     0.110 A 
HETATM   18  C2  UNL     1      -0.003   4.306  40.153  1.00  0.00     0.704 A 
HETATM   19  N2  UNL     1       1.338   4.092  40.223  1.00  0.00    -0.173 N 
HETATM   20  C1  UNL     1       1.988   3.873  39.050  1.00  0.00     0.144 A 
ATOM     21  H2  UNL     1       1.834   4.096  41.114  1.00  0.00     0.186 HD
HETATM   22  N13 UNL     1       2.009   3.615  36.659  1.00  0.00    -0.335 N 
ATOM     23  H13 UNL     1       3.015   3.452  36.682  1.00  0.00     0.168 HD
BRANCH  16  24
HETATM   24  O1  UNL     1      -2.009   4.520  38.925  1.00  0.00    -0.269 OA
ATOM     25  H1  UNL     1      -2.601   3.791  39.075  1.00  0.00     0.245 HD
ENDBRANCH  16  24
BRANCH  18  26
HETATM   26  N3  UNL     1      -0.622   4.498  41.259  1.00  0.00    -0.232 N 
ATOM     27  H32 UNL     1      -0.208   5.012  42.036  1.00  0.00     0.174 HD
ATOM     28  H31 UNL     1      -1.567   4.122  41.334  1.00  0.00     0.174 HD
ENDBRANCH  18  26
BRANCH  20  29
HETATM   29  N1  UNL     1       3.258   3.657  39.032  1.00  0.00    -0.383 N 
ATOM     30  H12 UNL     1       3.762   3.889  39.888  1.00  0.00     0.157 HD
ATOM     31  H11 UNL     1       3.710   3.281  38.200  1.00  0.00     0.157 HD
ENDBRANCH  20  29
ENDBRANCH   1   7
BRANCH   6  32
HETATM   32  O6  UNL     1       2.673   0.844  33.421  1.00  0.00    -0.388 OA
ATOM     33  H6  UNL     1       2.798   1.030  32.498  1.00  0.00     0.210 HD
ENDBRANCH   6  32
BRANCH   5  34
HETATM   34  O5  UNL     1       4.881   1.409  32.118  1.00  0.00    -0.391 OA
ATOM     35  H5  UNL     1       5.494   0.767  31.778  1.00  0.00     0.210 HD
ENDBRANCH   5  34
BRANCH   4  36
HETATM   36  C9  UNL     1       7.206   2.550  33.385  1.00  0.00     0.168 C 
BRANCH  36  37
HETATM   37  N9  UNL     1       7.526   1.104  33.160  1.00  0.00    -0.099 NA
BRANCH  37  38
HETATM   38  O3  UNL     1       8.748   0.941  33.300  1.00  0.00    -0.282 OA
BRANCH  38  39
HETATM   39  C10 UNL     1       9.694   0.114  32.928  1.00  0.00     0.248 C 
BRANCH  39  40
HETATM   40  C11 UNL     1       9.709   0.198  31.373  1.00  0.00     0.242 C 
BRANCH  40  41
HETATM   41  O4  UNL     1       8.817  -0.762  30.877  1.00  0.00    -0.375 OA
ATOM     42  H4  UNL     1       8.879  -0.761  29.929  1.00  0.00     0.212 HD
ENDBRANCH  40  41
BRANCH  40  43
HETATM   43  N10 UNL     1       9.538   1.475  30.908  1.00  0.00    -0.347 N 
HETATM   44  C12 UNL     1       8.770   1.850  29.811  1.00  0.00     0.478 C 
HETATM   45  N11 UNL     1       9.303   1.307  28.547  1.00  0.00    -0.033 N 
HETATM   46  N12 UNL     1       7.348   1.722  29.852  1.00  0.00    -0.033 N 
ATOM     47 3H11 UNL     1      10.281   1.565  28.417  1.00  0.00     0.278 HD
ATOM     48 2H11 UNL     1       9.407   0.294  28.595  1.00  0.00     0.278 HD
ATOM     49 1H11 UNL     1       8.739   1.583  27.742  1.00  0.00     0.278 HD
ATOM     50 3H12 UNL     1       7.119   0.757  30.090  1.00  0.00     0.278 HD
ATOM     51 2H12 UNL     1       7.005   2.222  30.672  1.00  0.00     0.278 HD
ATOM     52 1H12 UNL     1       6.785   1.998  29.048  1.00  0.00     0.278 HD
ATOM     53  H10 UNL     1      10.018   2.219  31.413  1.00  0.00     0.159 HD
ENDBRANCH  40  43
ENDBRANCH  39  40
ENDBRANCH  38  39
ENDBRANCH  37  38
ENDBRANCH  36  37
ENDBRANCH   4  36
TORSDOF 13
ENDMDL
