MODEL 1
REMARK VINA RESULT: -9.665512354      0.000      0.000
REMARK  13 active torsions:
REMARK  status: ('A' for Active; 'I' for Inactive)
REMARK       I    between atoms: C2_2  and  N1_4 
REMARK    1  A    between atoms: N1_4  and  C3_6 
REMARK    2  A    between atoms: C3_6  and  C4_7 
REMARK    3  A    between atoms: C4_7  and  N2_8 
REMARK    4  A    between atoms: C4_7  and  C14_28 
REMARK       I    between atoms: N2_8  and  C5_10 
REMARK    5  A    between atoms: C5_10  and  C6_12 
REMARK    6  A    between atoms: N3_16  and  S1_17 
REMARK    7  A    between atoms: S1_17  and  N4_20 
REMARK    8  A    between atoms: N4_20  and  C10_22 
REMARK    9  A    between atoms: C10_22  and  C13_25 
REMARK       I    between atoms: C14_28  and  N5_30 
REMARK   10  A    between atoms: N5_30  and  C15_32 
REMARK   11  A    between atoms: C15_32  and  C16_33 
REMARK       I    between atoms: C16_33  and  N6_35 
REMARK   12  A    between atoms: N6_35  and  C17_37 
REMARK   13  A    between atoms: C17_37  and  C18_38 
ROOT
HETATM    1  C4  UNL     1       7.708   0.174  11.019  1.00  0.00     0.194 C 
ENDROOT
BRANCH   1   2
HETATM    2  C3  UNL     1       8.831   0.725  10.143  1.00  0.00     0.157 C 
BRANCH   2   3
HETATM    3  N1  UNL     1       8.647   0.369   8.766  1.00  0.00    -0.359 N 
HETATM    4  C2  UNL     1       8.255   1.338   7.823  1.00  0.00     0.213 C 
HETATM    5  C1  UNL     1       8.053   1.001   6.383  1.00  0.00     0.117 C 
HETATM    6  O1  UNL     1       8.067   2.522   8.196  1.00  0.00    -0.274 OA
ATOM      7  H1  UNL     1       8.802  -0.594   8.467  1.00  0.00     0.162 HD
ENDBRANCH   2   3
ENDBRANCH   1   2
BRANCH   1   8
HETATM    8  N2  UNL     1       8.299  -0.479  12.160  1.00  0.00    -0.342 N 
HETATM    9  C5  UNL     1       7.851  -1.734  12.660  1.00  0.00     0.260 C 
HETATM   10  O2  UNL     1       6.904  -2.262  12.048  1.00  0.00    -0.267 OA
ATOM     11  H2  UNL     1       9.076  -0.018  12.633  1.00  0.00     0.163 HD
BRANCH   9  12
HETATM   12  C6  UNL     1       8.468  -2.346  13.811  1.00  0.00     0.072 C 
HETATM   13  C7  UNL     1       8.757  -3.829  13.703  1.00  0.00     0.059 C 
HETATM   14  C8  UNL     1       9.183  -4.167  15.116  1.00  0.00     0.022 C 
HETATM   15  C9  UNL     1       8.921  -2.900  15.910  1.00  0.00     0.115 C 
HETATM   16  N3  UNL     1       8.003  -2.128  15.104  1.00  0.00    -0.158 NA
BRANCH  16  17
HETATM   17  S1  UNL     1       6.428  -2.309  15.579  1.00  0.00     0.304 S 
HETATM   18  O3  UNL     1       5.525  -1.138  15.224  1.00  0.00    -0.188 OA
HETATM   19  O4  UNL     1       6.441  -2.227  17.133  1.00  0.00    -0.188 OA
BRANCH  17  20
HETATM   20  N4  UNL     1       5.669  -3.796  15.243  1.00  0.00    -0.287 N 
ATOM     21  H4  UNL     1       6.186  -4.583  14.849  1.00  0.00     0.174 HD
BRANCH  20  22
HETATM   22  C10 UNL     1       4.289  -3.889  15.536  1.00  0.00     0.122 C 
HETATM   23  C11 UNL     1       3.784  -3.107  16.720  1.00  0.00     0.050 C 
HETATM   24  C12 UNL     1       4.064  -5.376  15.946  1.00  0.00     0.050 C 
BRANCH  22  25
HETATM   25  C13 UNL     1       3.413  -3.702  14.354  1.00  0.00     0.202 C 
HETATM   26  O5  UNL     1       3.719  -2.887  13.474  1.00  0.00    -0.646 OA
HETATM   27  O6  UNL     1       2.258  -4.442  14.248  1.00  0.00    -0.646 OA
ENDBRANCH  22  25
ENDBRANCH  20  22
ENDBRANCH  17  20
ENDBRANCH  16  17
ENDBRANCH   9  12
ENDBRANCH   1   8
BRANCH   1  28
HETATM   28  C14 UNL     1       6.893   1.342  11.474  1.00  0.00     0.243 C 
HETATM   29  O7  UNL     1       6.417   1.288  12.616  1.00  0.00    -0.271 OA
HETATM   30  N5  UNL     1       6.673   2.461  10.638  1.00  0.00    -0.341 N 
ATOM     31  H5  UNL     1       7.090   2.445   9.707  1.00  0.00     0.163 HD
BRANCH  30  32
HETATM   32  C15 UNL     1       5.912   3.611  11.000  1.00  0.00     0.114 A 
HETATM   33  C31 UNL     1       6.556   4.770  11.688  1.00  0.00     0.044 A 
HETATM   34  C32 UNL     1       6.308   4.877  10.241  1.00  0.00     0.044 A 
BRANCH  32  35
HETATM   35  C16 UNL     1       4.429   3.526  11.219  1.00  0.00     0.246 C 
HETATM   36  O8  UNL     1       3.999   4.416  12.017  1.00  0.00    -0.271 OA
HETATM   37  N6  UNL     1       3.677   2.559  10.594  1.00  0.00    -0.348 N 
ATOM     38  H6  UNL     1       4.219   1.930  10.002  1.00  0.00     0.163 HD
BRANCH  37  39
HETATM   39  C17 UNL     1       2.242   2.266  10.621  1.00  0.00     0.047 C 
HETATM   40  C22 UNL     1       2.089   0.828  10.272  1.00  0.00     0.015 C 
HETATM   41  C23 UNL     1       0.759   0.208  10.578  1.00  0.00     0.012 C 
HETATM   42  C27 UNL     1       3.066   0.005  11.121  1.00  0.00     0.012 C 
HETATM   43  C24 UNL     1       0.326   0.380  11.993  1.00  0.00    -0.013 C 
HETATM   44  C25 UNL     1       1.307  -0.418  12.852  1.00  0.00     0.009 C 
HETATM   45  C30 UNL     1       0.436   1.847  12.372  1.00  0.00     0.012 C 
HETATM   46  C26 UNL     1       2.676   0.114  12.571  1.00  0.00    -0.013 C 
HETATM   47  C28 UNL     1       2.688   1.575  12.969  1.00  0.00     0.012 C 
HETATM   48  C29 UNL     1       1.775   2.410  12.061  1.00  0.00     0.015 C 
BRANCH  39  49
HETATM   49  C18 UNL     1       1.619   3.177   9.661  1.00  0.00    -0.025 C 
HETATM   50  C19 UNL     1       1.955   4.635   9.685  1.00  0.00     0.017 C 
HETATM   51  C20 UNL     1       2.227   2.792   8.246  1.00  0.00     0.017 C 
HETATM   52  C21 UNL     1       0.162   3.097   9.375  1.00  0.00     0.017 C 
ENDBRANCH  39  49
ENDBRANCH  37  39
ENDBRANCH  32  35
ENDBRANCH  30  32
ENDBRANCH   1  28
TORSDOF 13
ENDMDL
MODEL 2
REMARK VINA RESULT: -9.651507496      2.225      4.130
REMARK  13 active torsions:
REMARK  status: ('A' for Active; 'I' for Inactive)
REMARK       I    between atoms: C2_2  and  N1_4 
REMARK    1  A    between atoms: N1_4  and  C3_6 
REMARK    2  A    between atoms: C3_6  and  C4_7 
REMARK    3  A    between atoms: C4_7  and  N2_8 
REMARK    4  A    between atoms: C4_7  and  C14_28 
REMARK       I    between atoms: N2_8  and  C5_10 
REMARK    5  A    between atoms: C5_10  and  C6_12 
REMARK    6  A    between atoms: N3_16  and  S1_17 
REMARK    7  A    between atoms: S1_17  and  N4_20 
REMARK    8  A    between atoms: N4_20  and  C10_22 
REMARK    9  A    between atoms: C10_22  and  C13_25 
REMARK       I    between atoms: C14_28  and  N5_30 
REMARK   10  A    between atoms: N5_30  and  C15_32 
REMARK   11  A    between atoms: C15_32  and  C16_33 
REMARK       I    between atoms: C16_33  and  N6_35 
REMARK   12  A    between atoms: N6_35  and  C17_37 
REMARK   13  A    between atoms: C17_37  and  C18_38 
ROOT
HETATM    1  C4  UNL     1       7.655  -2.311  12.820  1.00  0.00     0.194 C 
ENDROOT
BRANCH   1   2
HETATM    2  C3  UNL     1       8.309  -0.945  12.627  1.00  0.00     0.157 C 
BRANCH   2   3
HETATM    3  N1  UNL     1       7.838  -0.300  11.435  1.00  0.00    -0.359 N 
HETATM    4  C2  UNL     1       8.727   0.412  10.608  1.00  0.00     0.213 C 
HETATM    5  C1  UNL     1       8.270   1.096   9.363  1.00  0.00     0.117 C 
HETATM    6  O1  UNL     1       9.942   0.479  10.921  1.00  0.00    -0.274 OA
ATOM      7  H1  UNL     1       6.851  -0.358  11.184  1.00  0.00     0.162 HD
ENDBRANCH   2   3
ENDBRANCH   1   2
BRANCH   1   8
HETATM    8  N2  UNL     1       8.063  -2.836  14.098  1.00  0.00    -0.342 N 
HETATM    9  C5  UNL     1       8.818  -4.033  14.247  1.00  0.00     0.260 C 
HETATM   10  O2  UNL     1       9.125  -4.622  13.193  1.00  0.00    -0.267 OA
ATOM     11  H2  UNL     1       7.798  -2.323  14.939  1.00  0.00     0.163 HD
BRANCH   9  12
HETATM   12  C6  UNL     1       9.199  -4.525  15.547  1.00  0.00     0.072 C 
HETATM   13  C7  UNL     1       9.449  -6.015  15.651  1.00  0.00     0.059 C 
HETATM   14  C8  UNL     1       9.605  -6.201  17.145  1.00  0.00     0.022 C 
HETATM   15  C9  UNL     1       9.252  -4.850  17.741  1.00  0.00     0.115 C 
HETATM   16  N3  UNL     1       8.520  -4.158  16.705  1.00  0.00    -0.158 NA
BRANCH  16  17
HETATM   17  S1  UNL     1       6.879  -4.259  16.905  1.00  0.00     0.304 S 
HETATM   18  O3  UNL     1       6.125  -4.747  15.678  1.00  0.00    -0.188 OA
HETATM   19  O4  UNL     1       6.373  -2.791  17.012  1.00  0.00    -0.188 OA
BRANCH  17  20
HETATM   20  N4  UNL     1       6.303  -5.007  18.322  1.00  0.00    -0.287 N 
ATOM     21  H4  UNL     1       6.751  -4.856  19.226  1.00  0.00     0.174 HD
BRANCH  20  22
HETATM   22  C10 UNL     1       5.174  -5.848  18.185  1.00  0.00     0.122 C 
HETATM   23  C11 UNL     1       3.913  -5.224  17.647  1.00  0.00     0.050 C 
HETATM   24  C12 UNL     1       4.798  -6.256  19.642  1.00  0.00     0.050 C 
BRANCH  22  25
HETATM   25  C13 UNL     1       5.466  -7.137  17.512  1.00  0.00     0.202 C 
HETATM   26  O5  UNL     1       6.518  -7.743  17.756  1.00  0.00    -0.646 OA
HETATM   27  O6  UNL     1       4.558  -7.648  16.614  1.00  0.00    -0.646 OA
ENDBRANCH  22  25
ENDBRANCH  20  22
ENDBRANCH  17  20
ENDBRANCH  16  17
ENDBRANCH   9  12
ENDBRANCH   1   8
BRANCH   1  28
HETATM   28  C14 UNL     1       6.175  -2.093  12.816  1.00  0.00     0.243 C 
HETATM   29  O7  UNL     1       5.598  -2.162  11.722  1.00  0.00    -0.271 OA
HETATM   30  N5  UNL     1       5.463  -1.818  14.006  1.00  0.00    -0.341 N 
ATOM     31  H5  UNL     1       5.996  -1.772  14.875  1.00  0.00     0.163 HD
BRANCH  30  32
HETATM   32  C15 UNL     1       4.056  -1.602  14.082  1.00  0.00     0.114 A 
HETATM   33  C31 UNL     1       3.101  -2.749  14.026  1.00  0.00     0.044 A 
HETATM   34  C32 UNL     1       3.412  -2.174  15.344  1.00  0.00     0.044 A 
BRANCH  32  35
HETATM   35  C16 UNL     1       3.448  -0.289  13.683  1.00  0.00     0.246 C 
HETATM   36  O8  UNL     1       3.289   0.498  14.668  1.00  0.00    -0.271 OA
HETATM   37  N6  UNL     1       3.118  -0.033  12.374  1.00  0.00    -0.348 N 
ATOM     38  H6  UNL     1       3.315  -0.805  11.736  1.00  0.00     0.163 HD
BRANCH  37  39
HETATM   39  C17 UNL     1       2.537   1.144  11.722  1.00  0.00     0.047 C 
HETATM   40  C22 UNL     1       3.193   2.337  12.321  1.00  0.00     0.015 C 
HETATM   41  C23 UNL     1       3.029   3.628  11.577  1.00  0.00     0.012 C 
HETATM   42  C27 UNL     1       4.712   2.120  12.320  1.00  0.00     0.012 C 
HETATM   43  C24 UNL     1       3.438   3.556  10.146  1.00  0.00    -0.013 C 
HETATM   44  C25 UNL     1       4.947   3.316  10.133  1.00  0.00     0.009 C 
HETATM   45  C30 UNL     1       2.755   2.366   9.494  1.00  0.00     0.012 C 
HETATM   46  C26 UNL     1       5.202   2.057  10.899  1.00  0.00    -0.013 C 
HETATM   47  C28 UNL     1       4.481   0.934  10.184  1.00  0.00     0.012 C 
HETATM   48  C29 UNL     1       2.958   1.109  10.262  1.00  0.00     0.015 C 
BRANCH  39  49
HETATM   49  C18 UNL     1       1.096   1.078  11.965  1.00  0.00    -0.025 C 
HETATM   50  C19 UNL     1       0.231   2.264  11.673  1.00  0.00     0.017 C 
HETATM   51  C20 UNL     1       0.524   0.067  10.882  1.00  0.00     0.017 C 
HETATM   52  C21 UNL     1       0.564   0.481  13.218  1.00  0.00     0.017 C 
ENDBRANCH  39  49
ENDBRANCH  37  39
ENDBRANCH  32  35
ENDBRANCH  30  32
ENDBRANCH   1  28
TORSDOF 13
ENDMDL
MODEL 3
REMARK VINA RESULT: -9.637919009      2.473      4.831
REMARK  13 active torsions:
REMARK  status: ('A' for Active; 'I' for Inactive)
REMARK       I    between atoms: C2_2  and  N1_4 
REMARK    1  A    between atoms: N1_4  and  C3_6 
REMARK    2  A    between atoms: C3_6  and  C4_7 
REMARK    3  A    between atoms: C4_7  and  N2_8 
REMARK    4  A    between atoms: C4_7  and  C14_28 
REMARK       I    between atoms: N2_8  and  C5_10 
REMARK    5  A    between atoms: C5_10  and  C6_12 
REMARK    6  A    between atoms: N3_16  and  S1_17 
REMARK    7  A    between atoms: S1_17  and  N4_20 
REMARK    8  A    between atoms: N4_20  and  C10_22 
REMARK    9  A    between atoms: C10_22  and  C13_25 
REMARK       I    between atoms: C14_28  and  N5_30 
REMARK   10  A    between atoms: N5_30  and  C15_32 
REMARK   11  A    between atoms: C15_32  and  C16_33 
REMARK       I    between atoms: C16_33  and  N6_35 
REMARK   12  A    between atoms: N6_35  and  C17_37 
REMARK   13  A    between atoms: C17_37  and  C18_38 
ROOT
HETATM    1  C4  UNL     1       5.675  -1.193  15.307  1.00  0.00     0.194 C 
ENDROOT
BRANCH   1   2
HETATM    2  C3  UNL     1       4.385  -1.941  14.977  1.00  0.00     0.157 C 
BRANCH   2   3
HETATM    3  N1  UNL     1       3.749  -2.441  16.161  1.00  0.00    -0.359 N 
HETATM    4  C2  UNL     1       3.708  -3.823  16.422  1.00  0.00     0.213 C 
HETATM    5  C1  UNL     1       3.052  -4.377  17.643  1.00  0.00     0.117 C 
HETATM    6  O1  UNL     1       4.236  -4.621  15.608  1.00  0.00    -0.274 OA
ATOM      7  H1  UNL     1       3.322  -1.789  16.820  1.00  0.00     0.162 HD
ENDBRANCH   2   3
ENDBRANCH   1   2
BRANCH   1   8
HETATM    8  N2  UNL     1       6.792  -2.016  14.916  1.00  0.00    -0.342 N 
HETATM    9  C5  UNL     1       7.448  -2.915  15.804  1.00  0.00     0.260 C 
HETATM   10  O2  UNL     1       6.999  -2.966  16.964  1.00  0.00    -0.267 OA
ATOM     11  H2  UNL     1       7.129  -1.951  13.956  1.00  0.00     0.163 HD
BRANCH   9  12
HETATM   12  C6  UNL     1       8.568  -3.713  15.371  1.00  0.00     0.072 C 
HETATM   13  C7  UNL     1       8.371  -4.501  14.091  1.00  0.00     0.059 C 
HETATM   14  C8  UNL     1       9.617  -5.360  14.060  1.00  0.00     0.022 C 
HETATM   15  C9  UNL     1      10.293  -5.107  15.395  1.00  0.00     0.115 C 
HETATM   16  N3  UNL     1       9.266  -4.545  16.241  1.00  0.00    -0.158 NA
BRANCH  16  17
HETATM   17  S1  UNL     1       8.563  -5.671  17.230  1.00  0.00     0.304 S 
HETATM   18  O3  UNL     1       9.002  -5.595  18.683  1.00  0.00    -0.188 OA
HETATM   19  O4  UNL     1       9.160  -7.043  16.801  1.00  0.00    -0.188 OA
BRANCH  17  20
HETATM   20  N4  UNL     1       6.878  -5.888  17.104  1.00  0.00    -0.287 N 
ATOM     21  H4  UNL     1       6.309  -5.307  16.489  1.00  0.00     0.174 HD
BRANCH  20  22
HETATM   22  C10 UNL     1       6.307  -6.912  17.894  1.00  0.00     0.122 C 
HETATM   23  C11 UNL     1       7.166  -8.114  18.188  1.00  0.00     0.050 C 
HETATM   24  C12 UNL     1       5.145  -7.486  17.028  1.00  0.00     0.050 C 
BRANCH  22  25
HETATM   25  C13 UNL     1       5.635  -6.418  19.120  1.00  0.00     0.202 C 
HETATM   26  O5  UNL     1       6.121  -5.476  19.760  1.00  0.00    -0.646 OA
HETATM   27  O6  UNL     1       4.471  -7.018  19.540  1.00  0.00    -0.646 OA
ENDBRANCH  22  25
ENDBRANCH  20  22
ENDBRANCH  17  20
ENDBRANCH  16  17
ENDBRANCH   9  12
ENDBRANCH   1   8
BRANCH   1  28
HETATM   28  C14 UNL     1       5.671   0.065  14.500  1.00  0.00     0.243 C 
HETATM   29  O7  UNL     1       4.798   0.903  14.765  1.00  0.00    -0.271 OA
HETATM   30  N5  UNL     1       6.620   0.292  13.476  1.00  0.00    -0.341 N 
ATOM     31  H5  UNL     1       7.311  -0.437  13.303  1.00  0.00     0.163 HD
BRANCH  30  32
HETATM   32  C15 UNL     1       6.681   1.464  12.667  1.00  0.00     0.114 A 
HETATM   33  C31 UNL     1       7.343   2.707  13.168  1.00  0.00     0.044 A 
HETATM   34  C32 UNL     1       8.098   1.847  12.242  1.00  0.00     0.044 A 
BRANCH  32  35
HETATM   35  C16 UNL     1       5.679   1.712  11.577  1.00  0.00     0.246 C 
HETATM   36  O8  UNL     1       6.120   1.404  10.426  1.00  0.00    -0.271 OA
HETATM   37  N6  UNL     1       4.436   2.223  11.865  1.00  0.00    -0.348 N 
ATOM     38  H6  UNL     1       4.284   2.416  12.855  1.00  0.00     0.163 HD
BRANCH  37  39
HETATM   39  C17 UNL     1       3.287   2.542  11.012  1.00  0.00     0.047 C 
HETATM   40  C22 UNL     1       3.076   1.373  10.117  1.00  0.00     0.015 C 
HETATM   41  C23 UNL     1       1.757   1.309   9.408  1.00  0.00     0.012 C 
HETATM   42  C27 UNL     1       3.084   0.094  10.964  1.00  0.00     0.012 C 
HETATM   43  C24 UNL     1       0.579   1.405  10.316  1.00  0.00    -0.013 C 
HETATM   44  C25 UNL     1       0.589   0.145  11.181  1.00  0.00     0.009 C 
HETATM   45  C30 UNL     1       0.747   2.613  11.221  1.00  0.00     0.012 C 
HETATM   46  C26 UNL     1       1.902   0.110  11.896  1.00  0.00    -0.013 C 
HETATM   47  C28 UNL     1       1.983   1.348  12.762  1.00  0.00     0.012 C 
HETATM   48  C29 UNL     1       2.063   2.623  11.911  1.00  0.00     0.015 C 
BRANCH  39  49
HETATM   49  C18 UNL     1       3.632   3.775  10.304  1.00  0.00    -0.025 C 
HETATM   50  C19 UNL     1       2.561   4.760   9.950  1.00  0.00     0.017 C 
HETATM   51  C20 UNL     1       4.458   4.649  11.340  1.00  0.00     0.017 C 
HETATM   52  C21 UNL     1       4.564   3.750   9.147  1.00  0.00     0.017 C 
ENDBRANCH  39  49
ENDBRANCH  37  39
ENDBRANCH  32  35
ENDBRANCH  30  32
ENDBRANCH   1  28
TORSDOF 13
ENDMDL
MODEL 4
REMARK VINA RESULT: -9.606171373      3.237      6.201
REMARK  13 active torsions:
REMARK  status: ('A' for Active; 'I' for Inactive)
REMARK       I    between atoms: C2_2  and  N1_4 
REMARK    1  A    between atoms: N1_4  and  C3_6 
REMARK    2  A    between atoms: C3_6  and  C4_7 
REMARK    3  A    between atoms: C4_7  and  N2_8 
REMARK    4  A    between atoms: C4_7  and  C14_28 
REMARK       I    between atoms: N2_8  and  C5_10 
REMARK    5  A    between atoms: C5_10  and  C6_12 
REMARK    6  A    between atoms: N3_16  and  S1_17 
REMARK    7  A    between atoms: S1_17  and  N4_20 
REMARK    8  A    between atoms: N4_20  and  C10_22 
REMARK    9  A    between atoms: C10_22  and  C13_25 
REMARK       I    between atoms: C14_28  and  N5_30 
REMARK   10  A    between atoms: N5_30  and  C15_32 
REMARK   11  A    between atoms: C15_32  and  C16_33 
REMARK       I    between atoms: C16_33  and  N6_35 
REMARK   12  A    between atoms: N6_35  and  C17_37 
REMARK   13  A    between atoms: C17_37  and  C18_38 
ROOT
HETATM    1  C4  UNL     1       5.656  -3.878  14.970  1.00  0.00     0.194 C 
ENDROOT
BRANCH   1   2
HETATM    2  C3  UNL     1       7.129  -3.673  15.319  1.00  0.00     0.157 C 
BRANCH   2   3
HETATM    3  N1  UNL     1       7.764  -4.911  15.668  1.00  0.00    -0.359 N 
HETATM    4  C2  UNL     1       9.060  -4.918  16.219  1.00  0.00     0.213 C 
HETATM    5  C1  UNL     1       9.751  -6.188  16.592  1.00  0.00     0.117 C 
HETATM    6  O1  UNL     1       9.659  -3.830  16.404  1.00  0.00    -0.274 OA
ATOM      7  H1  UNL     1       7.274  -5.792  15.517  1.00  0.00     0.162 HD
ENDBRANCH   2   3
ENDBRANCH   1   2
BRANCH   1   8
HETATM    8  N2  UNL     1       5.011  -4.528  16.081  1.00  0.00    -0.342 N 
HETATM    9  C5  UNL     1       3.912  -5.421  15.934  1.00  0.00     0.260 C 
HETATM   10  O2  UNL     1       3.527  -5.628  14.768  1.00  0.00    -0.267 OA
ATOM     11  H2  UNL     1       5.358  -4.337  17.022  1.00  0.00     0.163 HD
BRANCH   9  12
HETATM   12  C6  UNL     1       3.292  -6.042  17.077  1.00  0.00     0.072 C 
HETATM   13  C7  UNL     1       3.264  -5.222  18.350  1.00  0.00     0.059 C 
HETATM   14  C8  UNL     1       2.758  -6.230  19.360  1.00  0.00     0.022 C 
HETATM   15  C9  UNL     1       2.725  -7.547  18.606  1.00  0.00     0.115 C 
HETATM   16  N3  UNL     1       3.580  -7.350  17.457  1.00  0.00    -0.158 NA
BRANCH  16  17
HETATM   17  S1  UNL     1       5.108  -7.945  17.687  1.00  0.00     0.304 S 
HETATM   18  O3  UNL     1       5.382  -8.448  19.095  1.00  0.00    -0.188 OA
HETATM   19  O4  UNL     1       6.059  -6.716  17.609  1.00  0.00    -0.188 OA
BRANCH  17  20
HETATM   20  N4  UNL     1       5.717  -9.024  16.518  1.00  0.00    -0.287 N 
ATOM     21  H4  UNL     1       6.577  -8.827  16.007  1.00  0.00     0.174 HD
BRANCH  20  22
HETATM   22  C10 UNL     1       4.972 -10.204  16.290  1.00  0.00     0.122 C 
HETATM   23  C11 UNL     1       4.158 -10.737  17.439  1.00  0.00     0.050 C 
HETATM   24  C12 UNL     1       6.040 -11.311  16.042  1.00  0.00     0.050 C 
BRANCH  22  25
HETATM   25  C13 UNL     1       4.179 -10.178  15.036  1.00  0.00     0.202 C 
HETATM   26  O5  UNL     1       3.920  -9.100  14.485  1.00  0.00    -0.646 OA
HETATM   27  O6  UNL     1       3.735 -11.362  14.495  1.00  0.00    -0.646 OA
ENDBRANCH  22  25
ENDBRANCH  20  22
ENDBRANCH  17  20
ENDBRANCH  16  17
ENDBRANCH   9  12
ENDBRANCH   1   8
BRANCH   1  28
HETATM   28  C14 UNL     1       5.062  -2.521  14.765  1.00  0.00     0.243 C 
HETATM   29  O7  UNL     1       3.993  -2.280  15.342  1.00  0.00    -0.271 OA
HETATM   30  N5  UNL     1       5.690  -1.553  13.947  1.00  0.00    -0.341 N 
ATOM     31  H5  UNL     1       6.567  -1.813  13.497  1.00  0.00     0.163 HD
BRANCH  30  32
HETATM   32  C15 UNL     1       5.187  -0.242  13.706  1.00  0.00     0.114 A 
HETATM   33  C31 UNL     1       5.147   0.776  14.799  1.00  0.00     0.044 A 
HETATM   34  C32 UNL     1       6.245   0.855  13.823  1.00  0.00     0.044 A 
BRANCH  32  35
HETATM   35  C16 UNL     1       4.216   0.028  12.594  1.00  0.00     0.246 C 
HETATM   36  O8  UNL     1       4.098  -0.953  11.796  1.00  0.00    -0.271 OA
HETATM   37  N6  UNL     1       3.561   1.234  12.506  1.00  0.00    -0.348 N 
ATOM     38  H6  UNL     1       3.808   1.896  13.242  1.00  0.00     0.163 HD
BRANCH  37  39
HETATM   39  C17 UNL     1       2.573   1.744  11.551  1.00  0.00     0.047 C 
HETATM   40  C22 UNL     1       2.531   3.221  11.722  1.00  0.00     0.015 C 
HETATM   41  C23 UNL     1       1.867   3.998  10.625  1.00  0.00     0.012 C 
HETATM   42  C27 UNL     1       3.967   3.761  11.717  1.00  0.00     0.012 C 
HETATM   43  C24 UNL     1       2.414   3.713   9.268  1.00  0.00    -0.013 C 
HETATM   44  C25 UNL     1       3.854   4.226   9.259  1.00  0.00     0.009 C 
HETATM   45  C30 UNL     1       2.436   2.210   9.048  1.00  0.00     0.012 C 
HETATM   46  C26 UNL     1       4.580   3.526  10.363  1.00  0.00    -0.013 C 
HETATM   47  C28 UNL     1       4.544   2.043  10.063  1.00  0.00     0.012 C 
HETATM   48  C29 UNL     1       3.116   1.488  10.155  1.00  0.00     0.015 C 
BRANCH  39  49
HETATM   49  C18 UNL     1       1.311   1.076  11.870  1.00  0.00    -0.025 C 
HETATM   50  C19 UNL     1       1.110   0.457  13.217  1.00  0.00     0.017 C 
HETATM   51  C20 UNL     1       0.223   2.230  11.948  1.00  0.00     0.017 C 
HETATM   52  C21 UNL     1       0.675   0.152  10.895  1.00  0.00     0.017 C 
ENDBRANCH  39  49
ENDBRANCH  37  39
ENDBRANCH  32  35
ENDBRANCH  30  32
ENDBRANCH   1  28
TORSDOF 13
ENDMDL
MODEL 5
REMARK VINA RESULT: -9.567097688      2.150      4.372
REMARK  13 active torsions:
REMARK  status: ('A' for Active; 'I' for Inactive)
REMARK       I    between atoms: C2_2  and  N1_4 
REMARK    1  A    between atoms: N1_4  and  C3_6 
REMARK    2  A    between atoms: C3_6  and  C4_7 
REMARK    3  A    between atoms: C4_7  and  N2_8 
REMARK    4  A    between atoms: C4_7  and  C14_28 
REMARK       I    between atoms: N2_8  and  C5_10 
REMARK    5  A    between atoms: C5_10  and  C6_12 
REMARK    6  A    between atoms: N3_16  and  S1_17 
REMARK    7  A    between atoms: S1_17  and  N4_20 
REMARK    8  A    between atoms: N4_20  and  C10_22 
REMARK    9  A    between atoms: C10_22  and  C13_25 
REMARK       I    between atoms: C14_28  and  N5_30 
REMARK   10  A    between atoms: N5_30  and  C15_32 
REMARK   11  A    between atoms: C15_32  and  C16_33 
REMARK       I    between atoms: C16_33  and  N6_35 
REMARK   12  A    between atoms: N6_35  and  C17_37 
REMARK   13  A    between atoms: C17_37  and  C18_38 
ROOT
HETATM    1  C4  UNL     1       6.956  -2.196  12.934  1.00  0.00     0.194 C 
ENDROOT
BRANCH   1   2
HETATM    2  C3  UNL     1       8.399  -2.633  13.178  1.00  0.00     0.157 C 
BRANCH   2   3
HETATM    3  N1  UNL     1       8.707  -2.675  14.578  1.00  0.00    -0.359 N 
HETATM    4  C2  UNL     1       9.774  -3.461  15.052  1.00  0.00     0.213 C 
HETATM    5  C1  UNL     1      10.121  -3.529  16.502  1.00  0.00     0.117 C 
HETATM    6  O1  UNL     1      10.460  -4.127  14.238  1.00  0.00    -0.274 OA
ATOM      7  H1  UNL     1       8.148  -2.132  15.236  1.00  0.00     0.162 HD
ENDBRANCH   2   3
ENDBRANCH   1   2
BRANCH   1   8
HETATM    8  N2  UNL     1       6.158  -2.613  14.059  1.00  0.00    -0.342 N 
HETATM    9  C5  UNL     1       4.753  -2.829  13.983  1.00  0.00     0.260 C 
HETATM   10  O2  UNL     1       4.230  -2.643  12.868  1.00  0.00    -0.267 OA
ATOM     11  H2  UNL     1       6.623  -2.760  14.955  1.00  0.00     0.163 HD
BRANCH   9  12
HETATM   12  C6  UNL     1       3.993  -3.238  15.138  1.00  0.00     0.072 C 
HETATM   13  C7  UNL     1       3.398  -2.125  15.974  1.00  0.00     0.059 C 
HETATM   14  C8  UNL     1       2.877  -2.883  17.177  1.00  0.00     0.022 C 
HETATM   15  C9  UNL     1       3.383  -4.302  16.986  1.00  0.00     0.115 C 
HETATM   16  N3  UNL     1       4.463  -4.196  16.032  1.00  0.00    -0.158 NA
BRANCH  16  17
HETATM   17  S1  UNL     1       5.952  -4.157  16.753  1.00  0.00     0.304 S 
HETATM   18  O3  UNL     1       6.588  -2.777  16.810  1.00  0.00    -0.188 OA
HETATM   19  O4  UNL     1       6.914  -4.898  15.780  1.00  0.00    -0.188 OA
BRANCH  17  20
HETATM   20  N4  UNL     1       6.132  -4.982  18.233  1.00  0.00    -0.287 N 
ATOM     21  H4  UNL     1       6.270  -4.481  19.110  1.00  0.00     0.174 HD
BRANCH  20  22
HETATM   22  C10 UNL     1       6.083  -6.394  18.185  1.00  0.00     0.122 C 
HETATM   23  C11 UNL     1       5.364  -7.018  17.018  1.00  0.00     0.050 C 
HETATM   24  C12 UNL     1       5.225  -6.808  19.419  1.00  0.00     0.050 C 
BRANCH  22  25
HETATM   25  C13 UNL     1       7.394  -7.047  18.421  1.00  0.00     0.202 C 
HETATM   26  O5  UNL     1       7.497  -8.278  18.352  1.00  0.00    -0.646 OA
HETATM   27  O6  UNL     1       8.490  -6.270  18.717  1.00  0.00    -0.646 OA
ENDBRANCH  22  25
ENDBRANCH  20  22
ENDBRANCH  17  20
ENDBRANCH  16  17
ENDBRANCH   9  12
ENDBRANCH   1   8
BRANCH   1  28
HETATM   28  C14 UNL     1       6.959  -0.704  12.844  1.00  0.00     0.243 C 
HETATM   29  O7  UNL     1       6.935  -0.074  13.911  1.00  0.00    -0.271 OA
HETATM   30  N5  UNL     1       6.988  -0.037  11.598  1.00  0.00    -0.341 N 
ATOM     31  H5  UNL     1       7.004  -0.611  10.755  1.00  0.00     0.163 HD
BRANCH  30  32
HETATM   32  C15 UNL     1       6.995   1.379  11.432  1.00  0.00     0.114 A 
HETATM   33  C31 UNL     1       8.181   2.192  11.839  1.00  0.00     0.044 A 
HETATM   34  C32 UNL     1       8.019   1.874  10.411  1.00  0.00     0.044 A 
BRANCH  32  35
HETATM   35  C16 UNL     1       5.717   2.163  11.375  1.00  0.00     0.246 C 
HETATM   36  O8  UNL     1       5.786   3.263  12.007  1.00  0.00    -0.271 OA
HETATM   37  N6  UNL     1       4.623   1.682  10.694  1.00  0.00    -0.348 N 
ATOM     38  H6  UNL     1       4.770   0.769  10.263  1.00  0.00     0.163 HD
BRANCH  37  39
HETATM   39  C17 UNL     1       3.285   2.237  10.473  1.00  0.00     0.047 C 
HETATM   40  C22 UNL     1       2.433   1.124   9.976  1.00  0.00     0.015 C 
HETATM   41  C23 UNL     1       0.952   1.352  10.017  1.00  0.00     0.012 C 
HETATM   42  C27 UNL     1       2.627  -0.094  10.889  1.00  0.00     0.012 C 
HETATM   43  C24 UNL     1       0.441   1.753  11.359  1.00  0.00    -0.013 C 
HETATM   44  C25 UNL     1       0.650   0.554  12.283  1.00  0.00     0.009 C 
HETATM   45  C30 UNL     1       1.269   2.914  11.880  1.00  0.00     0.012 C 
HETATM   46  C26 UNL     1       2.110   0.231  12.265  1.00  0.00    -0.013 C 
HETATM   47  C28 UNL     1       2.852   1.441  12.790  1.00  0.00     0.012 C 
HETATM   48  C29 UNL     1       2.727   2.633  11.831  1.00  0.00     0.015 C 
BRANCH  39  49
HETATM   49  C18 UNL     1       3.448   3.330   9.515  1.00  0.00    -0.025 C 
HETATM   50  C19 UNL     1       4.719   3.460   8.734  1.00  0.00     0.017 C 
HETATM   51  C20 UNL     1       2.444   3.012   8.326  1.00  0.00     0.017 C 
HETATM   52  C21 UNL     1       3.040   4.715   9.867  1.00  0.00     0.017 C 
ENDBRANCH  39  49
ENDBRANCH  37  39
ENDBRANCH  32  35
ENDBRANCH  30  32
ENDBRANCH   1  28
TORSDOF 13
ENDMDL
