MODEL 1
REMARK VINA RESULT: -9.618373818      0.000      0.000
REMARK  16 active torsions:
REMARK  status: ('A' for Active; 'I' for Inactive)
REMARK       I    between atoms: C1_4  and  N3_6 
REMARK    1  A    between atoms: C6_11  and  C7_12 
REMARK    2  A    between atoms: C7_12  and  O1_13 
REMARK    3  A    between atoms: C7_12  and  N4_15 
REMARK    4  A    between atoms: N4_15  and  C8_17 
REMARK    5  A    between atoms: C8_17  and  C9_18 
REMARK    6  A    between atoms: C8_17  and  C15_25 
REMARK    7  A    between atoms: C9_18  and  N5_19 
REMARK    8  A    between atoms: C15_25  and  O2_26 
REMARK    9  A    between atoms: C15_25  and  N6_28 
REMARK   10  A    between atoms: C19_32  and  C20_33 
REMARK       I    between atoms: C20_33  and  N7_35 
REMARK   11  A    between atoms: N7_35  and  C21_37 
REMARK   12  A    between atoms: C21_37  and  C22_38 
REMARK   13  A    between atoms: C21_37  and  C25_43 
REMARK   14  A    between atoms: C22_38  and  C23_39 
REMARK   15  A    between atoms: C23_39  and  C24_40 
REMARK       I    between atoms: C25_43  and  N8_45 
REMARK   16  A    between atoms: N8_45  and  C26_47 
ROOT
HETATM    1  N6  UNL     1       5.802  -2.884  15.424  1.00  0.00    -0.350 N 
HETATM    2  C16 UNL     1       4.629  -2.173  15.792  1.00  0.00     0.126 C 
HETATM    3  C17 UNL     1       3.487  -3.166  15.789  1.00  0.00     0.022 C 
HETATM    4  C18 UNL     1       4.002  -4.424  15.182  1.00  0.00     0.037 C 
HETATM    5  C19 UNL     1       5.499  -4.305  15.380  1.00  0.00     0.178 C 
ENDROOT
BRANCH   1   6
HETATM    6  C15 UNL     1       7.098  -2.422  15.099  1.00  0.00     0.139 C 
BRANCH   6   7
HETATM    7  C8  UNL     1       8.023  -2.874  14.045  1.00  0.00     0.186 C 
BRANCH   7   8
HETATM    8  N4  UNL     1       8.100  -1.862  12.978  1.00  0.00    -0.359 N 
ATOM      9  H4  UNL     1       9.025  -1.524  12.711  1.00  0.00     0.162 HD
BRANCH   8  10
HETATM   10  C7  UNL     1       6.991  -1.330  12.301  1.00  0.00     0.135 C 
BRANCH  10  11
HETATM   11  C6  UNL     1       6.757   0.033  11.887  1.00  0.00     0.161 C 
HETATM   12  N3  UNL     1       5.841   0.878  12.540  1.00  0.00    -0.344 N 
HETATM   13  C1  UNL     1       5.361   0.897  13.863  1.00  0.00     0.184 C 
HETATM   14  C2  UNL     1       5.316   1.972  11.657  1.00  0.00     0.126 C 
HETATM   15  N1  UNL     1       6.176   1.024  14.894  1.00  0.00    -0.374 N 
HETATM   16  N2  UNL     1       3.986   0.807  14.207  1.00  0.00    -0.064 NA
ATOM     17  H12 UNL     1       5.828   1.038  15.854  1.00  0.00     0.158 HD
ATOM     18  H11 UNL     1       7.164   1.089  14.647  1.00  0.00     0.158 HD
HETATM   19  C3  UNL     1       6.527   2.826  11.370  1.00  0.00     0.020 C 
HETATM   20  C4  UNL     1       7.808   2.318  11.935  1.00  0.00     0.004 C 
HETATM   21  C5  UNL     1       8.055   0.842  11.746  1.00  0.00     0.034 C 
ENDBRANCH  10  11
BRANCH  10  22
HETATM   22  O1  UNL     1       6.013  -2.137  11.983  1.00  0.00    -0.348 OA
ATOM     23  H1  UNL     1       6.194  -3.044  12.200  1.00  0.00     0.219 HD
ENDBRANCH  10  22
ENDBRANCH   8  10
ENDBRANCH   7   8
BRANCH   7  24
HETATM   24  C9  UNL     1       9.347  -3.346  14.483  1.00  0.00     0.305 C 
BRANCH  24  25
HETATM   25  N5  UNL     1       9.215  -4.279  15.640  1.00  0.00     0.090 N 
HETATM   26  C10 UNL     1       9.695  -5.594  15.230  1.00  0.00     0.272 C 
HETATM   27  C11 UNL     1       9.239  -6.606  16.277  1.00  0.00     0.030 C 
HETATM   28  C12 UNL     1       9.652  -6.092  17.647  1.00  0.00     0.003 C 
HETATM   29  C13 UNL     1      10.644  -4.979  17.521  1.00  0.00     0.030 C 
HETATM   30  C14 UNL     1      10.110  -3.817  16.712  1.00  0.00     0.272 C 
ENDBRANCH  24  25
ENDBRANCH   7  24
ENDBRANCH   6   7
BRANCH   6  31
HETATM   31  O2  UNL     1       7.617  -1.448  15.799  1.00  0.00    -0.348 OA
ATOM     32  H2  UNL     1       7.797  -1.723  16.690  1.00  0.00     0.219 HD
ENDBRANCH   6  31
ENDBRANCH   1   6
BRANCH   5  33
HETATM   33  C20 UNL     1       5.851  -4.968  16.620  1.00  0.00     0.241 C 
HETATM   34  O3  UNL     1       6.587  -4.333  17.461  1.00  0.00    -0.271 OA
HETATM   35  N7  UNL     1       5.453  -6.267  16.977  1.00  0.00    -0.346 N 
ATOM     36  H7  UNL     1       4.871  -6.817  16.345  1.00  0.00     0.163 HD
BRANCH  35  37
HETATM   37  C21 UNL     1       5.870  -6.815  18.238  1.00  0.00     0.177 C 
BRANCH  37  38
HETATM   38  C22 UNL     1       5.002  -6.642  19.402  1.00  0.00     0.045 C 
BRANCH  38  39
HETATM   39  C23 UNL     1       3.586  -6.278  19.276  1.00  0.00     0.116 C 
BRANCH  39  40
HETATM   40  C24 UNL     1       2.685  -7.139  18.538  1.00  0.00     0.172 C 
HETATM   41  O4  UNL     1       1.941  -8.011  19.067  1.00  0.00    -0.648 OA
HETATM   42  O5  UNL     1       2.563  -7.070  17.136  1.00  0.00    -0.648 OA
ENDBRANCH  39  40
ENDBRANCH  38  39
ENDBRANCH  37  38
BRANCH  37  43
HETATM   43  C25 UNL     1       6.392  -8.214  18.051  1.00  0.00     0.241 C 
HETATM   44  O6  UNL     1       5.862  -8.909  17.167  1.00  0.00    -0.271 OA
HETATM   45  N8  UNL     1       7.440  -8.711  18.838  1.00  0.00    -0.350 N 
ATOM     46  H8  UNL     1       7.831  -8.095  19.550  1.00  0.00     0.163 HD
BRANCH  45  47
HETATM   47  C26 UNL     1       7.999 -10.023  18.715  1.00  0.00     0.034 C 
HETATM   48  C27 UNL     1       6.950 -11.066  18.900  1.00  0.00     0.035 C 
HETATM   49  C28 UNL     1       7.563 -12.454  18.860  1.00  0.00    -0.012 C 
HETATM   50  C29 UNL     1       8.202 -12.625  17.498  1.00  0.00     0.009 C 
HETATM   51  C33 UNL     1       8.569 -12.592  19.963  1.00  0.00     0.009 C 
HETATM   52  C30 UNL     1       9.279 -11.583  17.321  1.00  0.00    -0.012 C 
HETATM   53  C31 UNL     1      10.328 -11.819  18.410  1.00  0.00     0.009 C 
HETATM   54  C35 UNL     1       8.740 -10.185  17.396  1.00  0.00     0.035 C 
HETATM   55  C32 UNL     1       9.663 -11.573  19.731  1.00  0.00    -0.012 C 
HETATM   56  C34 UNL     1       9.067 -10.208  19.801  1.00  0.00     0.035 C 
ENDBRANCH  45  47
ENDBRANCH  37  43
ENDBRANCH  35  37
ENDBRANCH   5  33
TORSDOF 16
ENDMDL
MODEL 2
REMARK VINA RESULT: -9.539393507      2.613     11.015
REMARK  16 active torsions:
REMARK  status: ('A' for Active; 'I' for Inactive)
REMARK       I    between atoms: C1_4  and  N3_6 
REMARK    1  A    between atoms: C6_11  and  C7_12 
REMARK    2  A    between atoms: C7_12  and  O1_13 
REMARK    3  A    between atoms: C7_12  and  N4_15 
REMARK    4  A    between atoms: N4_15  and  C8_17 
REMARK    5  A    between atoms: C8_17  and  C9_18 
REMARK    6  A    between atoms: C8_17  and  C15_25 
REMARK    7  A    between atoms: C9_18  and  N5_19 
REMARK    8  A    between atoms: C15_25  and  O2_26 
REMARK    9  A    between atoms: C15_25  and  N6_28 
REMARK   10  A    between atoms: C19_32  and  C20_33 
REMARK       I    between atoms: C20_33  and  N7_35 
REMARK   11  A    between atoms: N7_35  and  C21_37 
REMARK   12  A    between atoms: C21_37  and  C22_38 
REMARK   13  A    between atoms: C21_37  and  C25_43 
REMARK   14  A    between atoms: C22_38  and  C23_39 
REMARK   15  A    between atoms: C23_39  and  C24_40 
REMARK       I    between atoms: C25_43  and  N8_45 
REMARK   16  A    between atoms: N8_45  and  C26_47 
ROOT
HETATM    1  N6  UNL     1       8.374  -4.484  15.934  1.00  0.00    -0.350 N 
HETATM    2  C16 UNL     1       9.787  -4.356  15.974  1.00  0.00     0.126 C 
HETATM    3  C17 UNL     1      10.256  -4.140  14.552  1.00  0.00     0.022 C 
HETATM    4  C18 UNL     1       9.086  -4.380  13.665  1.00  0.00     0.037 C 
HETATM    5  C19 UNL     1       7.908  -4.167  14.594  1.00  0.00     0.178 C 
ENDROOT
BRANCH   1   6
HETATM    6  C15 UNL     1       7.452  -4.873  16.934  1.00  0.00     0.139 C 
BRANCH   6   7
HETATM    7  C8  UNL     1       6.319  -5.811  16.859  1.00  0.00     0.186 C 
BRANCH   7   8
HETATM    8  N4  UNL     1       6.649  -7.054  17.578  1.00  0.00    -0.359 N 
ATOM      9  H4  UNL     1       7.623  -7.206  17.837  1.00  0.00     0.162 HD
BRANCH   8  10
HETATM   10  C7  UNL     1       5.717  -8.043  17.931  1.00  0.00     0.135 C 
BRANCH  10  11
HETATM   11  C6  UNL     1       4.986  -8.941  17.069  1.00  0.00     0.161 C 
HETATM   12  N3  UNL     1       5.548 -10.122  16.551  1.00  0.00    -0.344 N 
HETATM   13  C1  UNL     1       6.576 -10.959  17.026  1.00  0.00     0.184 C 
HETATM   14  C2  UNL     1       4.898 -10.574  15.276  1.00  0.00     0.126 C 
HETATM   15  N1  UNL     1       6.505 -11.540  18.210  1.00  0.00    -0.374 N 
HETATM   16  N2  UNL     1       7.749 -11.268  16.288  1.00  0.00    -0.064 NA
ATOM     17  H12 UNL     1       7.250 -12.146  18.554  1.00  0.00     0.158 HD
ATOM     18  H11 UNL     1       5.663 -11.318  18.740  1.00  0.00     0.158 HD
HETATM   19  C3  UNL     1       3.493 -10.938  15.689  1.00  0.00     0.020 C 
HETATM   20  C4  UNL     1       3.165 -10.677  17.118  1.00  0.00     0.004 C 
HETATM   21  C5  UNL     1       3.621  -9.340  17.649  1.00  0.00     0.034 C 
ENDBRANCH  10  11
BRANCH  10  22
HETATM   22  O1  UNL     1       5.441  -8.211  19.197  1.00  0.00    -0.348 OA
ATOM     23  H1  UNL     1       5.686  -7.465  19.733  1.00  0.00     0.219 HD
ENDBRANCH  10  22
ENDBRANCH   8  10
ENDBRANCH   7   8
BRANCH   7  24
HETATM   24  C9  UNL     1       4.993  -5.279  17.213  1.00  0.00     0.305 C 
BRANCH  24  25
HETATM   25  N5  UNL     1       4.331  -4.680  16.017  1.00  0.00     0.090 N 
HETATM   26  C10 UNL     1       2.920  -5.044  16.039  1.00  0.00     0.272 C 
HETATM   27  C11 UNL     1       2.336  -4.737  14.664  1.00  0.00     0.030 C 
HETATM   28  C12 UNL     1       2.697  -3.304  14.303  1.00  0.00     0.003 C 
HETATM   29  C13 UNL     1       3.185  -2.560  15.505  1.00  0.00     0.030 C 
HETATM   30  C14 UNL     1       4.393  -3.216  16.139  1.00  0.00     0.272 C 
ENDBRANCH  24  25
ENDBRANCH   7  24
ENDBRANCH   6   7
BRANCH   6  31
HETATM   31  O2  UNL     1       7.563  -4.360  18.130  1.00  0.00    -0.348 OA
ATOM     32  H2  UNL     1       7.017  -3.589  18.226  1.00  0.00     0.219 HD
ENDBRANCH   6  31
ENDBRANCH   1   6
BRANCH   5  33
HETATM   33  C20 UNL     1       7.483  -2.786  14.486  1.00  0.00     0.241 C 
HETATM   34  O3  UNL     1       7.614  -2.027  15.514  1.00  0.00    -0.271 OA
HETATM   35  N7  UNL     1       6.926  -2.206  13.334  1.00  0.00    -0.346 N 
ATOM     36  H7  UNL     1       6.795  -2.764  12.489  1.00  0.00     0.163 HD
BRANCH  35  37
HETATM   37  C21 UNL     1       6.541  -0.821  13.353  1.00  0.00     0.177 C 
BRANCH  37  38
HETATM   38  C22 UNL     1       7.519   0.186  12.944  1.00  0.00     0.045 C 
BRANCH  38  39
HETATM   39  C23 UNL     1       8.313   0.055  11.717  1.00  0.00     0.116 C 
BRANCH  39  40
HETATM   40  C24 UNL     1       7.858   0.683  10.495  1.00  0.00     0.172 C 
HETATM   41  O4  UNL     1       8.426   0.554   9.375  1.00  0.00    -0.648 OA
HETATM   42  O5  UNL     1       6.717   1.509  10.457  1.00  0.00    -0.648 OA
ENDBRANCH  39  40
ENDBRANCH  38  39
ENDBRANCH  37  38
BRANCH  37  43
HETATM   43  C25 UNL     1       5.176  -0.652  12.741  1.00  0.00     0.241 C 
HETATM   44  O6  UNL     1       4.632  -1.665  12.268  1.00  0.00    -0.271 OA
HETATM   45  N8  UNL     1       4.543   0.598  12.710  1.00  0.00    -0.350 N 
ATOM     46  H8  UNL     1       5.043   1.392  13.109  1.00  0.00     0.163 HD
BRANCH  45  47
HETATM   47  C26 UNL     1       3.245   0.839  12.158  1.00  0.00     0.034 C 
HETATM   48  C27 UNL     1       3.209   0.477  10.712  1.00  0.00     0.035 C 
HETATM   49  C28 UNL     1       1.858   0.821  10.108  1.00  0.00    -0.012 C 
HETATM   50  C29 UNL     1       0.815   0.014  10.851  1.00  0.00     0.009 C 
HETATM   51  C33 UNL     1       1.611   2.294  10.234  1.00  0.00     0.009 C 
HETATM   52  C30 UNL     1       0.838   0.398  12.310  1.00  0.00    -0.012 C 
HETATM   53  C31 UNL     1       0.491   1.886  12.398  1.00  0.00     0.009 C 
HETATM   54  C35 UNL     1       2.165   0.123  12.954  1.00  0.00     0.035 C 
HETATM   55  C32 UNL     1       1.586   2.641  11.706  1.00  0.00    -0.012 C 
HETATM   56  C34 UNL     1       2.922   2.333  12.293  1.00  0.00     0.035 C 
ENDBRANCH  45  47
ENDBRANCH  37  43
ENDBRANCH  35  37
ENDBRANCH   5  33
TORSDOF 16
ENDMDL
MODEL 3
REMARK VINA RESULT: -9.498137406      3.821      7.260
REMARK  16 active torsions:
REMARK  status: ('A' for Active; 'I' for Inactive)
REMARK       I    between atoms: C1_4  and  N3_6 
REMARK    1  A    between atoms: C6_11  and  C7_12 
REMARK    2  A    between atoms: C7_12  and  O1_13 
REMARK    3  A    between atoms: C7_12  and  N4_15 
REMARK    4  A    between atoms: N4_15  and  C8_17 
REMARK    5  A    between atoms: C8_17  and  C9_18 
REMARK    6  A    between atoms: C8_17  and  C15_25 
REMARK    7  A    between atoms: C9_18  and  N5_19 
REMARK    8  A    between atoms: C15_25  and  O2_26 
REMARK    9  A    between atoms: C15_25  and  N6_28 
REMARK   10  A    between atoms: C19_32  and  C20_33 
REMARK       I    between atoms: C20_33  and  N7_35 
REMARK   11  A    between atoms: N7_35  and  C21_37 
REMARK   12  A    between atoms: C21_37  and  C22_38 
REMARK   13  A    between atoms: C21_37  and  C25_43 
REMARK   14  A    between atoms: C22_38  and  C23_39 
REMARK   15  A    between atoms: C23_39  and  C24_40 
REMARK       I    between atoms: C25_43  and  N8_45 
REMARK   16  A    between atoms: N8_45  and  C26_47 
ROOT
HETATM    1  N6  UNL     1       2.718   1.834  12.107  1.00  0.00    -0.350 N 
HETATM    2  C16 UNL     1       1.364   2.083  12.455  1.00  0.00     0.126 C 
HETATM    3  C17 UNL     1       0.656   0.746  12.480  1.00  0.00     0.022 C 
HETATM    4  C18 UNL     1       1.596  -0.256  11.906  1.00  0.00     0.037 C 
HETATM    5  C19 UNL     1       2.948   0.399  12.101  1.00  0.00     0.178 C 
ENDROOT
BRANCH   1   6
HETATM    6  C15 UNL     1       3.764   2.724  11.769  1.00  0.00     0.139 C 
BRANCH   6   7
HETATM    7  C8  UNL     1       5.022   2.469  11.046  1.00  0.00     0.186 C 
BRANCH   7   8
HETATM    8  N4  UNL     1       4.826   2.698   9.604  1.00  0.00    -0.359 N 
ATOM      9  H4  UNL     1       4.872   1.889   8.986  1.00  0.00     0.162 HD
BRANCH   8  10
HETATM   10  C7  UNL     1       4.582   3.952   9.021  1.00  0.00     0.135 C 
BRANCH  10  11
HETATM   11  C6  UNL     1       3.668   4.287   7.955  1.00  0.00     0.161 C 
HETATM   12  N3  UNL     1       2.300   3.962   7.998  1.00  0.00    -0.344 N 
HETATM   13  C1  UNL     1       1.417   3.759   9.076  1.00  0.00     0.184 C 
HETATM   14  C2  UNL     1       1.678   3.847   6.637  1.00  0.00     0.126 C 
HETATM   15  N1  UNL     1       1.198   4.698   9.979  1.00  0.00    -0.374 N 
HETATM   16  N2  UNL     1       0.679   2.562   9.280  1.00  0.00    -0.064 NA
ATOM     17  H12 UNL     1       0.558   4.551  10.760  1.00  0.00     0.158 HD
ATOM     18  H11 UNL     1       1.727   5.557   9.832  1.00  0.00     0.158 HD
HETATM   19  C3  UNL     1       1.748   5.249   6.082  1.00  0.00     0.020 C 
HETATM   20  C4  UNL     1       2.441   6.241   6.951  1.00  0.00     0.004 C 
HETATM   21  C5  UNL     1       3.739   5.769   7.557  1.00  0.00     0.034 C 
ENDBRANCH  10  11
BRANCH  10  22
HETATM   22  O1  UNL     1       5.248   4.984   9.468  1.00  0.00    -0.348 OA
ATOM     23  H1  UNL     1       5.910   4.751  10.109  1.00  0.00     0.219 HD
ENDBRANCH  10  22
ENDBRANCH   8  10
ENDBRANCH   7   8
BRANCH   7  24
HETATM   24  C9  UNL     1       6.232   3.123  11.571  1.00  0.00     0.305 C 
BRANCH  24  25
HETATM   25  N5  UNL     1       7.431   2.261  11.349  1.00  0.00     0.090 N 
HETATM   26  C10 UNL     1       6.995   0.871  11.288  1.00  0.00     0.272 C 
HETATM   27  C11 UNL     1       8.232  -0.012  11.414  1.00  0.00     0.030 C 
HETATM   28  C12 UNL     1       9.259   0.458  10.395  1.00  0.00     0.003 C 
HETATM   29  C13 UNL     1       8.631   1.371   9.390  1.00  0.00     0.030 C 
HETATM   30  C14 UNL     1       7.996   2.586  10.030  1.00  0.00     0.272 C 
ENDBRANCH  24  25
ENDBRANCH   7  24
ENDBRANCH   6   7
BRANCH   6  31
HETATM   31  O2  UNL     1       3.666   3.978  12.121  1.00  0.00    -0.348 OA
ATOM     32  H2  UNL     1       3.888   4.097  13.037  1.00  0.00     0.219 HD
ENDBRANCH   6  31
ENDBRANCH   1   6
BRANCH   5  33
HETATM   33  C20 UNL     1       3.503  -0.061  13.358  1.00  0.00     0.241 C 
HETATM   34  O3  UNL     1       3.818   0.817  14.241  1.00  0.00    -0.271 OA
HETATM   35  N7  UNL     1       3.733  -1.407  13.689  1.00  0.00    -0.346 N 
ATOM     36  H7  UNL     1       3.505  -2.146  13.023  1.00  0.00     0.163 HD
BRANCH  35  37
HETATM   37  C21 UNL     1       4.292  -1.736  14.972  1.00  0.00     0.177 C 
BRANCH  37  38
HETATM   38  C22 UNL     1       3.508  -2.562  15.889  1.00  0.00     0.045 C 
BRANCH  38  39
HETATM   39  C23 UNL     1       2.844  -3.797  15.458  1.00  0.00     0.116 C 
BRANCH  39  40
HETATM   40  C24 UNL     1       3.408  -5.081  15.819  1.00  0.00     0.172 C 
HETATM   41  O4  UNL     1       4.545  -5.487  15.450  1.00  0.00    -0.648 OA
HETATM   42  O5  UNL     1       2.715  -6.002  16.630  1.00  0.00    -0.648 OA
ENDBRANCH  39  40
ENDBRANCH  38  39
ENDBRANCH  37  38
BRANCH  37  43
HETATM   43  C25 UNL     1       5.728  -2.161  14.820  1.00  0.00     0.241 C 
HETATM   44  O6  UNL     1       6.373  -1.672  13.876  1.00  0.00    -0.271 OA
HETATM   45  N8  UNL     1       6.317  -3.067  15.713  1.00  0.00    -0.350 N 
ATOM     46  H8  UNL     1       5.736  -3.437  16.464  1.00  0.00     0.163 HD
BRANCH  45  47
HETATM   47  C26 UNL     1       7.676  -3.511  15.644  1.00  0.00     0.034 C 
HETATM   48  C27 UNL     1       7.970  -4.110  14.311  1.00  0.00     0.035 C 
HETATM   49  C28 UNL     1       9.385  -4.662  14.273  1.00  0.00    -0.012 C 
HETATM   50  C29 UNL     1      10.327  -3.503  14.520  1.00  0.00     0.009 C 
HETATM   51  C33 UNL     1       9.536  -5.728  15.316  1.00  0.00     0.009 C 
HETATM   52  C30 UNL     1      10.042  -2.912  15.879  1.00  0.00    -0.012 C 
HETATM   53  C31 UNL     1      10.297  -4.007  16.917  1.00  0.00     0.009 C 
HETATM   54  C35 UNL     1       8.641  -2.388  15.993  1.00  0.00     0.035 C 
HETATM   55  C32 UNL     1       9.298  -5.098  16.671  1.00  0.00    -0.012 C 
HETATM   56  C34 UNL     1       7.899  -4.582  16.719  1.00  0.00     0.035 C 
ENDBRANCH  45  47
ENDBRANCH  37  43
ENDBRANCH  35  37
ENDBRANCH   5  33
TORSDOF 16
ENDMDL
MODEL 4
REMARK VINA RESULT: -9.489844743      2.306      5.006
REMARK  16 active torsions:
REMARK  status: ('A' for Active; 'I' for Inactive)
REMARK       I    between atoms: C1_4  and  N3_6 
REMARK    1  A    between atoms: C6_11  and  C7_12 
REMARK    2  A    between atoms: C7_12  and  O1_13 
REMARK    3  A    between atoms: C7_12  and  N4_15 
REMARK    4  A    between atoms: N4_15  and  C8_17 
REMARK    5  A    between atoms: C8_17  and  C9_18 
REMARK    6  A    between atoms: C8_17  and  C15_25 
REMARK    7  A    between atoms: C9_18  and  N5_19 
REMARK    8  A    between atoms: C15_25  and  O2_26 
REMARK    9  A    between atoms: C15_25  and  N6_28 
REMARK   10  A    between atoms: C19_32  and  C20_33 
REMARK       I    between atoms: C20_33  and  N7_35 
REMARK   11  A    between atoms: N7_35  and  C21_37 
REMARK   12  A    between atoms: C21_37  and  C22_38 
REMARK   13  A    between atoms: C21_37  and  C25_43 
REMARK   14  A    between atoms: C22_38  and  C23_39 
REMARK   15  A    between atoms: C23_39  and  C24_40 
REMARK       I    between atoms: C25_43  and  N8_45 
REMARK   16  A    between atoms: N8_45  and  C26_47 
ROOT
HETATM    1  N6  UNL     1       7.440  -2.075  14.255  1.00  0.00    -0.350 N 
HETATM    2  C16 UNL     1       7.825  -3.006  13.255  1.00  0.00     0.126 C 
HETATM    3  C17 UNL     1       8.916  -3.872  13.847  1.00  0.00     0.022 C 
HETATM    4  C18 UNL     1       9.307  -3.256  15.144  1.00  0.00     0.037 C 
HETATM    5  C19 UNL     1       8.089  -2.432  15.507  1.00  0.00     0.178 C 
ENDROOT
BRANCH   1   6
HETATM    6  C15 UNL     1       6.605  -0.936  14.186  1.00  0.00     0.139 C 
BRANCH   6   7
HETATM    7  C8  UNL     1       6.017  -0.267  13.014  1.00  0.00     0.186 C 
BRANCH   7   8
HETATM    8  N4  UNL     1       4.553  -0.432  13.025  1.00  0.00    -0.359 N 
ATOM      9  H4  UNL     1       4.172  -1.309  12.673  1.00  0.00     0.162 HD
BRANCH   8  10
HETATM   10  C7  UNL     1       3.645   0.534  13.488  1.00  0.00     0.135 C 
BRANCH  10  11
HETATM   11  C6  UNL     1       2.438   1.012  12.857  1.00  0.00     0.161 C 
HETATM   12  N3  UNL     1       2.385   2.219  12.135  1.00  0.00    -0.344 N 
HETATM   13  C1  UNL     1       3.373   2.940  11.440  1.00  0.00     0.184 C 
HETATM   14  C2  UNL     1       1.008   2.813  12.082  1.00  0.00     0.126 C 
HETATM   15  N1  UNL     1       4.052   2.402  10.442  1.00  0.00    -0.374 N 
HETATM   16  N2  UNL     1       3.713   4.290  11.722  1.00  0.00    -0.064 NA
ATOM     17  H12 UNL     1       4.768   2.925   9.938  1.00  0.00     0.158 HD
ATOM     18  H11 UNL     1       3.807   1.433  10.240  1.00  0.00     0.158 HD
HETATM   19  C3  UNL     1       0.209   1.819  11.274  1.00  0.00     0.020 C 
HETATM   20  C4  UNL     1       0.949   0.590  10.873  1.00  0.00     0.004 C 
HETATM   21  C5  UNL     1       1.778  -0.046  11.961  1.00  0.00     0.034 C 
ENDBRANCH  10  11
BRANCH  10  22
HETATM   22  O1  UNL     1       3.882   1.107  14.639  1.00  0.00    -0.348 OA
ATOM     23  H1  UNL     1       4.727   0.873  15.004  1.00  0.00     0.219 HD
ENDBRANCH  10  22
ENDBRANCH   8  10
ENDBRANCH   7   8
BRANCH   7  24
HETATM   24  C9  UNL     1       6.435   1.122  12.762  1.00  0.00     0.305 C 
BRANCH  24  25
HETATM   25  N5  UNL     1       6.995   1.259  11.386  1.00  0.00     0.090 N 
HETATM   26  C10 UNL     1       7.663   2.551  11.286  1.00  0.00     0.272 C 
HETATM   27  C11 UNL     1       7.920   2.833   9.809  1.00  0.00     0.030 C 
HETATM   28  C12 UNL     1       8.617   1.622   9.208  1.00  0.00     0.003 C 
HETATM   29  C13 UNL     1       9.130   0.716  10.282  1.00  0.00     0.030 C 
HETATM   30  C14 UNL     1       8.031   0.231  11.203  1.00  0.00     0.272 C 
ENDBRANCH  24  25
ENDBRANCH   7  24
ENDBRANCH   6   7
BRANCH   6  31
HETATM   31  O2  UNL     1       6.265  -0.333  15.295  1.00  0.00    -0.348 OA
ATOM     32  H2  UNL     1       6.040  -0.961  15.972  1.00  0.00     0.219 HD
ENDBRANCH   6  31
ENDBRANCH   1   6
BRANCH   5  33
HETATM   33  C20 UNL     1       7.225  -3.235  16.349  1.00  0.00     0.241 C 
HETATM   34  O3  UNL     1       6.489  -2.634  17.214  1.00  0.00    -0.271 OA
HETATM   35  N7  UNL     1       7.133  -4.636  16.298  1.00  0.00    -0.346 N 
ATOM     36  H7  UNL     1       7.698  -5.164  15.633  1.00  0.00     0.163 HD
BRANCH  35  37
HETATM   37  C21 UNL     1       6.237  -5.320  17.191  1.00  0.00     0.177 C 
BRANCH  37  38
HETATM   38  C22 UNL     1       4.838  -5.480  16.797  1.00  0.00     0.045 C 
BRANCH  38  39
HETATM   39  C23 UNL     1       4.365  -5.165  15.444  1.00  0.00     0.116 C 
BRANCH  39  40
HETATM   40  C24 UNL     1       3.889  -3.832  15.140  1.00  0.00     0.172 C 
HETATM   41  O4  UNL     1       3.380  -3.048  15.989  1.00  0.00    -0.648 OA
HETATM   42  O5  UNL     1       3.959  -3.289  13.842  1.00  0.00    -0.648 OA
ENDBRANCH  39  40
ENDBRANCH  38  39
ENDBRANCH  37  38
BRANCH  37  43
HETATM   43  C25 UNL     1       6.885  -6.572  17.720  1.00  0.00     0.241 C 
HETATM   44  O6  UNL     1       7.669  -6.449  18.677  1.00  0.00    -0.271 OA
HETATM   45  N8  UNL     1       6.610  -7.826  17.159  1.00  0.00    -0.350 N 
ATOM     46  H8  UNL     1       5.961  -7.862  16.373  1.00  0.00     0.163 HD
BRANCH  45  47
HETATM   47  C26 UNL     1       7.174  -9.061  17.611  1.00  0.00     0.034 C 
HETATM   48  C27 UNL     1       8.661  -9.032  17.512  1.00  0.00     0.035 C 
HETATM   49  C28 UNL     1       9.250 -10.375  17.905  1.00  0.00    -0.012 C 
HETATM   50  C29 UNL     1       8.850 -10.639  19.341  1.00  0.00     0.009 C 
HETATM   51  C33 UNL     1       8.734 -11.439  16.984  1.00  0.00     0.009 C 
HETATM   52  C30 UNL     1       7.345 -10.691  19.436  1.00  0.00    -0.012 C 
HETATM   53  C31 UNL     1       6.870 -11.847  18.553  1.00  0.00     0.009 C 
HETATM   54  C35 UNL     1       6.700  -9.403  19.016  1.00  0.00     0.035 C 
HETATM   55  C32 UNL     1       7.231 -11.506  17.138  1.00  0.00    -0.012 C 
HETATM   56  C34 UNL     1       6.649 -10.197  16.723  1.00  0.00     0.035 C 
ENDBRANCH  45  47
ENDBRANCH  37  43
ENDBRANCH  35  37
ENDBRANCH   5  33
TORSDOF 16
ENDMDL
MODEL 5
REMARK VINA RESULT: -9.474011365      3.326      7.226
REMARK  16 active torsions:
REMARK  status: ('A' for Active; 'I' for Inactive)
REMARK       I    between atoms: C1_4  and  N3_6 
REMARK    1  A    between atoms: C6_11  and  C7_12 
REMARK    2  A    between atoms: C7_12  and  O1_13 
REMARK    3  A    between atoms: C7_12  and  N4_15 
REMARK    4  A    between atoms: N4_15  and  C8_17 
REMARK    5  A    between atoms: C8_17  and  C9_18 
REMARK    6  A    between atoms: C8_17  and  C15_25 
REMARK    7  A    between atoms: C9_18  and  N5_19 
REMARK    8  A    between atoms: C15_25  and  O2_26 
REMARK    9  A    between atoms: C15_25  and  N6_28 
REMARK   10  A    between atoms: C19_32  and  C20_33 
REMARK       I    between atoms: C20_33  and  N7_35 
REMARK   11  A    between atoms: N7_35  and  C21_37 
REMARK   12  A    between atoms: C21_37  and  C22_38 
REMARK   13  A    between atoms: C21_37  and  C25_43 
REMARK   14  A    between atoms: C22_38  and  C23_39 
REMARK   15  A    between atoms: C23_39  and  C24_40 
REMARK       I    between atoms: C25_43  and  N8_45 
REMARK   16  A    between atoms: N8_45  and  C26_47 
ROOT
HETATM    1  N6  UNL     1       4.384   0.739  13.186  1.00  0.00    -0.350 N 
HETATM    2  C16 UNL     1       3.530   0.788  14.319  1.00  0.00     0.126 C 
HETATM    3  C17 UNL     1       2.523  -0.332  14.167  1.00  0.00     0.022 C 
HETATM    4  C18 UNL     1       2.684  -0.881  12.793  1.00  0.00     0.037 C 
HETATM    5  C19 UNL     1       4.094  -0.467  12.427  1.00  0.00     0.178 C 
ENDROOT
BRANCH   1   6
HETATM    6  C15 UNL     1       5.369   1.646  12.731  1.00  0.00     0.139 C 
BRANCH   6   7
HETATM    7  C8  UNL     1       5.330   2.593  11.605  1.00  0.00     0.186 C 
BRANCH   7   8
HETATM    8  N4  UNL     1       4.390   3.687  11.902  1.00  0.00    -0.359 N 
ATOM      9  H4  UNL     1       4.451   4.128  12.820  1.00  0.00     0.162 HD
BRANCH   8  10
HETATM   10  C7  UNL     1       3.415   4.167  11.013  1.00  0.00     0.135 C 
BRANCH  10  11
HETATM   11  C6  UNL     1       2.037   3.757  10.880  1.00  0.00     0.161 C 
HETATM   12  N3  UNL     1       1.526   3.185   9.700  1.00  0.00    -0.344 N 
HETATM   13  C1  UNL     1       2.142   2.447   8.672  1.00  0.00     0.184 C 
HETATM   14  C2  UNL     1       0.046   3.380   9.545  1.00  0.00     0.126 C 
HETATM   15  N1  UNL     1       2.778   1.315   8.916  1.00  0.00    -0.374 N 
HETATM   16  N2  UNL     1       2.120   2.827   7.304  1.00  0.00    -0.064 NA
ATOM     17  H12 UNL     1       3.224   0.780   8.171  1.00  0.00     0.158 HD
ATOM     18  H11 UNL     1       2.793   1.043   9.899  1.00  0.00     0.158 HD
HETATM   19  C3  UNL     1      -0.551   2.583  10.678  1.00  0.00     0.020 C 
HETATM   20  C4  UNL     1       0.436   1.955  11.600  1.00  0.00     0.004 C 
HETATM   21  C5  UNL     1       1.575   2.848  12.027  1.00  0.00     0.034 C 
ENDBRANCH  10  11
BRANCH  10  22
HETATM   22  O1  UNL     1       3.753   5.109  10.172  1.00  0.00    -0.348 OA
ATOM     23  H1  UNL     1       4.299   5.779  10.564  1.00  0.00     0.219 HD
ENDBRANCH  10  22
ENDBRANCH   8  10
ENDBRANCH   7   8
BRANCH   7  24
HETATM   24  C9  UNL     1       6.626   3.075  11.098  1.00  0.00     0.305 C 
BRANCH  24  25
HETATM   25  N5  UNL     1       6.952   2.425   9.794  1.00  0.00     0.090 N 
HETATM   26  C10 UNL     1       7.849   3.304   9.052  1.00  0.00     0.272 C 
HETATM   27  C11 UNL     1       7.896   2.813   7.609  1.00  0.00     0.030 C 
HETATM   28  C12 UNL     1       8.207   1.324   7.622  1.00  0.00     0.003 C 
HETATM   29  C13 UNL     1       8.698   0.895   8.968  1.00  0.00     0.030 C 
HETATM   30  C14 UNL     1       7.701   1.189  10.068  1.00  0.00     0.272 C 
ENDBRANCH  24  25
ENDBRANCH   7  24
ENDBRANCH   6   7
BRANCH   6  31
HETATM   31  O2  UNL     1       6.513   1.704  13.360  1.00  0.00    -0.348 OA
ATOM     32  H2  UNL     1       7.145   1.104  12.980  1.00  0.00     0.219 HD
ENDBRANCH   6  31
ENDBRANCH   1   6
BRANCH   5  33
HETATM   33  C20 UNL     1       4.994  -1.549  12.775  1.00  0.00     0.241 C 
HETATM   34  O3  UNL     1       5.344  -2.369  11.850  1.00  0.00    -0.271 OA
HETATM   35  N7  UNL     1       5.515  -1.778  14.059  1.00  0.00    -0.346 N 
ATOM     36  H7  UNL     1       5.267  -1.160  14.832  1.00  0.00     0.163 HD
BRANCH  35  37
HETATM   37  C21 UNL     1       6.399  -2.890  14.278  1.00  0.00     0.177 C 
BRANCH  37  38
HETATM   38  C22 UNL     1       7.841  -2.676  14.158  1.00  0.00     0.045 C 
BRANCH  38  39
HETATM   39  C23 UNL     1       8.796  -3.788  14.110  1.00  0.00     0.116 C 
BRANCH  39  40
HETATM   40  C24 UNL     1       9.569  -4.124  15.288  1.00  0.00     0.172 C 
HETATM   41  O4  UNL     1       9.820  -5.304  15.660  1.00  0.00    -0.648 OA
HETATM   42  O5  UNL     1      10.117  -3.137  16.131  1.00  0.00    -0.648 OA
ENDBRANCH  39  40
ENDBRANCH  38  39
ENDBRANCH  37  38
BRANCH  37  43
HETATM   43  C25 UNL     1       5.981  -3.655  15.505  1.00  0.00     0.241 C 
HETATM   44  O6  UNL     1       6.327  -3.198  16.609  1.00  0.00    -0.271 OA
HETATM   45  N8  UNL     1       5.227  -4.832  15.407  1.00  0.00    -0.350 N 
ATOM     46  H8  UNL     1       4.978  -5.158  14.474  1.00  0.00     0.163 HD
BRANCH  45  47
HETATM   47  C26 UNL     1       4.782  -5.608  16.523  1.00  0.00     0.034 C 
HETATM   48  C27 UNL     1       5.935  -6.034  17.367  1.00  0.00     0.035 C 
HETATM   49  C28 UNL     1       5.469  -6.933  18.498  1.00  0.00    -0.012 C 
HETATM   50  C29 UNL     1       4.502  -6.131  19.342  1.00  0.00     0.009 C 
HETATM   51  C33 UNL     1       4.819  -8.159  17.929  1.00  0.00     0.009 C 
HETATM   52  C30 UNL     1       3.324  -5.720  18.493  1.00  0.00    -0.012 C 
HETATM   53  C31 UNL     1       2.639  -7.000  18.010  1.00  0.00     0.009 C 
HETATM   54  C35 UNL     1       3.728  -4.863  17.329  1.00  0.00     0.035 C 
HETATM   55  C32 UNL     1       3.612  -7.723  17.128  1.00  0.00    -0.012 C 
HETATM   56  C34 UNL     1       4.073  -6.864  15.999  1.00  0.00     0.035 C 
ENDBRANCH  45  47
ENDBRANCH  37  43
ENDBRANCH  35  37
ENDBRANCH   5  33
TORSDOF 16
ENDMDL
