MODEL 1
REMARK VINA RESULT: -10.433008102      0.000      0.000
REMARK  13 active torsions:
REMARK  status: ('A' for Active; 'I' for Inactive)
REMARK    1  A    between atoms: C2_2  and  C3_3 
REMARK    2  A    between atoms: C3_3  and  C4_4 
REMARK    3  A    between atoms: C4_4  and  C5_5 
REMARK    4  A    between atoms: C5_5  and  N1_6 
REMARK    5  A    between atoms: C5_5  and  C23_40 
REMARK       I    between atoms: N1_6  and  C6_8 
REMARK    6  A    between atoms: C6_8  and  C7_10 
REMARK    7  A    between atoms: C11_14  and  N2_16 
REMARK       I    between atoms: N2_16  and  C13_18 
REMARK    8  A    between atoms: C13_18  and  C14_20 
REMARK       I    between atoms: C14_20  and  N3_22 
REMARK    9  A    between atoms: N3_22  and  C15_24 
REMARK   10  A    between atoms: C15_24  and  C16_25 
REMARK       I    between atoms: N4_29  and  C20_30 
REMARK   11  A    between atoms: C23_40  and  C24_42 
REMARK       I    between atoms: C24_42  and  N8_44 
REMARK   12  A    between atoms: N8_44  and  C25_46 
REMARK   13  A    between atoms: C25_46  and  C26_47 
ROOT
HETATM    1  C7  UNL     1       3.221  -3.668  16.366  1.00  0.00     0.176 C 
HETATM    2  C8  UNL     1       3.365  -4.139  14.884  1.00  0.00     0.035 C 
HETATM    3  C9  UNL     1       3.106  -3.051  13.913  1.00  0.00     0.006 C 
HETATM    4  C10 UNL     1       4.380  -2.270  13.666  1.00  0.00     0.041 C 
HETATM    5  C11 UNL     1       4.389  -1.084  14.619  1.00  0.00     0.110 C 
HETATM    6  C12 UNL     1       3.036  -0.420  14.729  1.00  0.00     0.049 C 
HETATM    7  C22 UNL     1       4.771  -1.587  15.941  1.00  0.00     0.246 C 
HETATM    8  O4  UNL     1       5.611  -0.874  16.555  1.00  0.00    -0.271 OA
HETATM    9  N7  UNL     1       4.334  -2.765  16.624  1.00  0.00    -0.346 N 
ATOM     10  H7  UNL     1       4.902  -3.017  17.433  1.00  0.00     0.163 HD
ENDROOT
BRANCH   1  11
HETATM   11  C6  UNL     1       3.451  -4.938  17.105  1.00  0.00     0.241 C 
HETATM   12  N1  UNL     1       4.065  -6.064  16.528  1.00  0.00    -0.347 N 
ATOM     13  H1  UNL     1       4.291  -5.973  15.537  1.00  0.00     0.163 HD
HETATM   14  O1  UNL     1       3.056  -4.944  18.329  1.00  0.00    -0.271 OA
BRANCH  12  15
HETATM   15  C5  UNL     1       4.414  -7.296  17.109  1.00  0.00     0.164 C 
BRANCH  15  16
HETATM   16  C4  UNL     1       3.157  -7.993  17.554  1.00  0.00     0.033 C 
BRANCH  16  17
HETATM   17  C3  UNL     1       3.014  -9.417  17.097  1.00  0.00     0.002 C 
BRANCH  17  18
HETATM   18  C2  UNL     1       3.919  -9.595  15.854  1.00  0.00    -0.004 C 
HETATM   19  C1  UNL     1       3.776 -10.963  15.252  1.00  0.00     0.005 C 
ENDBRANCH  17  18
ENDBRANCH  16  17
ENDBRANCH  15  16
BRANCH  15  20
HETATM   20  C23 UNL     1       5.188  -7.134  18.437  1.00  0.00     0.238 C 
HETATM   21  O5  UNL     1       4.642  -7.480  19.495  1.00  0.00    -0.285 OA
BRANCH  20  22
HETATM   22  C24 UNL     1       6.527  -6.571  18.313  1.00  0.00     0.289 C 
HETATM   23  O6  UNL     1       6.940  -5.774  19.208  1.00  0.00    -0.264 OA
HETATM   24  N8  UNL     1       7.391  -6.868  17.237  1.00  0.00    -0.354 N 
ATOM     25  H8  UNL     1       7.124  -7.509  16.490  1.00  0.00     0.162 HD
BRANCH  24  26
HETATM   26  C25 UNL     1       8.693  -6.200  17.258  1.00  0.00     0.132 C 
BRANCH  26  27
HETATM   27  C26 UNL     1       8.806  -5.084  16.259  1.00  0.00    -0.023 C 
HETATM   28  C27 UNL     1       7.502  -4.470  15.888  1.00  0.00     0.015 C 
HETATM   29  C28 UNL     1       7.767  -3.306  14.976  1.00  0.00    -0.013 C 
HETATM   30  C29 UNL     1       8.421  -3.818  13.703  1.00  0.00     0.009 C 
HETATM   31  C33 UNL     1       8.654  -2.309  15.643  1.00  0.00     0.009 C 
HETATM   32  C30 UNL     1       9.700  -4.524  14.053  1.00  0.00    -0.013 C 
HETATM   33  C31 UNL     1      10.623  -3.510  14.687  1.00  0.00     0.009 C 
HETATM   34  C35 UNL     1       9.497  -5.640  15.031  1.00  0.00     0.015 C 
HETATM   35  C32 UNL     1       9.997  -2.958  15.932  1.00  0.00    -0.013 C 
HETATM   36  C34 UNL     1       9.752  -4.060  16.896  1.00  0.00     0.015 C 
ENDBRANCH  26  27
ENDBRANCH  24  26
ENDBRANCH  20  22
ENDBRANCH  15  20
ENDBRANCH  12  15
ENDBRANCH   1  11
BRANCH   5  37
HETATM   37  N2  UNL     1       5.301  -0.114  14.056  1.00  0.00    -0.335 N 
HETATM   38  C13 UNL     1       6.177  -0.333  12.975  1.00  0.00     0.310 C 
HETATM   39  O2  UNL     1       6.259  -1.414  12.406  1.00  0.00    -0.262 OA
ATOM     40  H2  UNL     1       5.309   0.813  14.479  1.00  0.00     0.164 HD
BRANCH  38  41
HETATM   41  C14 UNL     1       7.051   0.780  12.479  1.00  0.00     0.313 C 
HETATM   42  O3  UNL     1       7.512   1.519  13.345  1.00  0.00    -0.262 OA
HETATM   43  N3  UNL     1       7.307   0.939  11.120  1.00  0.00    -0.332 N 
ATOM     44  H3  UNL     1       6.841   0.243  10.537  1.00  0.00     0.168 HD
BRANCH  43  45
HETATM   45  C15 UNL     1       8.072   1.857  10.387  1.00  0.00     0.070 C 
BRANCH  45  46
HETATM   46  C16 UNL     1       7.536   3.084   9.798  1.00  0.00     0.042 C 
HETATM   47  C17 UNL     1       7.686   4.397  10.441  1.00  0.00     0.013 C 
HETATM   48  C18 UNL     1       6.864   4.537  11.719  1.00  0.00     0.021 C 
HETATM   49  C19 UNL     1       5.406   4.486  11.357  1.00  0.00     0.125 C 
HETATM   50  N4  UNL     1       5.264   4.029   9.974  1.00  0.00    -0.355 N 
HETATM   51  C20 UNL     1       4.380   4.747   9.086  1.00  0.00     0.183 C 
HETATM   52  C21 UNL     1       6.014   2.889   9.545  1.00  0.00     0.135 C 
HETATM   53  N5  UNL     1       3.268   5.147   9.522  1.00  0.00    -0.374 N 
HETATM   54  N6  UNL     1       4.823   4.963   7.763  1.00  0.00    -0.064 NA
ATOM     55  H52 UNL     1       2.948   4.992  10.478  1.00  0.00     0.158 HD
ATOM     56  H51 UNL     1       2.644   5.655   8.895  1.00  0.00     0.158 HD
ENDBRANCH  45  46
ENDBRANCH  43  45
ENDBRANCH  38  41
ENDBRANCH   5  37
TORSDOF 13
ENDMDL
MODEL 2
REMARK VINA RESULT: -10.318730959      2.717      5.125
REMARK  13 active torsions:
REMARK  status: ('A' for Active; 'I' for Inactive)
REMARK    1  A    between atoms: C2_2  and  C3_3 
REMARK    2  A    between atoms: C3_3  and  C4_4 
REMARK    3  A    between atoms: C4_4  and  C5_5 
REMARK    4  A    between atoms: C5_5  and  N1_6 
REMARK    5  A    between atoms: C5_5  and  C23_40 
REMARK       I    between atoms: N1_6  and  C6_8 
REMARK    6  A    between atoms: C6_8  and  C7_10 
REMARK    7  A    between atoms: C11_14  and  N2_16 
REMARK       I    between atoms: N2_16  and  C13_18 
REMARK    8  A    between atoms: C13_18  and  C14_20 
REMARK       I    between atoms: C14_20  and  N3_22 
REMARK    9  A    between atoms: N3_22  and  C15_24 
REMARK   10  A    between atoms: C15_24  and  C16_25 
REMARK       I    between atoms: N4_29  and  C20_30 
REMARK   11  A    between atoms: C23_40  and  C24_42 
REMARK       I    between atoms: C24_42  and  N8_44 
REMARK   12  A    between atoms: N8_44  and  C25_46 
REMARK   13  A    between atoms: C25_46  and  C26_47 
ROOT
HETATM    1  C7  UNL     1       9.704  -5.505  16.499  1.00  0.00     0.176 C 
HETATM    2  C8  UNL     1       9.440  -4.175  17.274  1.00  0.00     0.035 C 
HETATM    3  C9  UNL     1       9.937  -2.984  16.546  1.00  0.00     0.006 C 
HETATM    4  C10 UNL     1       8.878  -2.495  15.580  1.00  0.00     0.041 C 
HETATM    5  C11 UNL     1       9.155  -3.133  14.227  1.00  0.00     0.110 C 
HETATM    6  C12 UNL     1      10.627  -3.146  13.883  1.00  0.00     0.049 C 
HETATM    7  C22 UNL     1       8.679  -4.517  14.289  1.00  0.00     0.246 C 
HETATM    8  O4  UNL     1       8.035  -4.900  13.274  1.00  0.00    -0.271 OA
HETATM    9  N7  UNL     1       8.835  -5.484  15.331  1.00  0.00    -0.346 N 
ATOM     10  H7  UNL     1       8.232  -6.302  15.240  1.00  0.00     0.163 HD
ENDROOT
BRANCH   1  11
HETATM   11  C6  UNL     1       9.191  -6.516  17.462  1.00  0.00     0.241 C 
HETATM   12  N1  UNL     1       8.475  -7.660  17.068  1.00  0.00    -0.347 N 
ATOM     13  H1  UNL     1       8.274  -7.723  16.069  1.00  0.00     0.163 HD
HETATM   14  O1  UNL     1       9.452  -6.283  18.699  1.00  0.00    -0.271 OA
BRANCH  12  15
HETATM   15  C5  UNL     1       7.993  -8.732  17.840  1.00  0.00     0.164 C 
BRANCH  15  16
HETATM   16  C4  UNL     1       8.882  -9.926  17.616  1.00  0.00     0.033 C 
BRANCH  16  17
HETATM   17  C3  UNL     1       9.466 -10.536  18.858  1.00  0.00     0.002 C 
BRANCH  17  18
HETATM   18  C2  UNL     1      10.120 -11.878  18.448  1.00  0.00    -0.004 C 
HETATM   19  C1  UNL     1       9.462 -12.470  17.234  1.00  0.00     0.005 C 
ENDBRANCH  17  18
ENDBRANCH  16  17
ENDBRANCH  15  16
BRANCH  15  20
HETATM   20  C23 UNL     1       6.619  -9.249  17.357  1.00  0.00     0.238 C 
HETATM   21  O5  UNL     1       6.551 -10.370  16.833  1.00  0.00    -0.285 OA
BRANCH  20  22
HETATM   22  C24 UNL     1       5.501  -8.338  17.571  1.00  0.00     0.289 C 
HETATM   23  O6  UNL     1       5.023  -8.219  18.738  1.00  0.00    -0.264 OA
HETATM   24  N8  UNL     1       4.917  -7.579  16.532  1.00  0.00    -0.354 N 
ATOM     25  H8  UNL     1       5.261  -7.620  15.573  1.00  0.00     0.162 HD
BRANCH  24  26
HETATM   26  C25 UNL     1       3.790  -6.729  16.917  1.00  0.00     0.132 C 
BRANCH  26  27
HETATM   27  C26 UNL     1       3.859  -5.347  16.333  1.00  0.00    -0.023 C 
HETATM   28  C27 UNL     1       3.111  -5.192  15.055  1.00  0.00     0.015 C 
HETATM   29  C28 UNL     1       3.169  -3.749  14.643  1.00  0.00    -0.013 C 
HETATM   30  C29 UNL     1       4.619  -3.370  14.383  1.00  0.00     0.009 C 
HETATM   31  C33 UNL     1       2.593  -2.876  15.705  1.00  0.00     0.009 C 
HETATM   32  C30 UNL     1       5.421  -3.601  15.632  1.00  0.00    -0.013 C 
HETATM   33  C31 UNL     1       4.874  -2.686  16.702  1.00  0.00     0.009 C 
HETATM   34  C35 UNL     1       5.322  -5.009  16.133  1.00  0.00     0.015 C 
HETATM   35  C32 UNL     1       3.434  -3.009  16.964  1.00  0.00    -0.013 C 
HETATM   36  C34 UNL     1       3.316  -4.416  17.422  1.00  0.00     0.015 C 
ENDBRANCH  26  27
ENDBRANCH  24  26
ENDBRANCH  20  22
ENDBRANCH  15  20
ENDBRANCH  12  15
ENDBRANCH   1  11
BRANCH   5  37
HETATM   37  N2  UNL     1       8.490  -2.310  13.243  1.00  0.00    -0.335 N 
HETATM   38  C13 UNL     1       7.585  -1.266  13.513  1.00  0.00     0.310 C 
HETATM   39  O2  UNL     1       7.256  -0.962  14.653  1.00  0.00    -0.262 OA
ATOM     40  H2  UNL     1       8.696  -2.502  12.262  1.00  0.00     0.164 HD
BRANCH  38  41
HETATM   41  C14 UNL     1       6.989  -0.475  12.387  1.00  0.00     0.313 C 
HETATM   42  O3  UNL     1       7.692  -0.367  11.386  1.00  0.00    -0.262 OA
HETATM   43  N3  UNL     1       5.720   0.085  12.497  1.00  0.00    -0.332 N 
ATOM     44  H3  UNL     1       5.275  -0.094  13.397  1.00  0.00     0.168 HD
BRANCH  43  45
HETATM   45  C15 UNL     1       4.927   0.846  11.626  1.00  0.00     0.070 C 
BRANCH  45  46
HETATM   46  C16 UNL     1       3.748   1.603  12.044  1.00  0.00     0.042 C 
HETATM   47  C17 UNL     1       2.746   1.053  12.967  1.00  0.00     0.013 C 
HETATM   48  C18 UNL     1       1.922  -0.076  12.356  1.00  0.00     0.021 C 
HETATM   49  C19 UNL     1       1.096   0.488  11.234  1.00  0.00     0.125 C 
HETATM   50  N4  UNL     1       1.568   1.836  10.913  1.00  0.00    -0.355 N 
HETATM   51  C20 UNL     1       0.601   2.897  10.757  1.00  0.00     0.183 C 
HETATM   52  C21 UNL     1       2.974   2.058  10.775  1.00  0.00     0.135 C 
HETATM   53  N5  UNL     1      -0.473   2.662  10.142  1.00  0.00    -0.374 N 
HETATM   54  N6  UNL     1       0.922   4.155  11.312  1.00  0.00    -0.064 NA
ATOM     55  H52 UNL     1      -0.705   1.753   9.741  1.00  0.00     0.158 HD
ATOM     56  H51 UNL     1      -1.155   3.411  10.031  1.00  0.00     0.158 HD
ENDBRANCH  45  46
ENDBRANCH  43  45
ENDBRANCH  38  41
ENDBRANCH   5  37
TORSDOF 13
ENDMDL
MODEL 3
REMARK VINA RESULT: -10.299200615      2.799     11.626
REMARK  13 active torsions:
REMARK  status: ('A' for Active; 'I' for Inactive)
REMARK    1  A    between atoms: C2_2  and  C3_3 
REMARK    2  A    between atoms: C3_3  and  C4_4 
REMARK    3  A    between atoms: C4_4  and  C5_5 
REMARK    4  A    between atoms: C5_5  and  N1_6 
REMARK    5  A    between atoms: C5_5  and  C23_40 
REMARK       I    between atoms: N1_6  and  C6_8 
REMARK    6  A    between atoms: C6_8  and  C7_10 
REMARK    7  A    between atoms: C11_14  and  N2_16 
REMARK       I    between atoms: N2_16  and  C13_18 
REMARK    8  A    between atoms: C13_18  and  C14_20 
REMARK       I    between atoms: C14_20  and  N3_22 
REMARK    9  A    between atoms: N3_22  and  C15_24 
REMARK   10  A    between atoms: C15_24  and  C16_25 
REMARK       I    between atoms: N4_29  and  C20_30 
REMARK   11  A    between atoms: C23_40  and  C24_42 
REMARK       I    between atoms: C24_42  and  N8_44 
REMARK   12  A    between atoms: N8_44  and  C25_46 
REMARK   13  A    between atoms: C25_46  and  C26_47 
ROOT
HETATM    1  C7  UNL     1       7.970  -2.172  14.267  1.00  0.00     0.176 C 
HETATM    2  C8  UNL     1       9.127  -3.027  13.658  1.00  0.00     0.035 C 
HETATM    3  C9  UNL     1       9.869  -3.794  14.686  1.00  0.00     0.006 C 
HETATM    4  C10 UNL     1       9.178  -5.118  14.936  1.00  0.00     0.041 C 
HETATM    5  C11 UNL     1       8.230  -4.932  16.111  1.00  0.00     0.110 C 
HETATM    6  C12 UNL     1       8.841  -4.112  17.224  1.00  0.00     0.049 C 
HETATM    7  C22 UNL     1       7.044  -4.233  15.612  1.00  0.00     0.246 C 
HETATM    8  O4  UNL     1       5.946  -4.695  16.024  1.00  0.00    -0.271 OA
HETATM    9  N7  UNL     1       6.958  -3.112  14.728  1.00  0.00    -0.346 N 
ATOM     10  H7  UNL     1       6.025  -2.941  14.354  1.00  0.00     0.163 HD
ENDROOT
BRANCH   1  11
HETATM   11  C6  UNL     1       7.458  -1.466  13.062  1.00  0.00     0.241 C 
HETATM   12  N1  UNL     1       7.645  -0.091  12.838  1.00  0.00    -0.347 N 
ATOM     13  H1  UNL     1       8.108   0.412  13.595  1.00  0.00     0.163 HD
HETATM   14  O1  UNL     1       6.829  -2.204  12.216  1.00  0.00    -0.271 OA
BRANCH  12  15
HETATM   15  C5  UNL     1       7.290   0.697  11.729  1.00  0.00     0.164 C 
BRANCH  15  16
HETATM   16  C4  UNL     1       8.388   0.609  10.703  1.00  0.00     0.033 C 
BRANCH  16  17
HETATM   17  C3  UNL     1       8.034   1.119   9.335  1.00  0.00     0.002 C 
BRANCH  17  18
HETATM   18  C2  UNL     1       9.064   2.217   8.973  1.00  0.00    -0.004 C 
HETATM   19  C1  UNL     1       8.432   3.340   8.202  1.00  0.00     0.005 C 
ENDBRANCH  17  18
ENDBRANCH  16  17
ENDBRANCH  15  16
BRANCH  15  20
HETATM   20  C23 UNL     1       7.263   2.209  12.052  1.00  0.00     0.238 C 
HETATM   21  O5  UNL     1       8.249   2.723  12.599  1.00  0.00    -0.285 OA
BRANCH  20  22
HETATM   22  C24 UNL     1       6.040   2.905  11.671  1.00  0.00     0.289 C 
HETATM   23  O6  UNL     1       6.086   3.752  10.730  1.00  0.00    -0.264 OA
HETATM   24  N8  UNL     1       4.797   2.682  12.305  1.00  0.00    -0.354 N 
ATOM     25  H8  UNL     1       4.690   2.006  13.061  1.00  0.00     0.162 HD
BRANCH  24  26
HETATM   26  C25 UNL     1       3.675   3.480  11.811  1.00  0.00     0.132 C 
BRANCH  26  27
HETATM   27  C26 UNL     1       2.639   2.668  11.086  1.00  0.00    -0.023 C 
HETATM   28  C27 UNL     1       2.908   1.203  11.092  1.00  0.00     0.015 C 
HETATM   29  C28 UNL     1       1.750   0.506  10.436  1.00  0.00    -0.013 C 
HETATM   30  C29 UNL     1       1.660   0.958   8.987  1.00  0.00     0.009 C 
HETATM   31  C33 UNL     1       0.478   0.817  11.150  1.00  0.00     0.009 C 
HETATM   32  C30 UNL     1       1.479   2.449   8.945  1.00  0.00    -0.013 C 
HETATM   33  C31 UNL     1       0.169   2.769   9.625  1.00  0.00     0.009 C 
HETATM   34  C35 UNL     1       2.567   3.186   9.665  1.00  0.00     0.015 C 
HETATM   35  C32 UNL     1       0.207   2.308  11.051  1.00  0.00    -0.013 C 
HETATM   36  C34 UNL     1       1.308   3.001  11.768  1.00  0.00     0.015 C 
ENDBRANCH  26  27
ENDBRANCH  24  26
ENDBRANCH  20  22
ENDBRANCH  15  20
ENDBRANCH  12  15
ENDBRANCH   1  11
BRANCH   5  37
HETATM   37  N2  UNL     1       7.973  -6.252  16.642  1.00  0.00    -0.335 N 
HETATM   38  C13 UNL     1       8.935  -7.128  17.182  1.00  0.00     0.310 C 
HETATM   39  O2  UNL     1      10.124  -6.843  17.237  1.00  0.00    -0.262 OA
ATOM     40  H2  UNL     1       7.007  -6.579  16.624  1.00  0.00     0.164 HD
BRANCH  38  41
HETATM   41  C14 UNL     1       8.517  -8.464  17.722  1.00  0.00     0.313 C 
HETATM   42  O3  UNL     1       8.792  -8.669  18.900  1.00  0.00    -0.262 OA
HETATM   43  N3  UNL     1       7.860  -9.388  16.915  1.00  0.00    -0.332 N 
ATOM     44  H3  UNL     1       7.715  -9.062  15.960  1.00  0.00     0.168 HD
BRANCH  43  45
HETATM   45  C15 UNL     1       7.356 -10.677  17.145  1.00  0.00     0.070 C 
BRANCH  45  46
HETATM   46  C16 UNL     1       5.947 -10.971  17.402  1.00  0.00     0.042 C 
HETATM   47  C17 UNL     1       5.048 -11.490  16.361  1.00  0.00     0.013 C 
HETATM   48  C18 UNL     1       4.736 -10.466  15.273  1.00  0.00     0.021 C 
HETATM   49  C19 UNL     1       3.952  -9.340  15.887  1.00  0.00     0.125 C 
HETATM   50  N4  UNL     1       4.006  -9.449  17.346  1.00  0.00    -0.355 N 
HETATM   51  C20 UNL     1       2.783  -9.317  18.103  1.00  0.00     0.183 C 
HETATM   52  C21 UNL     1       5.269  -9.693  17.971  1.00  0.00     0.135 C 
HETATM   53  N5  UNL     1       1.949  -8.433  17.770  1.00  0.00    -0.374 N 
HETATM   54  N6  UNL     1       2.593 -10.199  19.188  1.00  0.00    -0.064 NA
ATOM     55  H52 UNL     1       2.086  -7.796  16.985  1.00  0.00     0.158 HD
ATOM     56  H51 UNL     1       1.086  -8.340  18.304  1.00  0.00     0.158 HD
ENDBRANCH  45  46
ENDBRANCH  43  45
ENDBRANCH  38  41
ENDBRANCH   5  37
TORSDOF 13
ENDMDL
MODEL 4
REMARK VINA RESULT: -10.266319790      0.773      1.033
REMARK  13 active torsions:
REMARK  status: ('A' for Active; 'I' for Inactive)
REMARK    1  A    between atoms: C2_2  and  C3_3 
REMARK    2  A    between atoms: C3_3  and  C4_4 
REMARK    3  A    between atoms: C4_4  and  C5_5 
REMARK    4  A    between atoms: C5_5  and  N1_6 
REMARK    5  A    between atoms: C5_5  and  C23_40 
REMARK       I    between atoms: N1_6  and  C6_8 
REMARK    6  A    between atoms: C6_8  and  C7_10 
REMARK    7  A    between atoms: C11_14  and  N2_16 
REMARK       I    between atoms: N2_16  and  C13_18 
REMARK    8  A    between atoms: C13_18  and  C14_20 
REMARK       I    between atoms: C14_20  and  N3_22 
REMARK    9  A    between atoms: N3_22  and  C15_24 
REMARK   10  A    between atoms: C15_24  and  C16_25 
REMARK       I    between atoms: N4_29  and  C20_30 
REMARK   11  A    between atoms: C23_40  and  C24_42 
REMARK       I    between atoms: C24_42  and  N8_44 
REMARK   12  A    between atoms: N8_44  and  C25_46 
REMARK   13  A    between atoms: C25_46  and  C26_47 
ROOT
HETATM    1  C7  UNL     1       3.179  -3.645  16.382  1.00  0.00     0.176 C 
HETATM    2  C8  UNL     1       3.267  -4.140  14.903  1.00  0.00     0.035 C 
HETATM    3  C9  UNL     1       2.977  -3.065  13.925  1.00  0.00     0.006 C 
HETATM    4  C10 UNL     1       4.245  -2.294  13.621  1.00  0.00     0.041 C 
HETATM    5  C11 UNL     1       4.293  -1.094  14.555  1.00  0.00     0.110 C 
HETATM    6  C12 UNL     1       2.948  -0.422  14.704  1.00  0.00     0.049 C 
HETATM    7  C22 UNL     1       4.721  -1.579  15.870  1.00  0.00     0.246 C 
HETATM    8  O4  UNL     1       5.585  -0.860  16.442  1.00  0.00    -0.271 OA
HETATM    9  N7  UNL     1       4.304  -2.745  16.586  1.00  0.00    -0.346 N 
ATOM     10  H7  UNL     1       4.899  -2.987  17.378  1.00  0.00     0.163 HD
ENDROOT
BRANCH   1  11
HETATM   11  C6  UNL     1       3.431  -4.906  17.131  1.00  0.00     0.241 C 
HETATM   12  N1  UNL     1       4.026  -6.040  16.552  1.00  0.00    -0.347 N 
ATOM     13  H1  UNL     1       4.221  -5.964  15.553  1.00  0.00     0.163 HD
HETATM   14  O1  UNL     1       3.073  -4.895  18.367  1.00  0.00    -0.271 OA
BRANCH  12  15
HETATM   15  C5  UNL     1       4.392  -7.264  17.138  1.00  0.00     0.164 C 
BRANCH  15  16
HETATM   16  C4  UNL     1       3.144  -7.972  17.595  1.00  0.00     0.033 C 
BRANCH  16  17
HETATM   17  C3  UNL     1       3.019  -9.403  17.156  1.00  0.00     0.002 C 
BRANCH  17  18
HETATM   18  C2  UNL     1       3.903  -9.578  15.897  1.00  0.00    -0.004 C 
HETATM   19  C1  UNL     1       3.739 -10.940  15.285  1.00  0.00     0.005 C 
ENDBRANCH  17  18
ENDBRANCH  16  17
ENDBRANCH  15  16
BRANCH  15  20
HETATM   20  C23 UNL     1       5.171  -7.085  18.462  1.00  0.00     0.238 C 
HETATM   21  O5  UNL     1       4.628  -7.416  19.526  1.00  0.00    -0.285 OA
BRANCH  20  22
HETATM   22  C24 UNL     1       6.510  -6.526  18.325  1.00  0.00     0.289 C 
HETATM   23  O6  UNL     1       6.926  -5.714  19.204  1.00  0.00    -0.264 OA
HETATM   24  N8  UNL     1       7.372  -6.845  17.252  1.00  0.00    -0.354 N 
ATOM     25  H8  UNL     1       7.102  -7.499  16.517  1.00  0.00     0.162 HD
BRANCH  24  26
HETATM   26  C25 UNL     1       8.674  -6.179  17.259  1.00  0.00     0.132 C 
BRANCH  26  27
HETATM   27  C26 UNL     1       8.783  -5.072  16.249  1.00  0.00    -0.023 C 
HETATM   28  C27 UNL     1       7.475  -4.473  15.866  1.00  0.00     0.015 C 
HETATM   29  C28 UNL     1       7.734  -3.316  14.943  1.00  0.00    -0.013 C 
HETATM   30  C29 UNL     1       8.399  -3.835  13.678  1.00  0.00     0.009 C 
HETATM   31  C33 UNL     1       8.609  -2.305  15.604  1.00  0.00     0.009 C 
HETATM   32  C30 UNL     1       9.682  -4.527  14.042  1.00  0.00    -0.013 C 
HETATM   33  C31 UNL     1      10.593  -3.498  14.669  1.00  0.00     0.009 C 
HETATM   34  C35 UNL     1       9.484  -5.634  15.030  1.00  0.00     0.015 C 
HETATM   35  C32 UNL     1       9.956  -2.938  15.906  1.00  0.00    -0.013 C 
HETATM   36  C34 UNL     1       9.716  -4.033  16.880  1.00  0.00     0.015 C 
ENDBRANCH  26  27
ENDBRANCH  24  26
ENDBRANCH  20  22
ENDBRANCH  15  20
ENDBRANCH  12  15
ENDBRANCH   1  11
BRANCH   5  37
HETATM   37  N2  UNL     1       5.188  -0.137  13.945  1.00  0.00    -0.335 N 
HETATM   38  C13 UNL     1       6.052  -0.386  12.861  1.00  0.00     0.310 C 
HETATM   39  O2  UNL     1       6.137  -1.486  12.330  1.00  0.00    -0.262 OA
ATOM     40  H2  UNL     1       5.193   0.806  14.334  1.00  0.00     0.164 HD
BRANCH  38  41
HETATM   41  C14 UNL     1       6.909   0.716  12.313  1.00  0.00     0.313 C 
HETATM   42  O3  UNL     1       7.796   0.364  11.540  1.00  0.00    -0.262 OA
HETATM   43  N3  UNL     1       6.688   2.042  12.673  1.00  0.00    -0.332 N 
ATOM     44  H3  UNL     1       5.915   2.160  13.329  1.00  0.00     0.168 HD
BRANCH  43  45
HETATM   45  C15 UNL     1       7.307   3.250  12.321  1.00  0.00     0.070 C 
BRANCH  45  46
HETATM   46  C16 UNL     1       6.776   4.183  11.328  1.00  0.00     0.042 C 
HETATM   47  C17 UNL     1       5.491   4.873  11.505  1.00  0.00     0.013 C 
HETATM   48  C18 UNL     1       4.289   3.938  11.410  1.00  0.00     0.021 C 
HETATM   49  C19 UNL     1       4.211   3.401  10.008  1.00  0.00     0.125 C 
HETATM   50  N4  UNL     1       5.455   3.710   9.300  1.00  0.00    -0.355 N 
HETATM   51  C20 UNL     1       5.382   4.266   7.969  1.00  0.00     0.183 C 
HETATM   52  C21 UNL     1       6.700   3.457   9.955  1.00  0.00     0.135 C 
HETATM   53  N5  UNL     1       4.530   3.811   7.161  1.00  0.00    -0.374 N 
HETATM   54  N6  UNL     1       6.285   5.303   7.649  1.00  0.00    -0.064 NA
ATOM     55  H52 UNL     1       3.877   3.061   7.392  1.00  0.00     0.158 HD
ATOM     56  H51 UNL     1       4.479   4.203   6.221  1.00  0.00     0.158 HD
ENDBRANCH  45  46
ENDBRANCH  43  45
ENDBRANCH  38  41
ENDBRANCH   5  37
TORSDOF 13
ENDMDL
MODEL 5
REMARK VINA RESULT: -10.139643553      3.077     12.012
REMARK  13 active torsions:
REMARK  status: ('A' for Active; 'I' for Inactive)
REMARK    1  A    between atoms: C2_2  and  C3_3 
REMARK    2  A    between atoms: C3_3  and  C4_4 
REMARK    3  A    between atoms: C4_4  and  C5_5 
REMARK    4  A    between atoms: C5_5  and  N1_6 
REMARK    5  A    between atoms: C5_5  and  C23_40 
REMARK       I    between atoms: N1_6  and  C6_8 
REMARK    6  A    between atoms: C6_8  and  C7_10 
REMARK    7  A    between atoms: C11_14  and  N2_16 
REMARK       I    between atoms: N2_16  and  C13_18 
REMARK    8  A    between atoms: C13_18  and  C14_20 
REMARK       I    between atoms: C14_20  and  N3_22 
REMARK    9  A    between atoms: N3_22  and  C15_24 
REMARK   10  A    between atoms: C15_24  and  C16_25 
REMARK       I    between atoms: N4_29  and  C20_30 
REMARK   11  A    between atoms: C23_40  and  C24_42 
REMARK       I    between atoms: C24_42  and  N8_44 
REMARK   12  A    between atoms: N8_44  and  C25_46 
REMARK   13  A    between atoms: C25_46  and  C26_47 
ROOT
HETATM    1  C7  UNL     1       7.623  -0.430  13.730  1.00  0.00     0.176 C 
HETATM    2  C8  UNL     1       7.873  -1.717  12.882  1.00  0.00     0.035 C 
HETATM    3  C9  UNL     1       8.554  -2.784  13.654  1.00  0.00     0.006 C 
HETATM    4  C10 UNL     1       7.527  -3.613  14.398  1.00  0.00     0.041 C 
HETATM    5  C11 UNL     1       7.386  -3.030  15.796  1.00  0.00     0.110 C 
HETATM    6  C12 UNL     1       8.717  -2.649  16.402  1.00  0.00     0.049 C 
HETATM    7  C22 UNL     1       6.560  -1.825  15.688  1.00  0.00     0.246 C 
HETATM    8  O4  UNL     1       5.675  -1.710  16.579  1.00  0.00    -0.271 OA
HETATM    9  N7  UNL     1       6.612  -0.775  14.719  1.00  0.00    -0.346 N 
ATOM     10  H7  UNL     1       5.799  -0.159  14.722  1.00  0.00     0.163 HD
ENDROOT
BRANCH   1  11
HETATM   11  C6  UNL     1       7.016   0.477  12.718  1.00  0.00     0.241 C 
HETATM   12  N1  UNL     1       7.763   1.123  11.717  1.00  0.00    -0.347 N 
ATOM     13  H1  UNL     1       8.771   0.976  11.767  1.00  0.00     0.163 HD
HETATM   14  O1  UNL     1       5.742   0.632  12.809  1.00  0.00    -0.271 OA
BRANCH  12  15
HETATM   15  C5  UNL     1       7.331   1.941  10.659  1.00  0.00     0.164 C 
BRANCH  15  16
HETATM   16  C4  UNL     1       8.434   2.030   9.637  1.00  0.00     0.033 C 
BRANCH  16  17
HETATM   17  C3  UNL     1       8.064   1.585   8.251  1.00  0.00     0.002 C 
BRANCH  17  18
HETATM   18  C2  UNL     1       7.760   2.859   7.425  1.00  0.00    -0.004 C 
HETATM   19  C1  UNL     1       8.721   3.969   7.739  1.00  0.00     0.005 C 
ENDBRANCH  17  18
ENDBRANCH  16  17
ENDBRANCH  15  16
BRANCH  15  20
HETATM   20  C23 UNL     1       7.152   3.419  11.077  1.00  0.00     0.238 C 
HETATM   21  O5  UNL     1       8.150   4.071  11.415  1.00  0.00    -0.285 OA
BRANCH  20  22
HETATM   22  C24 UNL     1       5.783   3.917  11.034  1.00  0.00     0.289 C 
HETATM   23  O6  UNL     1       5.513   4.901  10.282  1.00  0.00    -0.264 OA
HETATM   24  N8  UNL     1       4.734   3.354  11.795  1.00  0.00    -0.354 N 
ATOM     25  H8  UNL     1       4.882   2.555  12.411  1.00  0.00     0.162 HD
BRANCH  24  26
HETATM   26  C25 UNL     1       3.425   3.989  11.646  1.00  0.00     0.132 C 
BRANCH  26  27
HETATM   27  C26 UNL     1       2.379   3.072  11.079  1.00  0.00    -0.023 C 
HETATM   28  C27 UNL     1       1.089   3.093  11.823  1.00  0.00     0.015 C 
HETATM   29  C28 UNL     1       0.106   2.224  11.092  1.00  0.00    -0.013 C 
HETATM   30  C29 UNL     1       0.620   0.793  11.090  1.00  0.00     0.009 C 
HETATM   31  C33 UNL     1      -0.079   2.704   9.692  1.00  0.00     0.009 C 
HETATM   32  C30 UNL     1       1.966   0.752  10.425  1.00  0.00    -0.013 C 
HETATM   33  C31 UNL     1       1.780   1.192   8.992  1.00  0.00     0.009 C 
HETATM   34  C35 UNL     1       2.958   1.672  11.066  1.00  0.00     0.015 C 
HETATM   35  C32 UNL     1       1.243   2.591   8.952  1.00  0.00    -0.013 C 
HETATM   36  C34 UNL     1       2.198   3.509   9.622  1.00  0.00     0.015 C 
ENDBRANCH  26  27
ENDBRANCH  24  26
ENDBRANCH  20  22
ENDBRANCH  15  20
ENDBRANCH  12  15
ENDBRANCH   1  11
BRANCH   5  37
HETATM   37  N2  UNL     1       6.823  -4.077  16.619  1.00  0.00    -0.335 N 
HETATM   38  C13 UNL     1       7.477  -5.257  17.019  1.00  0.00     0.310 C 
HETATM   39  O2  UNL     1       8.624  -5.520  16.677  1.00  0.00    -0.262 OA
ATOM     40  H2  UNL     1       5.863  -3.948  16.940  1.00  0.00     0.164 HD
BRANCH  38  41
HETATM   41  C14 UNL     1       6.773  -6.246  17.900  1.00  0.00     0.313 C 
HETATM   42  O3  UNL     1       6.764  -5.976  19.098  1.00  0.00    -0.262 OA
HETATM   43  N3  UNL     1       6.178  -7.385  17.365  1.00  0.00    -0.332 N 
ATOM     44  H3  UNL     1       6.284  -7.460  16.354  1.00  0.00     0.168 HD
BRANCH  43  45
HETATM   45  C15 UNL     1       5.463  -8.451  17.931  1.00  0.00     0.070 C 
BRANCH  45  46
HETATM   46  C16 UNL     1       6.041  -9.761  18.221  1.00  0.00     0.042 C 
HETATM   47  C17 UNL     1       7.100  -9.950  19.223  1.00  0.00     0.013 C 
HETATM   48  C18 UNL     1       8.437  -9.347  18.804  1.00  0.00     0.021 C 
HETATM   49  C19 UNL     1       8.946 -10.099  17.606  1.00  0.00     0.125 C 
HETATM   50  N4  UNL     1       7.876 -10.942  17.071  1.00  0.00    -0.355 N 
HETATM   51  C20 UNL     1       8.166 -12.319  16.745  1.00  0.00     0.183 C 
HETATM   52  C21 UNL     1       6.575 -10.374  16.896  1.00  0.00     0.135 C 
HETATM   53  N5  UNL     1       9.255 -12.597  16.177  1.00  0.00    -0.374 N 
HETATM   54  N6  UNL     1       7.196 -13.285  17.088  1.00  0.00    -0.064 NA
ATOM     55  H52 UNL     1       9.957 -11.899  15.929  1.00  0.00     0.158 HD
ATOM     56  H51 UNL     1       9.460 -13.569  15.948  1.00  0.00     0.158 HD
ENDBRANCH  45  46
ENDBRANCH  43  45
ENDBRANCH  38  41
ENDBRANCH   5  37
TORSDOF 13
ENDMDL
