MODEL 1
REMARK VINA RESULT: -7.882233861      0.000      0.000
REMARK  11 active torsions:
REMARK  status: ('A' for Active; 'I' for Inactive)
REMARK    1  A    between atoms: C3_4  and  C4_5 
REMARK    2  A    between atoms: C5_6  and  C6_7 
REMARK    3  A    between atoms: C12_13  and  C13_14 
REMARK    4  A    between atoms: C16_19  and  C17_20 
REMARK       I    between atoms: C17_20  and  N2_22 
REMARK    5  A    between atoms: N2_22  and  C18_24 
REMARK    6  A    between atoms: C18_24  and  C19_25 
REMARK    7  A    between atoms: C18_24  and  C22_30 
REMARK    8  A    between atoms: C19_25  and  C20_26 
REMARK    9  A    between atoms: C20_26  and  C21_27 
REMARK   10  A    between atoms: C22_30  and  O6_31 
REMARK   11  A    between atoms: C22_30  and  N3_33 
REMARK       I    between atoms: N4_36  and  C25_37 
ROOT
HETATM    1  N1  UNL     1       3.116  -4.905  18.089  1.00  0.00    -0.182 NA
HETATM    2  C1  UNL     1       3.230  -4.048  17.297  1.00  0.00     0.153 C 
HETATM    3  C2  UNL     1       3.379  -3.028  16.332  1.00  0.00     0.027 C 
HETATM    4  C3  UNL     1       3.504  -2.130  15.512  1.00  0.00     0.001 C 
ENDROOT
BRANCH   4   5
HETATM    5  C4  UNL     1       3.637  -1.082  14.574  1.00  0.00    -0.009 C 
HETATM    6  C5  UNL     1       3.731  -0.169  13.764  1.00  0.00    -0.064 C 
BRANCH   6   7
HETATM    7  C6  UNL     1       3.842   0.902  12.826  1.00  0.00     0.070 C 
HETATM    8  C7  UNL     1       4.994   1.348  12.380  1.00  0.00    -0.050 C 
HETATM    9  C8  UNL     1       6.215   0.649  12.921  1.00  0.00     0.018 C 
HETATM   10  C16 UNL     1       5.231   2.416  11.428  1.00  0.00     0.067 C 
HETATM   11  C9  UNL     1       7.134   1.647  13.531  1.00  0.00     0.014 C 
HETATM   12  C14 UNL     1       6.878   0.031  11.702  1.00  0.00     0.029 C 
HETATM   13  C10 UNL     1       7.468   2.703  12.496  1.00  0.00    -0.011 C 
HETATM   14  C11 UNL     1       8.104   2.092  11.267  1.00  0.00     0.025 C 
HETATM   15  C28 UNL     1       6.228   3.407  12.058  1.00  0.00     0.028 C 
HETATM   16  C12 UNL     1       7.147   1.079  10.663  1.00  0.00     0.051 C 
HETATM   17  C15 UNL     1       5.901   1.776  10.202  1.00  0.00     0.044 C 
BRANCH  16  18
HETATM   18  C13 UNL     1       7.863   0.451   9.533  1.00  0.00     0.181 C 
HETATM   19  O1  UNL     1       8.708  -0.450   9.758  1.00  0.00    -0.647 OA
HETATM   20  O2  UNL     1       7.588   0.870   8.237  1.00  0.00    -0.647 OA
ENDBRANCH  16  18
BRANCH  10  21
HETATM   21  C17 UNL     1       4.083   3.232  11.023  1.00  0.00     0.231 C 
HETATM   22  O3  UNL     1       3.641   4.184  11.761  1.00  0.00    -0.272 OA
HETATM   23  N2  UNL     1       3.373   3.041   9.809  1.00  0.00    -0.348 N 
ATOM     24  H2  UNL     1       3.678   2.310   9.168  1.00  0.00     0.163 HD
BRANCH  23  25
HETATM   25  C18 UNL     1       2.197   3.876   9.445  1.00  0.00     0.159 C 
BRANCH  25  26
HETATM   26  C19 UNL     1       0.979   3.041   9.359  1.00  0.00     0.044 C 
BRANCH  26  27
HETATM   27  C20 UNL     1       1.101   1.795  10.261  1.00  0.00     0.116 C 
BRANCH  27  28
HETATM   28  C21 UNL     1       0.594   2.140  11.613  1.00  0.00     0.172 C 
HETATM   29  O4  UNL     1       0.533   3.296  12.062  1.00  0.00    -0.648 OA
HETATM   30  O5  UNL     1       0.158   1.084  12.428  1.00  0.00    -0.648 OA
ENDBRANCH  27  28
ENDBRANCH  26  27
ENDBRANCH  25  26
BRANCH  25  31
HETATM   31  C22 UNL     1       2.503   4.729   8.304  1.00  0.00     0.137 C 
BRANCH  31  32
HETATM   32  O6  UNL     1       1.644   5.747   8.138  1.00  0.00    -0.348 OA
ATOM     33  H6  UNL     1       1.871   6.333   7.426  1.00  0.00     0.219 HD
ENDBRANCH  31  32
BRANCH  31  34
HETATM   34  N3  UNL     1       3.487   4.741   7.329  1.00  0.00    -0.361 N 
HETATM   35  C23 UNL     1       4.700   5.507   7.329  1.00  0.00     0.144 C 
HETATM   36  C24 UNL     1       5.809   4.474   7.599  1.00  0.00     0.145 C 
HETATM   37  N4  UNL     1       5.782   3.590   6.455  1.00  0.00    -0.353 N 
HETATM   38  C25 UNL     1       7.001   3.357   5.762  1.00  0.00     0.184 C 
HETATM   39  C26 UNL     1       4.564   2.970   6.038  1.00  0.00     0.145 C 
HETATM   40  N5  UNL     1       8.093   3.199   6.423  1.00  0.00    -0.374 N 
HETATM   41  N6  UNL     1       7.056   3.292   4.347  1.00  0.00    -0.064 NA
ATOM     42  H52 UNL     1       8.053   3.246   7.441  1.00  0.00     0.158 HD
ATOM     43  H51 UNL     1       8.967   3.033   5.926  1.00  0.00     0.158 HD
HETATM   44  C27 UNL     1       3.324   3.815   6.162  1.00  0.00     0.144 C 
ENDBRANCH  31  34
ENDBRANCH  25  31
ENDBRANCH  23  25
ENDBRANCH  10  21
ENDBRANCH   6   7
ENDBRANCH   4   5
TORSDOF 11
ENDMDL
MODEL 2
REMARK VINA RESULT: -7.535498405      1.987      3.243
REMARK  11 active torsions:
REMARK  status: ('A' for Active; 'I' for Inactive)
REMARK    1  A    between atoms: C3_4  and  C4_5 
REMARK    2  A    between atoms: C5_6  and  C6_7 
REMARK    3  A    between atoms: C12_13  and  C13_14 
REMARK    4  A    between atoms: C16_19  and  C17_20 
REMARK       I    between atoms: C17_20  and  N2_22 
REMARK    5  A    between atoms: N2_22  and  C18_24 
REMARK    6  A    between atoms: C18_24  and  C19_25 
REMARK    7  A    between atoms: C18_24  and  C22_30 
REMARK    8  A    between atoms: C19_25  and  C20_26 
REMARK    9  A    between atoms: C20_26  and  C21_27 
REMARK   10  A    between atoms: C22_30  and  O6_31 
REMARK   11  A    between atoms: C22_30  and  N3_33 
REMARK       I    between atoms: N4_36  and  C25_37 
ROOT
HETATM    1  N1  UNL     1       2.778  -5.251  17.668  1.00  0.00    -0.182 NA
HETATM    2  C1  UNL     1       2.919  -4.355  16.924  1.00  0.00     0.153 C 
HETATM    3  C2  UNL     1       3.076  -3.286  16.016  1.00  0.00     0.027 C 
HETATM    4  C3  UNL     1       3.230  -2.355  15.239  1.00  0.00     0.001 C 
ENDROOT
BRANCH   4   5
HETATM    5  C4  UNL     1       3.418  -1.270  14.354  1.00  0.00    -0.009 C 
HETATM    6  C5  UNL     1       3.580  -0.315  13.605  1.00  0.00    -0.064 C 
BRANCH   6   7
HETATM    7  C6  UNL     1       3.780   0.797  12.732  1.00  0.00     0.070 C 
HETATM    8  C7  UNL     1       4.970   1.227  12.379  1.00  0.00    -0.050 C 
HETATM    9  C8  UNL     1       6.134   0.463  12.956  1.00  0.00     0.018 C 
HETATM   10  C16 UNL     1       5.296   2.333  11.499  1.00  0.00     0.067 C 
HETATM   11  C9  UNL     1       7.042   1.400  13.671  1.00  0.00     0.014 C 
HETATM   12  C14 UNL     1       6.854  -0.114  11.750  1.00  0.00     0.029 C 
HETATM   13  C10 UNL     1       7.471   2.494  12.714  1.00  0.00    -0.011 C 
HETATM   14  C11 UNL     1       8.163   1.925  11.496  1.00  0.00     0.025 C 
HETATM   15  C28 UNL     1       6.281   3.259  12.238  1.00  0.00     0.028 C 
HETATM   16  C12 UNL     1       7.216   0.974  10.783  1.00  0.00     0.051 C 
HETATM   17  C15 UNL     1       6.022   1.733  10.285  1.00  0.00     0.044 C 
BRANCH  16  18
HETATM   18  C13 UNL     1       7.982   0.381   9.668  1.00  0.00     0.181 C 
HETATM   19  O1  UNL     1       8.803  -0.541   9.901  1.00  0.00    -0.647 OA
HETATM   20  O2  UNL     1       7.781   0.853   8.377  1.00  0.00    -0.647 OA
ENDBRANCH  16  18
BRANCH  10  21
HETATM   21  C17 UNL     1       4.200   3.204  11.068  1.00  0.00     0.231 C 
HETATM   22  O3  UNL     1       3.755   4.147  11.818  1.00  0.00    -0.272 OA
HETATM   23  N2  UNL     1       3.545   3.081   9.816  1.00  0.00    -0.348 N 
ATOM     24  H2  UNL     1       3.856   2.361   9.164  1.00  0.00     0.163 HD
BRANCH  23  25
HETATM   25  C18 UNL     1       2.419   3.971   9.424  1.00  0.00     0.159 C 
BRANCH  25  26
HETATM   26  C19 UNL     1       1.181   3.183   9.236  1.00  0.00     0.044 C 
BRANCH  26  27
HETATM   27  C20 UNL     1       1.248   1.856  10.020  1.00  0.00     0.116 C 
BRANCH  27  28
HETATM   28  C21 UNL     1       0.623   2.063  11.351  1.00  0.00     0.172 C 
HETATM   29  O4  UNL     1       0.164   1.150  12.056  1.00  0.00    -0.648 OA
HETATM   30  O5  UNL     1       0.550   3.379  11.832  1.00  0.00    -0.648 OA
ENDBRANCH  27  28
ENDBRANCH  26  27
ENDBRANCH  25  26
BRANCH  25  31
HETATM   31  C22 UNL     1       2.816   4.860   8.340  1.00  0.00     0.137 C 
BRANCH  31  32
HETATM   32  O6  UNL     1       4.124   5.156   8.328  1.00  0.00    -0.348 OA
ATOM     33  H6  UNL     1       4.550   5.061   9.173  1.00  0.00     0.219 HD
ENDBRANCH  31  32
BRANCH  31  34
HETATM   34  N3  UNL     1       2.151   5.487   7.299  1.00  0.00    -0.361 N 
HETATM   35  C23 UNL     1       2.070   5.052   5.933  1.00  0.00     0.144 C 
HETATM   36  C24 UNL     1       0.622   4.553   5.773  1.00  0.00     0.145 C 
HETATM   37  N4  UNL     1      -0.200   5.726   5.968  1.00  0.00    -0.353 N 
HETATM   38  C25 UNL     1      -1.168   6.036   4.974  1.00  0.00     0.184 C 
HETATM   39  C26 UNL     1      -0.044   6.545   7.129  1.00  0.00     0.145 C 
HETATM   40  N5  UNL     1      -1.855   5.093   4.434  1.00  0.00    -0.374 N 
HETATM   41  N6  UNL     1      -1.405   7.368   4.552  1.00  0.00    -0.064 NA
ATOM     42  H52 UNL     1      -1.684   4.134   4.738  1.00  0.00     0.158 HD
ATOM     43  H51 UNL     1      -2.549   5.315   3.720  1.00  0.00     0.158 HD
HETATM   44  C27 UNL     1       1.370   6.727   7.615  1.00  0.00     0.144 C 
ENDBRANCH  31  34
ENDBRANCH  25  31
ENDBRANCH  23  25
ENDBRANCH  10  21
ENDBRANCH   6   7
ENDBRANCH   4   5
TORSDOF 11
ENDMDL
MODEL 3
REMARK VINA RESULT: -7.465508245      5.199     12.563
REMARK  11 active torsions:
REMARK  status: ('A' for Active; 'I' for Inactive)
REMARK    1  A    between atoms: C3_4  and  C4_5 
REMARK    2  A    between atoms: C5_6  and  C6_7 
REMARK    3  A    between atoms: C12_13  and  C13_14 
REMARK    4  A    between atoms: C16_19  and  C17_20 
REMARK       I    between atoms: C17_20  and  N2_22 
REMARK    5  A    between atoms: N2_22  and  C18_24 
REMARK    6  A    between atoms: C18_24  and  C19_25 
REMARK    7  A    between atoms: C18_24  and  C22_30 
REMARK    8  A    between atoms: C19_25  and  C20_26 
REMARK    9  A    between atoms: C20_26  and  C21_27 
REMARK   10  A    between atoms: C22_30  and  O6_31 
REMARK   11  A    between atoms: C22_30  and  N3_33 
REMARK       I    between atoms: N4_36  and  C25_37 
ROOT
HETATM    1  N1  UNL     1       8.092   2.374   9.333  1.00  0.00    -0.182 NA
HETATM    2  C1  UNL     1       7.936   1.551  10.155  1.00  0.00     0.153 C 
HETATM    3  C2  UNL     1       7.769   0.556  11.141  1.00  0.00     0.027 C 
HETATM    4  C3  UNL     1       7.602  -0.306  11.991  1.00  0.00     0.001 C 
ENDROOT
BRANCH   4   5
HETATM    5  C4  UNL     1       7.393  -1.297  12.977  1.00  0.00    -0.009 C 
HETATM    6  C5  UNL     1       7.200  -2.140  13.844  1.00  0.00    -0.064 C 
BRANCH   6   7
HETATM    7  C6  UNL     1       6.966  -3.127  14.849  1.00  0.00     0.070 C 
HETATM    8  C7  UNL     1       5.811  -3.268  15.460  1.00  0.00    -0.050 C 
HETATM    9  C8  UNL     1       4.727  -2.314  15.029  1.00  0.00     0.018 C 
HETATM   10  C16 UNL     1       5.453  -4.231  16.484  1.00  0.00     0.067 C 
HETATM   11  C9  UNL     1       4.199  -1.588  16.215  1.00  0.00     0.014 C 
HETATM   12  C14 UNL     1       3.636  -3.202  14.455  1.00  0.00     0.029 C 
HETATM   13  C10 UNL     1       3.722  -2.599  17.237  1.00  0.00    -0.011 C 
HETATM   14  C11 UNL     1       2.655  -3.506  16.665  1.00  0.00     0.025 C 
HETATM   15  C28 UNL     1       4.857  -3.462  17.678  1.00  0.00     0.028 C 
HETATM   16  C12 UNL     1       3.219  -4.236  15.458  1.00  0.00     0.051 C 
HETATM   17  C15 UNL     1       4.351  -5.121  15.889  1.00  0.00     0.044 C 
BRANCH  16  18
HETATM   18  C13 UNL     1       2.106  -5.023  14.889  1.00  0.00     0.181 C 
HETATM   19  O1  UNL     1       2.349  -6.099  14.289  1.00  0.00    -0.647 OA
HETATM   20  O2  UNL     1       0.804  -4.559  15.029  1.00  0.00    -0.647 OA
ENDBRANCH  16  18
BRANCH  10  21
HETATM   21  C17 UNL     1       6.529  -5.049  17.052  1.00  0.00     0.231 C 
HETATM   22  O3  UNL     1       7.027  -4.796  18.208  1.00  0.00    -0.272 OA
HETATM   23  N2  UNL     1       7.102  -6.163  16.388  1.00  0.00    -0.348 N 
ATOM     24  H2  UNL     1       6.745  -6.429  15.470  1.00  0.00     0.163 HD
BRANCH  23  25
HETATM   25  C18 UNL     1       8.210  -6.954  16.988  1.00  0.00     0.159 C 
BRANCH  25  26
HETATM   26  C19 UNL     1       9.468  -6.726  16.246  1.00  0.00     0.044 C 
BRANCH  26  27
HETATM   27  C20 UNL     1      10.237  -5.520  16.823  1.00  0.00     0.116 C 
BRANCH  27  28
HETATM   28  C21 UNL     1      10.138  -4.392  15.861  1.00  0.00     0.172 C 
HETATM   29  O4  UNL     1      10.083  -4.530  14.629  1.00  0.00    -0.648 OA
HETATM   30  O5  UNL     1      10.105  -3.093  16.390  1.00  0.00    -0.648 OA
ENDBRANCH  27  28
ENDBRANCH  26  27
ENDBRANCH  25  26
BRANCH  25  31
HETATM   31  C22 UNL     1       7.801  -8.337  17.200  1.00  0.00     0.137 C 
BRANCH  31  32
HETATM   32  O6  UNL     1       8.614  -9.240  16.631  1.00  0.00    -0.348 OA
ATOM     33  H6  UNL     1       8.159  -9.956  16.204  1.00  0.00     0.219 HD
ENDBRANCH  31  32
BRANCH  31  34
HETATM   34  N3  UNL     1       6.751  -8.954  17.860  1.00  0.00    -0.361 N 
HETATM   35  C23 UNL     1       5.807  -8.344  18.753  1.00  0.00     0.144 C 
HETATM   36  C24 UNL     1       4.494  -8.295  17.949  1.00  0.00     0.145 C 
HETATM   37  N4  UNL     1       4.141  -9.679  17.727  1.00  0.00    -0.353 N 
HETATM   38  C25 UNL     1       2.833 -10.101  18.089  1.00  0.00     0.184 C 
HETATM   39  C26 UNL     1       5.081 -10.592  17.156  1.00  0.00     0.145 C 
HETATM   40  N5  UNL     1       1.826  -9.338  17.849  1.00  0.00    -0.374 N 
HETATM   41  N6  UNL     1       2.597 -11.351  18.714  1.00  0.00    -0.064 NA
ATOM     42  H52 UNL     1       1.995  -8.438  17.400  1.00  0.00     0.158 HD
ATOM     43  H51 UNL     1       0.887  -9.641  18.110  1.00  0.00     0.158 HD
HETATM   44  C27 UNL     1       6.513 -10.409  17.586  1.00  0.00     0.144 C 
ENDBRANCH  31  34
ENDBRANCH  25  31
ENDBRANCH  23  25
ENDBRANCH  10  21
ENDBRANCH   6   7
ENDBRANCH   4   5
TORSDOF 11
ENDMDL
MODEL 4
REMARK VINA RESULT: -7.346063844      2.047      2.294
REMARK  11 active torsions:
REMARK  status: ('A' for Active; 'I' for Inactive)
REMARK    1  A    between atoms: C3_4  and  C4_5 
REMARK    2  A    between atoms: C5_6  and  C6_7 
REMARK    3  A    between atoms: C12_13  and  C13_14 
REMARK    4  A    between atoms: C16_19  and  C17_20 
REMARK       I    between atoms: C17_20  and  N2_22 
REMARK    5  A    between atoms: N2_22  and  C18_24 
REMARK    6  A    between atoms: C18_24  and  C19_25 
REMARK    7  A    between atoms: C18_24  and  C22_30 
REMARK    8  A    between atoms: C19_25  and  C20_26 
REMARK    9  A    between atoms: C20_26  and  C21_27 
REMARK   10  A    between atoms: C22_30  and  O6_31 
REMARK   11  A    between atoms: C22_30  and  N3_33 
REMARK       I    between atoms: N4_36  and  C25_37 
ROOT
HETATM    1  N1  UNL     1       7.639  -5.266  15.391  1.00  0.00    -0.182 NA
HETATM    2  C1  UNL     1       7.239  -4.320  14.825  1.00  0.00     0.153 C 
HETATM    3  C2  UNL     1       6.757  -3.192  14.126  1.00  0.00     0.027 C 
HETATM    4  C3  UNL     1       6.349  -2.203  13.536  1.00  0.00     0.001 C 
ENDROOT
BRANCH   4   5
HETATM    5  C4  UNL     1       5.877  -1.050  12.870  1.00  0.00    -0.009 C 
HETATM    6  C5  UNL     1       5.471  -0.039  12.310  1.00  0.00    -0.064 C 
BRANCH   6   7
HETATM    7  C6  UNL     1       5.009   1.142  11.654  1.00  0.00     0.070 C 
HETATM    8  C7  UNL     1       5.789   2.164  11.384  1.00  0.00    -0.050 C 
HETATM    9  C8  UNL     1       7.227   2.015  11.809  1.00  0.00     0.018 C 
HETATM   10  C16 UNL     1       5.438   3.405  10.719  1.00  0.00     0.067 C 
HETATM   11  C9  UNL     1       7.612   3.157  12.681  1.00  0.00     0.014 C 
HETATM   12  C14 UNL     1       8.022   2.077  10.516  1.00  0.00     0.029 C 
HETATM   13  C10 UNL     1       7.349   4.451  11.939  1.00  0.00    -0.011 C 
HETATM   14  C11 UNL     1       8.115   4.509  10.636  1.00  0.00     0.025 C 
HETATM   15  C28 UNL     1       5.898   4.573  11.613  1.00  0.00     0.028 C 
HETATM   16  C12 UNL     1       7.703   3.335   9.764  1.00  0.00     0.051 C 
HETATM   17  C15 UNL     1       6.249   3.453   9.414  1.00  0.00     0.044 C 
BRANCH  16  18
HETATM   18  C13 UNL     1       8.554   3.392   8.558  1.00  0.00     0.181 C 
HETATM   19  O1  UNL     1       9.700   3.901   8.631  1.00  0.00    -0.647 OA
HETATM   20  O2  UNL     1       8.071   2.882   7.359  1.00  0.00    -0.647 OA
ENDBRANCH  16  18
BRANCH  10  21
HETATM   21  C17 UNL     1       4.019   3.657  10.457  1.00  0.00     0.231 C 
HETATM   22  O3  UNL     1       3.237   4.111  11.367  1.00  0.00    -0.272 OA
HETATM   23  N2  UNL     1       3.399   3.421   9.203  1.00  0.00    -0.348 N 
ATOM     24  H2  UNL     1       3.964   3.072   8.429  1.00  0.00     0.163 HD
BRANCH  23  25
HETATM   25  C18 UNL     1       1.948   3.668   8.983  1.00  0.00     0.159 C 
BRANCH  25  26
HETATM   26  C19 UNL     1       1.176   2.424   9.195  1.00  0.00     0.044 C 
BRANCH  26  27
HETATM   27  C20 UNL     1       0.298   2.531  10.459  1.00  0.00     0.116 C 
BRANCH  27  28
HETATM   28  C21 UNL     1       0.779   1.536  11.453  1.00  0.00     0.172 C 
HETATM   29  O4  UNL     1       1.729   0.762  11.260  1.00  0.00    -0.648 OA
HETATM   30  O5  UNL     1       0.108   1.478  12.683  1.00  0.00    -0.648 OA
ENDBRANCH  27  28
ENDBRANCH  26  27
ENDBRANCH  25  26
BRANCH  25  31
HETATM   31  C22 UNL     1       1.730   4.383   7.732  1.00  0.00     0.137 C 
BRANCH  31  32
HETATM   32  O6  UNL     1       0.459   4.769   7.539  1.00  0.00    -0.348 OA
ATOM     33  H6  UNL     1       0.027   4.328   6.817  1.00  0.00     0.219 HD
ENDBRANCH  31  32
BRANCH  31  34
HETATM   34  N3  UNL     1       2.537   4.768   6.674  1.00  0.00    -0.361 N 
HETATM   35  C23 UNL     1       3.383   5.925   6.601  1.00  0.00     0.144 C 
HETATM   36  C24 UNL     1       4.812   5.365   6.716  1.00  0.00     0.145 C 
HETATM   37  N4  UNL     1       4.989   4.549   5.536  1.00  0.00    -0.353 N 
HETATM   38  C25 UNL     1       6.131   4.788   4.724  1.00  0.00     0.184 C 
HETATM   39  C26 UNL     1       4.043   3.531   5.202  1.00  0.00     0.145 C 
HETATM   40  N5  UNL     1       7.268   5.031   5.275  1.00  0.00    -0.374 N 
HETATM   41  N6  UNL     1       6.059   4.767   3.309  1.00  0.00    -0.064 NA
ATOM     42  H52 UNL     1       7.320   5.046   6.293  1.00  0.00     0.158 HD
ATOM     43  H51 UNL     1       8.087   5.203   4.692  1.00  0.00     0.158 HD
HETATM   44  C27 UNL     1       2.601   3.863   5.480  1.00  0.00     0.144 C 
ENDBRANCH  31  34
ENDBRANCH  25  31
ENDBRANCH  23  25
ENDBRANCH  10  21
ENDBRANCH   6   7
ENDBRANCH   4   5
TORSDOF 11
ENDMDL
MODEL 5
REMARK VINA RESULT: -7.319462243      4.797     12.279
REMARK  11 active torsions:
REMARK  status: ('A' for Active; 'I' for Inactive)
REMARK    1  A    between atoms: C3_4  and  C4_5 
REMARK    2  A    between atoms: C5_6  and  C6_7 
REMARK    3  A    between atoms: C12_13  and  C13_14 
REMARK    4  A    between atoms: C16_19  and  C17_20 
REMARK       I    between atoms: C17_20  and  N2_22 
REMARK    5  A    between atoms: N2_22  and  C18_24 
REMARK    6  A    between atoms: C18_24  and  C19_25 
REMARK    7  A    between atoms: C18_24  and  C22_30 
REMARK    8  A    between atoms: C19_25  and  C20_26 
REMARK    9  A    between atoms: C20_26  and  C21_27 
REMARK   10  A    between atoms: C22_30  and  O6_31 
REMARK   11  A    between atoms: C22_30  and  N3_33 
REMARK       I    between atoms: N4_36  and  C25_37 
ROOT
HETATM    1  N1  UNL     1       7.779   2.808   8.806  1.00  0.00    -0.182 NA
HETATM    2  C1  UNL     1       7.675   1.971   9.621  1.00  0.00     0.153 C 
HETATM    3  C2  UNL     1       7.569   0.968  10.608  1.00  0.00     0.027 C 
HETATM    4  C3  UNL     1       7.463   0.089  11.451  1.00  0.00     0.001 C 
ENDROOT
BRANCH   4   5
HETATM    5  C4  UNL     1       7.323  -0.931  12.419  1.00  0.00    -0.009 C 
HETATM    6  C5  UNL     1       7.181  -1.809  13.260  1.00  0.00    -0.064 C 
BRANCH   6   7
HETATM    7  C6  UNL     1       7.011  -2.840  14.233  1.00  0.00     0.070 C 
HETATM    8  C7  UNL     1       5.941  -2.946  14.988  1.00  0.00    -0.050 C 
HETATM    9  C8  UNL     1       4.881  -1.898  14.762  1.00  0.00     0.018 C 
HETATM   10  C16 UNL     1       5.654  -3.947  15.997  1.00  0.00     0.067 C 
HETATM   11  C9  UNL     1       4.568  -1.216  16.046  1.00  0.00     0.014 C 
HETATM   12  C14 UNL     1       3.662  -2.676  14.295  1.00  0.00     0.029 C 
HETATM   13  C10 UNL     1       4.160  -2.258  17.068  1.00  0.00    -0.011 C 
HETATM   14  C11 UNL     1       2.964  -3.056  16.598  1.00  0.00     0.025 C 
HETATM   15  C28 UNL     1       5.278  -3.218  17.302  1.00  0.00     0.028 C 
HETATM   16  C12 UNL     1       3.308  -3.743  15.288  1.00  0.00     0.051 C 
HETATM   17  C15 UNL     1       4.421  -4.725  15.511  1.00  0.00     0.044 C 
BRANCH  16  18
HETATM   18  C13 UNL     1       2.075  -4.419  14.835  1.00  0.00     0.181 C 
HETATM   19  O1  UNL     1       2.151  -5.544  14.282  1.00  0.00    -0.647 OA
HETATM   20  O2  UNL     1       0.848  -3.797  15.030  1.00  0.00    -0.647 OA
ENDBRANCH  16  18
BRANCH  10  21
HETATM   21  C17 UNL     1       6.733  -4.866  16.367  1.00  0.00     0.231 C 
HETATM   22  O3  UNL     1       7.016  -5.893  15.652  1.00  0.00    -0.272 OA
HETATM   23  N2  UNL     1       7.537  -4.708  17.525  1.00  0.00    -0.348 N 
ATOM     24  H2  UNL     1       7.375  -3.905  18.133  1.00  0.00     0.163 HD
BRANCH  23  25
HETATM   25  C18 UNL     1       8.608  -5.677  17.880  1.00  0.00     0.159 C 
BRANCH  25  26
HETATM   26  C19 UNL     1       9.898  -5.258  17.288  1.00  0.00     0.044 C 
BRANCH  26  27
HETATM   27  C20 UNL     1       9.746  -3.929  16.520  1.00  0.00     0.116 C 
BRANCH  27  28
HETATM   28  C21 UNL     1      10.073  -4.170  15.091  1.00  0.00     0.172 C 
HETATM   29  O4  UNL     1      10.564  -3.318  14.334  1.00  0.00    -0.648 OA
HETATM   30  O5  UNL     1       9.804  -5.447  14.575  1.00  0.00    -0.648 OA
ENDBRANCH  27  28
ENDBRANCH  26  27
ENDBRANCH  25  26
BRANCH  25  31
HETATM   31  C22 UNL     1       8.171  -7.044  17.629  1.00  0.00     0.137 C 
BRANCH  31  32
HETATM   32  O6  UNL     1       8.817  -7.647  16.620  1.00  0.00    -0.348 OA
ATOM     33  H6  UNL     1       8.768  -7.179  15.795  1.00  0.00     0.219 HD
ENDBRANCH  31  32
BRANCH  31  34
HETATM   34  N3  UNL     1       7.229  -7.887  18.196  1.00  0.00    -0.361 N 
HETATM   35  C23 UNL     1       5.947  -7.523  18.730  1.00  0.00     0.144 C 
HETATM   36  C24 UNL     1       4.935  -8.054  17.698  1.00  0.00     0.145 C 
HETATM   37  N4  UNL     1       5.093  -9.491  17.726  1.00  0.00    -0.353 N 
HETATM   38  C25 UNL     1       3.929 -10.286  17.914  1.00  0.00     0.184 C 
HETATM   39  C26 UNL     1       6.380 -10.089  17.566  1.00  0.00     0.145 C 
HETATM   40  N5  UNL     1       2.834  -9.967  17.320  1.00  0.00    -0.374 N 
HETATM   41  N6  UNL     1       3.936 -11.434  18.744  1.00  0.00    -0.064 NA
ATOM     42  H52 UNL     1       2.829  -9.141  16.723  1.00  0.00     0.158 HD
ATOM     43  H51 UNL     1       2.000 -10.538  17.455  1.00  0.00     0.158 HD
HETATM   44  C27 UNL     1       7.526  -9.356  18.213  1.00  0.00     0.144 C 
ENDBRANCH  31  34
ENDBRANCH  25  31
ENDBRANCH  23  25
ENDBRANCH  10  21
ENDBRANCH   6   7
ENDBRANCH   4   5
TORSDOF 11
ENDMDL
