MODEL 1
REMARK VINA RESULT: -11.012318240      0.000      0.000
REMARK  8 active torsions:
REMARK  status: ('A' for Active; 'I' for Inactive)
REMARK    1  A    between atoms: C9_11  and  C10_12 
REMARK    2  A    between atoms: C10_12  and  C11_13 
REMARK    3  A    between atoms: C12_16  and  C13_17 
REMARK    4  A    between atoms: C13_17  and  C14_18 
REMARK    5  A    between atoms: N4_27  and  C21_28 
REMARK    6  A    between atoms: C21_28  and  C22_29 
REMARK    7  A    between atoms: C22_29  and  N5_30 
REMARK       I    between atoms: N6_33  and  C25_34 
REMARK    8  A    between atoms: C25_34  and  C26_36 
ROOT
HETATM    1  C14 UNL     1       3.803   0.170  12.395  1.00  0.00     0.067 A 
HETATM    2  C15 UNL     1       2.689   0.881  11.975  1.00  0.00     0.020 A 
HETATM    3  C16 UNL     1       1.386   0.524  11.663  1.00  0.00     0.016 A 
HETATM    4  C17 UNL     1       0.539   1.537  11.273  1.00  0.00     0.001 A 
HETATM    5  C18 UNL     1       0.967   2.847  11.197  1.00  0.00     0.002 A 
HETATM    6  C19 UNL     1       2.261   3.184  11.510  1.00  0.00     0.032 A 
HETATM    7  C20 UNL     1       3.129   2.187  11.903  1.00  0.00     0.060 A 
HETATM    8  N3  UNL     1       4.425   2.244  12.258  1.00  0.00    -0.297 N 
ATOM      9  H3  UNL     1       4.998   3.088  12.293  1.00  0.00     0.187 HD
HETATM   10  N4  UNL     1       4.825   1.030  12.553  1.00  0.00    -0.289 N 
ENDROOT
BRANCH   1  11
HETATM   11  C13 UNL     1       3.771  -1.272  12.599  1.00  0.00     0.080 C 
BRANCH  11  12
HETATM   12  C12 UNL     1       3.830  -1.776  13.818  1.00  0.00     0.110 A 
HETATM   13  N2  UNL     1       4.973  -1.975  14.531  1.00  0.00    -0.338 N 
HETATM   14  C11 UNL     1       4.625  -2.506  15.734  1.00  0.00     0.103 A 
ATOM     15  H2  UNL     1       5.921  -1.764  14.218  1.00  0.00     0.167 HD
HETATM   16  C29 UNL     1       3.258  -2.632  15.756  1.00  0.00     0.273 A 
HETATM   17  N10 UNL     1       2.803  -2.181  14.580  1.00  0.00    -0.308 N 
HETATM   18  O2  UNL     1       2.545  -3.079  16.684  1.00  0.00    -0.266 OA
ATOM     19  H10 UNL     1       1.822  -2.149  14.304  1.00  0.00     0.170 HD
BRANCH  14  20
HETATM   20  C10 UNL     1       5.483  -2.832  16.685  1.00  0.00     0.049 C 
BRANCH  20  21
HETATM   21  C9  UNL     1       6.277  -4.055  16.583  1.00  0.00     0.001 A 
HETATM   22  C2  UNL     1       5.943  -5.300  17.053  1.00  0.00     0.017 A 
HETATM   23  C1  UNL     1       4.695  -5.700  17.779  1.00  0.00     0.069 C 
HETATM   24  N1  UNL     1       6.966  -6.126  16.738  1.00  0.00    -0.358 N 
HETATM   25  C3  UNL     1       7.936  -5.460  16.087  1.00  0.00     0.043 A 
ATOM     26  H1  UNL     1       6.999  -7.120  16.963  1.00  0.00     0.166 HD
HETATM   27  C4  UNL     1       9.171  -5.847  15.559  1.00  0.00     0.030 A 
HETATM   28  C8  UNL     1       7.528  -4.144  15.974  1.00  0.00     0.003 A 
HETATM   29  C5  UNL     1       9.924  -4.876  14.944  1.00  0.00     0.002 A 
HETATM   30  C6  UNL     1       9.537  -3.556  14.819  1.00  0.00     0.001 A 
HETATM   31  C7  UNL     1       8.316  -3.206  15.349  1.00  0.00     0.014 A 
ENDBRANCH  20  21
ENDBRANCH  14  20
ENDBRANCH  11  12
ENDBRANCH   1  11
BRANCH  10  32
HETATM   32  C21 UNL     1       6.167   0.702  12.986  1.00  0.00     0.179 C 
BRANCH  32  33
HETATM   33  C22 UNL     1       7.078   0.377  11.820  1.00  0.00     0.296 C 
BRANCH  33  34
HETATM   34  N5  UNL     1       8.069   1.420  11.621  1.00  0.00     0.109 N 
HETATM   35  C23 UNL     1       7.993   2.436  12.642  1.00  0.00     0.294 C 
HETATM   36  C24 UNL     1       7.677   3.739  11.934  1.00  0.00     0.158 C 
HETATM   37  N6  UNL     1       7.137   3.266  10.692  1.00  0.00    -0.321 N 
HETATM   38  C25 UNL     1       6.095   3.834   9.946  1.00  0.00     0.264 C 
HETATM   39  C28 UNL     1       7.873   2.085  10.351  1.00  0.00     0.400 C 
HETATM   40  O1  UNL     1       5.478   4.889  10.310  1.00  0.00    -0.269 OA
BRANCH  38  41
HETATM   41  C26 UNL     1       5.649   3.224   8.665  1.00  0.00     0.280 A 
HETATM   42  N7  UNL     1       5.921   4.036   7.493  1.00  0.00    -0.336 N 
HETATM   43  C27 UNL     1       4.659   4.106   7.285  1.00  0.00     0.188 A 
ATOM     44  H7  UNL     1       6.758   4.396   7.034  1.00  0.00     0.164 HD
HETATM   45  N8  UNL     1       3.899   4.751   6.272  1.00  0.00    -0.064 NA
HETATM   46  N9  UNL     1       4.239   3.329   8.393  1.00  0.00    -0.336 N 
ATOM     47  H9  UNL     1       3.364   3.002   8.801  1.00  0.00     0.164 HD
ENDBRANCH  38  41
ENDBRANCH  33  34
ENDBRANCH  32  33
ENDBRANCH  10  32
TORSDOF 8
ENDMDL
MODEL 2
REMARK VINA RESULT: -10.852324368      2.556     10.230
REMARK  8 active torsions:
REMARK  status: ('A' for Active; 'I' for Inactive)
REMARK    1  A    between atoms: C9_11  and  C10_12 
REMARK    2  A    between atoms: C10_12  and  C11_13 
REMARK    3  A    between atoms: C12_16  and  C13_17 
REMARK    4  A    between atoms: C13_17  and  C14_18 
REMARK    5  A    between atoms: N4_27  and  C21_28 
REMARK    6  A    between atoms: C21_28  and  C22_29 
REMARK    7  A    between atoms: C22_29  and  N5_30 
REMARK       I    between atoms: N6_33  and  C25_34 
REMARK    8  A    between atoms: C25_34  and  C26_36 
ROOT
HETATM    1  C14 UNL     1       4.869  -2.650  15.999  1.00  0.00     0.067 A 
HETATM    2  C15 UNL     1       3.681  -3.317  15.743  1.00  0.00     0.020 A 
HETATM    3  C16 UNL     1       2.381  -2.901  15.498  1.00  0.00     0.016 A 
HETATM    4  C17 UNL     1       1.442  -3.884  15.281  1.00  0.00     0.001 A 
HETATM    5  C18 UNL     1       1.779  -5.223  15.304  1.00  0.00     0.002 A 
HETATM    6  C19 UNL     1       3.072  -5.618  15.548  1.00  0.00     0.032 A 
HETATM    7  C20 UNL     1       4.030  -4.651  15.769  1.00  0.00     0.060 A 
HETATM    8  N3  UNL     1       5.346  -4.766  16.026  1.00  0.00    -0.297 N 
ATOM      9  H3  UNL     1       5.866  -5.640  16.100  1.00  0.00     0.187 HD
HETATM   10  N4  UNL     1       5.845  -3.560  16.163  1.00  0.00    -0.289 N 
ENDROOT
BRANCH   1  11
HETATM   11  C13 UNL     1       4.943  -1.196  16.063  1.00  0.00     0.080 C 
BRANCH  11  12
HETATM   12  C12 UNL     1       5.407  -0.504  15.039  1.00  0.00     0.110 A 
HETATM   13  N2  UNL     1       4.800  -0.394  13.825  1.00  0.00    -0.338 N 
HETATM   14  C11 UNL     1       5.580   0.397  13.041  1.00  0.00     0.103 A 
ATOM     15  H2  UNL     1       3.918  -0.828  13.553  1.00  0.00     0.167 HD
HETATM   16  C29 UNL     1       6.673   0.773  13.782  1.00  0.00     0.273 A 
HETATM   17  N10 UNL     1       6.540   0.212  14.991  1.00  0.00    -0.308 N 
HETATM   18  O2  UNL     1       7.627   1.502  13.424  1.00  0.00    -0.266 OA
ATOM     19  H10 UNL     1       7.202   0.313  15.760  1.00  0.00     0.170 HD
BRANCH  14  20
HETATM   20  C10 UNL     1       5.300   0.720  11.790  1.00  0.00     0.049 C 
BRANCH  20  21
HETATM   21  C9  UNL     1       4.475   1.888  11.491  1.00  0.00     0.001 A 
HETATM   22  C2  UNL     1       4.910   3.138  11.129  1.00  0.00     0.017 A 
HETATM   23  C1  UNL     1       6.325   3.599  10.954  1.00  0.00     0.069 C 
HETATM   24  N1  UNL     1       3.808   3.901  10.952  1.00  0.00    -0.358 N 
HETATM   25  C3  UNL     1       2.691   3.191  11.186  1.00  0.00     0.043 A 
ATOM     26  H1  UNL     1       3.822   4.884  10.677  1.00  0.00     0.166 HD
HETATM   27  C4  UNL     1       1.330   3.509  11.142  1.00  0.00     0.030 A 
HETATM   28  C8  UNL     1       3.082   1.910  11.531  1.00  0.00     0.003 A 
HETATM   29  C5  UNL     1       0.441   2.508  11.451  1.00  0.00     0.002 A 
HETATM   30  C6  UNL     1       0.807   1.223  11.797  1.00  0.00     0.001 A 
HETATM   31  C7  UNL     1       2.154   0.940  11.832  1.00  0.00     0.014 A 
ENDBRANCH  20  21
ENDBRANCH  14  20
ENDBRANCH  11  12
ENDBRANCH   1  11
BRANCH  10  32
HETATM   32  C21 UNL     1       7.239  -3.287  16.442  1.00  0.00     0.179 C 
BRANCH  32  33
HETATM   33  C22 UNL     1       8.149  -4.387  15.937  1.00  0.00     0.296 C 
BRANCH  33  34
HETATM   34  N5  UNL     1       9.106  -4.785  16.952  1.00  0.00     0.109 N 
HETATM   35  C23 UNL     1      10.155  -5.613  16.408  1.00  0.00     0.294 C 
HETATM   36  C24 UNL     1      10.076  -6.943  17.129  1.00  0.00     0.158 C 
HETATM   37  N6  UNL     1       8.734  -6.915  17.636  1.00  0.00    -0.321 N 
HETATM   38  C25 UNL     1       7.848  -7.994  17.762  1.00  0.00     0.264 C 
HETATM   39  C28 UNL     1       8.464  -5.555  17.997  1.00  0.00     0.400 C 
HETATM   40  O1  UNL     1       8.153  -9.184  17.418  1.00  0.00    -0.269 OA
BRANCH  38  41
HETATM   41  C26 UNL     1       6.482  -7.803  18.315  1.00  0.00     0.280 A 
HETATM   42  N7  UNL     1       6.017  -8.899  19.144  1.00  0.00    -0.336 N 
HETATM   43  C27 UNL     1       5.073  -9.097  18.302  1.00  0.00     0.188 A 
ATOM     44  H7  UNL     1       6.315  -9.328  20.020  1.00  0.00     0.164 HD
HETATM   45  N8  UNL     1       4.016 -10.048  18.266  1.00  0.00    -0.064 NA
HETATM   46  N9  UNL     1       5.405  -8.060  17.395  1.00  0.00    -0.336 N 
ATOM     47  H9  UNL     1       5.053  -7.680  16.517  1.00  0.00     0.164 HD
ENDBRANCH  38  41
ENDBRANCH  33  34
ENDBRANCH  32  33
ENDBRANCH  10  32
TORSDOF 8
ENDMDL
MODEL 3
REMARK VINA RESULT: -10.717634802      2.283     10.564
REMARK  8 active torsions:
REMARK  status: ('A' for Active; 'I' for Inactive)
REMARK    1  A    between atoms: C9_11  and  C10_12 
REMARK    2  A    between atoms: C10_12  and  C11_13 
REMARK    3  A    between atoms: C12_16  and  C13_17 
REMARK    4  A    between atoms: C13_17  and  C14_18 
REMARK    5  A    between atoms: N4_27  and  C21_28 
REMARK    6  A    between atoms: C21_28  and  C22_29 
REMARK    7  A    between atoms: C22_29  and  N5_30 
REMARK       I    between atoms: N6_33  and  C25_34 
REMARK    8  A    between atoms: C25_34  and  C26_36 
ROOT
HETATM    1  C14 UNL     1       6.234  -2.901  15.363  1.00  0.00     0.067 A 
HETATM    2  C15 UNL     1       7.543  -3.358  15.373  1.00  0.00     0.020 A 
HETATM    3  C16 UNL     1       8.772  -2.745  15.564  1.00  0.00     0.016 A 
HETATM    4  C17 UNL     1       9.887  -3.550  15.502  1.00  0.00     0.001 A 
HETATM    5  C18 UNL     1       9.786  -4.906  15.264  1.00  0.00     0.002 A 
HETATM    6  C19 UNL     1       8.561  -5.499  15.079  1.00  0.00     0.032 A 
HETATM    7  C20 UNL     1       7.430  -4.712  15.135  1.00  0.00     0.060 A 
HETATM    8  N3  UNL     1       6.132  -5.036  14.990  1.00  0.00    -0.297 N 
ATOM      9  H3  UNL     1       5.766  -5.970  14.805  1.00  0.00     0.187 HD
HETATM   10  N4  UNL     1       5.418  -3.943  15.128  1.00  0.00    -0.289 N 
ENDROOT
BRANCH   1  11
HETATM   11  C13 UNL     1       5.902  -1.498  15.577  1.00  0.00     0.080 C 
BRANCH  11  12
HETATM   12  C12 UNL     1       6.142  -0.604  14.636  1.00  0.00     0.110 A 
HETATM   13  N2  UNL     1       5.506  -0.538  13.434  1.00  0.00    -0.338 N 
HETATM   14  C11 UNL     1       6.027   0.513  12.745  1.00  0.00     0.103 A 
ATOM     15  H2  UNL     1       4.770  -1.165  13.108  1.00  0.00     0.167 HD
HETATM   16  C29 UNL     1       6.989   1.094  13.534  1.00  0.00     0.273 A 
HETATM   17  N10 UNL     1       7.037   0.395  14.675  1.00  0.00    -0.308 N 
HETATM   18  O2  UNL     1       7.702   2.088  13.265  1.00  0.00    -0.266 OA
ATOM     19  H10 UNL     1       7.660   0.592  15.458  1.00  0.00     0.170 HD
BRANCH  14  20
HETATM   20  C10 UNL     1       5.648   0.876  11.532  1.00  0.00     0.049 C 
BRANCH  20  21
HETATM   21  C9  UNL     1       4.728   1.996  11.345  1.00  0.00     0.001 A 
HETATM   22  C2  UNL     1       5.044   3.270  10.946  1.00  0.00     0.017 A 
HETATM   23  C1  UNL     1       6.400   3.812  10.608  1.00  0.00     0.069 C 
HETATM   24  N1  UNL     1       3.887   3.969  10.910  1.00  0.00    -0.358 N 
HETATM   25  C3  UNL     1       2.848   3.194  11.268  1.00  0.00     0.043 A 
ATOM     26  H1  UNL     1       3.812   4.951  10.645  1.00  0.00     0.166 HD
HETATM   27  C4  UNL     1       1.477   3.434  11.390  1.00  0.00     0.030 A 
HETATM   28  C8  UNL     1       3.350   1.938  11.552  1.00  0.00     0.003 A 
HETATM   29  C5  UNL     1       0.689   2.383  11.793  1.00  0.00     0.002 A 
HETATM   30  C6  UNL     1       1.166   1.119  12.081  1.00  0.00     0.001 A 
HETATM   31  C7  UNL     1       2.522   0.915  11.951  1.00  0.00     0.014 A 
ENDBRANCH  20  21
ENDBRANCH  14  20
ENDBRANCH  11  12
ENDBRANCH   1  11
BRANCH  10  32
HETATM   32  C21 UNL     1       3.973  -3.903  15.042  1.00  0.00     0.179 C 
BRANCH  32  33
HETATM   33  C22 UNL     1       3.359  -5.285  15.107  1.00  0.00     0.296 C 
BRANCH  33  34
HETATM   34  N5  UNL     1       2.661  -5.491  16.363  1.00  0.00     0.109 N 
HETATM   35  C23 UNL     1       2.755  -4.340  17.227  1.00  0.00     0.294 C 
HETATM   36  C24 UNL     1       3.460  -4.800  18.487  1.00  0.00     0.158 C 
HETATM   37  N6  UNL     1       4.112  -5.994  18.032  1.00  0.00    -0.321 N 
HETATM   38  C25 UNL     1       5.369  -6.479  18.419  1.00  0.00     0.264 C 
HETATM   39  C28 UNL     1       3.223  -6.609  17.091  1.00  0.00     0.400 C 
HETATM   40  O1  UNL     1       6.113  -5.878  19.262  1.00  0.00    -0.269 OA
BRANCH  38  41
HETATM   41  C26 UNL     1       5.908  -7.745  17.856  1.00  0.00     0.280 A 
HETATM   42  N7  UNL     1       6.080  -8.804  18.832  1.00  0.00    -0.336 N 
HETATM   43  C27 UNL     1       7.338  -8.782  18.590  1.00  0.00     0.188 A 
ATOM     44  H7  UNL     1       5.465  -9.337  19.446  1.00  0.00     0.164 HD
HETATM   45  N8  UNL     1       8.420  -9.539  19.120  1.00  0.00    -0.064 NA
HETATM   46  N9  UNL     1       7.328  -7.754  17.615  1.00  0.00    -0.336 N 
ATOM     47  H9  UNL     1       7.999  -7.261  17.028  1.00  0.00     0.164 HD
ENDBRANCH  38  41
ENDBRANCH  33  34
ENDBRANCH  32  33
ENDBRANCH  10  32
TORSDOF 8
ENDMDL
MODEL 4
REMARK VINA RESULT: -10.603701516      1.523      1.750
REMARK  8 active torsions:
REMARK  status: ('A' for Active; 'I' for Inactive)
REMARK    1  A    between atoms: C9_11  and  C10_12 
REMARK    2  A    between atoms: C10_12  and  C11_13 
REMARK    3  A    between atoms: C12_16  and  C13_17 
REMARK    4  A    between atoms: C13_17  and  C14_18 
REMARK    5  A    between atoms: N4_27  and  C21_28 
REMARK    6  A    between atoms: C21_28  and  C22_29 
REMARK    7  A    between atoms: C22_29  and  N5_30 
REMARK       I    between atoms: N6_33  and  C25_34 
REMARK    8  A    between atoms: C25_34  and  C26_36 
ROOT
HETATM    1  C14 UNL     1       3.252   1.044  12.933  1.00  0.00     0.067 A 
HETATM    2  C15 UNL     1       2.195   1.553  12.195  1.00  0.00     0.020 A 
HETATM    3  C16 UNL     1       0.825   1.337  12.206  1.00  0.00     0.016 A 
HETATM    4  C17 UNL     1       0.074   2.049  11.298  1.00  0.00     0.001 A 
HETATM    5  C18 UNL     1       0.658   2.938  10.418  1.00  0.00     0.002 A 
HETATM    6  C19 UNL     1       2.016   3.142  10.420  1.00  0.00     0.032 A 
HETATM    7  C20 UNL     1       2.789   2.440  11.321  1.00  0.00     0.060 A 
HETATM    8  N3  UNL     1       4.118   2.452  11.529  1.00  0.00    -0.297 N 
ATOM      9  H3  UNL     1       4.797   3.019  11.020  1.00  0.00     0.187 HD
HETATM   10  N4  UNL     1       4.391   1.612  12.499  1.00  0.00    -0.289 N 
ENDROOT
BRANCH   1  11
HETATM   11  C13 UNL     1       3.057   0.054  13.984  1.00  0.00     0.080 C 
BRANCH  11  12
HETATM   12  C12 UNL     1       3.540  -1.168  13.849  1.00  0.00     0.110 A 
HETATM   13  N2  UNL     1       3.366  -2.183  14.739  1.00  0.00    -0.338 N 
HETATM   14  C11 UNL     1       4.008  -3.278  14.251  1.00  0.00     0.103 A 
ATOM     15  H2  UNL     1       2.847  -2.132  15.616  1.00  0.00     0.167 HD
HETATM   16  C29 UNL     1       4.578  -2.928  13.052  1.00  0.00     0.273 A 
HETATM   17  N10 UNL     1       4.277  -1.641  12.834  1.00  0.00    -0.308 N 
HETATM   18  O2  UNL     1       5.256  -3.652  12.286  1.00  0.00    -0.266 OA
ATOM     19  H10 UNL     1       4.565  -1.102  12.018  1.00  0.00     0.170 HD
BRANCH  14  20
HETATM   20  C10 UNL     1       4.053  -4.453  14.856  1.00  0.00     0.049 C 
BRANCH  20  21
HETATM   21  C9  UNL     1       4.908  -4.654  16.024  1.00  0.00     0.001 A 
HETATM   22  C2  UNL     1       4.509  -4.769  17.332  1.00  0.00     0.017 A 
HETATM   23  C1  UNL     1       3.111  -4.718  17.870  1.00  0.00     0.069 C 
HETATM   24  N1  UNL     1       5.629  -4.943  18.070  1.00  0.00    -0.358 N 
HETATM   25  C3  UNL     1       6.723  -4.943  17.288  1.00  0.00     0.043 A 
ATOM     26  H1  UNL     1       5.642  -5.059  19.083  1.00  0.00     0.166 HD
HETATM   27  C4  UNL     1       8.087  -5.082  17.556  1.00  0.00     0.030 A 
HETATM   28  C8  UNL     1       6.297  -4.760  15.985  1.00  0.00     0.003 A 
HETATM   29  C5  UNL     1       8.946  -5.029  16.484  1.00  0.00     0.002 A 
HETATM   30  C6  UNL     1       8.546  -4.849  15.175  1.00  0.00     0.001 A 
HETATM   31  C7  UNL     1       7.195  -4.714  14.944  1.00  0.00     0.014 A 
ENDBRANCH  20  21
ENDBRANCH  14  20
ENDBRANCH  11  12
ENDBRANCH   1  11
BRANCH  10  32
HETATM   32  C21 UNL     1       5.725   1.362  13.004  1.00  0.00     0.179 C 
BRANCH  32  33
HETATM   33  C22 UNL     1       6.624   0.738  11.958  1.00  0.00     0.296 C 
BRANCH  33  34
HETATM   34  N5  UNL     1       7.764   1.589  11.669  1.00  0.00     0.109 N 
HETATM   35  C23 UNL     1       7.665   2.866  12.334  1.00  0.00     0.294 C 
HETATM   36  C24 UNL     1       7.642   3.921  11.247  1.00  0.00     0.158 C 
HETATM   37  N6  UNL     1       7.245   3.148  10.105  1.00  0.00    -0.321 N 
HETATM   38  C25 UNL     1       6.419   3.553   9.048  1.00  0.00     0.264 C 
HETATM   39  C28 UNL     1       7.860   1.862  10.251  1.00  0.00     0.400 C 
HETATM   40  O1  UNL     1       5.899   4.715   8.981  1.00  0.00    -0.269 OA
BRANCH  38  41
HETATM   41  C26 UNL     1       6.103   2.630   7.926  1.00  0.00     0.280 A 
HETATM   42  N7  UNL     1       6.974   2.773   6.774  1.00  0.00    -0.336 N 
HETATM   43  C27 UNL     1       5.952   3.113   6.081  1.00  0.00     0.188 A 
ATOM     44  H7  UNL     1       7.970   2.654   6.594  1.00  0.00     0.164 HD
HETATM   45  N8  UNL     1       5.811   3.477   4.713  1.00  0.00    -0.064 NA
HETATM   46  N9  UNL     1       4.982   3.017   7.109  1.00  0.00    -0.336 N 
ATOM     47  H9  UNL     1       3.978   3.155   7.219  1.00  0.00     0.164 HD
ENDBRANCH  38  41
ENDBRANCH  33  34
ENDBRANCH  32  33
ENDBRANCH  10  32
TORSDOF 8
ENDMDL
MODEL 5
REMARK VINA RESULT: -10.589443121      2.448      9.803
REMARK  8 active torsions:
REMARK  status: ('A' for Active; 'I' for Inactive)
REMARK    1  A    between atoms: C9_11  and  C10_12 
REMARK    2  A    between atoms: C10_12  and  C11_13 
REMARK    3  A    between atoms: C12_16  and  C13_17 
REMARK    4  A    between atoms: C13_17  and  C14_18 
REMARK    5  A    between atoms: N4_27  and  C21_28 
REMARK    6  A    between atoms: C21_28  and  C22_29 
REMARK    7  A    between atoms: C22_29  and  N5_30 
REMARK       I    between atoms: N6_33  and  C25_34 
REMARK    8  A    between atoms: C25_34  and  C26_36 
ROOT
HETATM    1  C14 UNL     1       4.915  -2.452  15.548  1.00  0.00     0.067 A 
HETATM    2  C15 UNL     1       3.674  -3.056  15.414  1.00  0.00     0.020 A 
HETATM    3  C16 UNL     1       2.371  -2.581  15.421  1.00  0.00     0.016 A 
HETATM    4  C17 UNL     1       1.369  -3.510  15.253  1.00  0.00     0.001 A 
HETATM    5  C18 UNL     1       1.648  -4.851  15.084  1.00  0.00     0.002 A 
HETATM    6  C19 UNL     1       2.945  -5.305  15.079  1.00  0.00     0.032 A 
HETATM    7  C20 UNL     1       3.966  -4.394  15.246  1.00  0.00     0.060 A 
HETATM    8  N3  UNL     1       5.299  -4.570  15.280  1.00  0.00    -0.297 N 
ATOM      9  H3  UNL     1       5.786  -5.461  15.181  1.00  0.00     0.187 HD
HETATM   10  N4  UNL     1       5.865  -3.400  15.461  1.00  0.00    -0.289 N 
ENDROOT
BRANCH   1  11
HETATM   11  C13 UNL     1       5.061  -1.016  15.750  1.00  0.00     0.080 C 
BRANCH  11  12
HETATM   12  C12 UNL     1       5.515  -0.247  14.778  1.00  0.00     0.110 A 
HETATM   13  N2  UNL     1       4.968  -0.147  13.535  1.00  0.00    -0.338 N 
HETATM   14  C11 UNL     1       5.713   0.741  12.823  1.00  0.00     0.103 A 
ATOM     15  H2  UNL     1       4.147  -0.649  13.197  1.00  0.00     0.167 HD
HETATM   16  C29 UNL     1       6.723   1.187  13.639  1.00  0.00     0.273 A 
HETATM   17  N10 UNL     1       6.577   0.570  14.819  1.00  0.00    -0.308 N 
HETATM   18  O2  UNL     1       7.624   2.013  13.361  1.00  0.00    -0.266 OA
ATOM     19  H10 UNL     1       7.183   0.703  15.628  1.00  0.00     0.170 HD
BRANCH  14  20
HETATM   20  C10 UNL     1       5.475   1.084  11.569  1.00  0.00     0.049 C 
BRANCH  20  21
HETATM   21  C9  UNL     1       4.562   2.183  11.260  1.00  0.00     0.001 A 
HETATM   22  C2  UNL     1       4.899   3.445  10.841  1.00  0.00     0.017 A 
HETATM   23  C1  UNL     1       6.273   3.994  10.601  1.00  0.00     0.069 C 
HETATM   24  N1  UNL     1       3.742   4.126  10.678  1.00  0.00    -0.358 N 
HETATM   25  C3  UNL     1       2.684   3.351  10.975  1.00  0.00     0.043 A 
ATOM     26  H1  UNL     1       3.680   5.097  10.370  1.00  0.00     0.166 HD
HETATM   27  C4  UNL     1       1.305   3.576  10.969  1.00  0.00     0.030 A 
HETATM   28  C8  UNL     1       3.173   2.113  11.349  1.00  0.00     0.003 A 
HETATM   29  C5  UNL     1       0.496   2.529  11.342  1.00  0.00     0.002 A 
HETATM   30  C6  UNL     1       0.960   1.285  11.718  1.00  0.00     0.001 A 
HETATM   31  C7  UNL     1       2.324   1.094  11.715  1.00  0.00     0.014 A 
ENDBRANCH  20  21
ENDBRANCH  14  20
ENDBRANCH  11  12
ENDBRANCH   1  11
BRANCH  10  32
HETATM   32  C21 UNL     1       7.296  -3.196  15.545  1.00  0.00     0.179 C 
BRANCH  32  33
HETATM   33  C22 UNL     1       8.074  -4.402  15.062  1.00  0.00     0.296 C 
BRANCH  33  34
HETATM   34  N5  UNL     1       9.251  -4.631  15.881  1.00  0.00     0.109 N 
HETATM   35  C23 UNL     1       9.938  -5.843  15.508  1.00  0.00     0.294 C 
HETATM   36  C24 UNL     1       9.923  -6.742  16.728  1.00  0.00     0.158 C 
HETATM   37  N6  UNL     1       8.842  -6.180  17.485  1.00  0.00    -0.321 N 
HETATM   38  C25 UNL     1       7.911  -6.865  18.278  1.00  0.00     0.264 C 
HETATM   39  C28 UNL     1       8.893  -4.763  17.277  1.00  0.00     0.400 C 
HETATM   40  O1  UNL     1       7.921  -8.133  18.418  1.00  0.00    -0.269 OA
BRANCH  38  41
HETATM   41  C26 UNL     1       6.844  -6.134  19.011  1.00  0.00     0.280 A 
HETATM   42  N7  UNL     1       5.696  -6.950  19.361  1.00  0.00    -0.336 N 
HETATM   43  C27 UNL     1       4.971  -6.194  18.624  1.00  0.00     0.188 A 
ATOM     44  H7  UNL     1       5.536  -7.772  19.944  1.00  0.00     0.164 HD
HETATM   45  N8  UNL     1       3.582  -6.215  18.320  1.00  0.00    -0.064 NA
HETATM   46  N9  UNL     1       5.991  -5.310  18.194  1.00  0.00    -0.336 N 
ATOM     47  H9  UNL     1       6.079  -4.489  17.596  1.00  0.00     0.164 HD
ENDBRANCH  38  41
ENDBRANCH  33  34
ENDBRANCH  32  33
ENDBRANCH  10  32
TORSDOF 8
ENDMDL
