MODEL 1
REMARK VINA RESULT: -9.421272011      0.000      0.000
REMARK  12 active torsions:
REMARK  status: ('A' for Active; 'I' for Inactive)
REMARK       I    between atoms: N1_2  and  C2_4 
REMARK       I    between atoms: C2_4  and  N2_6 
REMARK       I    between atoms: C3_8  and  N3_9 
REMARK       I    between atoms: C3_8  and  N6_21 
REMARK    1  A    between atoms: N3_9  and  O2_11 
REMARK    2  A    between atoms: O2_11  and  C4_12 
REMARK    3  A    between atoms: C4_12  and  C5_13 
REMARK    4  A    between atoms: C5_13  and  C6_14 
REMARK    5  A    between atoms: C6_14  and  O3_15 
REMARK    6  A    between atoms: N6_21  and  N7_23 
REMARK    7  A    between atoms: N7_23  and  C9_24 
REMARK    8  A    between atoms: C9_24  and  C10_25 
REMARK       I    between atoms: N9_27  and  C11_29 
REMARK       I    between atoms: C11_29  and  N11_31 
REMARK    9  A    between atoms: N11_31  and  C12_33 
REMARK   10  A    between atoms: C12_33  and  O4_34 
REMARK   11  A    between atoms: C12_33  and  N12_36 
REMARK   12  A    between atoms: N12_36  and  C13_38 
ROOT
HETATM    1  C4  UNL     1       5.359  -5.186  16.365  1.00  0.00     0.158 C 
HETATM    2  N4  UNL     1       5.387  -6.452  16.574  1.00  0.00    -0.275 N 
ATOM      3  H4  UNL     1       6.283  -6.938  16.589  1.00  0.00     0.180 HD
HETATM    4  C8  UNL     1       4.193  -7.189  16.785  1.00  0.00     0.183 C 
HETATM    5  N5  UNL     1       3.208  -7.782  16.933  1.00  0.00    -0.172 NA
ENDROOT
BRANCH   1   6
HETATM    6  O2  UNL     1       6.613  -4.587  16.171  1.00  0.00    -0.209 OA
BRANCH   6   7
HETATM    7  N3  UNL     1       6.864  -3.336  16.676  1.00  0.00    -0.088 N 
HETATM    8  C3  UNL     1       7.686  -2.464  15.908  1.00  0.00     0.726 C 
HETATM    9  N2  UNL     1       8.828  -2.922  15.521  1.00  0.00    -0.138 N 
HETATM   10  N6  UNL     1       7.328  -1.136  15.549  1.00  0.00    -0.045 N 
HETATM   11  C2  UNL     1       9.262  -4.234  15.837  1.00  0.00     0.334 C 
ATOM     12  H2  UNL     1       9.439  -2.321  14.968  1.00  0.00     0.189 HD
HETATM   13  N1  UNL     1       9.828  -4.605  17.080  1.00  0.00    -0.347 N 
HETATM   14  O1  UNL     1       9.156  -5.169  14.984  1.00  0.00    -0.247 OA
HETATM   15  C1  UNL     1      10.265  -5.942  17.402  1.00  0.00     0.151 C 
ATOM     16  H1  UNL     1       9.933  -3.882  17.793  1.00  0.00     0.163 HD
ATOM     17  H6  UNL     1       7.670  -0.378  16.140  1.00  0.00     0.213 HD
ATOM     18  H3  UNL     1       6.475  -3.041  17.571  1.00  0.00     0.214 HD
BRANCH  10  19
HETATM   19  N7  UNL     1       6.549  -0.793  14.454  1.00  0.00     0.032 N 
HETATM   20  C19 UNL     1       6.579  -1.753  13.363  1.00  0.00     0.268 C 
HETATM   21  C20 UNL     1       7.544  -0.928  12.581  1.00  0.00     0.060 C 
HETATM   22  C21 UNL     1       7.127   0.165  13.538  1.00  0.00     0.268 C 
BRANCH  19  23
HETATM   23  C9  UNL     1       5.181  -0.528  14.835  1.00  0.00     0.338 C 
BRANCH  23  24
HETATM   24  C10 UNL     1       4.354   0.015  13.697  1.00  0.00     0.123 C 
HETATM   25  N8  UNL     1       3.448  -0.860  13.067  1.00  0.00    -0.086 NA
HETATM   26  N9  UNL     1       4.465   1.216  13.320  1.00  0.00    -0.321 N 
HETATM   27  C11 UNL     1       3.800   1.912  12.299  1.00  0.00     0.196 C 
ATOM     28  H9  UNL     1       5.147   1.767  13.841  1.00  0.00     0.169 HD
HETATM   29  N10 UNL     1       2.624   1.357  11.722  1.00  0.00    -0.063 NA
HETATM   30  N11 UNL     1       4.269   3.008  11.935  1.00  0.00    -0.296 N 
ATOM     31  H11 UNL     1       5.112   3.265  12.450  1.00  0.00     0.172 HD
BRANCH  30  32
HETATM   32  C12 UNL     1       3.920   3.933  11.016  1.00  0.00     0.238 C 
BRANCH  32  33
HETATM   33  O4  UNL     1       4.834   4.851  10.776  1.00  0.00    -0.332 OA
ATOM     34  H4  UNL     1       4.537   5.582  10.246  1.00  0.00     0.221 HD
ENDBRANCH  32  33
BRANCH  32  35
HETATM   35  N12 UNL     1       2.724   4.062  10.278  1.00  0.00    -0.155 N 
ATOM     36  H12 UNL     1       1.850   4.132  10.800  1.00  0.00     0.188 HD
BRANCH  35  37
HETATM   37  C13 UNL     1       2.658   4.098   9.000  1.00  0.00     0.685 A 
HETATM   38  N13 UNL     1       3.735   3.639   8.310  1.00  0.00    -0.196 N 
HETATM   39  C14 UNL     1       3.693   3.654   6.965  1.00  0.00     0.024 A 
ATOM     40  H13 UNL     1       4.558   3.289   8.802  1.00  0.00     0.184 HD
HETATM   41  C15 UNL     1       4.868   3.117   6.228  1.00  0.00     0.068 C 
HETATM   42  C16 UNL     1       2.579   4.129   6.290  1.00  0.00     0.050 A 
HETATM   43  C17 UNL     1       1.516   4.583   7.036  1.00  0.00     0.024 A 
HETATM   44  C18 UNL     1       0.274   5.117   6.406  1.00  0.00     0.068 C 
HETATM   45  N14 UNL     1       1.544   4.572   8.388  1.00  0.00    -0.196 N 
ATOM     46  H14 UNL     1       0.750   4.911   8.932  1.00  0.00     0.184 HD
ENDBRANCH  35  37
ENDBRANCH  32  35
ENDBRANCH  30  32
ENDBRANCH  23  24
ENDBRANCH  19  23
ENDBRANCH  10  19
ENDBRANCH   6   7
ENDBRANCH   1   6
BRANCH   1  47
HETATM   47  C5  UNL     1       4.099  -4.377  16.321  1.00  0.00     0.113 C 
BRANCH  47  48
HETATM   48  C6  UNL     1       3.729  -4.068  14.883  1.00  0.00     0.175 C 
BRANCH  48  49
HETATM   49  O3  UNL     1       2.703  -4.849  14.401  1.00  0.00    -0.396 OA
HETATM   50  C7  UNL     1       1.609  -4.914  15.247  1.00  0.00     0.201 C 
ENDBRANCH  48  49
ENDBRANCH  47  48
ENDBRANCH   1  47
TORSDOF 12
ENDMDL
MODEL 2
REMARK VINA RESULT: -9.387597085      2.175      4.283
REMARK  12 active torsions:
REMARK  status: ('A' for Active; 'I' for Inactive)
REMARK       I    between atoms: N1_2  and  C2_4 
REMARK       I    between atoms: C2_4  and  N2_6 
REMARK       I    between atoms: C3_8  and  N3_9 
REMARK       I    between atoms: C3_8  and  N6_21 
REMARK    1  A    between atoms: N3_9  and  O2_11 
REMARK    2  A    between atoms: O2_11  and  C4_12 
REMARK    3  A    between atoms: C4_12  and  C5_13 
REMARK    4  A    between atoms: C5_13  and  C6_14 
REMARK    5  A    between atoms: C6_14  and  O3_15 
REMARK    6  A    between atoms: N6_21  and  N7_23 
REMARK    7  A    between atoms: N7_23  and  C9_24 
REMARK    8  A    between atoms: C9_24  and  C10_25 
REMARK       I    between atoms: N9_27  and  C11_29 
REMARK       I    between atoms: C11_29  and  N11_31 
REMARK    9  A    between atoms: N11_31  and  C12_33 
REMARK   10  A    between atoms: C12_33  and  O4_34 
REMARK   11  A    between atoms: C12_33  and  N12_36 
REMARK   12  A    between atoms: N12_36  and  C13_38 
ROOT
HETATM    1  C4  UNL     1       7.736  -6.789  17.522  1.00  0.00     0.158 C 
HETATM    2  N4  UNL     1       7.530  -8.023  17.230  1.00  0.00    -0.275 N 
ATOM      3  H4  UNL     1       6.647  -8.294  16.798  1.00  0.00     0.180 HD
HETATM    4  C8  UNL     1       8.509  -9.015  17.497  1.00  0.00     0.183 C 
HETATM    5  N5  UNL     1       9.308  -9.817  17.741  1.00  0.00    -0.172 NA
ENDROOT
BRANCH   1   6
HETATM    6  O2  UNL     1       6.683  -5.918  17.204  1.00  0.00    -0.209 OA
BRANCH   6   7
HETATM    7  N3  UNL     1       6.466  -5.547  15.901  1.00  0.00    -0.088 N 
HETATM    8  C3  UNL     1       5.333  -4.731  15.624  1.00  0.00     0.726 C 
HETATM    9  N2  UNL     1       4.193  -5.138  16.068  1.00  0.00    -0.138 N 
HETATM   10  N6  UNL     1       5.384  -3.510  14.897  1.00  0.00    -0.045 N 
HETATM   11  C2  UNL     1       4.055  -6.344  16.800  1.00  0.00     0.334 C 
ATOM     12  H2  UNL     1       3.363  -4.574  15.886  1.00  0.00     0.189 HD
HETATM   13  N1  UNL     1       3.991  -7.629  16.210  1.00  0.00    -0.347 N 
HETATM   14  O1  UNL     1       3.981  -6.321  18.068  1.00  0.00    -0.247 OA
HETATM   15  C1  UNL     1       3.854  -8.855  16.958  1.00  0.00     0.151 C 
ATOM     16  H1  UNL     1       4.044  -7.692  15.193  1.00  0.00     0.163 HD
ATOM     17  H6  UNL     1       5.172  -3.546  13.900  1.00  0.00     0.213 HD
ATOM     18  H3  UNL     1       7.095  -5.845  15.155  1.00  0.00     0.214 HD
BRANCH  10  19
HETATM   19  N7  UNL     1       5.701  -2.275  15.442  1.00  0.00     0.032 N 
HETATM   20  C19 UNL     1       6.807  -1.591  14.792  1.00  0.00     0.268 C 
HETATM   21  C20 UNL     1       7.765  -1.994  15.861  1.00  0.00     0.060 C 
HETATM   22  C21 UNL     1       6.506  -2.296  16.642  1.00  0.00     0.268 C 
BRANCH  19  23
HETATM   23  C9  UNL     1       4.549  -1.404  15.492  1.00  0.00     0.338 C 
BRANCH  23  24
HETATM   24  C10 UNL     1       4.169  -0.862  14.138  1.00  0.00     0.123 C 
HETATM   25  N8  UNL     1       3.753  -1.781  13.155  1.00  0.00    -0.086 NA
HETATM   26  N9  UNL     1       4.218   0.376  13.889  1.00  0.00    -0.321 N 
HETATM   27  C11 UNL     1       3.911   1.079  12.713  1.00  0.00     0.196 C 
ATOM     28  H9  UNL     1       4.531   0.957  14.666  1.00  0.00     0.169 HD
HETATM   29  N10 UNL     1       3.176   0.432  11.681  1.00  0.00    -0.063 NA
HETATM   30  N11 UNL     1       4.295   2.261  12.620  1.00  0.00    -0.296 N 
ATOM     31  H11 UNL     1       4.804   2.575  13.446  1.00  0.00     0.172 HD
BRANCH  30  32
HETATM   32  C12 UNL     1       4.192   3.222  11.677  1.00  0.00     0.238 C 
BRANCH  32  33
HETATM   33  O4  UNL     1       4.278   4.456  12.129  1.00  0.00    -0.332 OA
ATOM     34  H4  UNL     1       4.404   5.120  11.460  1.00  0.00     0.221 HD
ENDBRANCH  32  33
BRANCH  32  35
HETATM   35  N12 UNL     1       4.008   3.099  10.283  1.00  0.00    -0.155 N 
ATOM     36  H12 UNL     1       3.062   2.922   9.944  1.00  0.00     0.188 HD
BRANCH  35  37
HETATM   37  C13 UNL     1       4.942   3.195   9.413  1.00  0.00     0.685 A 
HETATM   38  N13 UNL     1       4.594   3.041   8.108  1.00  0.00    -0.196 N 
HETATM   39  C14 UNL     1       5.552   3.145   7.169  1.00  0.00     0.024 A 
ATOM     40  H13 UNL     1       3.626   2.850   7.847  1.00  0.00     0.184 HD
HETATM   41  C15 UNL     1       5.145   3.006   5.746  1.00  0.00     0.068 C 
HETATM   42  C16 UNL     1       6.869   3.403   7.517  1.00  0.00     0.050 A 
HETATM   43  C17 UNL     1       7.168   3.550   8.851  1.00  0.00     0.024 A 
HETATM   44  C18 UNL     1       8.555   3.824   9.329  1.00  0.00     0.068 C 
HETATM   45  N14 UNL     1       6.216   3.449   9.806  1.00  0.00    -0.196 N 
ATOM     46  H14 UNL     1       6.448   3.560  10.793  1.00  0.00     0.184 HD
ENDBRANCH  35  37
ENDBRANCH  32  35
ENDBRANCH  30  32
ENDBRANCH  23  24
ENDBRANCH  19  23
ENDBRANCH  10  19
ENDBRANCH   6   7
ENDBRANCH   1   6
BRANCH   1  47
HETATM   47  C5  UNL     1       8.994  -6.284  18.159  1.00  0.00     0.113 C 
BRANCH  47  48
HETATM   48  C6  UNL     1       9.840  -5.555  17.132  1.00  0.00     0.175 C 
BRANCH  48  49
HETATM   49  O3  UNL     1       9.591  -5.950  15.837  1.00  0.00    -0.396 OA
HETATM   50  C7  UNL     1       9.856  -4.970  14.896  1.00  0.00     0.201 C 
ENDBRANCH  48  49
ENDBRANCH  47  48
ENDBRANCH   1  47
TORSDOF 12
ENDMDL
MODEL 3
REMARK VINA RESULT: -9.311835476      2.167      4.478
REMARK  12 active torsions:
REMARK  status: ('A' for Active; 'I' for Inactive)
REMARK       I    between atoms: N1_2  and  C2_4 
REMARK       I    between atoms: C2_4  and  N2_6 
REMARK       I    between atoms: C3_8  and  N3_9 
REMARK       I    between atoms: C3_8  and  N6_21 
REMARK    1  A    between atoms: N3_9  and  O2_11 
REMARK    2  A    between atoms: O2_11  and  C4_12 
REMARK    3  A    between atoms: C4_12  and  C5_13 
REMARK    4  A    between atoms: C5_13  and  C6_14 
REMARK    5  A    between atoms: C6_14  and  O3_15 
REMARK    6  A    between atoms: N6_21  and  N7_23 
REMARK    7  A    between atoms: N7_23  and  C9_24 
REMARK    8  A    between atoms: C9_24  and  C10_25 
REMARK       I    between atoms: N9_27  and  C11_29 
REMARK       I    between atoms: C11_29  and  N11_31 
REMARK    9  A    between atoms: N11_31  and  C12_33 
REMARK   10  A    between atoms: C12_33  and  O4_34 
REMARK   11  A    between atoms: C12_33  and  N12_36 
REMARK   12  A    between atoms: N12_36  and  C13_38 
ROOT
HETATM    1  C4  UNL     1       7.958  -6.892  17.577  1.00  0.00     0.158 C 
HETATM    2  N4  UNL     1       7.668  -8.106  17.278  1.00  0.00    -0.275 N 
ATOM      3  H4  UNL     1       6.778  -8.312  16.827  1.00  0.00     0.180 HD
HETATM    4  C8  UNL     1       8.565  -9.168  17.565  1.00  0.00     0.183 C 
HETATM    5  N5  UNL     1       9.297 -10.027  17.825  1.00  0.00    -0.172 NA
ENDROOT
BRANCH   1   6
HETATM    6  O2  UNL     1       6.980  -5.945  17.238  1.00  0.00    -0.209 OA
BRANCH   6   7
HETATM    7  N3  UNL     1       6.779  -5.602  15.925  1.00  0.00    -0.088 N 
HETATM    8  C3  UNL     1       5.657  -4.783  15.617  1.00  0.00     0.726 C 
HETATM    9  N2  UNL     1       4.508  -5.170  16.058  1.00  0.00    -0.138 N 
HETATM   10  N6  UNL     1       5.727  -3.580  14.863  1.00  0.00    -0.045 N 
HETATM   11  C2  UNL     1       4.352  -6.357  16.816  1.00  0.00     0.334 C 
ATOM     12  H2  UNL     1       3.685  -4.603  15.854  1.00  0.00     0.189 HD
HETATM   13  N1  UNL     1       4.282  -7.655  16.255  1.00  0.00    -0.347 N 
HETATM   14  O1  UNL     1       4.265  -6.304  18.082  1.00  0.00    -0.247 OA
HETATM   15  C1  UNL     1       4.127  -8.863  17.029  1.00  0.00     0.151 C 
ATOM     16  H1  UNL     1       4.346  -7.741  15.240  1.00  0.00     0.163 HD
ATOM     17  H6  UNL     1       5.524  -3.636  13.864  1.00  0.00     0.213 HD
ATOM     18  H3  UNL     1       7.414  -5.923  15.193  1.00  0.00     0.214 HD
BRANCH  10  19
HETATM   19  N7  UNL     1       6.048  -2.335  15.382  1.00  0.00     0.032 N 
HETATM   20  C19 UNL     1       6.271  -2.316  16.818  1.00  0.00     0.268 C 
HETATM   21  C20 UNL     1       4.911  -1.764  17.084  1.00  0.00     0.060 C 
HETATM   22  C21 UNL     1       4.940  -1.435  15.609  1.00  0.00     0.268 C 
BRANCH  19  23
HETATM   23  C9  UNL     1       7.183  -1.751  14.703  1.00  0.00     0.338 C 
BRANCH  23  24
HETATM   24  C10 UNL     1       6.782  -0.901  13.525  1.00  0.00     0.123 C 
HETATM   25  N8  UNL     1       6.294  -1.555  12.378  1.00  0.00    -0.086 NA
HETATM   26  N9  UNL     1       6.877   0.359  13.562  1.00  0.00    -0.321 N 
HETATM   27  C11 UNL     1       6.562   1.322  12.591  1.00  0.00     0.196 C 
ATOM     28  H9  UNL     1       7.240   0.735  14.438  1.00  0.00     0.169 HD
HETATM   29  N10 UNL     1       5.766   0.955  11.471  1.00  0.00    -0.063 NA
HETATM   30  N11 UNL     1       6.993   2.480  12.753  1.00  0.00    -0.296 N 
ATOM     31  H11 UNL     1       7.543   2.578  13.607  1.00  0.00     0.172 HD
BRANCH  30  32
HETATM   32  C12 UNL     1       6.901   3.634  12.059  1.00  0.00     0.238 C 
BRANCH  32  33
HETATM   33  O4  UNL     1       8.018   4.025  11.479  1.00  0.00    -0.332 OA
ATOM     34  H4  UNL     1       8.402   4.816  11.840  1.00  0.00     0.221 HD
ENDBRANCH  32  33
BRANCH  32  35
HETATM   35  N12 UNL     1       5.790   4.481  11.862  1.00  0.00    -0.155 N 
ATOM     36  H12 UNL     1       5.813   5.403  12.298  1.00  0.00     0.188 HD
BRANCH  35  37
HETATM   37  C13 UNL     1       4.753   4.175  11.176  1.00  0.00     0.685 A 
HETATM   38  N13 UNL     1       3.767   3.489  11.813  1.00  0.00    -0.196 N 
HETATM   39  C14 UNL     1       2.661   3.160  11.122  1.00  0.00     0.024 A 
ATOM     40  H13 UNL     1       3.865   3.230  12.795  1.00  0.00     0.184 HD
HETATM   41  C15 UNL     1       1.580   2.439  11.845  1.00  0.00     0.068 C 
HETATM   42  C16 UNL     1       2.522   3.509   9.787  1.00  0.00     0.050 A 
HETATM   43  C17 UNL     1       3.549   4.202   9.190  1.00  0.00     0.024 A 
HETATM   44  C18 UNL     1       3.499   4.619   7.758  1.00  0.00     0.068 C 
HETATM   45  N14 UNL     1       4.667   4.540   9.872  1.00  0.00    -0.196 N 
ATOM     46  H14 UNL     1       5.423   5.054   9.420  1.00  0.00     0.184 HD
ENDBRANCH  35  37
ENDBRANCH  32  35
ENDBRANCH  30  32
ENDBRANCH  23  24
ENDBRANCH  19  23
ENDBRANCH  10  19
ENDBRANCH   6   7
ENDBRANCH   1   6
BRANCH   1  47
HETATM   47  C5  UNL     1       9.236  -6.480  18.242  1.00  0.00     0.113 C 
BRANCH  47  48
HETATM   48  C6  UNL     1      10.133  -5.767  17.249  1.00  0.00     0.175 C 
BRANCH  48  49
HETATM   49  O3  UNL     1      10.182  -4.404  17.435  1.00  0.00    -0.396 OA
HETATM   50  C7  UNL     1       9.910  -3.677  16.289  1.00  0.00     0.201 C 
ENDBRANCH  48  49
ENDBRANCH  47  48
ENDBRANCH   1  47
TORSDOF 12
ENDMDL
MODEL 4
REMARK VINA RESULT: -9.273543050      2.647     10.939
REMARK  12 active torsions:
REMARK  status: ('A' for Active; 'I' for Inactive)
REMARK       I    between atoms: N1_2  and  C2_4 
REMARK       I    between atoms: C2_4  and  N2_6 
REMARK       I    between atoms: C3_8  and  N3_9 
REMARK       I    between atoms: C3_8  and  N6_21 
REMARK    1  A    between atoms: N3_9  and  O2_11 
REMARK    2  A    between atoms: O2_11  and  C4_12 
REMARK    3  A    between atoms: C4_12  and  C5_13 
REMARK    4  A    between atoms: C5_13  and  C6_14 
REMARK    5  A    between atoms: C6_14  and  O3_15 
REMARK    6  A    between atoms: N6_21  and  N7_23 
REMARK    7  A    between atoms: N7_23  and  C9_24 
REMARK    8  A    between atoms: C9_24  and  C10_25 
REMARK       I    between atoms: N9_27  and  C11_29 
REMARK       I    between atoms: C11_29  and  N11_31 
REMARK    9  A    between atoms: N11_31  and  C12_33 
REMARK   10  A    between atoms: C12_33  and  O4_34 
REMARK   11  A    between atoms: C12_33  and  N12_36 
REMARK   12  A    between atoms: N12_36  and  C13_38 
ROOT
HETATM    1  C4  UNL     1       3.385   4.046   8.461  1.00  0.00     0.158 C 
HETATM    2  N4  UNL     1       3.304   3.456   9.599  1.00  0.00    -0.275 N 
ATOM      3  H4  UNL     1       4.070   2.857   9.907  1.00  0.00     0.180 HD
HETATM    4  C8  UNL     1       2.169   3.621  10.435  1.00  0.00     0.183 C 
HETATM    5  N5  UNL     1       1.227   3.747  11.097  1.00  0.00    -0.172 NA
ENDROOT
BRANCH   1   6
HETATM    6  O2  UNL     1       4.561   3.792   7.741  1.00  0.00    -0.209 OA
BRANCH   6   7
HETATM    7  N3  UNL     1       5.378   2.751   8.101  1.00  0.00    -0.088 N 
HETATM    8  C3  UNL     1       6.587   3.062   8.784  1.00  0.00     0.726 C 
HETATM    9  N2  UNL     1       7.359   3.943   8.242  1.00  0.00    -0.138 N 
HETATM   10  N6  UNL     1       6.989   2.469  10.011  1.00  0.00    -0.045 N 
HETATM   11  C2  UNL     1       7.032   4.582   7.019  1.00  0.00     0.334 C 
ATOM     12  H2  UNL     1       8.231   4.188   8.709  1.00  0.00     0.189 HD
HETATM   13  N1  UNL     1       7.231   4.002   5.743  1.00  0.00    -0.347 N 
HETATM   14  O1  UNL     1       6.527   5.747   7.018  1.00  0.00    -0.247 OA
HETATM   15  C1  UNL     1       6.895   4.653   4.500  1.00  0.00     0.151 C 
ATOM     16  H1  UNL     1       7.637   3.067   5.700  1.00  0.00     0.163 HD
ATOM     17  H6  UNL     1       7.625   1.672   9.964  1.00  0.00     0.213 HD
ATOM     18  H3  UNL     1       5.128   1.785   7.887  1.00  0.00     0.214 HD
BRANCH  10  19
HETATM   19  N7  UNL     1       6.583   2.891  11.268  1.00  0.00     0.032 N 
HETATM   20  C19 UNL     1       6.295   4.312  11.366  1.00  0.00     0.268 C 
HETATM   21  C20 UNL     1       7.611   4.599  12.005  1.00  0.00     0.060 C 
HETATM   22  C21 UNL     1       7.634   3.105  12.238  1.00  0.00     0.268 C 
BRANCH  19  23
HETATM   23  C9  UNL     1       5.454   2.127  11.748  1.00  0.00     0.338 C 
BRANCH  23  24
HETATM   24  C10 UNL     1       5.865   0.858  12.449  1.00  0.00     0.123 C 
HETATM   25  N8  UNL     1       6.608  -0.087  11.715  1.00  0.00    -0.086 NA
HETATM   26  N9  UNL     1       5.557   0.645  13.656  1.00  0.00    -0.321 N 
HETATM   27  C11 UNL     1       5.837  -0.453  14.485  1.00  0.00     0.196 C 
ATOM     28  H9  UNL     1       5.019   1.390  14.098  1.00  0.00     0.169 HD
HETATM   29  N10 UNL     1       6.828  -1.393  14.092  1.00  0.00    -0.063 NA
HETATM   30  N11 UNL     1       5.199  -0.559  15.551  1.00  0.00    -0.296 N 
ATOM     31  H11 UNL     1       4.529   0.198  15.685  1.00  0.00     0.172 HD
BRANCH  30  32
HETATM   32  C12 UNL     1       5.192  -1.447  16.568  1.00  0.00     0.238 C 
BRANCH  32  33
HETATM   33  O4  UNL     1       5.207  -0.912  17.772  1.00  0.00    -0.332 OA
ATOM     34  H4  UNL     1       5.007  -1.514  18.480  1.00  0.00     0.221 HD
ENDBRANCH  32  33
BRANCH  32  35
HETATM   35  N12 UNL     1       5.169  -2.857  16.532  1.00  0.00    -0.155 N 
ATOM     36  H12 UNL     1       4.294  -3.310  16.269  1.00  0.00     0.188 HD
BRANCH  35  37
HETATM   37  C13 UNL     1       6.168  -3.609  16.807  1.00  0.00     0.685 A 
HETATM   38  N13 UNL     1       7.364  -3.278  16.253  1.00  0.00    -0.196 N 
HETATM   39  C14 UNL     1       8.437  -4.042  16.530  1.00  0.00     0.024 A 
ATOM     40  H13 UNL     1       7.447  -2.466  15.641  1.00  0.00     0.184 HD
HETATM   41  C15 UNL     1       9.743  -3.645  15.941  1.00  0.00     0.068 C 
HETATM   42  C16 UNL     1       8.331  -5.147  17.361  1.00  0.00     0.050 A 
HETATM   43  C17 UNL     1       7.097  -5.438  17.896  1.00  0.00     0.024 A 
HETATM   44  C18 UNL     1       6.878  -6.608  18.797  1.00  0.00     0.068 C 
HETATM   45  N14 UNL     1       6.012  -4.678  17.627  1.00  0.00    -0.196 N 
ATOM     46  H14 UNL     1       5.102  -4.903  18.028  1.00  0.00     0.184 HD
ENDBRANCH  35  37
ENDBRANCH  32  35
ENDBRANCH  30  32
ENDBRANCH  23  24
ENDBRANCH  19  23
ENDBRANCH  10  19
ENDBRANCH   6   7
ENDBRANCH   1   6
BRANCH   1  47
HETATM   47  C5  UNL     1       2.318   4.944   7.913  1.00  0.00     0.113 C 
BRANCH  47  48
HETATM   48  C6  UNL     1       1.387   4.155   7.012  1.00  0.00     0.175 C 
BRANCH  48  49
HETATM   49  O3  UNL     1       2.008   3.643   5.896  1.00  0.00    -0.396 OA
HETATM   50  C7  UNL     1       1.569   4.203   4.709  1.00  0.00     0.201 C 
ENDBRANCH  48  49
ENDBRANCH  47  48
ENDBRANCH   1  47
TORSDOF 12
ENDMDL
MODEL 5
REMARK VINA RESULT: -9.263343764      2.705     10.592
REMARK  12 active torsions:
REMARK  status: ('A' for Active; 'I' for Inactive)
REMARK       I    between atoms: N1_2  and  C2_4 
REMARK       I    between atoms: C2_4  and  N2_6 
REMARK       I    between atoms: C3_8  and  N3_9 
REMARK       I    between atoms: C3_8  and  N6_21 
REMARK    1  A    between atoms: N3_9  and  O2_11 
REMARK    2  A    between atoms: O2_11  and  C4_12 
REMARK    3  A    between atoms: C4_12  and  C5_13 
REMARK    4  A    between atoms: C5_13  and  C6_14 
REMARK    5  A    between atoms: C6_14  and  O3_15 
REMARK    6  A    between atoms: N6_21  and  N7_23 
REMARK    7  A    between atoms: N7_23  and  C9_24 
REMARK    8  A    between atoms: C9_24  and  C10_25 
REMARK       I    between atoms: N9_27  and  C11_29 
REMARK       I    between atoms: C11_29  and  N11_31 
REMARK    9  A    between atoms: N11_31  and  C12_33 
REMARK   10  A    between atoms: C12_33  and  O4_34 
REMARK   11  A    between atoms: C12_33  and  N12_36 
REMARK   12  A    between atoms: N12_36  and  C13_38 
ROOT
HETATM    1  C4  UNL     1       3.408   4.048   8.547  1.00  0.00     0.158 C 
HETATM    2  N4  UNL     1       3.306   3.421   9.663  1.00  0.00    -0.275 N 
ATOM      3  H4  UNL     1       4.062   2.807   9.963  1.00  0.00     0.180 HD
HETATM    4  C8  UNL     1       2.159   3.568  10.486  1.00  0.00     0.183 C 
HETATM    5  N5  UNL     1       1.207   3.680  11.137  1.00  0.00    -0.172 NA
ENDROOT
BRANCH   1   6
HETATM    6  O2  UNL     1       4.594   3.808   7.836  1.00  0.00    -0.209 OA
BRANCH   6   7
HETATM    7  N3  UNL     1       5.400   2.752   8.178  1.00  0.00    -0.088 N 
HETATM    8  C3  UNL     1       6.607   3.038   8.876  1.00  0.00     0.726 C 
HETATM    9  N2  UNL     1       7.389   3.924   8.360  1.00  0.00    -0.138 N 
HETATM   10  N6  UNL     1       6.996   2.412  10.092  1.00  0.00    -0.045 N 
HETATM   11  C2  UNL     1       7.077   4.594   7.150  1.00  0.00     0.334 C 
ATOM     12  H2  UNL     1       8.261   4.151   8.838  1.00  0.00     0.189 HD
HETATM   13  N1  UNL     1       7.280   4.043   5.863  1.00  0.00    -0.347 N 
HETATM   14  O1  UNL     1       6.581   5.763   7.173  1.00  0.00    -0.247 OA
HETATM   15  C1  UNL     1       6.957   4.725   4.632  1.00  0.00     0.151 C 
ATOM     16  H1  UNL     1       7.678   3.105   5.800  1.00  0.00     0.163 HD
ATOM     17  H6  UNL     1       7.625   1.611  10.030  1.00  0.00     0.213 HD
ATOM     18  H3  UNL     1       5.144   1.794   7.939  1.00  0.00     0.214 HD
BRANCH  10  19
HETATM   19  N7  UNL     1       6.584   2.808  11.355  1.00  0.00     0.032 N 
HETATM   20  C19 UNL     1       6.282   4.225  11.478  1.00  0.00     0.268 C 
HETATM   21  C20 UNL     1       7.595   4.513  12.123  1.00  0.00     0.060 C 
HETATM   22  C21 UNL     1       7.632   3.016  12.330  1.00  0.00     0.268 C 
BRANCH  19  23
HETATM   23  C9  UNL     1       5.462   2.026  11.820  1.00  0.00     0.338 C 
BRANCH  23  24
HETATM   24  C10 UNL     1       5.885   0.775  12.548  1.00  0.00     0.123 C 
HETATM   25  N8  UNL     1       6.625  -0.184  11.830  1.00  0.00    -0.086 NA
HETATM   26  N9  UNL     1       5.590   0.591  13.762  1.00  0.00    -0.321 N 
HETATM   27  C11 UNL     1       5.883  -0.485  14.615  1.00  0.00     0.196 C 
ATOM     28  H9  UNL     1       5.054   1.344  14.192  1.00  0.00     0.169 HD
HETATM   29  N10 UNL     1       6.876  -1.431  14.235  1.00  0.00    -0.063 NA
HETATM   30  N11 UNL     1       5.257  -0.569  15.689  1.00  0.00    -0.296 N 
ATOM     31  H11 UNL     1       4.585   0.189  15.812  1.00  0.00     0.172 HD
BRANCH  30  32
HETATM   32  C12 UNL     1       5.264  -1.432  16.728  1.00  0.00     0.238 C 
BRANCH  32  33
HETATM   33  O4  UNL     1       6.458  -1.719  17.205  1.00  0.00    -0.332 OA
ATOM     34  H4  UNL     1       6.817  -1.072  17.801  1.00  0.00     0.221 HD
ENDBRANCH  32  33
BRANCH  32  35
HETATM   35  N12 UNL     1       4.184  -2.068  17.376  1.00  0.00    -0.155 N 
ATOM     36  H12 UNL     1       3.736  -1.573  18.147  1.00  0.00     0.188 HD
BRANCH  35  37
HETATM   37  C13 UNL     1       3.727  -3.223  17.066  1.00  0.00     0.685 A 
HETATM   38  N13 UNL     1       4.420  -4.305  17.511  1.00  0.00    -0.196 N 
HETATM   39  C14 UNL     1       3.961  -5.533  17.210  1.00  0.00     0.024 A 
ATOM     40  H13 UNL     1       5.271  -4.187  18.061  1.00  0.00     0.184 HD
HETATM   41  C15 UNL     1       4.715  -6.703  17.732  1.00  0.00     0.068 C 
HETATM   42  C16 UNL     1       2.806  -5.700  16.461  1.00  0.00     0.050 A 
HETATM   43  C17 UNL     1       2.142  -4.573  16.035  1.00  0.00     0.024 A 
HETATM   44  C18 UNL     1       0.894  -4.645  15.221  1.00  0.00     0.068 C 
HETATM   45  N14 UNL     1       2.592  -3.332  16.331  1.00  0.00    -0.196 N 
ATOM     46  H14 UNL     1       2.093  -2.503  16.011  1.00  0.00     0.184 HD
ENDBRANCH  35  37
ENDBRANCH  32  35
ENDBRANCH  30  32
ENDBRANCH  23  24
ENDBRANCH  19  23
ENDBRANCH  10  19
ENDBRANCH   6   7
ENDBRANCH   1   6
BRANCH   1  47
HETATM   47  C5  UNL     1       2.358   4.972   8.011  1.00  0.00     0.113 C 
BRANCH  47  48
HETATM   48  C6  UNL     1       1.413   4.213   7.100  1.00  0.00     0.175 C 
BRANCH  48  49
HETATM   49  O3  UNL     1       2.055   3.528   6.093  1.00  0.00    -0.396 OA
HETATM   50  C7  UNL     1       2.241   4.276   4.943  1.00  0.00     0.201 C 
ENDBRANCH  48  49
ENDBRANCH  47  48
ENDBRANCH   1  47
TORSDOF 12
ENDMDL
