MODEL 1
REMARK VINA RESULT: -4.158447313      0.000      0.000
REMARK  4 active torsions:
REMARK  status: ('A' for Active; 'I' for Inactive)
REMARK    1  A    between atoms: N1_3  and  C3_5 
REMARK    2  A    between atoms: C3_5  and  C4_6 
REMARK    3  A    between atoms: C4_6  and  N2_7 
REMARK    4  A    between atoms: N2_7  and  C5_9 
ROOT
HETATM    1  C1  UNL     1      21.900  38.399  28.927  1.00  0.00     0.036 C 
HETATM    2  C2  UNL     1      22.706  37.525  28.663  1.00  0.00    -0.006 C 
HETATM    3  N1  UNL     1      23.636  36.500  28.362  1.00  0.00    -0.350 N 
ATOM      4  H1  UNL     1      24.570  36.537  28.771  1.00  0.00     0.169 HD
ENDROOT
BRANCH   3   5
HETATM    5  C3  UNL     1      23.294  35.419  27.501  1.00  0.00     0.148 C 
BRANCH   5   6
HETATM    6  C4  UNL     1      23.595  34.040  28.085  1.00  0.00     0.134 C 
BRANCH   6   7
HETATM    7  N2  UNL     1      23.973  33.131  27.071  1.00  0.00    -0.412 N 
ATOM      8  H2  UNL     1      24.651  33.387  26.353  1.00  0.00     0.153 HD
BRANCH   7   9
HETATM    9  C5  UNL     1      23.387  31.881  27.091  1.00  0.00     0.127 C 
HETATM   10  C6  UNL     1      23.095  31.330  28.505  1.00  0.00     0.258 C 
HETATM   11  N3  UNL     1      23.235  30.006  27.855  1.00  0.00    -0.071 N 
HETATM   12  C7  UNL     1      24.309  30.690  27.052  1.00  0.00     0.258 C 
ATOM     13  H32 UNL     1      23.403  29.149  28.382  1.00  0.00     0.277 HD
ATOM     14  H31 UNL     1      22.450  29.519  27.422  1.00  0.00     0.277 HD
ENDBRANCH   7   9
ENDBRANCH   6   7
ENDBRANCH   5   6
ENDBRANCH   3   5
TORSDOF 4
ENDMDL
MODEL 2
REMARK VINA RESULT: -4.149838876      2.471      3.031
REMARK  4 active torsions:
REMARK  status: ('A' for Active; 'I' for Inactive)
REMARK    1  A    between atoms: N1_3  and  C3_5 
REMARK    2  A    between atoms: C3_5  and  C4_6 
REMARK    3  A    between atoms: C4_6  and  N2_7 
REMARK    4  A    between atoms: N2_7  and  C5_9 
ROOT
HETATM    1  C1  UNL     1      23.103  33.900  28.344  1.00  0.00     0.036 C 
HETATM    2  C2  UNL     1      23.927  34.030  27.457  1.00  0.00    -0.006 C 
HETATM    3  N1  UNL     1      24.884  34.168  26.422  1.00  0.00    -0.350 N 
ATOM      4  H1  UNL     1      25.861  34.334  26.664  1.00  0.00     0.169 HD
ENDROOT
BRANCH   3   5
HETATM    5  C3  UNL     1      24.509  34.080  25.051  1.00  0.00     0.148 C 
BRANCH   5   6
HETATM    6  C4  UNL     1      24.052  32.687  24.621  1.00  0.00     0.134 C 
BRANCH   6   7
HETATM    7  N2  UNL     1      25.026  31.713  24.937  1.00  0.00    -0.412 N 
ATOM      8  H2  UNL     1      26.011  31.854  24.710  1.00  0.00     0.153 HD
BRANCH   7   9
HETATM    9  C5  UNL     1      24.592  30.563  25.563  1.00  0.00     0.127 C 
HETATM   10  C6  UNL     1      23.163  30.649  26.147  1.00  0.00     0.258 C 
HETATM   11  N3  UNL     1      23.653  29.629  27.104  1.00  0.00    -0.071 N 
HETATM   12  C7  UNL     1      24.943  30.400  27.020  1.00  0.00     0.258 C 
ATOM     13  H32 UNL     1      23.185  29.434  27.988  1.00  0.00     0.277 HD
ATOM     14  H31 UNL     1      23.598  28.628  26.918  1.00  0.00     0.277 HD
ENDBRANCH   7   9
ENDBRANCH   6   7
ENDBRANCH   5   6
ENDBRANCH   3   5
TORSDOF 4
ENDMDL
MODEL 3
REMARK VINA RESULT: -4.111354226      2.872      5.785
REMARK  4 active torsions:
REMARK  status: ('A' for Active; 'I' for Inactive)
REMARK    1  A    between atoms: N1_3  and  C3_5 
REMARK    2  A    between atoms: C3_5  and  C4_6 
REMARK    3  A    between atoms: C4_6  and  N2_7 
REMARK    4  A    between atoms: N2_7  and  C5_9 
ROOT
HETATM    1  C1  UNL     1      23.604  33.951  27.921  1.00  0.00     0.036 C 
HETATM    2  C2  UNL     1      23.563  35.129  28.230  1.00  0.00    -0.006 C 
HETATM    3  N1  UNL     1      23.520  36.501  28.576  1.00  0.00    -0.350 N 
ATOM      4  H1  UNL     1      24.217  36.877  29.218  1.00  0.00     0.169 HD
ENDROOT
BRANCH   3   5
HETATM    5  C3  UNL     1      22.522  37.367  28.045  1.00  0.00     0.148 C 
BRANCH   5   6
HETATM    6  C4  UNL     1      21.648  38.032  29.107  1.00  0.00     0.134 C 
BRANCH   6   7
HETATM    7  N2  UNL     1      21.388  37.146  30.178  1.00  0.00    -0.412 N 
ATOM      8  H2  UNL     1      22.066  37.007  30.928  1.00  0.00     0.153 HD
BRANCH   7   9
HETATM    9  C5  UNL     1      20.181  36.476  30.167  1.00  0.00     0.127 C 
HETATM   10  C6  UNL     1      19.051  37.198  29.399  1.00  0.00     0.258 C 
HETATM   11  N3  UNL     1      18.157  36.467  30.327  1.00  0.00    -0.071 N 
HETATM   12  C7  UNL     1      19.252  36.719  31.328  1.00  0.00     0.258 C 
ATOM     13  H32 UNL     1      17.188  36.743  30.489  1.00  0.00     0.277 HD
ATOM     14  H31 UNL     1      17.799  35.534  30.126  1.00  0.00     0.277 HD
ENDBRANCH   7   9
ENDBRANCH   6   7
ENDBRANCH   5   6
ENDBRANCH   3   5
TORSDOF 4
ENDMDL
MODEL 4
REMARK VINA RESULT: -4.109939472      0.732      1.087
REMARK  4 active torsions:
REMARK  status: ('A' for Active; 'I' for Inactive)
REMARK    1  A    between atoms: N1_3  and  C3_5 
REMARK    2  A    between atoms: C3_5  and  C4_6 
REMARK    3  A    between atoms: C4_6  and  N2_7 
REMARK    4  A    between atoms: N2_7  and  C5_9 
ROOT
HETATM    1  C1  UNL     1      21.568  38.186  28.385  1.00  0.00     0.036 C 
HETATM    2  C2  UNL     1      22.490  37.391  28.425  1.00  0.00    -0.006 C 
HETATM    3  N1  UNL     1      23.553  36.457  28.477  1.00  0.00    -0.350 N 
ATOM      4  H1  UNL     1      24.338  36.627  29.105  1.00  0.00     0.169 HD
ENDROOT
BRANCH   3   5
HETATM    5  C3  UNL     1      23.548  35.284  27.669  1.00  0.00     0.148 C 
BRANCH   5   6
HETATM    6  C4  UNL     1      23.076  34.029  28.400  1.00  0.00     0.134 C 
BRANCH   6   7
HETATM    7  N2  UNL     1      22.754  33.000  27.486  1.00  0.00    -0.412 N 
ATOM      8  H2  UNL     1      22.034  33.127  26.774  1.00  0.00     0.153 HD
BRANCH   7   9
HETATM    9  C5  UNL     1      23.455  31.815  27.593  1.00  0.00     0.127 C 
HETATM   10  C6  UNL     1      23.176  30.798  26.463  1.00  0.00     0.258 C 
HETATM   11  N3  UNL     1      23.540  29.789  27.486  1.00  0.00    -0.071 N 
HETATM   12  C7  UNL     1      22.838  30.726  28.432  1.00  0.00     0.258 C 
ATOM     13  H32 UNL     1      23.290  28.804  27.400  1.00  0.00     0.277 HD
ATOM     14  H31 UNL     1      24.499  29.475  27.633  1.00  0.00     0.277 HD
ENDBRANCH   7   9
ENDBRANCH   6   7
ENDBRANCH   5   6
ENDBRANCH   3   5
TORSDOF 4
ENDMDL
MODEL 5
REMARK VINA RESULT: -4.109176888      3.518      7.255
REMARK  4 active torsions:
REMARK  status: ('A' for Active; 'I' for Inactive)
REMARK    1  A    between atoms: N1_3  and  C3_5 
REMARK    2  A    between atoms: C3_5  and  C4_6 
REMARK    3  A    between atoms: C4_6  and  N2_7 
REMARK    4  A    between atoms: N2_7  and  C5_9 
ROOT
HETATM    1  C1  UNL     1      22.302  25.470  23.795  1.00  0.00     0.036 C 
HETATM    2  C2  UNL     1      22.434  26.623  24.162  1.00  0.00    -0.006 C 
HETATM    3  N1  UNL     1      22.600  27.961  24.597  1.00  0.00    -0.350 N 
ATOM      4  H1  UNL     1      21.936  28.357  25.262  1.00  0.00     0.169 HD
ENDROOT
BRANCH   3   5
HETATM    5  C3  UNL     1      23.676  28.765  24.123  1.00  0.00     0.148 C 
BRANCH   5   6
HETATM    6  C4  UNL     1      24.109  29.860  25.096  1.00  0.00     0.134 C 
BRANCH   6   7
HETATM    7  N2  UNL     1      23.549  29.650  26.377  1.00  0.00    -0.412 N 
ATOM      8  H2  UNL     1      22.980  28.828  26.580  1.00  0.00     0.153 HD
BRANCH   7   9
HETATM    9  C5  UNL     1      23.803  30.603  27.343  1.00  0.00     0.127 C 
HETATM   10  C6  UNL     1      22.735  30.690  28.457  1.00  0.00     0.258 C 
HETATM   11  N3  UNL     1      23.178  32.100  28.565  1.00  0.00    -0.071 N 
HETATM   12  C7  UNL     1      23.320  32.004  27.070  1.00  0.00     0.258 C 
ATOM     13  H32 UNL     1      22.617  32.820  29.020  1.00  0.00     0.277 HD
ATOM     14  H31 UNL     1      23.943  32.392  29.173  1.00  0.00     0.277 HD
ENDBRANCH   7   9
ENDBRANCH   6   7
ENDBRANCH   5   6
ENDBRANCH   3   5
TORSDOF 4
ENDMDL
