MODEL 1
REMARK VINA RESULT: -4.217162985      0.000      0.000
REMARK  4 active torsions:
REMARK  status: ('A' for Active; 'I' for Inactive)
REMARK    1  A    between atoms: C2_2  and  C3_3 
REMARK    2  A    between atoms: C3_3  and  N1_4 
REMARK    3  A    between atoms: N1_4  and  C4_7 
REMARK    4  A    between atoms: C4_7  and  C5_8 
ROOT
HETATM    1  C5  UNL     1      24.307  30.536  26.671  1.00  0.00     0.238 C 
HETATM    2  C6  UNL     1      24.003  31.990  26.754  1.00  0.00     0.269 C 
HETATM    3  N2  UNL     1      23.103  32.208  27.850  1.00  0.00    -0.049 N 
ATOM      4  H21 UNL     1      22.194  32.573  27.565  1.00  0.00     0.279 HD
ATOM      5  H22 UNL     1      23.368  32.993  28.445  1.00  0.00     0.279 HD
HETATM    6  C7  UNL     1      23.027  30.948  28.553  1.00  0.00     0.463 C 
HETATM    7  N3  UNL     1      23.352  29.927  27.575  1.00  0.00    -0.044 N 
ATOM      8  H31 UNL     1      23.681  29.054  27.990  1.00  0.00     0.279 HD
ATOM      9  H32 UNL     1      22.535  29.537  27.104  1.00  0.00     0.279 HD
ENDROOT
BRANCH   1  10
HETATM   10  C4  UNL     1      24.196  29.996  25.269  1.00  0.00     0.267 C 
BRANCH  10  11
HETATM   11  N1  UNL     1      23.245  28.924  25.219  1.00  0.00    -0.070 N 
ATOM     12  H12 UNL     1      22.398  29.177  25.728  1.00  0.00     0.277 HD
ATOM     13  H11 UNL     1      23.563  28.140  25.789  1.00  0.00     0.277 HD
BRANCH  11  14
HETATM   14  C3  UNL     1      22.920  28.482  23.901  1.00  0.00     0.259 C 
BRANCH  14  15
HETATM   15  C2  UNL     1      23.109  27.015  23.715  1.00  0.00    -0.010 C 
HETATM   16  C1  UNL     1      22.160  26.211  24.221  1.00  0.00     0.008 C 
ENDBRANCH  14  15
ENDBRANCH  11  14
ENDBRANCH  10  11
ENDBRANCH   1  10
TORSDOF 4
ENDMDL
MODEL 2
REMARK VINA RESULT: -4.128146120      1.564      2.025
REMARK  4 active torsions:
REMARK  status: ('A' for Active; 'I' for Inactive)
REMARK    1  A    between atoms: C2_2  and  C3_3 
REMARK    2  A    between atoms: C3_3  and  N1_4 
REMARK    3  A    between atoms: N1_4  and  C4_7 
REMARK    4  A    between atoms: C4_7  and  C5_8 
ROOT
HETATM    1  C5  UNL     1      23.801  29.523  24.987  1.00  0.00     0.238 C 
HETATM    2  C6  UNL     1      25.048  30.310  24.789  1.00  0.00     0.269 C 
HETATM    3  N2  UNL     1      25.469  30.829  26.058  1.00  0.00    -0.049 N 
ATOM      4  H21 UNL     1      25.461  31.847  26.106  1.00  0.00     0.279 HD
ATOM      5  H22 UNL     1      26.465  30.706  26.240  1.00  0.00     0.279 HD
HETATM    6  C7  UNL     1      24.620  30.197  27.042  1.00  0.00     0.463 C 
HETATM    7  N3  UNL     1      23.400  29.839  26.343  1.00  0.00    -0.044 N 
ATOM      8  H31 UNL     1      22.873  29.092  26.798  1.00  0.00     0.279 HD
ATOM      9  H32 UNL     1      22.672  30.552  26.399  1.00  0.00     0.279 HD
ENDROOT
BRANCH   1  10
HETATM   10  C4  UNL     1      22.733  29.860  23.979  1.00  0.00     0.267 C 
BRANCH  10  11
HETATM   11  N1  UNL     1      21.749  28.818  23.926  1.00  0.00    -0.070 N 
ATOM     12  H12 UNL     1      20.811  29.210  24.008  1.00  0.00     0.277 HD
ATOM     13  H11 UNL     1      21.779  28.257  24.777  1.00  0.00     0.277 HD
BRANCH  11  14
HETATM   14  C3  UNL     1      21.839  27.979  22.774  1.00  0.00     0.259 C 
BRANCH  14  15
HETATM   15  C2  UNL     1      22.422  26.640  23.072  1.00  0.00    -0.010 C 
HETATM   16  C1  UNL     1      22.126  26.099  24.265  1.00  0.00     0.008 C 
ENDBRANCH  14  15
ENDBRANCH  11  14
ENDBRANCH  10  11
ENDBRANCH   1  10
TORSDOF 4
ENDMDL
MODEL 3
REMARK VINA RESULT: -4.111236345      6.893      9.976
REMARK  4 active torsions:
REMARK  status: ('A' for Active; 'I' for Inactive)
REMARK    1  A    between atoms: C2_2  and  C3_3 
REMARK    2  A    between atoms: C3_3  and  N1_4 
REMARK    3  A    between atoms: N1_4  and  C4_7 
REMARK    4  A    between atoms: C4_7  and  C5_8 
ROOT
HETATM    1  C5  UNL     1      21.380  36.405  29.217  1.00  0.00     0.238 C 
HETATM    2  C6  UNL     1      22.301  37.433  28.661  1.00  0.00     0.269 C 
HETATM    3  N2  UNL     1      23.553  36.806  28.352  1.00  0.00    -0.049 N 
ATOM      4  H21 UNL     1      24.335  37.164  28.901  1.00  0.00     0.279 HD
ATOM      5  H22 UNL     1      23.922  37.059  27.436  1.00  0.00     0.279 HD
HETATM    6  C7  UNL     1      23.334  35.387  28.516  1.00  0.00     0.463 C 
HETATM    7  N3  UNL     1      22.235  35.261  29.456  1.00  0.00    -0.044 N 
ATOM      8  H31 UNL     1      21.747  34.366  29.396  1.00  0.00     0.279 HD
ATOM      9  H32 UNL     1      22.536  35.170  30.427  1.00  0.00     0.279 HD
ENDROOT
BRANCH   1  10
HETATM   10  C4  UNL     1      20.678  36.869  30.468  1.00  0.00     0.267 C 
BRANCH  10  11
HETATM   11  N1  UNL     1      21.311  38.046  30.989  1.00  0.00    -0.070 N 
ATOM     12  H12 UNL     1      21.947  38.443  30.298  1.00  0.00     0.277 HD
ATOM     13  H11 UNL     1      21.979  37.798  31.719  1.00  0.00     0.277 HD
BRANCH  11  14
HETATM   14  C3  UNL     1      20.405  39.043  31.462  1.00  0.00     0.259 C 
BRANCH  14  15
HETATM   15  C2  UNL     1      19.643  39.706  30.366  1.00  0.00    -0.010 C 
HETATM   16  C1  UNL     1      20.338  40.497  29.533  1.00  0.00     0.008 C 
ENDBRANCH  14  15
ENDBRANCH  11  14
ENDBRANCH  10  11
ENDBRANCH   1  10
TORSDOF 4
ENDMDL
MODEL 4
REMARK VINA RESULT: -4.082486486      6.357      9.100
REMARK  4 active torsions:
REMARK  status: ('A' for Active; 'I' for Inactive)
REMARK    1  A    between atoms: C2_2  and  C3_3 
REMARK    2  A    between atoms: C3_3  and  N1_4 
REMARK    3  A    between atoms: N1_4  and  C4_7 
REMARK    4  A    between atoms: C4_7  and  C5_8 
ROOT
HETATM    1  C5  UNL     1      21.332  35.827  28.215  1.00  0.00     0.238 C 
HETATM    2  C6  UNL     1      22.422  36.838  28.143  1.00  0.00     0.269 C 
HETATM    3  N2  UNL     1      23.663  36.198  28.472  1.00  0.00    -0.049 N 
ATOM      4  H21 UNL     1      24.099  36.563  29.318  1.00  0.00     0.279 HD
ATOM      5  H22 UNL     1      24.424  36.430  27.833  1.00  0.00     0.279 HD
HETATM    6  C7  UNL     1      23.371  34.784  28.535  1.00  0.00     0.463 C 
HETATM    7  N3  UNL     1      21.958  34.683  28.847  1.00  0.00    -0.044 N 
ATOM      8  H31 UNL     1      21.543  33.790  28.578  1.00  0.00     0.279 HD
ATOM      9  H32 UNL     1      21.764  34.611  29.846  1.00  0.00     0.279 HD
ENDROOT
BRANCH   1  10
HETATM   10  C4  UNL     1      20.131  36.320  28.980  1.00  0.00     0.267 C 
BRANCH  10  11
HETATM   11  N1  UNL     1      20.190  35.879  30.343  1.00  0.00    -0.070 N 
ATOM     12  H12 UNL     1      21.108  35.485  30.550  1.00  0.00     0.277 HD
ATOM     13  H11 UNL     1      19.612  35.048  30.474  1.00  0.00     0.277 HD
BRANCH  11  14
HETATM   14  C3  UNL     1      19.849  36.878  31.304  1.00  0.00     0.259 C 
BRANCH  14  15
HETATM   15  C2  UNL     1      20.608  38.148  31.119  1.00  0.00    -0.010 C 
HETATM   16  C1  UNL     1      20.034  39.272  31.577  1.00  0.00     0.008 C 
ENDBRANCH  14  15
ENDBRANCH  11  14
ENDBRANCH  10  11
ENDBRANCH   1  10
TORSDOF 4
ENDMDL
MODEL 5
REMARK VINA RESULT: -4.064207311      2.959      4.560
REMARK  4 active torsions:
REMARK  status: ('A' for Active; 'I' for Inactive)
REMARK    1  A    between atoms: C2_2  and  C3_3 
REMARK    2  A    between atoms: C3_3  and  N1_4 
REMARK    3  A    between atoms: N1_4  and  C4_7 
REMARK    4  A    between atoms: C4_7  and  C5_8 
ROOT
HETATM    1  C5  UNL     1      24.610  32.080  23.893  1.00  0.00     0.238 C 
HETATM    2  C6  UNL     1      24.330  33.252  24.765  1.00  0.00     0.269 C 
HETATM    3  N2  UNL     1      25.194  34.329  24.377  1.00  0.00    -0.049 N 
ATOM      4  H21 UNL     1      25.849  34.611  25.106  1.00  0.00     0.279 HD
ATOM      5  H22 UNL     1      24.715  35.226  24.290  1.00  0.00     0.279 HD
HETATM    6  C7  UNL     1      25.837  33.897  23.157  1.00  0.00     0.463 C 
HETATM    7  N3  UNL     1      25.826  32.447  23.194  1.00  0.00    -0.044 N 
ATOM      8  H31 UNL     1      25.914  32.014  22.274  1.00  0.00     0.279 HD
ATOM      9  H32 UNL     1      26.669  32.041  23.601  1.00  0.00     0.279 HD
ENDROOT
BRANCH   1  10
HETATM   10  C4  UNL     1      24.759  30.798  24.670  1.00  0.00     0.267 C 
BRANCH  10  11
HETATM   11  N1  UNL     1      25.383  31.050  25.936  1.00  0.00    -0.070 N 
ATOM     12  H12 UNL     1      25.373  32.049  26.145  1.00  0.00     0.277 HD
ATOM     13  H11 UNL     1      26.390  30.896  25.874  1.00  0.00     0.277 HD
BRANCH  11  14
HETATM   14  C3  UNL     1      24.833  30.308  27.025  1.00  0.00     0.259 C 
BRANCH  14  15
HETATM   15  C2  UNL     1      23.384  30.580  27.242  1.00  0.00    -0.010 C 
HETATM   16  C1  UNL     1      23.003  30.895  28.491  1.00  0.00     0.008 C 
ENDBRANCH  14  15
ENDBRANCH  11  14
ENDBRANCH  10  11
ENDBRANCH   1  10
TORSDOF 4
ENDMDL
