MODEL 1
REMARK VINA RESULT: -4.465658465      0.000      0.000
REMARK  4 active torsions:
REMARK  status: ('A' for Active; 'I' for Inactive)
REMARK    1  A    between atoms: N1_2  and  C2_5 
REMARK    2  A    between atoms: C2_5  and  C3_6 
REMARK    3  A    between atoms: C3_6  and  N2_7 
REMARK    4  A    between atoms: N2_7  and  C4_9 
ROOT
HETATM    1  C4  UNL     1      20.546  37.618  30.930  1.00  0.00     0.693 A 
HETATM    2  N3  UNL     1      19.278  38.074  30.674  1.00  0.00    -0.185 N 
ATOM      3  H3  UNL     1      19.028  39.022  30.392  1.00  0.00     0.185 HD
HETATM    4  C5  UNL     1      18.428  37.062  30.857  1.00  0.00     0.215 A 
HETATM    5  N4  UNL     1      19.141  35.978  31.222  1.00  0.00    -0.281 N 
ATOM      6  H4  UNL     1      18.772  35.050  31.432  1.00  0.00     0.188 HD
HETATM    7  N5  UNL     1      20.389  36.341  31.257  1.00  0.00    -0.131 N 
ATOM      8  H5  UNL     1      21.157  35.718  31.506  1.00  0.00     0.205 HD
ENDROOT
BRANCH   1   9
HETATM    9  N2  UNL     1      21.535  38.390  30.820  1.00  0.00    -0.223 N 
ATOM     10  H2  UNL     1      22.009  38.602  31.698  1.00  0.00     0.177 HD
BRANCH   9  11
HETATM   11  C3  UNL     1      22.097  39.012  29.681  1.00  0.00     0.165 C 
BRANCH  11  12
HETATM   12  C2  UNL     1      22.181  37.977  28.580  1.00  0.00     0.252 C 
BRANCH  12  13
HETATM   13  N1  UNL     1      23.397  37.270  28.610  1.00  0.00    -0.077 N 
HETATM   14  C1  UNL     1      23.246  35.881  28.296  1.00  0.00     0.267 C 
ATOM     15  H12 UNL     1      23.867  37.391  29.508  1.00  0.00     0.276 HD
ATOM     16  H11 UNL     1      24.089  37.707  28.000  1.00  0.00     0.276 HD
ENDBRANCH  12  13
ENDBRANCH  11  12
ENDBRANCH   9  11
ENDBRANCH   1   9
TORSDOF 4
ENDMDL
MODEL 2
REMARK VINA RESULT: -4.363006572      4.448      6.834
REMARK  4 active torsions:
REMARK  status: ('A' for Active; 'I' for Inactive)
REMARK    1  A    between atoms: N1_2  and  C2_5 
REMARK    2  A    between atoms: C2_5  and  C3_6 
REMARK    3  A    between atoms: C3_6  and  N2_7 
REMARK    4  A    between atoms: N2_7  and  C4_9 
ROOT
HETATM    1  C4  UNL     1      24.225  34.043  26.837  1.00  0.00     0.693 A 
HETATM    2  N3  UNL     1      23.663  34.118  28.085  1.00  0.00    -0.185 N 
ATOM      3  H3  UNL     1      23.535  33.340  28.732  1.00  0.00     0.185 HD
HETATM    4  C5  UNL     1      23.312  35.386  28.307  1.00  0.00     0.215 A 
HETATM    5  N4  UNL     1      23.645  36.109  27.219  1.00  0.00    -0.281 N 
ATOM      6  H4  UNL     1      23.504  37.111  27.088  1.00  0.00     0.188 HD
HETATM    7  N5  UNL     1      24.182  35.284  26.369  1.00  0.00    -0.131 N 
ATOM      8  H5  UNL     1      24.529  35.559  25.449  1.00  0.00     0.205 HD
ENDROOT
BRANCH   1   9
HETATM    9  N2  UNL     1      24.646  32.942  26.393  1.00  0.00    -0.223 N 
ATOM     10  H2  UNL     1      25.658  32.891  26.270  1.00  0.00     0.177 HD
BRANCH   9  11
HETATM   11  C3  UNL     1      23.949  31.764  26.036  1.00  0.00     0.165 C 
BRANCH  11  12
HETATM   12  C2  UNL     1      24.513  30.624  26.857  1.00  0.00     0.252 C 
BRANCH  12  13
HETATM   13  N1  UNL     1      23.504  29.899  27.519  1.00  0.00    -0.077 N 
HETATM   14  C1  UNL     1      22.802  30.679  28.494  1.00  0.00     0.267 C 
ATOM     15  H12 UNL     1      23.881  29.048  27.936  1.00  0.00     0.276 HD
ATOM     16  H11 UNL     1      22.855  29.484  26.849  1.00  0.00     0.276 HD
ENDBRANCH  12  13
ENDBRANCH  11  12
ENDBRANCH   9  11
ENDBRANCH   1   9
TORSDOF 4
ENDMDL
MODEL 3
REMARK VINA RESULT: -4.304567324      3.774      5.753
REMARK  4 active torsions:
REMARK  status: ('A' for Active; 'I' for Inactive)
REMARK    1  A    between atoms: N1_2  and  C2_5 
REMARK    2  A    between atoms: C2_5  and  C3_6 
REMARK    3  A    between atoms: C3_6  and  N2_7 
REMARK    4  A    between atoms: N2_7  and  C4_9 
ROOT
HETATM    1  C4  UNL     1      23.311  34.931  28.152  1.00  0.00     0.693 A 
HETATM    2  N3  UNL     1      22.293  35.386  27.354  1.00  0.00    -0.185 N 
ATOM      3  H3  UNL     1      21.664  34.807  26.798  1.00  0.00     0.185 HD
HETATM    4  C5  UNL     1      22.268  36.718  27.433  1.00  0.00     0.215 A 
HETATM    5  N4  UNL     1      23.253  37.106  28.267  1.00  0.00    -0.281 N 
ATOM      6  H4  UNL     1      23.486  38.064  28.529  1.00  0.00     0.188 HD
HETATM    7  N5  UNL     1      23.851  36.025  28.673  1.00  0.00    -0.131 N 
ATOM      8  H5  UNL     1      24.642  36.019  29.318  1.00  0.00     0.205 HD
ENDROOT
BRANCH   1   9
HETATM    9  N2  UNL     1      23.538  33.695  28.253  1.00  0.00    -0.223 N 
ATOM     10  H2  UNL     1      24.328  33.455  28.852  1.00  0.00     0.177 HD
BRANCH   9  11
HETATM   11  C3  UNL     1      22.879  32.587  27.673  1.00  0.00     0.165 C 
BRANCH  11  12
HETATM   12  C2  UNL     1      23.026  31.413  28.617  1.00  0.00     0.252 C 
BRANCH  12  13
HETATM   13  N1  UNL     1      23.117  30.189  27.928  1.00  0.00    -0.077 N 
HETATM   14  C1  UNL     1      24.249  30.121  27.054  1.00  0.00     0.267 C 
ATOM     15  H12 UNL     1      22.253  29.991  27.422  1.00  0.00     0.276 HD
ATOM     16  H11 UNL     1      23.112  29.403  28.579  1.00  0.00     0.276 HD
ENDBRANCH  12  13
ENDBRANCH  11  12
ENDBRANCH   9  11
ENDBRANCH   1   9
TORSDOF 4
ENDMDL
MODEL 4
REMARK VINA RESULT: -4.293996753      4.730      6.639
REMARK  4 active torsions:
REMARK  status: ('A' for Active; 'I' for Inactive)
REMARK    1  A    between atoms: N1_2  and  C2_5 
REMARK    2  A    between atoms: C2_5  and  C3_6 
REMARK    3  A    between atoms: C3_6  and  N2_7 
REMARK    4  A    between atoms: N2_7  and  C4_9 
ROOT
HETATM    1  C4  UNL     1      23.411  31.694  27.864  1.00  0.00     0.693 A 
HETATM    2  N3  UNL     1      23.965  31.527  26.621  1.00  0.00    -0.185 N 
ATOM      3  H3  UNL     1      24.239  32.273  25.983  1.00  0.00     0.185 HD
HETATM    4  C5  UNL     1      24.085  30.218  26.393  1.00  0.00     0.215 A 
HETATM    5  N4  UNL     1      23.616  29.560  27.473  1.00  0.00    -0.281 N 
ATOM      6  H4  UNL     1      23.576  28.549  27.599  1.00  0.00     0.188 HD
HETATM    7  N5  UNL     1      23.225  30.463  28.323  1.00  0.00    -0.131 N 
ATOM      8  H5  UNL     1      22.822  30.250  29.236  1.00  0.00     0.205 HD
ENDROOT
BRANCH   1   9
HETATM    9  N2  UNL     1      23.199  32.851  28.317  1.00  0.00    -0.223 N 
ATOM     10  H2  UNL     1      22.646  32.878  29.174  1.00  0.00     0.177 HD
BRANCH   9  11
HETATM   11  C3  UNL     1      23.600  34.117  27.834  1.00  0.00     0.165 C 
BRANCH  11  12
HETATM   12  C2  UNL     1      22.955  35.173  28.706  1.00  0.00     0.252 C 
BRANCH  12  13
HETATM   13  N1  UNL     1      23.605  36.417  28.599  1.00  0.00    -0.077 N 
HETATM   14  C1  UNL     1      22.702  37.502  28.356  1.00  0.00     0.267 C 
ATOM     15  H12 UNL     1      24.336  36.386  27.887  1.00  0.00     0.276 HD
ATOM     16  H11 UNL     1      24.181  36.600  29.421  1.00  0.00     0.276 HD
ENDBRANCH  12  13
ENDBRANCH  11  12
ENDBRANCH   9  11
ENDBRANCH   1   9
TORSDOF 4
ENDMDL
MODEL 5
REMARK VINA RESULT: -4.293751482      2.608      4.596
REMARK  4 active torsions:
REMARK  status: ('A' for Active; 'I' for Inactive)
REMARK    1  A    between atoms: N1_2  and  C2_5 
REMARK    2  A    between atoms: C2_5  and  C3_6 
REMARK    3  A    between atoms: C3_6  and  N2_7 
REMARK    4  A    between atoms: N2_7  and  C4_9 
ROOT
HETATM    1  C4  UNL     1      23.291  35.756  28.381  1.00  0.00     0.693 A 
HETATM    2  N3  UNL     1      23.255  37.036  27.888  1.00  0.00    -0.185 N 
ATOM      3  H3  UNL     1      23.834  37.403  27.133  1.00  0.00     0.185 HD
HETATM    4  C5  UNL     1      22.332  37.717  28.569  1.00  0.00     0.215 A 
HETATM    5  N4  UNL     1      21.786  36.886  29.480  1.00  0.00    -0.281 N 
ATOM      6  H4  UNL     1      21.051  37.116  30.149  1.00  0.00     0.188 HD
HETATM    7  N5  UNL     1      22.377  35.736  29.343  1.00  0.00    -0.131 N 
ATOM      8  H5  UNL     1      22.162  34.914  29.908  1.00  0.00     0.205 HD
ENDROOT
BRANCH   1   9
HETATM    9  N2  UNL     1      24.086  34.909  27.895  1.00  0.00    -0.223 N 
ATOM     10  H2  UNL     1      25.072  35.164  27.959  1.00  0.00     0.177 HD
BRANCH   9  11
HETATM   11  C3  UNL     1      23.839  33.662  27.275  1.00  0.00     0.165 C 
BRANCH  11  12
HETATM   12  C2  UNL     1      24.186  33.795  25.808  1.00  0.00     0.252 C 
BRANCH  12  13
HETATM   13  N1  UNL     1      25.227  34.718  25.592  1.00  0.00    -0.077 N 
HETATM   14  C1  UNL     1      24.916  35.688  24.586  1.00  0.00     0.267 C 
ATOM     15  H12 UNL     1      26.101  34.237  25.377  1.00  0.00     0.276 HD
ATOM     16  H11 UNL     1      25.498  35.172  26.465  1.00  0.00     0.276 HD
ENDBRANCH  12  13
ENDBRANCH  11  12
ENDBRANCH   9  11
ENDBRANCH   1   9
TORSDOF 4
ENDMDL
