MODEL 1
REMARK VINA RESULT: -4.147551684      0.000      0.000
REMARK  4 active torsions:
REMARK  status: ('A' for Active; 'I' for Inactive)
REMARK    1  A    between atoms: C2_2  and  C3_3 
REMARK    2  A    between atoms: C3_3  and  N1_4 
REMARK    3  A    between atoms: N1_4  and  C4_7 
REMARK    4  A    between atoms: C4_7  and  C5_8 
ROOT
HETATM    1  C5  UNL     1      24.665  30.244  26.230  1.00  0.00     0.408 C 
HETATM    2  N2  UNL     1      24.745  31.703  26.378  1.00  0.00    -0.043 N 
ATOM      3  H21 UNL     1      24.970  32.212  25.524  1.00  0.00     0.279 HD
ATOM      4  H22 UNL     1      25.549  32.041  26.906  1.00  0.00     0.279 HD
HETATM    5  C6  UNL     1      23.457  32.013  26.957  1.00  0.00     0.262 C 
HETATM    6  C7  UNL     1      23.252  30.931  27.957  1.00  0.00     0.262 C 
HETATM    7  N3  UNL     1      23.955  29.796  27.416  1.00  0.00    -0.043 N 
ATOM      8  H31 UNL     1      24.566  29.346  28.098  1.00  0.00     0.279 HD
ATOM      9  H32 UNL     1      23.343  29.000  27.236  1.00  0.00     0.279 HD
ENDROOT
BRANCH   1  10
HETATM   10  C4  UNL     1      23.913  29.960  24.970  1.00  0.00     0.294 C 
BRANCH  10  11
HETATM   11  N1  UNL     1      23.120  28.763  25.033  1.00  0.00    -0.068 N 
ATOM     12  H12 UNL     1      22.138  28.986  25.197  1.00  0.00     0.277 HD
ATOM     13  H11 UNL     1      23.318  28.240  25.886  1.00  0.00     0.277 HD
BRANCH  11  14
HETATM   14  C3  UNL     1      23.272  27.918  23.860  1.00  0.00     0.259 C 
BRANCH  14  15
HETATM   15  C2  UNL     1      22.101  26.972  23.760  1.00  0.00    -0.010 C 
HETATM   16  C1  UNL     1      22.322  25.689  23.937  1.00  0.00     0.008 C 
ENDBRANCH  14  15
ENDBRANCH  11  14
ENDBRANCH  10  11
ENDBRANCH   1  10
TORSDOF 4
ENDMDL
MODEL 2
REMARK VINA RESULT: -4.065530645      7.014      9.268
REMARK  4 active torsions:
REMARK  status: ('A' for Active; 'I' for Inactive)
REMARK    1  A    between atoms: C2_2  and  C3_3 
REMARK    2  A    between atoms: C3_3  and  N1_4 
REMARK    3  A    between atoms: N1_4  and  C4_7 
REMARK    4  A    between atoms: C4_7  and  C5_8 
ROOT
HETATM    1  C5  UNL     1      22.272  39.060  29.682  1.00  0.00     0.408 C 
HETATM    2  N2  UNL     1      21.385  40.151  29.258  1.00  0.00    -0.043 N 
ATOM      3  H21 UNL     1      21.421  40.377  28.264  1.00  0.00     0.279 HD
ATOM      4  H22 UNL     1      21.658  41.081  29.576  1.00  0.00     0.279 HD
HETATM    5  C6  UNL     1      20.100  39.692  29.737  1.00  0.00     0.262 C 
HETATM    6  C7  UNL     1      20.406  39.137  31.084  1.00  0.00     0.262 C 
HETATM    7  N3  UNL     1      21.762  38.661  30.982  1.00  0.00    -0.043 N 
ATOM      8  H31 UNL     1      22.352  38.975  31.753  1.00  0.00     0.279 HD
ATOM      9  H32 UNL     1      21.844  37.658  31.150  1.00  0.00     0.279 HD
ENDROOT
BRANCH   1  10
HETATM   10  C4  UNL     1      22.165  37.972  28.664  1.00  0.00     0.294 C 
BRANCH  10  11
HETATM   11  N1  UNL     1      23.355  37.174  28.551  1.00  0.00    -0.068 N 
ATOM     12  H12 UNL     1      23.739  36.961  29.472  1.00  0.00     0.277 HD
ATOM     13  H11 UNL     1      24.126  37.722  28.171  1.00  0.00     0.277 HD
BRANCH  11  14
HETATM   14  C3  UNL     1      23.154  35.958  27.780  1.00  0.00     0.259 C 
BRANCH  14  15
HETATM   15  C2  UNL     1      22.799  34.821  28.706  1.00  0.00    -0.010 C 
HETATM   16  C1  UNL     1      23.122  33.600  28.341  1.00  0.00     0.008 C 
ENDBRANCH  14  15
ENDBRANCH  11  14
ENDBRANCH  10  11
ENDBRANCH   1  10
TORSDOF 4
ENDMDL
MODEL 3
REMARK VINA RESULT: -4.055126404      5.796      8.537
REMARK  4 active torsions:
REMARK  status: ('A' for Active; 'I' for Inactive)
REMARK    1  A    between atoms: C2_2  and  C3_3 
REMARK    2  A    between atoms: C3_3  and  N1_4 
REMARK    3  A    between atoms: N1_4  and  C4_7 
REMARK    4  A    between atoms: C4_7  and  C5_8 
ROOT
HETATM    1  C5  UNL     1      23.415  35.490  28.435  1.00  0.00     0.408 C 
HETATM    2  N2  UNL     1      24.211  34.484  27.720  1.00  0.00    -0.043 N 
ATOM      3  H21 UNL     1      24.275  33.576  28.180  1.00  0.00     0.279 HD
ATOM      4  H22 UNL     1      25.216  34.655  27.707  1.00  0.00     0.279 HD
HETATM    5  C6  UNL     1      23.574  34.470  26.421  1.00  0.00     0.262 C 
HETATM    6  C7  UNL     1      23.322  35.909  26.139  1.00  0.00     0.262 C 
HETATM    7  N3  UNL     1      23.133  36.507  27.437  1.00  0.00    -0.043 N 
ATOM      8  H31 UNL     1      23.685  37.355  27.567  1.00  0.00     0.279 HD
ATOM      9  H32 UNL     1      22.210  36.928  27.548  1.00  0.00     0.279 HD
ENDROOT
BRANCH   1  10
HETATM   10  C4  UNL     1      22.178  34.815  28.932  1.00  0.00     0.294 C 
BRANCH  10  11
HETATM   11  N1  UNL     1      21.708  35.334  30.187  1.00  0.00    -0.068 N 
ATOM     12  H12 UNL     1      22.463  35.792  30.697  1.00  0.00     0.277 HD
ATOM     13  H11 UNL     1      21.500  34.577  30.838  1.00  0.00     0.277 HD
BRANCH  11  14
HETATM   14  C3  UNL     1      20.566  36.222  30.043  1.00  0.00     0.259 C 
BRANCH  14  15
HETATM   15  C2  UNL     1      20.502  37.163  31.220  1.00  0.00    -0.010 C 
HETATM   16  C1  UNL     1      20.895  38.405  31.044  1.00  0.00     0.008 C 
ENDBRANCH  14  15
ENDBRANCH  11  14
ENDBRANCH  10  11
ENDBRANCH   1  10
TORSDOF 4
ENDMDL
MODEL 4
REMARK VINA RESULT: -4.024227818      3.234      4.166
REMARK  4 active torsions:
REMARK  status: ('A' for Active; 'I' for Inactive)
REMARK    1  A    between atoms: C2_2  and  C3_3 
REMARK    2  A    between atoms: C3_3  and  N1_4 
REMARK    3  A    between atoms: N1_4  and  C4_7 
REMARK    4  A    between atoms: C4_7  and  C5_8 
ROOT
HETATM    1  C5  UNL     1      24.305  33.593  25.367  1.00  0.00     0.408 C 
HETATM    2  N2  UNL     1      22.960  34.178  25.278  1.00  0.00    -0.043 N 
ATOM      3  H21 UNL     1      22.337  33.729  24.607  1.00  0.00     0.279 HD
ATOM      4  H22 UNL     1      22.916  35.101  24.847  1.00  0.00     0.279 HD
HETATM    5  C6  UNL     1      22.521  34.123  26.655  1.00  0.00     0.262 C 
HETATM    6  C7  UNL     1      23.727  34.537  27.424  1.00  0.00     0.262 C 
HETATM    7  N3  UNL     1      24.839  34.100  26.619  1.00  0.00    -0.043 N 
ATOM      8  H31 UNL     1      25.542  34.828  26.485  1.00  0.00     0.279 HD
ATOM      9  H32 UNL     1      25.434  33.425  27.099  1.00  0.00     0.279 HD
ENDROOT
BRANCH   1  10
HETATM   10  C4  UNL     1      24.150  32.107  25.368  1.00  0.00     0.294 C 
BRANCH  10  11
HETATM   11  N1  UNL     1      25.135  31.429  26.166  1.00  0.00    -0.068 N 
ATOM     12  H12 UNL     1      25.602  32.080  26.797  1.00  0.00     0.277 HD
ATOM     13  H11 UNL     1      25.932  31.146  25.596  1.00  0.00     0.277 HD
BRANCH  11  14
HETATM   14  C3  UNL     1      24.592  30.297  26.898  1.00  0.00     0.259 C 
BRANCH  14  15
HETATM   15  C2  UNL     1      23.202  30.623  27.383  1.00  0.00    -0.010 C 
HETATM   16  C1  UNL     1      23.048  30.967  28.642  1.00  0.00     0.008 C 
ENDBRANCH  14  15
ENDBRANCH  11  14
ENDBRANCH  10  11
ENDBRANCH   1  10
TORSDOF 4
ENDMDL
MODEL 5
REMARK VINA RESULT: -3.966253419      6.794      9.417
REMARK  4 active torsions:
REMARK  status: ('A' for Active; 'I' for Inactive)
REMARK    1  A    between atoms: C2_2  and  C3_3 
REMARK    2  A    between atoms: C3_3  and  N1_4 
REMARK    3  A    between atoms: N1_4  and  C4_7 
REMARK    4  A    between atoms: C4_7  and  C5_8 
ROOT
HETATM    1  C5  UNL     1      22.386  36.755  28.395  1.00  0.00     0.408 C 
HETATM    2  N2  UNL     1      23.660  36.039  28.546  1.00  0.00    -0.043 N 
ATOM      3  H21 UNL     1      23.851  35.692  29.486  1.00  0.00     0.279 HD
ATOM      4  H22 UNL     1      24.494  36.623  28.489  1.00  0.00     0.279 HD
HETATM    5  C6  UNL     1      23.551  35.021  27.525  1.00  0.00     0.262 C 
HETATM    6  C7  UNL     1      22.961  35.747  26.368  1.00  0.00     0.262 C 
HETATM    7  N3  UNL     1      22.153  36.782  26.961  1.00  0.00    -0.043 N 
ATOM      8  H31 UNL     1      22.320  37.700  26.549  1.00  0.00     0.279 HD
ATOM      9  H32 UNL     1      21.166  36.703  26.718  1.00  0.00     0.279 HD
ENDROOT
BRANCH   1  10
HETATM   10  C4  UNL     1      21.343  35.980  29.131  1.00  0.00     0.294 C 
BRANCH  10  11
HETATM   11  N1  UNL     1      21.449  36.091  30.560  1.00  0.00    -0.068 N 
ATOM     12  H12 UNL     1      22.370  36.435  30.831  1.00  0.00     0.277 HD
ATOM     13  H11 UNL     1      21.479  35.170  30.995  1.00  0.00     0.277 HD
BRANCH  11  14
HETATM   14  C3  UNL     1      20.398  36.907  31.146  1.00  0.00     0.259 C 
BRANCH  14  15
HETATM   15  C2  UNL     1      20.850  38.344  31.218  1.00  0.00    -0.010 C 
HETATM   16  C1  UNL     1      19.945  39.269  31.448  1.00  0.00     0.008 C 
ENDBRANCH  14  15
ENDBRANCH  11  14
ENDBRANCH  10  11
ENDBRANCH   1  10
TORSDOF 4
ENDMDL
