MODEL 1
REMARK VINA RESULT: -4.150095463      0.000      0.000
REMARK  5 active torsions:
REMARK  status: ('A' for Active; 'I' for Inactive)
REMARK    1  A    between atoms: C2_2  and  N1_3 
REMARK    2  A    between atoms: N1_3  and  C3_5 
REMARK    3  A    between atoms: C3_5  and  C4_6 
REMARK    4  A    between atoms: C4_6  and  N2_7 
REMARK    5  A    between atoms: N2_7  and  C5_9 
ROOT
HETATM    1  N2  UNL     1      23.341  37.088  28.430  1.00  0.00    -0.224 N 
ATOM      2  H2  UNL     1      24.251  37.547  28.393  1.00  0.00     0.177 HD
ENDROOT
BRANCH   1   3
HETATM    3  C4  UNL     1      22.199  37.920  28.545  1.00  0.00     0.157 C 
BRANCH   3   4
HETATM    4  C3  UNL     1      22.321  38.984  29.596  1.00  0.00     0.134 C 
BRANCH   4   5
HETATM    5  N1  UNL     1      21.944  38.577  30.897  1.00  0.00    -0.420 N 
ATOM      6  H1  UNL     1      22.596  38.639  31.680  1.00  0.00     0.153 HD
BRANCH   5   7
HETATM    7  C2  UNL     1      20.629  38.081  31.072  1.00  0.00     0.109 C 
HETATM    8  C1  UNL     1      19.720  39.272  31.411  1.00  0.00     0.026 C 
ENDBRANCH   5   7
ENDBRANCH   4   5
ENDBRANCH   3   4
ENDBRANCH   1   3
BRANCH   1   9
HETATM    9  C5  UNL     1      23.327  35.665  28.363  1.00  0.00     0.679 A 
HETATM   10  N3  UNL     1      24.092  34.797  27.811  1.00  0.00    -0.187 N 
HETATM   11  C6  UNL     1      23.303  33.720  28.276  1.00  0.00     0.215 A 
ATOM     12  H3  UNL     1      24.943  34.859  27.252  1.00  0.00     0.185 HD
HETATM   13  N4  UNL     1      22.533  34.583  28.831  1.00  0.00    -0.187 N 
ATOM     14  H4  UNL     1      21.682  34.518  29.390  1.00  0.00     0.185 HD
ENDBRANCH   1   9
TORSDOF 5
ENDMDL
MODEL 2
REMARK VINA RESULT: -4.104949026      1.523      4.360
REMARK  5 active torsions:
REMARK  status: ('A' for Active; 'I' for Inactive)
REMARK    1  A    between atoms: C2_2  and  N1_3 
REMARK    2  A    between atoms: N1_3  and  C3_5 
REMARK    3  A    between atoms: C3_5  and  C4_6 
REMARK    4  A    between atoms: C4_6  and  N2_7 
REMARK    5  A    between atoms: N2_7  and  C5_9 
ROOT
HETATM    1  N2  UNL     1      21.688  38.516  30.795  1.00  0.00    -0.224 N 
ATOM      2  H2  UNL     1      22.192  38.807  31.632  1.00  0.00     0.177 HD
ENDROOT
BRANCH   1   3
HETATM    3  C4  UNL     1      22.218  38.922  29.544  1.00  0.00     0.157 C 
BRANCH   3   4
HETATM    4  C3  UNL     1      22.299  37.821  28.528  1.00  0.00     0.134 C 
BRANCH   4   5
HETATM    5  N1  UNL     1      23.434  36.986  28.649  1.00  0.00    -0.420 N 
ATOM      6  H1  UNL     1      24.310  37.337  29.037  1.00  0.00     0.153 HD
BRANCH   5   7
HETATM    7  C2  UNL     1      23.309  35.644  28.212  1.00  0.00     0.109 C 
HETATM    8  C1  UNL     1      22.273  34.953  29.111  1.00  0.00     0.026 C 
ENDBRANCH   5   7
ENDBRANCH   4   5
ENDBRANCH   3   4
ENDBRANCH   1   3
BRANCH   1   9
HETATM    9  C5  UNL     1      20.510  37.738  30.982  1.00  0.00     0.679 A 
HETATM   10  N3  UNL     1      19.283  37.892  30.641  1.00  0.00    -0.187 N 
HETATM   11  C6  UNL     1      18.902  36.669  31.239  1.00  0.00     0.215 A 
ATOM     12  H3  UNL     1      18.776  38.618  30.134  1.00  0.00     0.185 HD
HETATM   13  N4  UNL     1      20.127  36.508  31.583  1.00  0.00    -0.187 N 
ATOM     14  H4  UNL     1      20.631  35.781  32.090  1.00  0.00     0.185 HD
ENDBRANCH   1   9
TORSDOF 5
ENDMDL
MODEL 3
REMARK VINA RESULT: -4.069236607      1.803      3.320
REMARK  5 active torsions:
REMARK  status: ('A' for Active; 'I' for Inactive)
REMARK    1  A    between atoms: C2_2  and  N1_3 
REMARK    2  A    between atoms: N1_3  and  C3_5 
REMARK    3  A    between atoms: C3_5  and  C4_6 
REMARK    4  A    between atoms: C4_6  and  N2_7 
REMARK    5  A    between atoms: N2_7  and  C5_9 
ROOT
HETATM    1  N2  UNL     1      22.192  35.178  29.461  1.00  0.00    -0.224 N 
ATOM      2  H2  UNL     1      22.447  34.232  29.744  1.00  0.00     0.177 HD
ENDROOT
BRANCH   1   3
HETATM    3  C4  UNL     1      22.991  35.794  28.465  1.00  0.00     0.157 C 
BRANCH   3   4
HETATM    4  C3  UNL     1      22.636  37.227  28.198  1.00  0.00     0.134 C 
BRANCH   4   5
HETATM    5  N1  UNL     1      23.311  38.166  29.013  1.00  0.00    -0.420 N 
ATOM      6  H1  UNL     1      24.324  38.133  29.129  1.00  0.00     0.153 HD
BRANCH   5   7
HETATM    7  C2  UNL     1      22.529  39.153  29.661  1.00  0.00     0.109 C 
HETATM    8  C1  UNL     1      21.174  39.224  28.941  1.00  0.00     0.026 C 
ENDBRANCH   5   7
ENDBRANCH   4   5
ENDBRANCH   3   4
ENDBRANCH   1   3
BRANCH   1   9
HETATM    9  C5  UNL     1      21.063  35.767  30.100  1.00  0.00     0.679 A 
HETATM   10  N3  UNL     1      20.887  36.343  31.232  1.00  0.00    -0.187 N 
HETATM   11  C6  UNL     1      19.517  36.571  30.969  1.00  0.00     0.215 A 
ATOM     12  H3  UNL     1      21.500  36.555  32.020  1.00  0.00     0.185 HD
HETATM   13  N4  UNL     1      19.686  35.996  29.835  1.00  0.00    -0.187 N 
ATOM     14  H4  UNL     1      19.071  35.785  29.049  1.00  0.00     0.185 HD
ENDBRANCH   1   9
TORSDOF 5
ENDMDL
MODEL 4
REMARK VINA RESULT: -4.053169407      2.744      6.582
REMARK  5 active torsions:
REMARK  status: ('A' for Active; 'I' for Inactive)
REMARK    1  A    between atoms: C2_2  and  N1_3 
REMARK    2  A    between atoms: N1_3  and  C3_5 
REMARK    3  A    between atoms: C3_5  and  C4_6 
REMARK    4  A    between atoms: C4_6  and  N2_7 
REMARK    5  A    between atoms: N2_7  and  C5_9 
ROOT
HETATM    1  N2  UNL     1      23.693  33.673  28.190  1.00  0.00    -0.224 N 
ATOM      2  H2  UNL     1      24.656  33.431  28.425  1.00  0.00     0.177 HD
ENDROOT
BRANCH   1   3
HETATM    3  C4  UNL     1      22.812  32.606  27.883  1.00  0.00     0.157 C 
BRANCH   3   4
HETATM    4  C3  UNL     1      23.092  31.345  28.646  1.00  0.00     0.134 C 
BRANCH   4   5
HETATM    5  N1  UNL     1      23.161  30.176  27.852  1.00  0.00    -0.420 N 
ATOM      6  H1  UNL     1      22.430  29.466  27.891  1.00  0.00     0.153 HD
BRANCH   5   7
HETATM    7  C2  UNL     1      24.285  30.028  27.001  1.00  0.00     0.109 C 
HETATM    8  C1  UNL     1      23.766  29.721  25.589  1.00  0.00     0.026 C 
ENDBRANCH   5   7
ENDBRANCH   4   5
ENDBRANCH   3   4
ENDBRANCH   1   3
BRANCH   1   9
HETATM    9  C5  UNL     1      23.349  35.055  28.198  1.00  0.00     0.679 A 
HETATM   10  N3  UNL     1      23.587  36.032  27.402  1.00  0.00    -0.187 N 
HETATM   11  C6  UNL     1      22.875  36.944  28.214  1.00  0.00     0.215 A 
ATOM     12  H3  UNL     1      24.095  36.118  26.521  1.00  0.00     0.185 HD
HETATM   13  N4  UNL     1      22.633  35.972  29.015  1.00  0.00    -0.187 N 
ATOM     14  H4  UNL     1      22.125  35.889  29.895  1.00  0.00     0.185 HD
ENDBRANCH   1   9
TORSDOF 5
ENDMDL
MODEL 5
REMARK VINA RESULT: -4.012119181      0.935      1.350
REMARK  5 active torsions:
REMARK  status: ('A' for Active; 'I' for Inactive)
REMARK    1  A    between atoms: C2_2  and  N1_3 
REMARK    2  A    between atoms: N1_3  and  C3_5 
REMARK    3  A    between atoms: C3_5  and  C4_6 
REMARK    4  A    between atoms: C4_6  and  N2_7 
REMARK    5  A    between atoms: N2_7  and  C5_9 
ROOT
HETATM    1  N2  UNL     1      23.321  37.101  28.446  1.00  0.00    -0.224 N 
ATOM      2  H2  UNL     1      24.224  37.575  28.454  1.00  0.00     0.177 HD
ENDROOT
BRANCH   1   3
HETATM    3  C4  UNL     1      22.161  37.914  28.518  1.00  0.00     0.157 C 
BRANCH   3   4
HETATM    4  C3  UNL     1      22.228  38.980  29.571  1.00  0.00     0.134 C 
BRANCH   4   5
HETATM    5  N1  UNL     1      21.415  40.111  29.322  1.00  0.00    -0.420 N 
ATOM      6  H1  UNL     1      21.766  40.907  28.789  1.00  0.00     0.153 HD
BRANCH   5   7
HETATM    7  C2  UNL     1      20.096  40.095  29.839  1.00  0.00     0.109 C 
HETATM    8  C1  UNL     1      20.152  39.485  31.247  1.00  0.00     0.026 C 
ENDBRANCH   5   7
ENDBRANCH   4   5
ENDBRANCH   3   4
ENDBRANCH   1   3
BRANCH   1   9
HETATM    9  C5  UNL     1      23.332  35.680  28.363  1.00  0.00     0.679 A 
HETATM   10  N3  UNL     1      22.571  34.759  28.830  1.00  0.00    -0.187 N 
HETATM   11  C6  UNL     1      23.351  33.735  28.245  1.00  0.00     0.215 A 
ATOM     12  H3  UNL     1      21.727  34.763  29.404  1.00  0.00     0.185 HD
HETATM   13  N4  UNL     1      24.117  34.651  27.774  1.00  0.00    -0.187 N 
ATOM     14  H4  UNL     1      24.960  34.644  27.201  1.00  0.00     0.185 HD
ENDBRANCH   1   9
TORSDOF 5
ENDMDL
