MODEL 1
REMARK VINA RESULT: -4.130136836      0.000      0.000
REMARK  4 active torsions:
REMARK  status: ('A' for Active; 'I' for Inactive)
REMARK    1  A    between atoms: N1_2  and  C2_5 
REMARK    2  A    between atoms: C2_5  and  C3_6 
REMARK    3  A    between atoms: C3_6  and  N2_7 
REMARK    4  A    between atoms: N2_7  and  C4_10 
ROOT
HETATM    1  N2  UNL     1      21.510  35.640  30.659  1.00  0.00    -0.068 N 
ATOM      2  H21 UNL     1      22.387  36.046  30.985  1.00  0.00     0.277 HD
ATOM      3  H22 UNL     1      21.347  35.048  31.474  1.00  0.00     0.277 HD
ENDROOT
BRANCH   1   4
HETATM    4  C3  UNL     1      21.627  34.910  29.418  1.00  0.00     0.260 C 
BRANCH   4   5
HETATM    5  C2  UNL     1      22.956  34.881  28.787  1.00  0.00     0.259 C 
BRANCH   5   6
HETATM    6  N1  UNL     1      23.593  36.118  28.495  1.00  0.00    -0.077 N 
HETATM    7  C1  UNL     1      22.828  36.887  27.507  1.00  0.00     0.267 C 
ATOM      8  H12 UNL     1      24.559  35.982  28.198  1.00  0.00     0.276 HD
ATOM      9  H11 UNL     1      23.765  36.661  29.341  1.00  0.00     0.276 HD
ENDBRANCH   5   6
ENDBRANCH   4   5
ENDBRANCH   1   4
BRANCH   1  10
HETATM   10  C4  UNL     1      20.460  36.616  30.419  1.00  0.00     0.213 C 
HETATM   11  C5  UNL     1      19.465  36.796  31.508  1.00  0.00     0.062 C 
HETATM   12  C6  UNL     1      18.320  37.430  30.694  1.00  0.00     0.234 C 
HETATM   13  N3  UNL     1      18.208  36.432  29.630  1.00  0.00    -0.073 N 
HETATM   14  C7  UNL     1      19.587  36.235  29.244  1.00  0.00     0.265 C 
ATOM     15  H32 UNL     1      17.709  35.581  29.891  1.00  0.00     0.277 HD
ATOM     16  H31 UNL     1      17.580  36.685  28.868  1.00  0.00     0.277 HD
ENDBRANCH   1  10
TORSDOF 4
ENDMDL
MODEL 2
REMARK VINA RESULT: -4.102655636      3.864      5.718
REMARK  4 active torsions:
REMARK  status: ('A' for Active; 'I' for Inactive)
REMARK    1  A    between atoms: N1_2  and  C2_5 
REMARK    2  A    between atoms: C2_5  and  C3_6 
REMARK    3  A    between atoms: C3_6  and  N2_7 
REMARK    4  A    between atoms: N2_7  and  C4_10 
ROOT
HETATM    1  N2  UNL     1      24.666  33.141  26.407  1.00  0.00    -0.068 N 
ATOM      2  H21 UNL     1      25.275  33.435  25.644  1.00  0.00     0.277 HD
ATOM      3  H22 UNL     1      25.401  33.021  27.103  1.00  0.00     0.277 HD
ENDROOT
BRANCH   1   4
HETATM    4  C3  UNL     1      23.918  31.936  26.130  1.00  0.00     0.260 C 
BRANCH   4   5
HETATM    5  C2  UNL     1      24.386  30.701  26.778  1.00  0.00     0.259 C 
BRANCH   5   6
HETATM    6  N1  UNL     1      23.462  29.957  27.562  1.00  0.00    -0.077 N 
HETATM    7  C1  UNL     1      22.814  30.808  28.566  1.00  0.00     0.267 C 
ATOM      8  H12 UNL     1      23.903  29.142  27.989  1.00  0.00     0.276 HD
ATOM      9  H11 UNL     1      22.777  29.476  26.979  1.00  0.00     0.276 HD
ENDBRANCH   5   6
ENDBRANCH   4   5
ENDBRANCH   1   4
BRANCH   1  10
HETATM   10  C4  UNL     1      23.661  34.127  26.773  1.00  0.00     0.213 C 
HETATM   11  C5  UNL     1      23.764  35.451  26.110  1.00  0.00     0.062 C 
HETATM   12  C6  UNL     1      22.945  36.292  27.110  1.00  0.00     0.234 C 
HETATM   13  N3  UNL     1      23.641  35.931  28.345  1.00  0.00    -0.073 N 
HETATM   14  C7  UNL     1      23.732  34.491  28.240  1.00  0.00     0.265 C 
ATOM     15  H32 UNL     1      24.530  36.408  28.492  1.00  0.00     0.277 HD
ATOM     16  H31 UNL     1      23.203  36.272  29.200  1.00  0.00     0.277 HD
ENDBRANCH   1  10
TORSDOF 4
ENDMDL
MODEL 3
REMARK VINA RESULT: -4.074008328      1.578      2.135
REMARK  4 active torsions:
REMARK  status: ('A' for Active; 'I' for Inactive)
REMARK    1  A    between atoms: N1_2  and  C2_5 
REMARK    2  A    between atoms: C2_5  and  C3_6 
REMARK    3  A    between atoms: C3_6  and  N2_7 
REMARK    4  A    between atoms: N2_7  and  C4_10 
ROOT
HETATM    1  N2  UNL     1      21.670  38.362  30.659  1.00  0.00    -0.068 N 
ATOM      2  H21 UNL     1      21.604  39.094  31.365  1.00  0.00     0.277 HD
ATOM      3  H22 UNL     1      22.264  37.733  31.199  1.00  0.00     0.277 HD
ENDROOT
BRANCH   1   4
HETATM    4  C3  UNL     1      22.257  38.798  29.413  1.00  0.00     0.260 C 
BRANCH   4   5
HETATM    5  C2  UNL     1      22.536  37.759  28.410  1.00  0.00     0.259 C 
BRANCH   5   6
HETATM    6  N1  UNL     1      23.641  36.890  28.625  1.00  0.00    -0.077 N 
HETATM    7  C1  UNL     1      23.288  35.500  28.320  1.00  0.00     0.267 C 
ATOM      8  H12 UNL     1      24.015  36.984  29.570  1.00  0.00     0.276 HD
ATOM      9  H11 UNL     1      24.463  37.192  28.101  1.00  0.00     0.276 HD
ENDBRANCH   5   6
ENDBRANCH   4   5
ENDBRANCH   1   4
BRANCH   1  10
HETATM   10  C4  UNL     1      20.388  37.786  30.284  1.00  0.00     0.213 C 
HETATM   11  C5  UNL     1      19.184  38.404  30.896  1.00  0.00     0.062 C 
HETATM   12  C6  UNL     1      18.187  37.244  30.704  1.00  0.00     0.234 C 
HETATM   13  N3  UNL     1      18.963  36.165  31.317  1.00  0.00    -0.073 N 
HETATM   14  C7  UNL     1      20.266  36.342  30.716  1.00  0.00     0.265 C 
ATOM     15  H32 UNL     1      18.956  36.157  32.337  1.00  0.00     0.277 HD
ATOM     16  H31 UNL     1      18.562  35.234  31.209  1.00  0.00     0.277 HD
ENDBRANCH   1  10
TORSDOF 4
ENDMDL
MODEL 4
REMARK VINA RESULT: -4.056873663      0.981      4.672
REMARK  4 active torsions:
REMARK  status: ('A' for Active; 'I' for Inactive)
REMARK    1  A    between atoms: N1_2  and  C2_5 
REMARK    2  A    between atoms: C2_5  and  C3_6 
REMARK    3  A    between atoms: C3_6  and  N2_7 
REMARK    4  A    between atoms: N2_7  and  C4_10 
ROOT
HETATM    1  N2  UNL     1      20.577  35.100  29.889  1.00  0.00    -0.068 N 
ATOM      2  H21 UNL     1      19.713  34.594  29.694  1.00  0.00     0.277 HD
ATOM      3  H22 UNL     1      20.894  34.500  30.650  1.00  0.00     0.277 HD
ENDROOT
BRANCH   1   4
HETATM    4  C3  UNL     1      20.376  36.478  30.272  1.00  0.00     0.260 C 
BRANCH   4   5
HETATM    5  C2  UNL     1      19.329  36.744  31.271  1.00  0.00     0.259 C 
BRANCH   5   6
HETATM    6  N1  UNL     1      17.974  36.515  30.907  1.00  0.00    -0.077 N 
HETATM    7  C1  UNL     1      17.319  37.762  30.498  1.00  0.00     0.267 C 
ATOM      8  H12 UNL     1      17.459  36.048  31.653  1.00  0.00     0.276 HD
ATOM      9  H11 UNL     1      17.894  35.796  30.188  1.00  0.00     0.276 HD
ENDBRANCH   5   6
ENDBRANCH   4   5
ENDBRANCH   1   4
BRANCH   1  10
HETATM   10  C4  UNL     1      21.494  35.157  28.761  1.00  0.00     0.213 C 
HETATM   11  C5  UNL     1      22.585  34.150  28.747  1.00  0.00     0.062 C 
HETATM   12  C6  UNL     1      23.562  34.857  27.788  1.00  0.00     0.234 C 
HETATM   13  N3  UNL     1      23.646  36.156  28.456  1.00  0.00    -0.073 N 
HETATM   14  C7  UNL     1      22.257  36.462  28.715  1.00  0.00     0.265 C 
ATOM     15  H32 UNL     1      24.252  36.179  29.277  1.00  0.00     0.277 HD
ATOM     16  H31 UNL     1      24.155  36.873  27.940  1.00  0.00     0.277 HD
ENDBRANCH   1  10
TORSDOF 4
ENDMDL
MODEL 5
REMARK VINA RESULT: -4.030651058      3.493      5.849
REMARK  4 active torsions:
REMARK  status: ('A' for Active; 'I' for Inactive)
REMARK    1  A    between atoms: N1_2  and  C2_5 
REMARK    2  A    between atoms: C2_5  and  C3_6 
REMARK    3  A    between atoms: C3_6  and  N2_7 
REMARK    4  A    between atoms: N2_7  and  C4_10 
ROOT
HETATM    1  N2  UNL     1      22.489  33.379  27.050  1.00  0.00    -0.068 N 
ATOM      2  H21 UNL     1      21.978  33.386  26.167  1.00  0.00     0.277 HD
ATOM      3  H22 UNL     1      21.670  33.364  27.657  1.00  0.00     0.277 HD
ENDROOT
BRANCH   1   4
HETATM    4  C3  UNL     1      23.343  34.528  27.243  1.00  0.00     0.260 C 
BRANCH   4   5
HETATM    5  C2  UNL     1      23.173  35.277  28.497  1.00  0.00     0.259 C 
BRANCH   5   6
HETATM    6  N1  UNL     1      23.644  36.618  28.553  1.00  0.00    -0.077 N 
HETATM    7  C1  UNL     1      22.544  37.573  28.386  1.00  0.00     0.267 C 
ATOM      8  H12 UNL     1      24.390  36.782  27.877  1.00  0.00     0.276 HD
ATOM      9  H11 UNL     1      24.169  36.796  29.410  1.00  0.00     0.276 HD
ENDBRANCH   5   6
ENDBRANCH   4   5
ENDBRANCH   1   4
BRANCH   1  10
HETATM   10  C4  UNL     1      23.367  32.231  27.213  1.00  0.00     0.213 C 
HETATM   11  C5  UNL     1      23.235  31.151  26.202  1.00  0.00     0.062 C 
HETATM   12  C6  UNL     1      23.869  29.992  26.995  1.00  0.00     0.234 C 
HETATM   13  N3  UNL     1      23.070  30.079  28.218  1.00  0.00    -0.073 N 
HETATM   14  C7  UNL     1      23.104  31.495  28.509  1.00  0.00     0.265 C 
ATOM     15  H32 UNL     1      22.135  29.677  28.149  1.00  0.00     0.277 HD
ATOM     16  H31 UNL     1      23.381  29.477  28.979  1.00  0.00     0.277 HD
ENDBRANCH   1  10
TORSDOF 4
ENDMDL
