MODEL 1
REMARK VINA RESULT: -5.652575096      0.000      0.000
REMARK  2 active torsions:
REMARK  status: ('A' for Active; 'I' for Inactive)
REMARK    1  A    between atoms: C1_4  and  N2_5 
REMARK    2  A    between atoms: N2_5  and  C2_7 
ROOT
HETATM    1  C2  UNL     1     -63.817  90.031  98.855  1.00  0.00     0.123 C 
HETATM    2  C3  UNL     1     -62.996  90.445  99.826  1.00  0.00     0.112 C 
HETATM    3  N3  UNL     1     -63.520  91.041 100.993  1.00  0.00    -0.383 N 
ATOM      4  H3  UNL     1     -64.467  90.767 101.249  1.00  0.00     0.159 HD
HETATM    5  C4  UNL     1     -62.883  91.982 101.859  1.00  0.00     0.147 C 
HETATM    6  C5  UNL     1     -62.263  93.167 101.170  1.00  0.00     0.251 C 
HETATM    7  N4  UNL     1     -61.542  94.017 102.098  1.00  0.00    -0.074 N 
ATOM      8  H41 UNL     1     -61.905  93.943 103.048  1.00  0.00     0.277 HD
ATOM      9  H42 UNL     1     -61.736  95.007 101.941  1.00  0.00     0.277 HD
HETATM   10  C6  UNL     1     -60.133  93.726 102.033  1.00  0.00     0.234 C 
HETATM   11  C7  UNL     1     -59.395  93.892 103.322  1.00  0.00     0.055 C 
HETATM   12  C8  UNL     1     -59.519  92.750 104.280  1.00  0.00     0.234 C 
HETATM   13  N5  UNL     1     -58.351  91.935 104.406  1.00  0.00    -0.073 N 
ATOM     14  H51 UNL     1     -58.157  91.732 105.385  1.00  0.00     0.277 HD
ATOM     15  H52 UNL     1     -57.513  92.468 104.174  1.00  0.00     0.277 HD
HETATM   16  C9  UNL     1     -58.416  90.698 103.619  1.00  0.00     0.259 C 
HETATM   17  C10 UNL     1     -59.545  89.824 104.059  1.00  0.00     0.259 C 
HETATM   18  N6  UNL     1     -59.455  88.482 103.558  1.00  0.00    -0.072 N 
ATOM     19  H61 UNL     1     -60.222  87.893 103.880  1.00  0.00     0.277 HD
ATOM     20  H62 UNL     1     -58.688  87.959 103.981  1.00  0.00     0.277 HD
HETATM   21  C11 UNL     1     -59.362  88.530 102.115  1.00  0.00     0.252 C 
HETATM   22  C12 UNL     1     -60.723  88.852 101.556  1.00  0.00     0.150 C 
HETATM   23  N7  UNL     1     -60.607  89.902 100.577  1.00  0.00    -0.354 N 
ATOM     24  H7  UNL     1     -59.754  90.459 100.601  1.00  0.00     0.162 HD
HETATM   25  C13 UNL     1     -61.562  90.236  99.584  1.00  0.00     0.269 C 
HETATM   26  O1  UNL     1     -61.206  90.382  98.357  1.00  0.00    -0.266 OA
ENDROOT
BRANCH   1  27
HETATM   27  N2  UNL     1     -63.406  89.431  97.664  1.00  0.00    -0.360 N 
ATOM     28  H2  UNL     1     -62.430  89.557  97.395  1.00  0.00     0.166 HD
BRANCH  27  29
HETATM   29  C1  UNL     1     -64.208  88.669  96.801  1.00  0.00     0.173 C 
HETATM   30  N1  UNL     1     -64.286  87.405  96.952  1.00  0.00    -0.395 N 
ATOM     31  H12 UNL     1     -63.758  86.962  97.705  1.00  0.00     0.156 HD
ATOM     32  H11 UNL     1     -64.869  86.851  96.324  1.00  0.00     0.156 HD
ENDBRANCH  27  29
ENDBRANCH   1  27
TORSDOF 2
ENDMDL
MODEL 2
REMARK VINA RESULT: -5.349419014      1.096      1.174
REMARK  2 active torsions:
REMARK  status: ('A' for Active; 'I' for Inactive)
REMARK    1  A    between atoms: C1_4  and  N2_5 
REMARK    2  A    between atoms: N2_5  and  C2_7 
ROOT
HETATM    1  C2  UNL     1     -64.105  90.797  98.720  1.00  0.00     0.123 C 
HETATM    2  C3  UNL     1     -63.234  90.892  99.730  1.00  0.00     0.112 C 
HETATM    3  N3  UNL     1     -63.616  91.509 100.941  1.00  0.00    -0.383 N 
ATOM      4  H3  UNL     1     -64.610  91.481 101.164  1.00  0.00     0.159 HD
HETATM    5  C4  UNL     1     -62.778  92.169 101.891  1.00  0.00     0.147 C 
HETATM    6  C5  UNL     1     -61.842  93.195 101.314  1.00  0.00     0.251 C 
HETATM    7  N4  UNL     1     -60.949  93.740 102.319  1.00  0.00    -0.074 N 
ATOM      8  H41 UNL     1     -61.348  93.689 103.255  1.00  0.00     0.277 HD
ATOM      9  H42 UNL     1     -60.866  94.755 102.248  1.00  0.00     0.277 HD
HETATM   10  C6  UNL     1     -59.668  93.086 102.240  1.00  0.00     0.234 C 
HETATM   11  C7  UNL     1     -58.954  92.940 103.545  1.00  0.00     0.055 C 
HETATM   12  C8  UNL     1     -59.410  91.800 104.398  1.00  0.00     0.234 C 
HETATM   13  N5  UNL     1     -58.508  90.693 104.461  1.00  0.00    -0.073 N 
ATOM     14  H51 UNL     1     -58.406  90.364 105.421  1.00  0.00     0.277 HD
ATOM     15  H52 UNL     1     -57.550  90.996 104.285  1.00  0.00     0.277 HD
HETATM   16  C9  UNL     1     -58.877  89.588 103.569  1.00  0.00     0.259 C 
HETATM   17  C10 UNL     1     -60.212  89.017 103.921  1.00  0.00     0.259 C 
HETATM   18  N6  UNL     1     -60.469  87.747 103.305  1.00  0.00    -0.072 N 
ATOM     19  H61 UNL     1     -61.376  87.362 103.568  1.00  0.00     0.277 HD
ATOM     20  H62 UNL     1     -59.884  87.003 103.687  1.00  0.00     0.277 HD
HETATM   21  C11 UNL     1     -60.321  87.886 101.873  1.00  0.00     0.252 C 
HETATM   22  C12 UNL     1     -61.528  88.608 101.333  1.00  0.00     0.150 C 
HETATM   23  N7  UNL     1     -61.104  89.665 100.451  1.00  0.00    -0.354 N 
ATOM     24  H7  UNL     1     -60.133  89.968 100.530  1.00  0.00     0.162 HD
HETATM   25  C13 UNL     1     -61.902  90.325  99.483  1.00  0.00     0.269 C 
HETATM   26  O1  UNL     1     -61.482  90.470  98.277  1.00  0.00    -0.266 OA
ENDROOT
BRANCH   1  27
HETATM   27  N2  UNL     1     -63.833  90.207  97.484  1.00  0.00    -0.360 N 
ATOM     28  H2  UNL     1     -63.032  89.577  97.439  1.00  0.00     0.166 HD
BRANCH  27  29
HETATM   29  C1  UNL     1     -64.555  90.400  96.298  1.00  0.00     0.173 C 
HETATM   30  N1  UNL     1     -65.831  90.384  96.317  1.00  0.00    -0.395 N 
ATOM     31  H12 UNL     1     -66.311  90.229  97.205  1.00  0.00     0.156 HD
ATOM     32  H11 UNL     1     -66.357  90.524  95.454  1.00  0.00     0.156 HD
ENDBRANCH  27  29
ENDBRANCH   1  27
TORSDOF 2
ENDMDL
MODEL 3
REMARK VINA RESULT: -4.966665756      3.036      5.097
REMARK  2 active torsions:
REMARK  status: ('A' for Active; 'I' for Inactive)
REMARK    1  A    between atoms: C1_4  and  N2_5 
REMARK    2  A    between atoms: N2_5  and  C2_7 
ROOT
HETATM    1  C2  UNL     1     -62.938  90.454 101.639  1.00  0.00     0.123 C 
HETATM    2  C3  UNL     1     -63.002  91.757 101.928  1.00  0.00     0.112 C 
HETATM    3  N3  UNL     1     -63.423  92.182 103.207  1.00  0.00    -0.383 N 
ATOM      4  H3  UNL     1     -63.262  91.527 103.971  1.00  0.00     0.159 HD
HETATM    5  C4  UNL     1     -64.046  93.417 103.559  1.00  0.00     0.147 C 
HETATM    6  C5  UNL     1     -65.228  93.802 102.712  1.00  0.00     0.251 C 
HETATM    7  N4  UNL     1     -65.739  95.115 103.056  1.00  0.00    -0.074 N 
ATOM      8  H41 UNL     1     -65.532  95.365 104.022  1.00  0.00     0.277 HD
ATOM      9  H42 UNL     1     -66.757  95.127 103.114  1.00  0.00     0.277 HD
HETATM   10  C6  UNL     1     -65.238  96.092 102.125  1.00  0.00     0.234 C 
HETATM   11  C7  UNL     1     -65.010  97.452 102.700  1.00  0.00     0.055 C 
HETATM   12  C8  UNL     1     -63.733  97.620 103.459  1.00  0.00     0.234 C 
HETATM   13  N5  UNL     1     -62.728  98.387 102.792  1.00  0.00    -0.073 N 
ATOM     14  H51 UNL     1     -62.297  99.053 103.433  1.00  0.00     0.277 HD
ATOM     15  H52 UNL     1     -63.150  99.038 102.131  1.00  0.00     0.277 HD
HETATM   16  C9  UNL     1     -61.707  97.564 102.134  1.00  0.00     0.259 C 
HETATM   17  C10 UNL     1     -60.960  96.721 103.116  1.00  0.00     0.259 C 
HETATM   18  N6  UNL     1     -59.754  96.157 102.581  1.00  0.00    -0.072 N 
ATOM     19  H61 UNL     1     -59.246  95.598 103.267  1.00  0.00     0.277 HD
ATOM     20  H62 UNL     1     -59.035  96.860 102.412  1.00  0.00     0.277 HD
HETATM   21  C11 UNL     1     -60.082  95.404 101.390  1.00  0.00     0.252 C 
HETATM   22  C12 UNL     1     -60.732  94.110 101.801  1.00  0.00     0.150 C 
HETATM   23  N7  UNL     1     -61.927  93.901 101.025  1.00  0.00    -0.354 N 
ATOM     24  H7  UNL     1     -62.319  94.718 100.557  1.00  0.00     0.162 HD
HETATM   25  C13 UNL     1     -62.612  92.673 100.848  1.00  0.00     0.269 C 
HETATM   26  O1  UNL     1     -62.946  92.274  99.672  1.00  0.00    -0.266 OA
ENDROOT
BRANCH   1  27
HETATM   27  N2  UNL     1     -62.535  89.927 100.410  1.00  0.00    -0.360 N 
ATOM     28  H2  UNL     1     -61.623  90.219 100.059  1.00  0.00     0.166 HD
BRANCH  27  29
HETATM   29  C1  UNL     1     -63.266  89.034  99.613  1.00  0.00     0.173 C 
HETATM   30  N1  UNL     1     -63.345  89.220  98.353  1.00  0.00    -0.395 N 
ATOM     31  H12 UNL     1     -62.870  90.024  97.941  1.00  0.00     0.156 HD
ATOM     32  H11 UNL     1     -63.877  88.571  97.773  1.00  0.00     0.156 HD
ENDBRANCH  27  29
ENDBRANCH   1  27
TORSDOF 2
ENDMDL
MODEL 4
REMARK VINA RESULT: -4.943445910      3.453      5.801
REMARK  2 active torsions:
REMARK  status: ('A' for Active; 'I' for Inactive)
REMARK    1  A    between atoms: C1_4  and  N2_5 
REMARK    2  A    between atoms: N2_5  and  C2_7 
ROOT
HETATM    1  C2  UNL     1     -62.095  90.614 101.878  1.00  0.00     0.123 C 
HETATM    2  C3  UNL     1     -62.580  91.816 102.206  1.00  0.00     0.112 C 
HETATM    3  N3  UNL     1     -62.663  92.203 103.560  1.00  0.00    -0.383 N 
ATOM      4  H3  UNL     1     -61.993  91.766 104.192  1.00  0.00     0.159 HD
HETATM    5  C4  UNL     1     -63.570  93.134 104.153  1.00  0.00     0.147 C 
HETATM    6  C5  UNL     1     -65.020  92.916 103.815  1.00  0.00     0.251 C 
HETATM    7  N4  UNL     1     -65.867  93.960 104.360  1.00  0.00    -0.074 N 
ATOM      8  H41 UNL     1     -65.457  94.393 105.187  1.00  0.00     0.277 HD
ATOM      9  H42 UNL     1     -66.710  93.583 104.792  1.00  0.00     0.277 HD
HETATM   10  C6  UNL     1     -66.168  94.927 103.336  1.00  0.00     0.234 C 
HETATM   11  C7  UNL     1     -66.331  96.330 103.824  1.00  0.00     0.055 C 
HETATM   12  C8  UNL     1     -65.057  97.077 104.060  1.00  0.00     0.234 C 
HETATM   13  N5  UNL     1     -64.755  98.082 103.089  1.00  0.00    -0.073 N 
ATOM     14  H51 UNL     1     -64.440  98.939 103.543  1.00  0.00     0.277 HD
ATOM     15  H52 UNL     1     -65.608  98.427 102.649  1.00  0.00     0.277 HD
HETATM   16  C9  UNL     1     -63.788  97.644 102.077  1.00  0.00     0.259 C 
HETATM   17  C10 UNL     1     -62.471  97.291 102.688  1.00  0.00     0.259 C 
HETATM   18  N6  UNL     1     -61.410  97.176 101.729  1.00  0.00    -0.072 N 
ATOM     19  H61 UNL     1     -60.514  96.952 102.163  1.00  0.00     0.277 HD
ATOM     20  H62 UNL     1     -61.150  98.076 101.325  1.00  0.00     0.277 HD
HETATM   21  C11 UNL     1     -61.794  96.210 100.724  1.00  0.00     0.252 C 
HETATM   22  C12 UNL     1     -61.671  94.828 101.311  1.00  0.00     0.150 C 
HETATM   23  N7  UNL     1     -62.865  94.074 101.028  1.00  0.00    -0.354 N 
ATOM     24  H7  UNL     1     -63.692  94.607 100.761  1.00  0.00     0.162 HD
HETATM   25  C13 UNL     1     -63.003  92.665 101.083  1.00  0.00     0.269 C 
HETATM   26  O1  UNL     1     -63.532  92.020 100.104  1.00  0.00    -0.266 OA
ENDROOT
BRANCH   1  27
HETATM   27  N2  UNL     1     -61.969  90.133 100.573  1.00  0.00    -0.360 N 
ATOM     28  H2  UNL     1     -61.450  90.714  99.914  1.00  0.00     0.166 HD
BRANCH  27  29
HETATM   29  C1  UNL     1     -62.490  88.927 100.082  1.00  0.00     0.173 C 
HETATM   30  N1  UNL     1     -63.242  88.929  99.051  1.00  0.00    -0.395 N 
ATOM     31  H12 UNL     1     -63.455  89.817  98.595  1.00  0.00     0.156 HD
ATOM     32  H11 UNL     1     -63.621  88.052  98.694  1.00  0.00     0.156 HD
ENDBRANCH  27  29
ENDBRANCH   1  27
TORSDOF 2
ENDMDL
MODEL 5
REMARK VINA RESULT: -4.868553670      2.337      6.035
REMARK  2 active torsions:
REMARK  status: ('A' for Active; 'I' for Inactive)
REMARK    1  A    between atoms: C1_4  and  N2_5 
REMARK    2  A    between atoms: N2_5  and  C2_7 
ROOT
HETATM    1  C2  UNL     1     -58.959  87.216 104.267  1.00  0.00     0.123 C 
HETATM    2  C3  UNL     1     -59.650  88.139 103.591  1.00  0.00     0.112 C 
HETATM    3  N3  UNL     1     -61.051  88.026 103.465  1.00  0.00    -0.383 N 
ATOM      4  H3  UNL     1     -61.528  87.516 104.207  1.00  0.00     0.159 HD
HETATM    5  C4  UNL     1     -61.882  88.539 102.422  1.00  0.00     0.147 C 
HETATM    6  C5  UNL     1     -61.428  88.216 101.025  1.00  0.00     0.251 C 
HETATM    7  N4  UNL     1     -62.254  88.861 100.023  1.00  0.00    -0.074 N 
ATOM      8  H41 UNL     1     -63.196  89.048 100.365  1.00  0.00     0.277 HD
ATOM      9  H42 UNL     1     -62.497  88.227  99.261  1.00  0.00     0.277 HD
HETATM   10  C6  UNL     1     -61.604  90.054  99.548  1.00  0.00     0.234 C 
HETATM   11  C7  UNL     1     -62.527  91.163  99.158  1.00  0.00     0.055 C 
HETATM   12  C8  UNL     1     -63.055  91.982 100.292  1.00  0.00     0.234 C 
HETATM   13  N5  UNL     1     -62.493  93.292 100.407  1.00  0.00    -0.073 N 
ATOM     14  H51 UNL     1     -63.222  93.984 100.579  1.00  0.00     0.277 HD
ATOM     15  H52 UNL     1     -62.158  93.621  99.502  1.00  0.00     0.277 HD
HETATM   16  C9  UNL     1     -61.435  93.386 101.419  1.00  0.00     0.259 C 
HETATM   17  C10 UNL     1     -61.949  93.067 102.785  1.00  0.00     0.259 C 
HETATM   18  N6  UNL     1     -61.054  93.459 103.836  1.00  0.00    -0.072 N 
ATOM     19  H61 UNL     1     -61.426  93.250 104.763  1.00  0.00     0.277 HD
ATOM     20  H62 UNL     1     -60.988  94.472 103.935  1.00  0.00     0.277 HD
HETATM   21  C11 UNL     1     -59.767  92.841 103.605  1.00  0.00     0.252 C 
HETATM   22  C12 UNL     1     -59.861  91.382 103.968  1.00  0.00     0.150 C 
HETATM   23  N7  UNL     1     -59.289  90.584 102.914  1.00  0.00    -0.354 N 
ATOM     24  H7  UNL     1     -59.181  91.034 102.005  1.00  0.00     0.162 HD
HETATM   25  C13 UNL     1     -58.861  89.237 103.016  1.00  0.00     0.269 C 
HETATM   26  O1  UNL     1     -57.700  88.885 102.588  1.00  0.00    -0.266 OA
ENDROOT
BRANCH   1  27
HETATM   27  N2  UNL     1     -57.575  87.232 104.453  1.00  0.00    -0.360 N 
ATOM     28  H2  UNL     1     -57.169  88.089 104.831  1.00  0.00     0.166 HD
BRANCH  27  29
HETATM   29  C1  UNL     1     -56.689  86.183 104.169  1.00  0.00     0.173 C 
HETATM   30  N1  UNL     1     -56.491  85.824 102.960  1.00  0.00    -0.395 N 
ATOM     31  H12 UNL     1     -56.985  86.312 102.212  1.00  0.00     0.156 HD
ATOM     32  H11 UNL     1     -55.847  85.060 102.753  1.00  0.00     0.156 HD
ENDBRANCH  27  29
ENDBRANCH   1  27
TORSDOF 2
ENDMDL
