MODEL 1
REMARK VINA RESULT: -7.758964986      0.000      0.000
REMARK  2 active torsions:
REMARK  status: ('A' for Active; 'I' for Inactive)
REMARK       I    between atoms: C2_5  and  N3_6 
REMARK       I    between atoms: C2_5  and  N9_19 
REMARK    1  A    between atoms: N3_6  and  N4_8 
REMARK       I    between atoms: N4_8  and  C3_10 
REMARK       I    between atoms: N6_12  and  C4_14 
REMARK    2  A    between atoms: N9_19  and  N10_21 
ROOT
HETATM    1  N1  UNL     1     -67.058  91.077  95.163  1.00  0.00    -0.171 NA
HETATM    2  C1  UNL     1     -66.201  90.825  95.925  1.00  0.00     0.196 C 
HETATM    3  N2  UNL     1     -65.170  90.528  96.819  1.00  0.00    -0.123 N 
ATOM      4  H2  UNL     1     -65.281  90.762  97.806  1.00  0.00     0.197 HD
HETATM    5  C2  UNL     1     -64.083  89.965  96.421  1.00  0.00     0.721 C 
HETATM    6  N3  UNL     1     -63.960  89.653  95.047  1.00  0.00    -0.128 N 
ATOM      7  H3  UNL     1     -64.316  90.328  94.370  1.00  0.00     0.205 HD
HETATM    8  N9  UNL     1     -63.045  89.672  97.354  1.00  0.00    -0.116 N 
ATOM      9  H9  UNL     1     -62.202  89.196  97.035  1.00  0.00     0.207 HD
ENDROOT
BRANCH   6  10
HETATM   10  N4  UNL     1     -63.386  88.489  94.562  1.00  0.00    -0.259 N 
HETATM   11  C3  UNL     1     -64.060  87.217  94.578  1.00  0.00     0.209 C 
HETATM   12  N5  UNL     1     -64.409  86.613  95.813  1.00  0.00    -0.062 NA
HETATM   13  N6  UNL     1     -64.360  86.607  93.488  1.00  0.00    -0.304 N 
HETATM   14  C4  UNL     1     -65.022  85.359  93.547  1.00  0.00     0.188 C 
ATOM     15  H6  UNL     1     -64.121  87.019  92.586  1.00  0.00     0.171 HD
HETATM   16  N7  UNL     1     -66.181  85.216  94.090  1.00  0.00    -0.373 N 
HETATM   17  N8  UNL     1     -64.390  84.224  92.987  1.00  0.00    -0.064 NA
ATOM     18  H72 UNL     1     -66.637  86.034  94.493  1.00  0.00     0.158 HD
ATOM     19  H71 UNL     1     -66.659  84.315  94.132  1.00  0.00     0.158 HD
ATOM     20  H4  UNL     1     -62.443  88.535  94.177  1.00  0.00     0.190 HD
ENDBRANCH   6  10
BRANCH   8  21
HETATM   21  N10 UNL     1     -63.162  90.011  98.636  1.00  0.00    -0.223 N 
HETATM   22  C5  UNL     1     -63.225  89.062  99.647  1.00  0.00     0.168 C 
HETATM   23  C6  UNL     1     -63.263  89.908 100.927  1.00  0.00     0.058 C 
HETATM   24  C7  UNL     1     -63.653  91.283 100.371  1.00  0.00     0.175 C 
HETATM   25  S1  UNL     1     -62.989  92.575 101.436  1.00  0.00    -0.072 SA
HETATM   26  N11 UNL     1     -63.005  91.266  99.062  1.00  0.00    -0.106 NA
ENDBRANCH   8  21
TORSDOF 2
ENDMDL
MODEL 2
REMARK VINA RESULT: -7.424784322      2.757      6.416
REMARK  2 active torsions:
REMARK  status: ('A' for Active; 'I' for Inactive)
REMARK       I    between atoms: C2_5  and  N3_6 
REMARK       I    between atoms: C2_5  and  N9_19 
REMARK    1  A    between atoms: N3_6  and  N4_8 
REMARK       I    between atoms: N4_8  and  C3_10 
REMARK       I    between atoms: N6_12  and  C4_14 
REMARK    2  A    between atoms: N9_19  and  N10_21 
ROOT
HETATM    1  N1  UNL     1     -64.742  85.762  94.370  1.00  0.00    -0.171 NA
HETATM    2  C1  UNL     1     -64.922  86.913  94.516  1.00  0.00     0.196 C 
HETATM    3  N2  UNL     1     -65.120  88.283  94.697  1.00  0.00    -0.123 N 
ATOM      4  H2  UNL     1     -65.699  88.796  94.032  1.00  0.00     0.197 HD
HETATM    5  C2  UNL     1     -64.585  88.910  95.685  1.00  0.00     0.721 C 
HETATM    6  N3  UNL     1     -63.786  88.171  96.589  1.00  0.00    -0.128 N 
ATOM      7  H3  UNL     1     -63.169  87.455  96.206  1.00  0.00     0.205 HD
HETATM    8  N9  UNL     1     -64.803  90.311  95.848  1.00  0.00    -0.116 N 
ATOM      9  H9  UNL     1     -64.402  90.792  96.652  1.00  0.00     0.207 HD
ENDROOT
BRANCH   6  10
HETATM   10  N4  UNL     1     -63.791  88.357  97.962  1.00  0.00    -0.259 N 
HETATM   11  C3  UNL     1     -63.249  89.532  98.595  1.00  0.00     0.209 C 
HETATM   12  N5  UNL     1     -61.864  89.820  98.491  1.00  0.00    -0.062 NA
HETATM   13  N6  UNL     1     -63.997  90.337  99.260  1.00  0.00    -0.304 N 
HETATM   14  C4  UNL     1     -63.426  91.479  99.867  1.00  0.00     0.188 C 
ATOM     15  H6  UNL     1     -64.996  90.153  99.350  1.00  0.00     0.171 HD
HETATM   16  N7  UNL     1     -62.829  92.398  99.189  1.00  0.00    -0.373 N 
HETATM   17  N8  UNL     1     -63.513  91.621 101.272  1.00  0.00    -0.064 NA
ATOM     18  H72 UNL     1     -62.767  92.295  98.176  1.00  0.00     0.158 HD
ATOM     19  H71 UNL     1     -62.417  93.222  99.627  1.00  0.00     0.158 HD
ATOM     20  H4  UNL     1     -64.196  87.630  98.550  1.00  0.00     0.190 HD
ENDBRANCH   6  10
BRANCH   8  21
HETATM   21  N10 UNL     1     -65.522  90.997  94.964  1.00  0.00    -0.223 N 
HETATM   22  C5  UNL     1     -66.909  90.948  94.944  1.00  0.00     0.168 C 
HETATM   23  C6  UNL     1     -67.285  91.947  93.841  1.00  0.00     0.058 C 
HETATM   24  C7  UNL     1     -65.951  92.096  93.098  1.00  0.00     0.175 C 
HETATM   25  S1  UNL     1     -65.861  93.728  92.341  1.00  0.00    -0.072 SA
HETATM   26  N11 UNL     1     -64.990  91.944  94.187  1.00  0.00    -0.106 NA
ENDBRANCH   8  21
TORSDOF 2
ENDMDL
MODEL 3
REMARK VINA RESULT: -7.413016392      2.315      4.763
REMARK  2 active torsions:
REMARK  status: ('A' for Active; 'I' for Inactive)
REMARK       I    between atoms: C2_5  and  N3_6 
REMARK       I    between atoms: C2_5  and  N9_19 
REMARK    1  A    between atoms: N3_6  and  N4_8 
REMARK       I    between atoms: N4_8  and  C3_10 
REMARK       I    between atoms: N6_12  and  C4_14 
REMARK    2  A    between atoms: N9_19  and  N10_21 
ROOT
HETATM    1  N1  UNL     1     -64.604  86.041  95.063  1.00  0.00    -0.171 NA
HETATM    2  C1  UNL     1     -64.236  86.940  95.723  1.00  0.00     0.196 C 
HETATM    3  N2  UNL     1     -63.812  88.018  96.502  1.00  0.00    -0.123 N 
ATOM      4  H2  UNL     1     -63.335  87.839  97.386  1.00  0.00     0.197 HD
HETATM    5  C2  UNL     1     -64.011  89.233  96.126  1.00  0.00     0.721 C 
HETATM    6  N3  UNL     1     -64.676  89.448  94.896  1.00  0.00    -0.128 N 
ATOM      7  H3  UNL     1     -65.459  88.838  94.662  1.00  0.00     0.205 HD
HETATM    8  N9  UNL     1     -63.567  90.317  96.940  1.00  0.00    -0.116 N 
ATOM      9  H9  UNL     1     -63.701  91.275  96.618  1.00  0.00     0.207 HD
ENDROOT
BRANCH   6  10
HETATM   10  N4  UNL     1     -64.330  90.435  93.988  1.00  0.00    -0.259 N 
HETATM   11  C3  UNL     1     -65.286  91.354  93.426  1.00  0.00     0.209 C 
HETATM   12  N5  UNL     1     -66.336  90.871  92.605  1.00  0.00    -0.062 NA
HETATM   13  N6  UNL     1     -65.212  92.617  93.653  1.00  0.00    -0.304 N 
HETATM   14  C4  UNL     1     -66.170  93.485  93.083  1.00  0.00     0.188 C 
ATOM     15  H6  UNL     1     -64.466  92.990  94.240  1.00  0.00     0.171 HD
HETATM   16  N7  UNL     1     -67.430  93.388  93.336  1.00  0.00    -0.373 N 
HETATM   17  N8  UNL     1     -65.732  94.500  92.200  1.00  0.00    -0.064 NA
ATOM     18  H72 UNL     1     -67.746  92.657  93.973  1.00  0.00     0.158 HD
ATOM     19  H71 UNL     1     -68.122  94.015  92.924  1.00  0.00     0.158 HD
ATOM     20  H4  UNL     1     -63.354  90.516  93.705  1.00  0.00     0.190 HD
ENDBRANCH   6  10
BRANCH   8  21
HETATM   21  N10 UNL     1     -62.982  90.095  98.114  1.00  0.00    -0.223 N 
HETATM   22  C5  UNL     1     -61.694  90.533  98.390  1.00  0.00     0.168 C 
HETATM   23  C6  UNL     1     -61.490  90.135  99.859  1.00  0.00     0.058 C 
HETATM   24  C7  UNL     1     -62.615  89.111 100.055  1.00  0.00     0.175 C 
HETATM   25  S1  UNL     1     -63.131  89.106 101.781  1.00  0.00    -0.072 SA
HETATM   26  N11 UNL     1     -63.653  89.642  99.176  1.00  0.00    -0.106 NA
ENDBRANCH   8  21
TORSDOF 2
ENDMDL
MODEL 4
REMARK VINA RESULT: -7.208201483      2.192      4.977
REMARK  2 active torsions:
REMARK  status: ('A' for Active; 'I' for Inactive)
REMARK       I    between atoms: C2_5  and  N3_6 
REMARK       I    between atoms: C2_5  and  N9_19 
REMARK    1  A    between atoms: N3_6  and  N4_8 
REMARK       I    between atoms: N4_8  and  C3_10 
REMARK       I    between atoms: N6_12  and  C4_14 
REMARK    2  A    between atoms: N9_19  and  N10_21 
ROOT
HETATM    1  N1  UNL     1     -64.675  85.743  94.698  1.00  0.00    -0.171 NA
HETATM    2  C1  UNL     1     -64.531  86.759  95.269  1.00  0.00     0.196 C 
HETATM    3  N2  UNL     1     -64.375  87.971  95.943  1.00  0.00    -0.123 N 
ATOM      4  H2  UNL     1     -63.771  88.013  96.764  1.00  0.00     0.197 HD
HETATM    5  C2  UNL     1     -64.980  89.037  95.549  1.00  0.00     0.721 C 
HETATM    6  N3  UNL     1     -65.811  88.946  94.408  1.00  0.00    -0.128 N 
ATOM      7  H3  UNL     1     -66.389  88.113  94.302  1.00  0.00     0.205 HD
HETATM    8  N9  UNL     1     -64.804  90.264  96.255  1.00  0.00    -0.116 N 
ATOM      9  H9  UNL     1     -65.260  91.110  95.916  1.00  0.00     0.207 HD
ENDROOT
BRANCH   6  10
HETATM   10  N4  UNL     1     -65.890  89.919  93.425  1.00  0.00    -0.259 N 
HETATM   11  C3  UNL     1     -66.724  91.087  93.542  1.00  0.00     0.209 C 
HETATM   12  N5  UNL     1     -68.134  90.948  93.614  1.00  0.00    -0.062 NA
HETATM   13  N6  UNL     1     -66.219  92.267  93.585  1.00  0.00    -0.304 N 
HETATM   14  C4  UNL     1     -67.073  93.388  93.700  1.00  0.00     0.188 C 
ATOM     15  H6  UNL     1     -65.209  92.395  93.535  1.00  0.00     0.171 HD
HETATM   16  N7  UNL     1     -67.863  93.556  94.704  1.00  0.00    -0.373 N 
HETATM   17  N8  UNL     1     -67.061  94.363  92.676  1.00  0.00    -0.064 NA
ATOM     18  H72 UNL     1     -67.871  92.853  95.443  1.00  0.00     0.158 HD
ATOM     19  H71 UNL     1     -68.479  94.364  94.787  1.00  0.00     0.158 HD
ATOM     20  H4  UNL     1     -65.331  89.803  92.580  1.00  0.00     0.190 HD
ENDBRANCH   6  10
BRANCH   8  21
HETATM   21  N10 UNL     1     -64.051  90.319  97.351  1.00  0.00    -0.223 N 
HETATM   22  C5  UNL     1     -63.204  91.387  97.610  1.00  0.00     0.168 C 
HETATM   23  C6  UNL     1     -62.629  91.058  98.995  1.00  0.00     0.058 C 
HETATM   24  C7  UNL     1     -62.956  89.564  99.112  1.00  0.00     0.175 C 
HETATM   25  S1  UNL     1     -63.159  89.125 100.848  1.00  0.00    -0.072 SA
HETATM   26  N11 UNL     1     -64.215  89.480  98.377  1.00  0.00    -0.106 NA
ENDBRANCH   8  21
TORSDOF 2
ENDMDL
MODEL 5
REMARK VINA RESULT: -7.072480458      2.153      4.421
REMARK  2 active torsions:
REMARK  status: ('A' for Active; 'I' for Inactive)
REMARK       I    between atoms: C2_5  and  N3_6 
REMARK       I    between atoms: C2_5  and  N9_19 
REMARK    1  A    between atoms: N3_6  and  N4_8 
REMARK       I    between atoms: N4_8  and  C3_10 
REMARK       I    between atoms: N6_12  and  C4_14 
REMARK    2  A    between atoms: N9_19  and  N10_21 
ROOT
HETATM    1  N1  UNL     1     -64.540  85.931  94.815  1.00  0.00    -0.171 NA
HETATM    2  C1  UNL     1     -64.341  86.767  95.615  1.00  0.00     0.196 C 
HETATM    3  N2  UNL     1     -64.122  87.761  96.570  1.00  0.00    -0.123 N 
ATOM      4  H2  UNL     1     -63.253  87.760  97.103  1.00  0.00     0.197 HD
HETATM    5  C2  UNL     1     -64.997  88.679  96.791  1.00  0.00     0.721 C 
HETATM    6  N3  UNL     1     -66.193  88.654  96.036  1.00  0.00    -0.128 N 
ATOM      7  H3  UNL     1     -66.623  87.747  95.851  1.00  0.00     0.205 HD
HETATM    8  N9  UNL     1     -64.749  89.684  97.772  1.00  0.00    -0.116 N 
ATOM      9  H9  UNL     1     -65.433  90.426  97.916  1.00  0.00     0.207 HD
ENDROOT
BRANCH   6  10
HETATM   10  N4  UNL     1     -66.818  89.783  95.532  1.00  0.00    -0.259 N 
HETATM   11  C3  UNL     1     -66.134  90.768  94.735  1.00  0.00     0.209 C 
HETATM   12  N5  UNL     1     -65.072  91.522  95.295  1.00  0.00    -0.062 NA
HETATM   13  N6  UNL     1     -66.465  90.984  93.512  1.00  0.00    -0.304 N 
HETATM   14  C4  UNL     1     -65.768  91.960  92.764  1.00  0.00     0.188 C 
ATOM     15  H6  UNL     1     -67.225  90.455  93.085  1.00  0.00     0.171 HD
HETATM   16  N7  UNL     1     -64.502  91.885  92.537  1.00  0.00    -0.373 N 
HETATM   17  N8  UNL     1     -66.487  93.061  92.241  1.00  0.00    -0.064 NA
ATOM     18  H72 UNL     1     -63.984  91.091  92.913  1.00  0.00     0.158 HD
ATOM     19  H71 UNL     1     -63.999  92.589  91.997  1.00  0.00     0.158 HD
ATOM     20  H4  UNL     1     -67.807  89.923  95.735  1.00  0.00     0.190 HD
ENDBRANCH   6  10
BRANCH   8  21
HETATM   21  N10 UNL     1     -63.637  89.667  98.502  1.00  0.00    -0.223 N 
HETATM   22  C5  UNL     1     -62.526  90.430  98.171  1.00  0.00     0.168 C 
HETATM   23  C6  UNL     1     -61.550  90.158  99.324  1.00  0.00     0.058 C 
HETATM   24  C7  UNL     1     -62.154  88.889  99.940  1.00  0.00     0.175 C 
HETATM   25  S1  UNL     1     -61.756  88.822 101.696  1.00  0.00    -0.072 SA
HETATM   26  N11 UNL     1     -63.580  89.102  99.710  1.00  0.00    -0.106 NA
ENDBRANCH   8  21
TORSDOF 2
ENDMDL
