MODEL 1
REMARK VINA RESULT: -6.416687296      0.000      0.000
REMARK  4 active torsions:
REMARK  status: ('A' for Active; 'I' for Inactive)
REMARK       I    between atoms: N1_2  and  C2_4 
REMARK    1  A    between atoms: C2_4  and  C3_6 
REMARK    2  A    between atoms: C3_6  and  N2_7 
REMARK    3  A    between atoms: C3_6  and  C4_11 
REMARK    4  A    between atoms: C4_11  and  N3_14 
ROOT
HETATM    1  N3  UNL     1     -65.539  90.065  94.769  1.00  0.00    -0.284 N 
HETATM    2  C7  UNL     1     -64.339  90.268  95.429  1.00  0.00     0.087 C 
HETATM    3  C8  UNL     1     -63.632  88.993  95.877  1.00  0.00     0.074 C 
HETATM    4  C9  UNL     1     -64.590  87.851  96.118  1.00  0.00     0.237 C 
HETATM    5  N4  UNL     1     -64.088  86.608  95.528  1.00  0.00    -0.073 N 
ATOM      6  H41 UNL     1     -63.712  85.984  96.240  1.00  0.00     0.277 HD
ATOM      7  H42 UNL     1     -63.235  86.770  94.992  1.00  0.00     0.277 HD
HETATM    8  C10 UNL     1     -65.099  85.948  94.726  1.00  0.00     0.259 C 
HETATM    9  C11 UNL     1     -64.598  85.654  93.329  1.00  0.00     0.261 C 
HETATM   10  N5  UNL     1     -63.734  86.680  92.824  1.00  0.00    -0.059 N 
ATOM     11  H51 UNL     1     -63.084  86.295  92.140  1.00  0.00     0.278 HD
ATOM     12  H52 UNL     1     -63.075  86.978  93.543  1.00  0.00     0.278 HD
HETATM   13  C12 UNL     1     -64.423  87.810  92.280  1.00  0.00     0.368 C 
HETATM   14  N6  UNL     1     -64.251  88.999  93.128  1.00  0.00    -0.098 NA
HETATM   15  N7  UNL     1     -65.506  89.432  93.550  1.00  0.00    -0.243 N 
ATOM     16  H7  UNL     1     -66.346  89.288  92.990  1.00  0.00     0.204 HD
ENDROOT
BRANCH   1  17
HETATM   17  C4  UNL     1     -66.626  90.912  95.007  1.00  0.00     0.083 C 
HETATM   18  C5  UNL     1     -67.911  90.293  94.368  1.00  0.00     0.043 C 
HETATM   19  C6  UNL     1     -67.005  91.079  96.462  1.00  0.00     0.043 C 
BRANCH  17  20
HETATM   20  C3  UNL     1     -66.527  92.258  94.355  1.00  0.00     0.303 C 
BRANCH  20  21
HETATM   21  C2  UNL     1     -65.667  92.410  93.190  1.00  0.00     0.250 C 
HETATM   22  N1  UNL     1     -64.393  93.064  93.172  1.00  0.00    -0.364 N 
HETATM   23  C1  UNL     1     -63.590  93.189  91.992  1.00  0.00     0.149 C 
ATOM     24  H1  UNL     1     -64.039  93.461  94.043  1.00  0.00     0.161 HD
HETATM   25  O1  UNL     1     -66.056  91.937  92.070  1.00  0.00    -0.271 OA
ENDBRANCH  20  21
BRANCH  20  26
HETATM   26  N2  UNL     1     -67.893  92.722  94.013  1.00  0.00    -0.064 N 
ATOM     27  H23 UNL     1     -68.111  93.627  94.430  1.00  0.00     0.275 HD
ATOM     28  H22 UNL     1     -67.977  92.992  93.033  1.00  0.00     0.275 HD
ATOM     29  H21 UNL     1     -68.564  92.001  94.275  1.00  0.00     0.275 HD
ENDBRANCH  20  26
ENDBRANCH  17  20
ENDBRANCH   1  17
TORSDOF 4
ENDMDL
MODEL 2
REMARK VINA RESULT: -6.202651124      4.124      5.857
REMARK  4 active torsions:
REMARK  status: ('A' for Active; 'I' for Inactive)
REMARK       I    between atoms: N1_2  and  C2_4 
REMARK    1  A    between atoms: C2_4  and  C3_6 
REMARK    2  A    between atoms: C3_6  and  N2_7 
REMARK    3  A    between atoms: C3_6  and  C4_11 
REMARK    4  A    between atoms: C4_11  and  N3_14 
ROOT
HETATM    1  N3  UNL     1     -64.180  90.122  97.536  1.00  0.00    -0.284 N 
HETATM    2  C7  UNL     1     -65.533  90.413  97.505  1.00  0.00     0.087 C 
HETATM    3  C8  UNL     1     -66.172  90.339  96.122  1.00  0.00     0.074 C 
HETATM    4  C9  UNL     1     -65.185  90.608  95.011  1.00  0.00     0.237 C 
HETATM    5  N4  UNL     1     -65.340  89.640  93.923  1.00  0.00    -0.073 N 
ATOM      6  H41 UNL     1     -65.820  90.053  93.124  1.00  0.00     0.277 HD
ATOM      7  H42 UNL     1     -66.019  88.918  94.162  1.00  0.00     0.277 HD
HETATM    8  C10 UNL     1     -64.069  89.061  93.535  1.00  0.00     0.259 C 
HETATM    9  C11 UNL     1     -64.114  87.550  93.561  1.00  0.00     0.261 C 
HETATM   10  N5  UNL     1     -64.921  87.040  94.630  1.00  0.00    -0.059 N 
ATOM     11  H51 UNL     1     -65.298  86.124  94.386  1.00  0.00     0.278 HD
ATOM     12  H52 UNL     1     -65.789  87.570  94.706  1.00  0.00     0.278 HD
HETATM   13  C12 UNL     1     -64.255  86.986  95.895  1.00  0.00     0.368 C 
HETATM   14  N6  UNL     1     -64.807  87.978  96.830  1.00  0.00    -0.098 NA
HETATM   15  N7  UNL     1     -63.788  88.844  97.217  1.00  0.00    -0.243 N 
ATOM     16  H7  UNL     1     -62.812  88.549  97.261  1.00  0.00     0.204 HD
ENDROOT
BRANCH   1  17
HETATM   17  C4  UNL     1     -63.320  90.855  98.360  1.00  0.00     0.083 C 
HETATM   18  C5  UNL     1     -61.923  90.154  98.400  1.00  0.00     0.043 C 
HETATM   19  C6  UNL     1     -62.996  92.250  97.871  1.00  0.00     0.043 C 
BRANCH  17  20
HETATM   20  C3  UNL     1     -63.725  90.907  99.802  1.00  0.00     0.303 C 
BRANCH  20  21
HETATM   21  C2  UNL     1     -63.314  89.824 100.683  1.00  0.00     0.250 C 
HETATM   22  N1  UNL     1     -62.496  89.962 101.851  1.00  0.00    -0.364 N 
HETATM   23  C1  UNL     1     -62.118  88.857 102.681  1.00  0.00     0.149 C 
ATOM     24  H1  UNL     1     -62.165  90.893 102.104  1.00  0.00     0.161 HD
HETATM   25  O1  UNL     1     -63.694  88.635 100.418  1.00  0.00    -0.271 OA
ENDBRANCH  20  21
BRANCH  20  26
HETATM   26  N2  UNL     1     -63.272  92.197 100.375  1.00  0.00    -0.064 N 
ATOM     27  H23 UNL     1     -62.991  92.110 101.352  1.00  0.00     0.275 HD
ATOM     28  H22 UNL     1     -62.375  92.497  99.995  1.00  0.00     0.275 HD
ATOM     29  H21 UNL     1     -64.003  92.895 100.243  1.00  0.00     0.275 HD
ENDBRANCH  20  26
ENDBRANCH  17  20
ENDBRANCH   1  17
TORSDOF 4
ENDMDL
MODEL 3
REMARK VINA RESULT: -6.152416365      1.884      5.451
REMARK  4 active torsions:
REMARK  status: ('A' for Active; 'I' for Inactive)
REMARK       I    between atoms: N1_2  and  C2_4 
REMARK    1  A    between atoms: C2_4  and  C3_6 
REMARK    2  A    between atoms: C3_6  and  N2_7 
REMARK    3  A    between atoms: C3_6  and  C4_11 
REMARK    4  A    between atoms: C4_11  and  N3_14 
ROOT
HETATM    1  N3  UNL     1     -65.638  90.543  95.233  1.00  0.00    -0.284 N 
HETATM    2  C7  UNL     1     -66.625  89.875  94.528  1.00  0.00     0.087 C 
HETATM    3  C8  UNL     1     -67.562  90.776  93.732  1.00  0.00     0.074 C 
HETATM    4  C9  UNL     1     -67.684  92.159  94.326  1.00  0.00     0.237 C 
HETATM    5  N4  UNL     1     -67.599  93.188  93.287  1.00  0.00    -0.073 N 
ATOM      6  H41 UNL     1     -68.516  93.579  93.075  1.00  0.00     0.277 HD
ATOM      7  H42 UNL     1     -67.384  92.781  92.377  1.00  0.00     0.277 HD
HETATM    8  C10 UNL     1     -66.651  94.227  93.638  1.00  0.00     0.259 C 
HETATM    9  C11 UNL     1     -65.628  94.440  92.544  1.00  0.00     0.261 C 
HETATM   10  N5  UNL     1     -65.257  93.220  91.889  1.00  0.00    -0.059 N 
ATOM     11  H51 UNL     1     -64.954  93.405  90.933  1.00  0.00     0.278 HD
ATOM     12  H52 UNL     1     -66.083  92.650  91.702  1.00  0.00     0.278 HD
HETATM   13  C12 UNL     1     -64.270  92.456  92.588  1.00  0.00     0.368 C 
HETATM   14  N6  UNL     1     -64.844  91.217  93.135  1.00  0.00    -0.098 NA
HETATM   15  N7  UNL     1     -64.681  91.222  94.518  1.00  0.00    -0.243 N 
ATOM     16  H7  UNL     1     -63.902  91.699  94.971  1.00  0.00     0.204 HD
ENDROOT
BRANCH   1  17
HETATM   17  C4  UNL     1     -65.278  90.118  96.516  1.00  0.00     0.083 C 
HETATM   18  C5  UNL     1     -63.980  90.866  96.962  1.00  0.00     0.043 C 
HETATM   19  C6  UNL     1     -66.269  90.459  97.608  1.00  0.00     0.043 C 
BRANCH  17  20
HETATM   20  C3  UNL     1     -64.898  88.672  96.615  1.00  0.00     0.303 C 
BRANCH  20  21
HETATM   21  C2  UNL     1     -64.429  87.989  95.419  1.00  0.00     0.250 C 
HETATM   22  N1  UNL     1     -65.109  86.924  94.743  1.00  0.00    -0.364 N 
HETATM   23  C1  UNL     1     -64.595  86.284  93.569  1.00  0.00     0.149 C 
ATOM     24  H1  UNL     1     -66.004  86.607  95.116  1.00  0.00     0.161 HD
HETATM   25  O1  UNL     1     -63.314  88.339  94.906  1.00  0.00    -0.271 OA
ENDBRANCH  20  21
BRANCH  20  26
HETATM   26  N2  UNL     1     -63.888  88.519  97.689  1.00  0.00    -0.064 N 
ATOM     27  H23 UNL     1     -63.029  89.033  97.490  1.00  0.00     0.275 HD
ATOM     28  H22 UNL     1     -64.153  89.007  98.543  1.00  0.00     0.275 HD
ATOM     29  H21 UNL     1     -63.717  87.526  97.846  1.00  0.00     0.275 HD
ENDBRANCH  20  26
ENDBRANCH  17  20
ENDBRANCH   1  17
TORSDOF 4
ENDMDL
MODEL 4
REMARK VINA RESULT: -5.797931283      4.382      6.039
REMARK  4 active torsions:
REMARK  status: ('A' for Active; 'I' for Inactive)
REMARK       I    between atoms: N1_2  and  C2_4 
REMARK    1  A    between atoms: C2_4  and  C3_6 
REMARK    2  A    between atoms: C3_6  and  N2_7 
REMARK    3  A    between atoms: C3_6  and  C4_11 
REMARK    4  A    between atoms: C4_11  and  N3_14 
ROOT
HETATM    1  N3  UNL     1     -63.872  89.697  97.832  1.00  0.00    -0.284 N 
HETATM    2  C7  UNL     1     -65.163  90.193  97.889  1.00  0.00     0.087 C 
HETATM    3  C8  UNL     1     -65.795  90.488  96.533  1.00  0.00     0.074 C 
HETATM    4  C9  UNL     1     -64.771  90.814  95.472  1.00  0.00     0.237 C 
HETATM    5  N4  UNL     1     -65.066  90.110  94.222  1.00  0.00    -0.073 N 
ATOM      6  H41 UNL     1     -65.471  90.739  93.528  1.00  0.00     0.277 HD
ATOM      7  H42 UNL     1     -65.851  89.469  94.332  1.00  0.00     0.277 HD
HETATM    8  C10 UNL     1     -63.897  89.430  93.700  1.00  0.00     0.259 C 
HETATM    9  C11 UNL     1     -64.176  87.967  93.434  1.00  0.00     0.261 C 
HETATM   10  N5  UNL     1     -65.061  87.389  94.403  1.00  0.00    -0.059 N 
ATOM     11  H51 UNL     1     -65.574  86.607  93.997  1.00  0.00     0.278 HD
ATOM     12  H52 UNL     1     -65.836  88.022  94.601  1.00  0.00     0.278 HD
HETATM   13  C12 UNL     1     -64.420  86.990  95.618  1.00  0.00     0.368 C 
HETATM   14  N6  UNL     1     -64.819  87.853  96.740  1.00  0.00    -0.098 NA
HETATM   15  N7  UNL     1     -63.680  88.461  97.263  1.00  0.00    -0.243 N 
ATOM     16  H7  UNL     1     -62.762  88.017  97.227  1.00  0.00     0.204 HD
ENDROOT
BRANCH   1  17
HETATM   17  C4  UNL     1     -62.914  90.116  98.761  1.00  0.00     0.083 C 
HETATM   18  C5  UNL     1     -62.633  88.954  99.769  1.00  0.00     0.043 C 
HETATM   19  C6  UNL     1     -61.547  90.416  98.185  1.00  0.00     0.043 C 
BRANCH  17  20
HETATM   20  C3  UNL     1     -63.348  91.246  99.644  1.00  0.00     0.303 C 
BRANCH  20  21
HETATM   21  C2  UNL     1     -62.951  91.232 101.045  1.00  0.00     0.250 C 
HETATM   22  N1  UNL     1     -63.696  90.643 102.118  1.00  0.00    -0.364 N 
HETATM   23  C1  UNL     1     -63.258  90.664 103.482  1.00  0.00     0.149 C 
ATOM     24  H1  UNL     1     -64.582  90.187 101.900  1.00  0.00     0.161 HD
HETATM   25  O1  UNL     1     -61.854  91.790 101.380  1.00  0.00    -0.271 OA
ENDBRANCH  20  21
BRANCH  20  26
HETATM   26  N2  UNL     1     -62.912  92.523  99.030  1.00  0.00    -0.064 N 
ATOM     27  H23 UNL     1     -63.314  93.336  99.497  1.00  0.00     0.275 HD
ATOM     28  H22 UNL     1     -61.929  92.725  99.212  1.00  0.00     0.275 HD
ATOM     29  H21 UNL     1     -63.126  92.503  98.033  1.00  0.00     0.275 HD
ENDBRANCH  20  26
ENDBRANCH  17  20
ENDBRANCH   1  17
TORSDOF 4
ENDMDL
MODEL 5
REMARK VINA RESULT: -5.672008990      4.375      6.119
REMARK  4 active torsions:
REMARK  status: ('A' for Active; 'I' for Inactive)
REMARK       I    between atoms: N1_2  and  C2_4 
REMARK    1  A    between atoms: C2_4  and  C3_6 
REMARK    2  A    between atoms: C3_6  and  N2_7 
REMARK    3  A    between atoms: C3_6  and  C4_11 
REMARK    4  A    between atoms: C4_11  and  N3_14 
ROOT
HETATM    1  N3  UNL     1     -63.584  90.123  98.035  1.00  0.00    -0.284 N 
HETATM    2  C7  UNL     1     -63.020  91.386  97.974  1.00  0.00     0.087 C 
HETATM    3  C8  UNL     1     -62.907  92.102  99.316  1.00  0.00     0.074 C 
HETATM    4  C9  UNL     1     -63.954  91.650 100.306  1.00  0.00     0.237 C 
HETATM    5  N4  UNL     1     -63.366  91.420 101.627  1.00  0.00    -0.073 N 
ATOM      6  H41 UNL     1     -63.587  92.180 102.270  1.00  0.00     0.277 HD
ATOM      7  H42 UNL     1     -62.351  91.521 101.605  1.00  0.00     0.277 HD
HETATM    8  C10 UNL     1     -63.756  90.135 102.172  1.00  0.00     0.259 C 
HETATM    9  C11 UNL     1     -62.553  89.316 102.586  1.00  0.00     0.261 C 
HETATM   10  N5  UNL     1     -61.435  89.495 101.707  1.00  0.00    -0.059 N 
ATOM     11  H51 UNL     1     -60.560  89.327 102.203  1.00  0.00     0.278 HD
ATOM     12  H52 UNL     1     -61.317  90.482 101.476  1.00  0.00     0.278 HD
HETATM   13  C12 UNL     1     -61.494  88.706 100.515  1.00  0.00     0.368 C 
HETATM   14  N6  UNL     1     -61.719  89.547  99.330  1.00  0.00    -0.098 NA
HETATM   15  N7  UNL     1     -62.900  89.143  98.713  1.00  0.00    -0.243 N 
ATOM     16  H7  UNL     1     -63.236  88.181  98.761  1.00  0.00     0.204 HD
ENDROOT
BRANCH   1  17
HETATM   17  C4  UNL     1     -64.468  89.697  97.038  1.00  0.00     0.083 C 
HETATM   18  C5  UNL     1     -64.704  88.158  97.183  1.00  0.00     0.043 C 
HETATM   19  C6  UNL     1     -65.864  90.274  97.127  1.00  0.00     0.043 C 
BRANCH  17  20
HETATM   20  C3  UNL     1     -63.952  89.840  95.639  1.00  0.00     0.303 C 
BRANCH  20  21
HETATM   21  C2  UNL     1     -63.844  88.650  94.808  1.00  0.00     0.250 C 
HETATM   22  N1  UNL     1     -64.833  88.187  93.880  1.00  0.00    -0.364 N 
HETATM   23  C1  UNL     1     -64.675  87.002  93.090  1.00  0.00     0.149 C 
ATOM     24  H1  UNL     1     -65.692  88.728  93.777  1.00  0.00     0.161 HD
HETATM   25  O1  UNL     1     -62.794  87.929  94.894  1.00  0.00    -0.271 OA
ENDBRANCH  20  21
BRANCH  20  26
HETATM   26  N2  UNL     1     -64.771  90.853  94.931  1.00  0.00    -0.064 N 
ATOM     27  H23 UNL     1     -65.316  90.447  94.170  1.00  0.00     0.275 HD
ATOM     28  H22 UNL     1     -65.548  91.189  95.500  1.00  0.00     0.275 HD
ATOM     29  H21 UNL     1     -64.165  91.609  94.615  1.00  0.00     0.275 HD
ENDBRANCH  20  26
ENDBRANCH  17  20
ENDBRANCH   1  17
TORSDOF 4
ENDMDL
