MODEL 1
REMARK VINA RESULT: -9.142292482      0.000      0.000
REMARK  4 active torsions:
REMARK  status: ('A' for Active; 'I' for Inactive)
REMARK    1  A    between atoms: C5_6  and  C6_7 
REMARK    2  A    between atoms: C6_7  and  N8_21 
REMARK    3  A    between atoms: N2_8  and  N3_10 
REMARK       I    between atoms: N3_10  and  C7_12 
REMARK       I    between atoms: C7_12  and  N5_16 
REMARK    4  A    between atoms: N8_21  and  N9_23 
ROOT
HETATM    1  C6  UNL     1     -64.614  90.092  94.149  1.00  0.00     0.141 C 
HETATM    2  N2  UNL     1     -64.651  89.273  93.173  1.00  0.00    -0.270 N 
ATOM      3  H2  UNL     1     -65.130  89.581  92.326  1.00  0.00     0.189 HD
ENDROOT
BRANCH   1   4
HETATM    4  C5  UNL     1     -65.236  91.388  94.017  1.00  0.00    -0.004 C 
HETATM    5  C4  UNL     1     -66.517  91.581  94.746  1.00  0.00     0.044 C 
HETATM    6  C3  UNL     1     -67.596  92.042  93.787  1.00  0.00     0.035 C 
HETATM    7  C2  UNL     1     -67.356  93.516  93.542  1.00  0.00     0.275 C 
HETATM    8  N1  UNL     1     -66.391  93.765  92.520  1.00  0.00     0.119 N 
HETATM    9  C1  UNL     1     -66.551  95.151  92.091  1.00  0.00     0.312 C 
HETATM   10  C11 UNL     1     -65.015  93.640  92.963  1.00  0.00     0.451 C 
HETATM   11  C9  UNL     1     -64.606  92.267  93.264  1.00  0.00     0.016 C 
HETATM   12  N10 UNL     1     -64.108  93.679  91.819  1.00  0.00    -0.036 N 
HETATM   13  C10 UNL     1     -63.422  92.522  92.415  1.00  0.00     0.274 C 
ATOM     14 2H10 UNL     1     -63.599  94.529  91.578  1.00  0.00     0.280 HD
ATOM     15 1H10 UNL     1     -64.462  93.649  90.863  1.00  0.00     0.280 HD
ENDBRANCH   1   4
BRANCH   1  16
HETATM   16  N8  UNL     1     -63.973  89.746  95.355  1.00  0.00    -0.291 N 
ATOM     17  H8  UNL     1     -63.013  90.051  95.513  1.00  0.00     0.188 HD
BRANCH  16  18
HETATM   18  N9  UNL     1     -64.620  88.995  96.340  1.00  0.00    -0.344 N 
ATOM     19  H92 UNL     1     -65.639  88.947  96.316  1.00  0.00     0.176 HD
ATOM     20  H91 UNL     1     -64.100  88.503  97.066  1.00  0.00     0.176 HD
ENDBRANCH  16  18
ENDBRANCH   1  16
BRANCH   2  21
HETATM   21  N3  UNL     1     -64.094  87.994  93.158  1.00  0.00    -0.131 N 
HETATM   22  C7  UNL     1     -64.569  87.021  92.220  1.00  0.00     0.692 C 
HETATM   23  N4  UNL     1     -64.977  87.327  91.048  1.00  0.00    -0.233 N 
HETATM   24  N5  UNL     1     -64.588  85.658  92.604  1.00  0.00    -0.165 N 
ATOM     25  H42 UNL     1     -64.963  88.309  90.772  1.00  0.00     0.174 HD
ATOM     26  H41 UNL     1     -65.316  86.634  90.380  1.00  0.00     0.174 HD
HETATM   27  C8  UNL     1     -65.022  85.346  93.773  1.00  0.00     0.215 C 
ATOM     28  H5  UNL     1     -64.262  84.935  91.963  1.00  0.00     0.186 HD
HETATM   29  N6  UNL     1     -65.472  86.332  94.662  1.00  0.00    -0.066 NA
HETATM   30  N7  UNL     1     -65.033  83.970  94.137  1.00  0.00    -0.066 NA
ATOM     31  H3  UNL     1     -63.351  87.751  93.815  1.00  0.00     0.205 HD
ENDBRANCH   2  21
TORSDOF 4
ENDMDL
MODEL 2
REMARK VINA RESULT: -7.733714362      0.960      2.097
REMARK  4 active torsions:
REMARK  status: ('A' for Active; 'I' for Inactive)
REMARK    1  A    between atoms: C5_6  and  C6_7 
REMARK    2  A    between atoms: C6_7  and  N8_21 
REMARK    3  A    between atoms: N2_8  and  N3_10 
REMARK       I    between atoms: N3_10  and  C7_12 
REMARK       I    between atoms: C7_12  and  N5_16 
REMARK    4  A    between atoms: N8_21  and  N9_23 
ROOT
HETATM    1  C6  UNL     1     -64.543  90.246  93.553  1.00  0.00     0.141 C 
HETATM    2  N2  UNL     1     -64.427  89.292  92.715  1.00  0.00    -0.270 N 
ATOM      3  H2  UNL     1     -64.694  89.487  91.750  1.00  0.00     0.189 HD
ENDROOT
BRANCH   1   4
HETATM    4  C5  UNL     1     -65.033  91.529  93.111  1.00  0.00    -0.004 C 
HETATM    5  C4  UNL     1     -64.076  92.375  92.352  1.00  0.00     0.044 C 
HETATM    6  C3  UNL     1     -63.952  93.736  93.007  1.00  0.00     0.035 C 
HETATM    7  C2  UNL     1     -65.180  94.523  92.603  1.00  0.00     0.275 C 
HETATM    8  N1  UNL     1     -66.311  94.265  93.433  1.00  0.00     0.119 N 
HETATM    9  C1  UNL     1     -67.266  95.351  93.227  1.00  0.00     0.312 C 
HETATM   10  C11 UNL     1     -67.019  93.043  93.105  1.00  0.00     0.451 C 
HETATM   11  C9  UNL     1     -66.280  91.820  93.425  1.00  0.00     0.016 C 
HETATM   12  N10 UNL     1     -68.008  92.736  94.135  1.00  0.00    -0.036 N 
HETATM   13  C10 UNL     1     -67.510  91.352  94.100  1.00  0.00     0.274 C 
ATOM     14 2H10 UNL     1     -68.996  92.946  93.997  1.00  0.00     0.280 HD
ATOM     15 1H10 UNL     1     -68.043  93.264  95.008  1.00  0.00     0.280 HD
ENDBRANCH   1   4
BRANCH   1  16
HETATM   16  N8  UNL     1     -64.197  90.061  94.906  1.00  0.00    -0.291 N 
ATOM     17  H8  UNL     1     -63.251  90.290  95.213  1.00  0.00     0.188 HD
BRANCH  16  18
HETATM   18  N9  UNL     1     -65.116  89.571  95.838  1.00  0.00    -0.344 N 
ATOM     19  H92 UNL     1     -65.642  90.244  96.395  1.00  0.00     0.176 HD
ATOM     20  H91 UNL     1     -65.266  88.570  95.967  1.00  0.00     0.176 HD
ENDBRANCH  16  18
ENDBRANCH   1  16
BRANCH   2  21
HETATM   21  N3  UNL     1     -63.969  88.005  93.000  1.00  0.00    -0.131 N 
HETATM   22  C7  UNL     1     -64.465  86.890  92.251  1.00  0.00     0.692 C 
HETATM   23  N4  UNL     1     -64.786  86.970  91.016  1.00  0.00    -0.233 N 
HETATM   24  N5  UNL     1     -64.607  85.641  92.903  1.00  0.00    -0.165 N 
ATOM     25  H42 UNL     1     -64.684  87.870  90.547  1.00  0.00     0.174 HD
ATOM     26  H41 UNL     1     -65.140  86.175  90.483  1.00  0.00     0.174 HD
HETATM   27  C8  UNL     1     -65.125  85.607  94.078  1.00  0.00     0.215 C 
ATOM     28  H5  UNL     1     -64.303  84.781  92.446  1.00  0.00     0.186 HD
HETATM   29  N6  UNL     1     -65.546  86.784  94.715  1.00  0.00    -0.066 NA
HETATM   30  N7  UNL     1     -65.259  84.341  94.714  1.00  0.00    -0.066 NA
ATOM     31  H3  UNL     1     -63.282  87.859  93.741  1.00  0.00     0.205 HD
ENDBRANCH   2  21
TORSDOF 4
ENDMDL
MODEL 3
REMARK VINA RESULT: -6.836075150      2.085      4.198
REMARK  4 active torsions:
REMARK  status: ('A' for Active; 'I' for Inactive)
REMARK    1  A    between atoms: C5_6  and  C6_7 
REMARK    2  A    between atoms: C6_7  and  N8_21 
REMARK    3  A    between atoms: N2_8  and  N3_10 
REMARK       I    between atoms: N3_10  and  C7_12 
REMARK       I    between atoms: C7_12  and  N5_16 
REMARK    4  A    between atoms: N8_21  and  N9_23 
ROOT
HETATM    1  C6  UNL     1     -64.317  90.267  94.186  1.00  0.00     0.141 C 
HETATM    2  N2  UNL     1     -64.038  90.415  95.421  1.00  0.00    -0.270 N 
ATOM      3  H2  UNL     1     -64.234  91.325  95.837  1.00  0.00     0.189 HD
ENDROOT
BRANCH   1   4
HETATM    4  C5  UNL     1     -64.885  91.369  93.447  1.00  0.00    -0.004 C 
HETATM    5  C4  UNL     1     -63.995  92.028  92.457  1.00  0.00     0.044 C 
HETATM    6  C3  UNL     1     -63.922  93.516  92.732  1.00  0.00     0.035 C 
HETATM    7  C2  UNL     1     -65.200  94.119  92.188  1.00  0.00     0.275 C 
HETATM    8  N1  UNL     1     -66.292  94.038  93.102  1.00  0.00     0.119 N 
HETATM    9  C1  UNL     1     -67.307  94.991  92.661  1.00  0.00     0.312 C 
HETATM   10  C11 UNL     1     -66.946  92.744  93.131  1.00  0.00     0.451 C 
HETATM   11  C9  UNL     1     -66.136  91.678  93.726  1.00  0.00     0.016 C 
HETATM   12  N10 UNL     1     -67.887  92.674  94.244  1.00  0.00    -0.036 N 
HETATM   13  C10 UNL     1     -67.321  91.351  94.548  1.00  0.00     0.274 C 
ATOM     14 2H10 UNL     1     -68.889  92.799  94.098  1.00  0.00     0.280 HD
ATOM     15 1H10 UNL     1     -67.925  93.409  94.952  1.00  0.00     0.280 HD
ENDBRANCH   1   4
BRANCH   1  16
HETATM   16  N8  UNL     1     -64.075  89.042  93.535  1.00  0.00    -0.291 N 
ATOM     17  H8  UNL     1     -63.117  88.786  93.296  1.00  0.00     0.188 HD
BRANCH  16  18
HETATM   18  N9  UNL     1     -65.114  88.167  93.208  1.00  0.00    -0.344 N 
ATOM     19  H92 UNL     1     -65.637  87.735  93.970  1.00  0.00     0.176 HD
ATOM     20  H91 UNL     1     -65.354  87.959  92.239  1.00  0.00     0.176 HD
ENDBRANCH  16  18
ENDBRANCH   1  16
BRANCH   2  21
HETATM   21  N3  UNL     1     -63.487  89.441  96.256  1.00  0.00    -0.131 N 
HETATM   22  C7  UNL     1     -64.343  88.649  97.087  1.00  0.00     0.692 C 
HETATM   23  N4  UNL     1     -65.523  88.301  96.739  1.00  0.00    -0.233 N 
HETATM   24  N5  UNL     1     -63.865  88.229  98.352  1.00  0.00    -0.165 N 
ATOM     25  H42 UNL     1     -65.867  88.604  95.827  1.00  0.00     0.174 HD
ATOM     26  H41 UNL     1     -66.133  87.737  97.331  1.00  0.00     0.174 HD
HETATM   27  C8  UNL     1     -63.240  89.072  99.094  1.00  0.00     0.215 C 
ATOM     28  H5  UNL     1     -64.014  87.271  98.670  1.00  0.00     0.186 HD
HETATM   29  N6  UNL     1     -63.031  90.391  98.666  1.00  0.00    -0.066 NA
HETATM   30  N7  UNL     1     -62.769  88.629 100.361  1.00  0.00    -0.066 NA
ATOM     31  H3  UNL     1     -62.477  89.294  96.274  1.00  0.00     0.205 HD
ENDBRANCH   2  21
TORSDOF 4
ENDMDL
MODEL 4
REMARK VINA RESULT: -6.729529685      1.373      2.501
REMARK  4 active torsions:
REMARK  status: ('A' for Active; 'I' for Inactive)
REMARK    1  A    between atoms: C5_6  and  C6_7 
REMARK    2  A    between atoms: C6_7  and  N8_21 
REMARK    3  A    between atoms: N2_8  and  N3_10 
REMARK       I    between atoms: N3_10  and  C7_12 
REMARK       I    between atoms: C7_12  and  N5_16 
REMARK    4  A    between atoms: N8_21  and  N9_23 
ROOT
HETATM    1  C6  UNL     1     -65.257  90.070  94.484  1.00  0.00     0.141 C 
HETATM    2  N2  UNL     1     -65.677  88.935  94.085  1.00  0.00    -0.270 N 
ATOM      3  H2  UNL     1     -66.107  88.898  93.160  1.00  0.00     0.189 HD
ENDROOT
BRANCH   1   4
HETATM    4  C5  UNL     1     -65.405  91.226  93.633  1.00  0.00    -0.004 C 
HETATM    5  C4  UNL     1     -64.289  91.497  92.689  1.00  0.00     0.044 C 
HETATM    6  C3  UNL     1     -63.777  92.910  92.881  1.00  0.00     0.035 C 
HETATM    7  C2  UNL     1     -64.765  93.825  92.189  1.00  0.00     0.275 C 
HETATM    8  N1  UNL     1     -65.888  94.158  93.004  1.00  0.00     0.119 N 
HETATM    9  C1  UNL     1     -66.525  95.334  92.418  1.00  0.00     0.312 C 
HETATM   10  C11 UNL     1     -66.911  93.131  93.051  1.00  0.00     0.451 C 
HETATM   11  C9  UNL     1     -66.514  91.924  93.778  1.00  0.00     0.016 C 
HETATM   12  N10 UNL     1     -67.901  93.446  94.077  1.00  0.00    -0.036 N 
HETATM   13  C10 UNL     1     -67.794  92.044  94.509  1.00  0.00     0.274 C 
ATOM     14 2H10 UNL     1     -68.802  93.856  93.833  1.00  0.00     0.280 HD
ATOM     15 1H10 UNL     1     -67.757  94.214  94.733  1.00  0.00     0.280 HD
ENDBRANCH   1   4
BRANCH   1  16
HETATM   16  N8  UNL     1     -64.652  90.209  95.749  1.00  0.00    -0.291 N 
ATOM     17  H8  UNL     1     -63.635  90.168  95.820  1.00  0.00     0.188 HD
BRANCH  16  18
HETATM   18  N9  UNL     1     -65.409  90.399  96.908  1.00  0.00    -0.344 N 
ATOM     19  H92 UNL     1     -66.351  90.777  96.810  1.00  0.00     0.176 HD
ATOM     20  H91 UNL     1     -65.041  90.171  97.831  1.00  0.00     0.176 HD
ENDBRANCH  16  18
ENDBRANCH   1  16
BRANCH   2  21
HETATM   21  N3  UNL     1     -65.601  87.738  94.798  1.00  0.00    -0.131 N 
HETATM   22  C7  UNL     1     -64.354  87.038  94.883  1.00  0.00     0.692 C 
HETATM   23  N4  UNL     1     -63.224  87.633  94.916  1.00  0.00    -0.233 N 
HETATM   24  N5  UNL     1     -64.371  85.623  94.933  1.00  0.00    -0.165 N 
ATOM     25  H42 UNL     1     -63.212  88.653  94.881  1.00  0.00     0.174 HD
ATOM     26  H41 UNL     1     -62.335  87.134  94.977  1.00  0.00     0.174 HD
HETATM   27  C8  UNL     1     -65.148  84.980  94.137  1.00  0.00     0.215 C 
ATOM     28  H5  UNL     1     -63.774  85.121  95.591  1.00  0.00     0.186 HD
HETATM   29  N6  UNL     1     -65.971  85.661  93.228  1.00  0.00    -0.066 NA
HETATM   30  N7  UNL     1     -65.147  83.559  94.204  1.00  0.00    -0.066 NA
ATOM     31  H3  UNL     1     -66.431  87.363  95.258  1.00  0.00     0.205 HD
ENDBRANCH   2  21
TORSDOF 4
ENDMDL
MODEL 5
REMARK VINA RESULT: -6.579688134      3.966      5.719
REMARK  4 active torsions:
REMARK  status: ('A' for Active; 'I' for Inactive)
REMARK    1  A    between atoms: C5_6  and  C6_7 
REMARK    2  A    between atoms: C6_7  and  N8_21 
REMARK    3  A    between atoms: N2_8  and  N3_10 
REMARK       I    between atoms: N3_10  and  C7_12 
REMARK       I    between atoms: C7_12  and  N5_16 
REMARK    4  A    between atoms: N8_21  and  N9_23 
ROOT
HETATM    1  C6  UNL     1     -63.946  88.729  96.807  1.00  0.00     0.141 C 
HETATM    2  N2  UNL     1     -63.021  88.691  95.931  1.00  0.00    -0.270 N 
ATOM      3  H2  UNL     1     -62.233  89.326  96.059  1.00  0.00     0.189 HD
ENDROOT
BRANCH   1   4
HETATM    4  C5  UNL     1     -63.842  89.648  97.915  1.00  0.00    -0.004 C 
HETATM    5  C4  UNL     1     -64.193  91.064  97.632  1.00  0.00     0.044 C 
HETATM    6  C3  UNL     1     -63.047  91.973  98.030  1.00  0.00     0.035 C 
HETATM    7  C2  UNL     1     -63.111  92.115  99.536  1.00  0.00     0.275 C 
HETATM    8  N1  UNL     1     -62.461  91.050 100.228  1.00  0.00     0.119 N 
HETATM    9  C1  UNL     1     -62.222  91.496 101.598  1.00  0.00     0.312 C 
HETATM   10  C11 UNL     1     -63.255  89.841 100.334  1.00  0.00     0.451 C 
HETATM   11  C9  UNL     1     -63.447  89.138  99.064  1.00  0.00     0.016 C 
HETATM   12  N10 UNL     1     -62.441  88.741 100.842  1.00  0.00    -0.036 N 
HETATM   13  C10 UNL     1     -63.023  87.912  99.775  1.00  0.00     0.274 C 
ATOM     14 2H10 UNL     1     -62.490  88.455 101.819  1.00  0.00     0.280 HD
ATOM     15 1H10 UNL     1     -61.430  88.835 100.946  1.00  0.00     0.280 HD
ENDBRANCH   1   4
BRANCH   1  16
HETATM   16  N8  UNL     1     -65.069  87.886  96.704  1.00  0.00    -0.291 N 
ATOM     17  H8  UNL     1     -64.985  86.909  96.986  1.00  0.00     0.188 HD
BRANCH  16  18
HETATM   18  N9  UNL     1     -66.296  88.352  96.224  1.00  0.00    -0.344 N 
ATOM     19  H92 UNL     1     -66.363  88.601  95.237  1.00  0.00     0.176 HD
ATOM     20  H91 UNL     1     -67.109  88.445  96.833  1.00  0.00     0.176 HD
ENDBRANCH  16  18
ENDBRANCH   1  16
BRANCH   2  21
HETATM   21  N3  UNL     1     -62.988  87.857  94.812  1.00  0.00    -0.131 N 
HETATM   22  C7  UNL     1     -63.905  88.076  93.734  1.00  0.00     0.692 C 
HETATM   23  N4  UNL     1     -64.312  89.239  93.393  1.00  0.00    -0.233 N 
HETATM   24  N5  UNL     1     -64.383  86.957  93.009  1.00  0.00    -0.165 N 
ATOM     25  H42 UNL     1     -63.968  90.045  93.915  1.00  0.00     0.174 HD
ATOM     26  H41 UNL     1     -64.966  89.395  92.625  1.00  0.00     0.174 HD
HETATM   27  C8  UNL     1     -64.753  85.909  93.654  1.00  0.00     0.215 C 
ATOM     28  H5  UNL     1     -64.434  86.984  91.991  1.00  0.00     0.186 HD
HETATM   29  N6  UNL     1     -64.687  85.863  95.054  1.00  0.00    -0.066 NA
HETATM   30  N7  UNL     1     -65.231  84.797  92.905  1.00  0.00    -0.066 NA
ATOM     31  H3  UNL     1     -62.314  87.092  94.763  1.00  0.00     0.205 HD
ENDBRANCH   2  21
TORSDOF 4
ENDMDL
