MODEL 1
REMARK VINA RESULT: -7.405308528      0.000      0.000
REMARK  6 active torsions:
REMARK  status: ('A' for Active; 'I' for Inactive)
REMARK    1  A    between atoms: S1_2  and  N1_5 
REMARK       I    between atoms: C2_7  and  N2_8 
REMARK       I    between atoms: C2_7  and  N6_19 
REMARK    2  A    between atoms: N2_8  and  N3_10 
REMARK    3  A    between atoms: N3_10  and  C3_12 
REMARK    4  A    between atoms: C3_12  and  N4_14 
REMARK    5  A    between atoms: N4_14  and  N5_16 
REMARK       I    between atoms: N6_19  and  C4_21 
REMARK       I    between atoms: C4_21  and  N7_23 
REMARK    6  A    between atoms: N7_23  and  N8_25 
ROOT
HETATM    1  N1  UNL     1     -64.149  87.167  96.108  1.00  0.00    -0.115 N 
ATOM      2  H1  UNL     1     -63.476  86.528  96.530  1.00  0.00     0.197 HD
HETATM    3  C2  UNL     1     -64.345  88.238  96.732  1.00  0.00     0.710 C 
HETATM    4  N2  UNL     1     -65.253  89.204  96.246  1.00  0.00    -0.129 N 
ATOM      5  H2  UNL     1     -66.219  89.182  96.571  1.00  0.00     0.205 HD
HETATM    6  N6  UNL     1     -63.648  88.491  97.940  1.00  0.00    -0.138 N 
ATOM      7  H6  UNL     1     -62.995  87.783  98.276  1.00  0.00     0.189 HD
HETATM    8  C4  UNL     1     -63.807  89.664  98.703  1.00  0.00     0.352 C 
HETATM    9  O3  UNL     1     -64.598  90.541  98.309  1.00  0.00    -0.245 OA
HETATM   10  N7  UNL     1     -63.084  89.851  99.894  1.00  0.00    -0.258 N 
ATOM     11  H7  UNL     1     -62.441  89.118 100.195  1.00  0.00     0.191 HD
ENDROOT
BRANCH   1  12
HETATM   12  S1  UNL     1     -64.850  86.641  94.663  1.00  0.00     0.240 S 
HETATM   13  C1  UNL     1     -63.911  87.048  93.224  1.00  0.00     0.186 C 
HETATM   14  O1  UNL     1     -65.027  85.152  94.688  1.00  0.00    -0.206 OA
HETATM   15  O2  UNL     1     -66.236  87.243  94.485  1.00  0.00    -0.206 OA
ENDBRANCH   1  12
BRANCH   4  16
HETATM   16  N3  UNL     1     -64.864  90.199  95.323  1.00  0.00    -0.261 N 
ATOM     17  H3  UNL     1     -63.941  90.626  95.388  1.00  0.00     0.190 HD
BRANCH  16  18
HETATM   18  C3  UNL     1     -65.767  90.603  94.305  1.00  0.00     0.205 C 
HETATM   19  S2  UNL     1     -65.297  91.689  93.177  1.00  0.00    -0.038 SA
BRANCH  18  20
HETATM   20  N4  UNL     1     -67.072  90.071  94.257  1.00  0.00    -0.282 N 
ATOM     21  H4  UNL     1     -67.237  89.100  94.524  1.00  0.00     0.189 HD
BRANCH  20  22
HETATM   22  N5  UNL     1     -68.137  90.870  93.845  1.00  0.00    -0.343 N 
ATOM     23  H52 UNL     1     -68.110  91.871  94.043  1.00  0.00     0.176 HD
ATOM     24  H51 UNL     1     -68.927  90.454  93.353  1.00  0.00     0.176 HD
ENDBRANCH  20  22
ENDBRANCH  18  20
ENDBRANCH  16  18
ENDBRANCH   4  16
BRANCH  10  25
HETATM   25  N8  UNL     1     -63.208  90.999 100.685  1.00  0.00    -0.341 N 
ATOM     26  H82 UNL     1     -64.083  91.521 100.624  1.00  0.00     0.177 HD
ATOM     27  H81 UNL     1     -62.469  91.325 101.307  1.00  0.00     0.177 HD
ENDBRANCH  10  25
TORSDOF 6
ENDMDL
MODEL 2
REMARK VINA RESULT: -7.282975975      2.425      4.841
REMARK  6 active torsions:
REMARK  status: ('A' for Active; 'I' for Inactive)
REMARK    1  A    between atoms: S1_2  and  N1_5 
REMARK       I    between atoms: C2_7  and  N2_8 
REMARK       I    between atoms: C2_7  and  N6_19 
REMARK    2  A    between atoms: N2_8  and  N3_10 
REMARK    3  A    between atoms: N3_10  and  C3_12 
REMARK    4  A    between atoms: C3_12  and  N4_14 
REMARK    5  A    between atoms: N4_14  and  N5_16 
REMARK       I    between atoms: N6_19  and  C4_21 
REMARK       I    between atoms: C4_21  and  N7_23 
REMARK    6  A    between atoms: N7_23  and  N8_25 
ROOT
HETATM    1  N1  UNL     1     -63.807  88.528  96.878  1.00  0.00    -0.115 N 
ATOM      2  H1  UNL     1     -63.740  87.534  97.093  1.00  0.00     0.197 HD
HETATM    3  C2  UNL     1     -64.009  88.811  95.672  1.00  0.00     0.710 C 
HETATM    4  N2  UNL     1     -64.122  90.154  95.253  1.00  0.00    -0.129 N 
ATOM      5  H2  UNL     1     -63.288  90.640  94.921  1.00  0.00     0.205 HD
HETATM    6  N6  UNL     1     -64.128  87.775  94.713  1.00  0.00    -0.138 N 
ATOM      7  H6  UNL     1     -64.046  86.810  95.034  1.00  0.00     0.189 HD
HETATM    8  C4  UNL     1     -64.354  88.001  93.341  1.00  0.00     0.352 C 
HETATM    9  O3  UNL     1     -64.461  89.172  92.930  1.00  0.00    -0.245 OA
HETATM   10  N7  UNL     1     -64.463  86.926  92.442  1.00  0.00    -0.258 N 
ATOM     11  H7  UNL     1     -64.374  85.976  92.804  1.00  0.00     0.191 HD
ENDROOT
BRANCH   1  12
HETATM   12  S1  UNL     1     -63.631  89.573  98.195  1.00  0.00     0.240 S 
HETATM   13  C1  UNL     1     -62.106  90.463  98.201  1.00  0.00     0.186 C 
HETATM   14  O1  UNL     1     -64.746  90.576  98.209  1.00  0.00    -0.206 OA
HETATM   15  O2  UNL     1     -63.714  88.808  99.506  1.00  0.00    -0.206 OA
ENDBRANCH   1  12
BRANCH   4  16
HETATM   16  N3  UNL     1     -65.352  90.846  95.277  1.00  0.00    -0.261 N 
ATOM     17  H3  UNL     1     -65.840  90.994  96.160  1.00  0.00     0.190 HD
BRANCH  16  18
HETATM   18  C3  UNL     1     -65.908  91.333  94.065  1.00  0.00     0.205 C 
HETATM   19  S2  UNL     1     -65.156  92.531  93.244  1.00  0.00    -0.038 SA
BRANCH  18  20
HETATM   20  N4  UNL     1     -67.107  90.790  93.560  1.00  0.00    -0.282 N 
ATOM     21  H4  UNL     1     -67.093  89.901  93.059  1.00  0.00     0.189 HD
BRANCH  20  22
HETATM   22  N5  UNL     1     -68.311  91.466  93.746  1.00  0.00    -0.343 N 
ATOM     23  H52 UNL     1     -69.129  91.175  93.210  1.00  0.00     0.176 HD
ATOM     24  H51 UNL     1     -68.365  92.238  94.409  1.00  0.00     0.176 HD
ENDBRANCH  20  22
ENDBRANCH  18  20
ENDBRANCH  16  18
ENDBRANCH   4  16
BRANCH  10  25
HETATM   25  N8  UNL     1     -64.688  87.102  91.072  1.00  0.00    -0.341 N 
ATOM     26  H82 UNL     1     -65.082  87.994  90.770  1.00  0.00     0.177 HD
ATOM     27  H81 UNL     1     -64.476  86.384  90.380  1.00  0.00     0.177 HD
ENDBRANCH  10  25
TORSDOF 6
ENDMDL
MODEL 3
REMARK VINA RESULT: -7.161491367      2.614      5.019
REMARK  6 active torsions:
REMARK  status: ('A' for Active; 'I' for Inactive)
REMARK    1  A    between atoms: S1_2  and  N1_5 
REMARK       I    between atoms: C2_7  and  N2_8 
REMARK       I    between atoms: C2_7  and  N6_19 
REMARK    2  A    between atoms: N2_8  and  N3_10 
REMARK    3  A    between atoms: N3_10  and  C3_12 
REMARK    4  A    between atoms: C3_12  and  N4_14 
REMARK    5  A    between atoms: N4_14  and  N5_16 
REMARK       I    between atoms: N6_19  and  C4_21 
REMARK       I    between atoms: C4_21  and  N7_23 
REMARK    6  A    between atoms: N7_23  and  N8_25 
ROOT
HETATM    1  N1  UNL     1     -63.625  88.688  96.900  1.00  0.00    -0.115 N 
ATOM      2  H1  UNL     1     -63.433  87.709  97.114  1.00  0.00     0.197 HD
HETATM    3  C2  UNL     1     -63.905  88.936  95.702  1.00  0.00     0.710 C 
HETATM    4  N2  UNL     1     -64.191  90.254  95.284  1.00  0.00    -0.129 N 
ATOM      5  H2  UNL     1     -63.434  90.832  94.919  1.00  0.00     0.205 HD
HETATM    6  N6  UNL     1     -63.938  87.886  94.750  1.00  0.00    -0.138 N 
ATOM      7  H6  UNL     1     -63.730  86.940  95.071  1.00  0.00     0.189 HD
HETATM    8  C4  UNL     1     -64.242  88.074  93.389  1.00  0.00     0.352 C 
HETATM    9  O3  UNL     1     -64.501  89.222  92.979  1.00  0.00    -0.245 OA
HETATM   10  N7  UNL     1     -64.257  86.988  92.497  1.00  0.00    -0.258 N 
ATOM     11  H7  UNL     1     -64.042  86.057  92.858  1.00  0.00     0.191 HD
ENDROOT
BRANCH   1  12
HETATM   12  S1  UNL     1     -63.523  89.756  98.206  1.00  0.00     0.240 S 
HETATM   13  C1  UNL     1     -63.167  88.969  99.746  1.00  0.00     0.186 C 
HETATM   14  O1  UNL     1     -62.452  90.776  97.955  1.00  0.00    -0.206 OA
HETATM   15  O2  UNL     1     -64.825  90.523  98.378  1.00  0.00    -0.206 OA
ENDBRANCH   1  12
BRANCH   4  16
HETATM   16  N3  UNL     1     -65.493  90.795  95.354  1.00  0.00    -0.261 N 
ATOM     17  H3  UNL     1     -66.021  90.751  96.226  1.00  0.00     0.190 HD
BRANCH  16  18
HETATM   18  C3  UNL     1     -66.064  91.402  94.204  1.00  0.00     0.205 C 
HETATM   19  S2  UNL     1     -67.676  91.313  93.947  1.00  0.00    -0.038 SA
BRANCH  18  20
HETATM   20  N4  UNL     1     -65.248  92.084  93.279  1.00  0.00    -0.282 N 
ATOM     21  H4  UNL     1     -64.254  91.861  93.213  1.00  0.00     0.189 HD
BRANCH  20  22
HETATM   22  N5  UNL     1     -65.797  93.065  92.455  1.00  0.00    -0.343 N 
ATOM     23  H52 UNL     1     -65.465  93.147  91.494  1.00  0.00     0.176 HD
ATOM     24  H51 UNL     1     -66.521  93.687  92.815  1.00  0.00     0.176 HD
ENDBRANCH  20  22
ENDBRANCH  18  20
ENDBRANCH  16  18
ENDBRANCH   4  16
BRANCH  10  25
HETATM   25  N8  UNL     1     -64.553  87.126  91.137  1.00  0.00    -0.341 N 
ATOM     26  H82 UNL     1     -65.487  87.454  90.889  1.00  0.00     0.177 HD
ATOM     27  H81 UNL     1     -63.882  86.914  90.400  1.00  0.00     0.177 HD
ENDBRANCH  10  25
TORSDOF 6
ENDMDL
MODEL 4
REMARK VINA RESULT: -7.131885755      1.332      1.363
REMARK  6 active torsions:
REMARK  status: ('A' for Active; 'I' for Inactive)
REMARK    1  A    between atoms: S1_2  and  N1_5 
REMARK       I    between atoms: C2_7  and  N2_8 
REMARK       I    between atoms: C2_7  and  N6_19 
REMARK    2  A    between atoms: N2_8  and  N3_10 
REMARK    3  A    between atoms: N3_10  and  C3_12 
REMARK    4  A    between atoms: C3_12  and  N4_14 
REMARK    5  A    between atoms: N4_14  and  N5_16 
REMARK       I    between atoms: N6_19  and  C4_21 
REMARK       I    between atoms: C4_21  and  N7_23 
REMARK    6  A    between atoms: N7_23  and  N8_25 
ROOT
HETATM    1  N1  UNL     1     -64.456  86.577  94.970  1.00  0.00    -0.115 N 
ATOM      2  H1  UNL     1     -63.729  86.038  95.442  1.00  0.00     0.197 HD
HETATM    3  C2  UNL     1     -64.743  87.679  95.498  1.00  0.00     0.710 C 
HETATM    4  N2  UNL     1     -65.731  88.516  94.935  1.00  0.00    -0.129 N 
ATOM      5  H2  UNL     1     -66.691  88.440  95.270  1.00  0.00     0.205 HD
HETATM    6  N6  UNL     1     -64.069  88.099  96.672  1.00  0.00    -0.138 N 
ATOM      7  H6  UNL     1     -63.356  87.483  97.064  1.00  0.00     0.189 HD
HETATM    8  C4  UNL     1     -64.327  89.317  97.328  1.00  0.00     0.352 C 
HETATM    9  O3  UNL     1     -65.191  90.084  96.864  1.00  0.00    -0.245 OA
HETATM   10  N7  UNL     1     -63.621  89.673  98.491  1.00  0.00    -0.258 N 
ATOM     11  H7  UNL     1     -62.917  89.028  98.850  1.00  0.00     0.191 HD
ENDROOT
BRANCH   1  12
HETATM   12  S1  UNL     1     -65.111  85.865  93.585  1.00  0.00     0.240 S 
HETATM   13  C1  UNL     1     -64.799  86.769  92.101  1.00  0.00     0.186 C 
HETATM   14  O1  UNL     1     -64.556  84.483  93.404  1.00  0.00    -0.206 OA
HETATM   15  O2  UNL     1     -66.619  85.716  93.716  1.00  0.00    -0.206 OA
ENDBRANCH   1  12
BRANCH   4  16
HETATM   16  N3  UNL     1     -65.431  89.453  93.923  1.00  0.00    -0.261 N 
ATOM     17  H3  UNL     1     -64.754  89.225  93.196  1.00  0.00     0.190 HD
BRANCH  16  18
HETATM   18  C3  UNL     1     -66.078  90.717  93.924  1.00  0.00     0.205 C 
HETATM   19  S2  UNL     1     -65.376  91.997  93.188  1.00  0.00    -0.038 SA
BRANCH  18  20
HETATM   20  N4  UNL     1     -67.328  90.878  94.557  1.00  0.00    -0.282 N 
ATOM     21  H4  UNL     1     -67.414  90.725  95.562  1.00  0.00     0.189 HD
BRANCH  20  22
HETATM   22  N5  UNL     1     -68.445  91.246  93.810  1.00  0.00    -0.343 N 
ATOM     23  H52 UNL     1     -68.309  91.725  92.919  1.00  0.00     0.176 HD
ATOM     24  H51 UNL     1     -69.381  91.035  94.154  1.00  0.00     0.176 HD
ENDBRANCH  20  22
ENDBRANCH  18  20
ENDBRANCH  16  18
ENDBRANCH   4  16
BRANCH  10  25
HETATM   25  N8  UNL     1     -63.843  90.872  99.176  1.00  0.00    -0.341 N 
ATOM     26  H82 UNL     1     -64.505  91.533  98.769  1.00  0.00     0.177 HD
ATOM     27  H81 UNL     1     -63.374  91.104 100.052  1.00  0.00     0.177 HD
ENDBRANCH  10  25
TORSDOF 6
ENDMDL
MODEL 5
REMARK VINA RESULT: -7.072120749      1.349      1.583
REMARK  6 active torsions:
REMARK  status: ('A' for Active; 'I' for Inactive)
REMARK    1  A    between atoms: S1_2  and  N1_5 
REMARK       I    between atoms: C2_7  and  N2_8 
REMARK       I    between atoms: C2_7  and  N6_19 
REMARK    2  A    between atoms: N2_8  and  N3_10 
REMARK    3  A    between atoms: N3_10  and  C3_12 
REMARK    4  A    between atoms: C3_12  and  N4_14 
REMARK    5  A    between atoms: N4_14  and  N5_16 
REMARK       I    between atoms: N6_19  and  C4_21 
REMARK       I    between atoms: C4_21  and  N7_23 
REMARK    6  A    between atoms: N7_23  and  N8_25 
ROOT
HETATM    1  N1  UNL     1     -63.491  87.935  95.238  1.00  0.00    -0.115 N 
ATOM      2  H1  UNL     1     -62.673  87.428  95.577  1.00  0.00     0.197 HD
HETATM    3  C2  UNL     1     -63.972  88.782  96.031  1.00  0.00     0.710 C 
HETATM    4  N2  UNL     1     -65.103  89.547  95.674  1.00  0.00    -0.129 N 
ATOM      5  H2  UNL     1     -66.029  89.211  95.936  1.00  0.00     0.205 HD
HETATM    6  N6  UNL     1     -63.376  88.979  97.302  1.00  0.00    -0.138 N 
ATOM      7  H6  UNL     1     -62.558  88.419  97.542  1.00  0.00     0.189 HD
HETATM    8  C4  UNL     1     -63.849  89.906  98.251  1.00  0.00     0.352 C 
HETATM    9  O3  UNL     1     -64.845  90.601  97.975  1.00  0.00    -0.245 OA
HETATM   10  N7  UNL     1     -63.210  90.051  99.495  1.00  0.00    -0.258 N 
ATOM     11  H7  UNL     1     -62.396  89.471  99.696  1.00  0.00     0.191 HD
ENDROOT
BRANCH   1  12
HETATM   12  S1  UNL     1     -64.016  87.522  93.686  1.00  0.00     0.240 S 
HETATM   13  C1  UNL     1     -65.454  86.498  93.667  1.00  0.00     0.186 C 
HETATM   14  O1  UNL     1     -64.326  88.761  92.900  1.00  0.00    -0.206 OA
HETATM   15  O2  UNL     1     -62.924  86.784  92.926  1.00  0.00    -0.206 OA
ENDBRANCH   1  12
BRANCH   4  16
HETATM   16  N3  UNL     1     -64.991  90.763  94.966  1.00  0.00    -0.261 N 
ATOM     17  H3  UNL     1     -64.158  91.342  95.069  1.00  0.00     0.190 HD
BRANCH  16  18
HETATM   18  C3  UNL     1     -66.045  91.176  94.110  1.00  0.00     0.205 C 
HETATM   19  S2  UNL     1     -65.832  92.445  93.101  1.00  0.00    -0.038 SA
BRANCH  18  20
HETATM   20  N4  UNL     1     -67.281  90.497  94.122  1.00  0.00    -0.282 N 
ATOM     21  H4  UNL     1     -67.314  89.502  94.347  1.00  0.00     0.189 HD
BRANCH  20  22
HETATM   22  N5  UNL     1     -68.457  91.184  93.826  1.00  0.00    -0.343 N 
ATOM     23  H52 UNL     1     -69.352  90.716  93.969  1.00  0.00     0.176 HD
ATOM     24  H51 UNL     1     -68.415  92.139  93.474  1.00  0.00     0.176 HD
ENDBRANCH  20  22
ENDBRANCH  18  20
ENDBRANCH  16  18
ENDBRANCH   4  16
BRANCH  10  25
HETATM   25  N8  UNL     1     -63.643  90.958 100.469  1.00  0.00    -0.341 N 
ATOM     26  H82 UNL     1     -63.065  91.783 100.635  1.00  0.00     0.177 HD
ATOM     27  H81 UNL     1     -64.500  90.826 101.006  1.00  0.00     0.177 HD
ENDBRANCH  10  25
TORSDOF 6
ENDMDL
