MODEL 1
REMARK VINA RESULT: -7.534490876      0.000      0.000
REMARK  7 active torsions:
REMARK  status: ('A' for Active; 'I' for Inactive)
REMARK    1  A    between atoms: C2_2  and  N1_4 
REMARK       I    between atoms: N1_4  and  C4_5 
REMARK    2  A    between atoms: C4_5  and  O2_7 
REMARK    3  A    between atoms: O2_7  and  N2_8 
REMARK       I    between atoms: C5_10  and  N4_12 
REMARK    4  A    between atoms: N4_12  and  N5_14 
REMARK    5  A    between atoms: C6_16  and  N6_17 
REMARK    6  A    between atoms: C6_16  and  C8_22 
REMARK       I    between atoms: C8_22  and  N9_24 
REMARK    7  A    between atoms: N9_24  and  N10_26 
ROOT
HETATM    1  N5  UNL     1     -66.485  89.323  95.898  1.00  0.00    -0.278 N 
ATOM      2  H5  UNL     1     -66.948  89.923  96.581  1.00  0.00     0.189 HD
HETATM    3  C6  UNL     1     -66.548  89.598  94.649  1.00  0.00     0.193 C 
ENDROOT
BRANCH   1   4
HETATM    4  N4  UNL     1     -65.784  88.205  96.314  1.00  0.00    -0.270 N 
HETATM    5  C5  UNL     1     -64.624  88.250  97.118  1.00  0.00     0.227 C 
HETATM    6  N2  UNL     1     -63.941  89.324  97.275  1.00  0.00    -0.226 N 
HETATM    7  N3  UNL     1     -64.194  87.069  97.767  1.00  0.00    -0.060 NA
ATOM      8  H2  UNL     1     -64.251  90.176  96.806  1.00  0.00     0.198 HD
ATOM      9  H4  UNL     1     -66.127  87.290  96.021  1.00  0.00     0.189 HD
BRANCH   6  10
HETATM   10  O2  UNL     1     -62.806  89.371  98.051  1.00  0.00    -0.167 OA
BRANCH  10  11
HETATM   11  C4  UNL     1     -62.916  89.640  99.451  1.00  0.00     0.457 C 
HETATM   12  N1  UNL     1     -62.038  89.058 100.322  1.00  0.00    -0.384 NA
HETATM   13  O1  UNL     1     -63.869  90.424  99.695  1.00  0.00    -0.219 OA
BRANCH  12  14
HETATM   14  C2  UNL     1     -61.163  88.480 101.191  1.00  0.00     0.161 C 
HETATM   15  C1  UNL     1     -60.110  89.585 101.558  1.00  0.00     0.047 C 
HETATM   16  C3  UNL     1     -61.765  88.149 102.569  1.00  0.00     0.047 C 
ENDBRANCH  12  14
ENDBRANCH  10  11
ENDBRANCH   6  10
ENDBRANCH   1   4
BRANCH   3  17
HETATM   17  N6  UNL     1     -65.890  88.748  93.708  1.00  0.00    -0.313 N 
HETATM   18  C7  UNL     1     -64.630  88.901  93.446  1.00  0.00     0.202 C 
HETATM   19  N7  UNL     1     -64.031  88.028  92.505  1.00  0.00    -0.066 NA
HETATM   20  N8  UNL     1     -63.855  89.906  94.074  1.00  0.00    -0.066 NA
ATOM     21  H6  UNL     1     -66.417  88.012  93.237  1.00  0.00     0.170 HD
ENDBRANCH   3  17
BRANCH   3  22
HETATM   22  C8  UNL     1     -67.296  90.774  94.232  1.00  0.00     0.304 C 
HETATM   23  O3  UNL     1     -68.544  90.700  94.122  1.00  0.00    -0.263 OA
HETATM   24  N9  UNL     1     -66.647  91.996  93.947  1.00  0.00    -0.270 N 
ATOM     25  H9  UNL     1     -65.633  92.076  94.029  1.00  0.00     0.189 HD
BRANCH  24  26
HETATM   26  N10 UNL     1     -67.409  93.087  93.556  1.00  0.00    -0.342 N 
ATOM     27 2H10 UNL     1     -67.621  93.821  94.231  1.00  0.00     0.176 HD
ATOM     28 1H10 UNL     1     -67.746  93.136  92.594  1.00  0.00     0.176 HD
ENDBRANCH  24  26
ENDBRANCH   3  22
TORSDOF 7
ENDMDL
MODEL 2
REMARK VINA RESULT: -7.201166507      1.862      3.146
REMARK  7 active torsions:
REMARK  status: ('A' for Active; 'I' for Inactive)
REMARK    1  A    between atoms: C2_2  and  N1_4 
REMARK       I    between atoms: N1_4  and  C4_5 
REMARK    2  A    between atoms: C4_5  and  O2_7 
REMARK    3  A    between atoms: O2_7  and  N2_8 
REMARK       I    between atoms: C5_10  and  N4_12 
REMARK    4  A    between atoms: N4_12  and  N5_14 
REMARK    5  A    between atoms: C6_16  and  N6_17 
REMARK    6  A    between atoms: C6_16  and  C8_22 
REMARK       I    between atoms: C8_22  and  N9_24 
REMARK    7  A    between atoms: N9_24  and  N10_26 
ROOT
HETATM    1  N5  UNL     1     -65.194  88.162  95.969  1.00  0.00    -0.278 N 
ATOM      2  H5  UNL     1     -64.862  87.321  96.442  1.00  0.00     0.189 HD
HETATM    3  C6  UNL     1     -65.683  88.087  94.788  1.00  0.00     0.193 C 
ENDROOT
BRANCH   1   4
HETATM    4  N4  UNL     1     -65.121  89.391  96.598  1.00  0.00    -0.270 N 
HETATM    5  C5  UNL     1     -64.106  89.757  97.509  1.00  0.00     0.227 C 
HETATM    6  N2  UNL     1     -63.346  88.890  98.072  1.00  0.00    -0.226 N 
HETATM    7  N3  UNL     1     -63.925  91.125  97.821  1.00  0.00    -0.060 NA
ATOM      8  H2  UNL     1     -63.478  87.903  97.848  1.00  0.00     0.198 HD
ATOM      9  H4  UNL     1     -65.846  90.078  96.391  1.00  0.00     0.189 HD
BRANCH   6  10
HETATM   10  O2  UNL     1     -62.360  89.241  98.966  1.00  0.00    -0.167 OA
BRANCH  10  11
HETATM   11  C4  UNL     1     -62.526  88.946 100.354  1.00  0.00     0.457 C 
HETATM   12  N1  UNL     1     -61.497  88.378 101.053  1.00  0.00    -0.384 NA
HETATM   13  O1  UNL     1     -63.670  89.273 100.760  1.00  0.00    -0.219 OA
BRANCH  12  14
HETATM   14  C2  UNL     1     -60.471  87.814 101.749  1.00  0.00     0.161 C 
HETATM   15  C1  UNL     1     -59.414  88.952 101.977  1.00  0.00     0.047 C 
HETATM   16  C3  UNL     1     -60.829  87.422 103.195  1.00  0.00     0.047 C 
ENDBRANCH  12  14
ENDBRANCH  10  11
ENDBRANCH   6  10
ENDBRANCH   1   4
BRANCH   3  17
HETATM   17  N6  UNL     1     -66.148  89.275  94.143  1.00  0.00    -0.313 N 
HETATM   18  C7  UNL     1     -65.330  90.033  93.485  1.00  0.00     0.202 C 
HETATM   19  N7  UNL     1     -65.848  91.196  92.864  1.00  0.00    -0.066 NA
HETATM   20  N8  UNL     1     -63.952  89.725  93.374  1.00  0.00    -0.066 NA
ATOM     21  H6  UNL     1     -67.135  89.527  94.201  1.00  0.00     0.170 HD
ENDBRANCH   3  17
BRANCH   3  22
HETATM   22  C8  UNL     1     -65.744  86.785  94.141  1.00  0.00     0.304 C 
HETATM   23  O3  UNL     1     -66.819  86.138  94.166  1.00  0.00    -0.263 OA
HETATM   24  N9  UNL     1     -64.621  86.236  93.484  1.00  0.00    -0.270 N 
ATOM     25  H9  UNL     1     -63.738  86.747  93.454  1.00  0.00     0.189 HD
BRANCH  24  26
HETATM   26  N10 UNL     1     -64.736  84.992  92.880  1.00  0.00    -0.342 N 
ATOM     27 2H10 UNL     1     -64.948  84.174  93.451  1.00  0.00     0.176 HD
ATOM     28 1H10 UNL     1     -64.606  84.918  91.871  1.00  0.00     0.176 HD
ENDBRANCH  24  26
ENDBRANCH   3  22
TORSDOF 7
ENDMDL
MODEL 3
REMARK VINA RESULT: -7.154250338      2.103      2.842
REMARK  7 active torsions:
REMARK  status: ('A' for Active; 'I' for Inactive)
REMARK    1  A    between atoms: C2_2  and  N1_4 
REMARK       I    between atoms: N1_4  and  C4_5 
REMARK    2  A    between atoms: C4_5  and  O2_7 
REMARK    3  A    between atoms: O2_7  and  N2_8 
REMARK       I    between atoms: C5_10  and  N4_12 
REMARK    4  A    between atoms: N4_12  and  N5_14 
REMARK    5  A    between atoms: C6_16  and  N6_17 
REMARK    6  A    between atoms: C6_16  and  C8_22 
REMARK       I    between atoms: C8_22  and  N9_24 
REMARK    7  A    between atoms: N9_24  and  N10_26 
ROOT
HETATM    1  N5  UNL     1     -64.370  90.603  93.284  1.00  0.00    -0.278 N 
ATOM      2  H5  UNL     1     -63.428  90.990  93.232  1.00  0.00     0.189 HD
HETATM    3  C6  UNL     1     -65.389  91.361  93.129  1.00  0.00     0.193 C 
ENDROOT
BRANCH   1   4
HETATM    4  N4  UNL     1     -64.557  89.253  93.522  1.00  0.00    -0.270 N 
HETATM    5  C5  UNL     1     -64.393  88.640  94.783  1.00  0.00     0.227 C 
HETATM    6  N2  UNL     1     -63.760  89.209  95.743  1.00  0.00    -0.226 N 
HETATM    7  N3  UNL     1     -64.938  87.352  94.996  1.00  0.00    -0.060 NA
ATOM      8  H2  UNL     1     -63.366  90.137  95.590  1.00  0.00     0.198 HD
ATOM      9  H4  UNL     1     -64.832  88.663  92.737  1.00  0.00     0.189 HD
BRANCH   6  10
HETATM   10  O2  UNL     1     -63.591  88.613  96.972  1.00  0.00    -0.167 OA
BRANCH  10  11
HETATM   11  C4  UNL     1     -63.713  89.395  98.162  1.00  0.00     0.457 C 
HETATM   12  N1  UNL     1     -62.902  89.133  99.230  1.00  0.00    -0.384 NA
HETATM   13  O1  UNL     1     -64.609  90.271  98.046  1.00  0.00    -0.219 OA
BRANCH  12  14
HETATM   14  C2  UNL     1     -62.094  88.872 100.295  1.00  0.00     0.161 C 
HETATM   15  C1  UNL     1     -61.051  90.044 100.354  1.00  0.00     0.047 C 
HETATM   16  C3  UNL     1     -62.789  89.000 101.664  1.00  0.00     0.047 C 
ENDBRANCH  12  14
ENDBRANCH  10  11
ENDBRANCH   6  10
ENDBRANCH   1   4
BRANCH   3  17
HETATM   17  N6  UNL     1     -66.702  90.800  93.201  1.00  0.00    -0.313 N 
HETATM   18  C7  UNL     1     -67.295  90.650  94.342  1.00  0.00     0.202 C 
HETATM   19  N7  UNL     1     -68.596  90.090  94.352  1.00  0.00    -0.066 NA
HETATM   20  N8  UNL     1     -66.679  91.032  95.559  1.00  0.00    -0.066 NA
ATOM     21  H6  UNL     1     -67.177  90.515  92.344  1.00  0.00     0.170 HD
ENDBRANCH   3  17
BRANCH   3  22
HETATM   22  C8  UNL     1     -65.172  92.780  92.887  1.00  0.00     0.304 C 
HETATM   23  O3  UNL     1     -64.001  93.201  92.721  1.00  0.00    -0.263 OA
HETATM   24  N9  UNL     1     -66.249  93.691  92.834  1.00  0.00    -0.270 N 
ATOM     25  H9  UNL     1     -67.208  93.369  92.969  1.00  0.00     0.189 HD
BRANCH  24  26
HETATM   26  N10 UNL     1     -65.985  95.033  92.597  1.00  0.00    -0.342 N 
ATOM     27 2H10 UNL     1     -65.613  95.613  93.349  1.00  0.00     0.176 HD
ATOM     28 1H10 UNL     1     -66.168  95.416  91.670  1.00  0.00     0.176 HD
ENDBRANCH  24  26
ENDBRANCH   3  22
TORSDOF 7
ENDMDL
MODEL 4
REMARK VINA RESULT: -7.115227246      1.425      1.856
REMARK  7 active torsions:
REMARK  status: ('A' for Active; 'I' for Inactive)
REMARK    1  A    between atoms: C2_2  and  N1_4 
REMARK       I    between atoms: N1_4  and  C4_5 
REMARK    2  A    between atoms: C4_5  and  O2_7 
REMARK    3  A    between atoms: O2_7  and  N2_8 
REMARK       I    between atoms: C5_10  and  N4_12 
REMARK    4  A    between atoms: N4_12  and  N5_14 
REMARK    5  A    between atoms: C6_16  and  N6_17 
REMARK    6  A    between atoms: C6_16  and  C8_22 
REMARK       I    between atoms: C8_22  and  N9_24 
REMARK    7  A    between atoms: N9_24  and  N10_26 
ROOT
HETATM    1  N5  UNL     1     -66.423  89.332  95.862  1.00  0.00    -0.278 N 
ATOM      2  H5  UNL     1     -66.869  89.922  96.564  1.00  0.00     0.189 HD
HETATM    3  C6  UNL     1     -66.527  89.618  94.618  1.00  0.00     0.193 C 
ENDROOT
BRANCH   1   4
HETATM    4  N4  UNL     1     -65.701  88.216  96.244  1.00  0.00    -0.270 N 
HETATM    5  C5  UNL     1     -64.631  88.242  97.166  1.00  0.00     0.227 C 
HETATM    6  N2  UNL     1     -64.034  89.329  97.492  1.00  0.00    -0.226 N 
HETATM    7  N3  UNL     1     -64.197  87.026  97.746  1.00  0.00    -0.060 NA
ATOM      8  H2  UNL     1     -64.346  90.205  97.073  1.00  0.00     0.198 HD
ATOM      9  H4  UNL     1     -65.957  87.318  95.835  1.00  0.00     0.189 HD
BRANCH   6  10
HETATM   10  O2  UNL     1     -62.987  89.358  98.384  1.00  0.00    -0.167 OA
BRANCH  10  11
HETATM   11  C4  UNL     1     -63.215  89.779  99.731  1.00  0.00     0.457 C 
HETATM   12  N1  UNL     1     -62.976  91.078 100.083  1.00  0.00    -0.384 NA
HETATM   13  O1  UNL     1     -63.631  88.830 100.444  1.00  0.00    -0.219 OA
BRANCH  12  14
HETATM   14  C2  UNL     1     -62.738  92.372 100.435  1.00  0.00     0.161 C 
HETATM   15  C1  UNL     1     -63.858  92.762 101.464  1.00  0.00     0.047 C 
HETATM   16  C3  UNL     1     -61.459  92.576 101.269  1.00  0.00     0.047 C 
ENDBRANCH  12  14
ENDBRANCH  10  11
ENDBRANCH   6  10
ENDBRANCH   1   4
BRANCH   3  17
HETATM   17  N6  UNL     1     -65.892  88.782  93.648  1.00  0.00    -0.313 N 
HETATM   18  C7  UNL     1     -64.614  88.853  93.450  1.00  0.00     0.202 C 
HETATM   19  N7  UNL     1     -64.039  88.000  92.477  1.00  0.00    -0.066 NA
HETATM   20  N8  UNL     1     -63.795  89.751  94.177  1.00  0.00    -0.066 NA
ATOM     21  H6  UNL     1     -66.451  88.123  93.106  1.00  0.00     0.170 HD
ENDBRANCH   3  17
BRANCH   3  22
HETATM   22  C8  UNL     1     -67.297  90.792  94.235  1.00  0.00     0.304 C 
HETATM   23  O3  UNL     1     -68.543  90.697  94.119  1.00  0.00    -0.263 OA
HETATM   24  N9  UNL     1     -66.672  92.035  93.992  1.00  0.00    -0.270 N 
ATOM     25  H9  UNL     1     -65.660  92.132  94.079  1.00  0.00     0.189 HD
BRANCH  24  26
HETATM   26  N10 UNL     1     -67.455  93.123  93.632  1.00  0.00    -0.342 N 
ATOM     27 2H10 UNL     1     -67.008  93.969  93.280  1.00  0.00     0.176 HD
ATOM     28 1H10 UNL     1     -68.468  93.056  93.727  1.00  0.00     0.176 HD
ENDBRANCH  24  26
ENDBRANCH   3  22
TORSDOF 7
ENDMDL
MODEL 5
REMARK VINA RESULT: -7.101726809      1.999      3.324
REMARK  7 active torsions:
REMARK  status: ('A' for Active; 'I' for Inactive)
REMARK    1  A    between atoms: C2_2  and  N1_4 
REMARK       I    between atoms: N1_4  and  C4_5 
REMARK    2  A    between atoms: C4_5  and  O2_7 
REMARK    3  A    between atoms: O2_7  and  N2_8 
REMARK       I    between atoms: C5_10  and  N4_12 
REMARK    4  A    between atoms: N4_12  and  N5_14 
REMARK    5  A    between atoms: C6_16  and  N6_17 
REMARK    6  A    between atoms: C6_16  and  C8_22 
REMARK       I    between atoms: C8_22  and  N9_24 
REMARK    7  A    between atoms: N9_24  and  N10_26 
ROOT
HETATM    1  N5  UNL     1     -64.397  88.904  95.761  1.00  0.00    -0.278 N 
ATOM      2  H5  UNL     1     -63.451  88.525  95.802  1.00  0.00     0.189 HD
HETATM    3  C6  UNL     1     -65.169  88.610  94.782  1.00  0.00     0.193 C 
ENDROOT
BRANCH   1   4
HETATM    4  N4  UNL     1     -64.858  89.740  96.762  1.00  0.00    -0.270 N 
HETATM    5  C5  UNL     1     -64.238  89.885  98.022  1.00  0.00     0.227 C 
HETATM    6  N2  UNL     1     -63.385  89.037  98.467  1.00  0.00    -0.226 N 
HETATM    7  N3  UNL     1     -64.573  90.999  98.827  1.00  0.00    -0.060 NA
ATOM      8  H2  UNL     1     -63.144  88.233  97.887  1.00  0.00     0.198 HD
ATOM      9  H4  UNL     1     -65.700  90.287  96.579  1.00  0.00     0.189 HD
BRANCH   6  10
HETATM   10  O2  UNL     1     -62.783  89.170  99.697  1.00  0.00    -0.167 OA
BRANCH  10  11
HETATM   11  C4  UNL     1     -61.465  89.716  99.785  1.00  0.00     0.457 C 
HETATM   12  N1  UNL     1     -60.692  89.445 100.880  1.00  0.00    -0.384 NA
HETATM   13  O1  UNL     1     -61.188  90.413  98.775  1.00  0.00    -0.219 OA
BRANCH  12  14
HETATM   14  C2  UNL     1     -59.922  89.176 101.970  1.00  0.00     0.161 C 
HETATM   15  C1  UNL     1     -59.989  87.621 102.184  1.00  0.00     0.047 C 
HETATM   16  C3  UNL     1     -58.414  89.398 101.750  1.00  0.00     0.047 C 
ENDBRANCH  12  14
ENDBRANCH  10  11
ENDBRANCH   6  10
ENDBRANCH   1   4
BRANCH   3  17
HETATM   17  N6  UNL     1     -66.493  89.147  94.743  1.00  0.00    -0.313 N 
HETATM   18  C7  UNL     1     -66.717  90.317  94.233  1.00  0.00     0.202 C 
HETATM   19  N7  UNL     1     -68.050  90.797  94.221  1.00  0.00    -0.066 NA
HETATM   20  N8  UNL     1     -65.674  91.108  93.696  1.00  0.00    -0.066 NA
ATOM     21  H6  UNL     1     -67.269  88.604  95.121  1.00  0.00     0.170 HD
ENDBRANCH   3  17
BRANCH   3  22
HETATM   22  C8  UNL     1     -64.663  87.735  93.735  1.00  0.00     0.304 C 
HETATM   23  O3  UNL     1     -64.054  86.685  94.054  1.00  0.00    -0.263 OA
HETATM   24  N9  UNL     1     -64.842  88.043  92.368  1.00  0.00    -0.270 N 
ATOM     25  H9  UNL     1     -65.333  88.893  92.089  1.00  0.00     0.189 HD
BRANCH  24  26
HETATM   26  N10 UNL     1     -64.342  87.172  91.411  1.00  0.00    -0.342 N 
ATOM     27 2H10 UNL     1     -63.776  86.376  91.703  1.00  0.00     0.176 HD
ATOM     28 1H10 UNL     1     -64.551  87.344  90.428  1.00  0.00     0.176 HD
ENDBRANCH  24  26
ENDBRANCH   3  22
TORSDOF 7
ENDMDL
