MODEL 1
REMARK VINA RESULT: -7.653041509      0.000      0.000
REMARK  6 active torsions:
REMARK  status: ('A' for Active; 'I' for Inactive)
REMARK       I    between atoms: C2_2  and  N1_4 
REMARK    1  A    between atoms: N1_4  and  N2_6 
REMARK       I    between atoms: N2_6  and  C3_8 
REMARK       I    between atoms: C3_8  and  N3_10 
REMARK    2  A    between atoms: N3_10  and  N4_12 
REMARK    3  A    between atoms: N4_12  and  C4_14 
REMARK    4  A    between atoms: C4_14  and  N5_16 
REMARK    5  A    between atoms: N5_16  and  N6_18 
REMARK       I    between atoms: N6_18  and  C5_20 
REMARK    6  A    between atoms: C5_20  and  C6_22 
ROOT
HETATM    1  N4  UNL     1      19.024  87.833  72.684  1.00  0.00    -0.271 N 
ATOM      2  H4  UNL     1      19.047  86.836  72.467  1.00  0.00     0.189 HD
ENDROOT
BRANCH   1   3
HETATM    3  N3  UNL     1      20.091  88.499  72.183  1.00  0.00    -0.248 N 
HETATM    4  C3  UNL     1      21.472  88.432  72.365  1.00  0.00     0.353 C 
HETATM    5  N2  UNL     1      22.315  89.338  71.628  1.00  0.00    -0.248 N 
HETATM    6  O2  UNL     1      22.074  87.653  73.116  1.00  0.00    -0.244 OA
ATOM      7  H2  UNL     1      21.879  90.003  70.989  1.00  0.00     0.192 HD
ATOM      8  H3  UNL     1      19.822  89.219  71.514  1.00  0.00     0.192 HD
BRANCH   5   9
HETATM    9  N1  UNL     1      23.690  89.342  71.753  1.00  0.00    -0.266 N 
HETATM   10  C2  UNL     1      24.329  90.438  72.387  1.00  0.00     0.232 C 
HETATM   11  C1  UNL     1      25.799  90.453  72.531  1.00  0.00     0.119 C 
HETATM   12  O1  UNL     1      23.622  91.377  72.817  1.00  0.00    -0.272 OA
ATOM     13  H1  UNL     1      24.242  88.563  71.393  1.00  0.00     0.190 HD
ENDBRANCH   5   9
ENDBRANCH   1   3
BRANCH   1  14
HETATM   14  C4  UNL     1      17.901  88.193  73.428  1.00  0.00     0.205 C 
HETATM   15  S1  UNL     1      16.559  88.837  72.782  1.00  0.00    -0.038 SA
BRANCH  14  16
HETATM   16  N5  UNL     1      17.884  87.997  74.866  1.00  0.00    -0.272 N 
ATOM     17  H5  UNL     1      17.002  87.878  75.364  1.00  0.00     0.189 HD
BRANCH  16  18
HETATM   18  N6  UNL     1      19.100  87.973  75.551  1.00  0.00    -0.261 N 
HETATM   19  C5  UNL     1      19.939  89.124  75.560  1.00  0.00     0.305 C 
HETATM   20  O3  UNL     1      19.640  90.182  74.977  1.00  0.00    -0.263 OA
ATOM     21  H6  UNL     1      19.389  87.130  76.046  1.00  0.00     0.190 HD
BRANCH  19  22
HETATM   22  C6  UNL     1      21.198  89.057  76.283  1.00  0.00     0.214 C 
HETATM   23  C7  UNL     1      21.812  87.775  76.669  1.00  0.00     0.102 C 
HETATM   24  O4  UNL     1      21.799  90.137  76.601  1.00  0.00    -0.288 OA
ENDBRANCH  19  22
ENDBRANCH  16  18
ENDBRANCH  14  16
ENDBRANCH   1  14
TORSDOF 6
ENDMDL
MODEL 2
REMARK VINA RESULT: -7.463816163      2.260      4.966
REMARK  6 active torsions:
REMARK  status: ('A' for Active; 'I' for Inactive)
REMARK       I    between atoms: C2_2  and  N1_4 
REMARK    1  A    between atoms: N1_4  and  N2_6 
REMARK       I    between atoms: N2_6  and  C3_8 
REMARK       I    between atoms: C3_8  and  N3_10 
REMARK    2  A    between atoms: N3_10  and  N4_12 
REMARK    3  A    between atoms: N4_12  and  C4_14 
REMARK    4  A    between atoms: C4_14  and  N5_16 
REMARK    5  A    between atoms: N5_16  and  N6_18 
REMARK       I    between atoms: N6_18  and  C5_20 
REMARK    6  A    between atoms: C5_20  and  C6_22 
ROOT
HETATM    1  N4  UNL     1      18.353  88.154  74.831  1.00  0.00    -0.271 N 
ATOM      2  H4  UNL     1      17.368  88.063  75.080  1.00  0.00     0.189 HD
ENDROOT
BRANCH   1   3
HETATM    3  N3  UNL     1      19.167  87.476  75.674  1.00  0.00    -0.248 N 
HETATM    4  C3  UNL     1      20.331  87.779  76.380  1.00  0.00     0.353 C 
HETATM    5  N2  UNL     1      20.929  86.759  77.204  1.00  0.00    -0.248 N 
HETATM    6  O2  UNL     1      20.928  88.863  76.377  1.00  0.00    -0.244 OA
ATOM      7  H2  UNL     1      20.482  85.843  77.252  1.00  0.00     0.192 HD
ATOM      8  H3  UNL     1      18.856  86.518  75.830  1.00  0.00     0.192 HD
BRANCH   5   9
HETATM    9  N1  UNL     1      22.083  86.974  77.932  1.00  0.00    -0.266 N 
HETATM   10  C2  UNL     1      21.986  87.380  79.287  1.00  0.00     0.232 C 
HETATM   11  C1  UNL     1      23.211  87.609  80.078  1.00  0.00     0.119 C 
HETATM   12  O1  UNL     1      20.848  87.535  79.786  1.00  0.00    -0.272 OA
ATOM     13  H1  UNL     1      22.997  86.841  77.498  1.00  0.00     0.190 HD
ENDBRANCH   5   9
ENDBRANCH   1   3
BRANCH   1  14
HETATM   14  C4  UNL     1      18.549  88.947  73.701  1.00  0.00     0.205 C 
HETATM   15  S1  UNL     1      17.649  88.838  72.355  1.00  0.00    -0.038 SA
BRANCH  14  16
HETATM   16  N5  UNL     1      19.602  89.945  73.682  1.00  0.00    -0.272 N 
ATOM     17  H5  UNL     1      19.409  90.911  73.944  1.00  0.00     0.189 HD
BRANCH  16  18
HETATM   18  N6  UNL     1      20.886  89.553  73.298  1.00  0.00    -0.261 N 
HETATM   19  C5  UNL     1      21.928  90.518  73.191  1.00  0.00     0.305 C 
HETATM   20  O3  UNL     1      21.755  91.727  73.431  1.00  0.00    -0.263 OA
ATOM     21  H6  UNL     1      21.078  88.573  73.092  1.00  0.00     0.190 HD
BRANCH  19  22
HETATM   22  C6  UNL     1      23.249  90.068  72.785  1.00  0.00     0.214 C 
HETATM   23  C7  UNL     1      23.624  88.644  72.782  1.00  0.00     0.102 C 
HETATM   24  O4  UNL     1      24.120  90.926  72.418  1.00  0.00    -0.288 OA
ENDBRANCH  19  22
ENDBRANCH  16  18
ENDBRANCH  14  16
ENDBRANCH   1  14
TORSDOF 6
ENDMDL
MODEL 3
REMARK VINA RESULT: -7.447231059      3.247      6.134
REMARK  6 active torsions:
REMARK  status: ('A' for Active; 'I' for Inactive)
REMARK       I    between atoms: C2_2  and  N1_4 
REMARK    1  A    between atoms: N1_4  and  N2_6 
REMARK       I    between atoms: N2_6  and  C3_8 
REMARK       I    between atoms: C3_8  and  N3_10 
REMARK    2  A    between atoms: N3_10  and  N4_12 
REMARK    3  A    between atoms: N4_12  and  C4_14 
REMARK    4  A    between atoms: C4_14  and  N5_16 
REMARK    5  A    between atoms: N5_16  and  N6_18 
REMARK       I    between atoms: N6_18  and  C5_20 
REMARK    6  A    between atoms: C5_20  and  C6_22 
ROOT
HETATM    1  N4  UNL     1      22.076  89.263  74.422  1.00  0.00    -0.271 N 
ATOM      2  H4  UNL     1      22.148  90.281  74.401  1.00  0.00     0.189 HD
ENDROOT
BRANCH   1   3
HETATM    3  N3  UNL     1      21.890  88.782  75.673  1.00  0.00    -0.248 N 
HETATM    4  C3  UNL     1      21.068  87.812  76.246  1.00  0.00     0.353 C 
HETATM    5  N2  UNL     1      21.159  87.574  77.664  1.00  0.00    -0.248 N 
HETATM    6  O2  UNL     1      20.240  87.110  75.652  1.00  0.00    -0.244 OA
ATOM      7  H2  UNL     1      21.827  88.118  78.211  1.00  0.00     0.192 HD
ATOM      8  H3  UNL     1      22.494  89.234  76.359  1.00  0.00     0.192 HD
BRANCH   5   9
HETATM    9  N1  UNL     1      20.379  86.636  78.312  1.00  0.00    -0.266 N 
HETATM   10  C2  UNL     1      20.474  86.505  79.721  1.00  0.00     0.232 C 
HETATM   11  C1  UNL     1      19.642  85.510  80.427  1.00  0.00     0.119 C 
HETATM   12  O1  UNL     1      21.269  87.248  80.340  1.00  0.00    -0.272 OA
ATOM     13  H1  UNL     1      19.740  86.044  77.782  1.00  0.00     0.190 HD
ENDBRANCH   5   9
ENDBRANCH   1   3
BRANCH   1  14
HETATM   14  C4  UNL     1      22.193  88.692  73.156  1.00  0.00     0.205 C 
HETATM   15  S1  UNL     1      23.609  88.277  72.480  1.00  0.00    -0.038 SA
BRANCH  14  16
HETATM   16  N5  UNL     1      21.009  88.430  72.360  1.00  0.00    -0.272 N 
ATOM     17  H5  UNL     1      21.084  88.004  71.437  1.00  0.00     0.189 HD
BRANCH  16  18
HETATM   18  N6  UNL     1      19.762  88.775  72.887  1.00  0.00    -0.261 N 
HETATM   19  C5  UNL     1      18.628  87.947  72.643  1.00  0.00     0.305 C 
HETATM   20  O3  UNL     1      18.688  86.903  71.970  1.00  0.00    -0.263 OA
ATOM     21  H6  UNL     1      19.662  89.621  73.447  1.00  0.00     0.190 HD
BRANCH  19  22
HETATM   22  C6  UNL     1      17.348  88.344  73.207  1.00  0.00     0.214 C 
HETATM   23  C7  UNL     1      16.345  89.086  72.425  1.00  0.00     0.102 C 
HETATM   24  O4  UNL     1      17.075  88.046  74.418  1.00  0.00    -0.288 OA
ENDBRANCH  19  22
ENDBRANCH  16  18
ENDBRANCH  14  16
ENDBRANCH   1  14
TORSDOF 6
ENDMDL
MODEL 4
REMARK VINA RESULT: -7.400410694      3.242      6.252
REMARK  6 active torsions:
REMARK  status: ('A' for Active; 'I' for Inactive)
REMARK       I    between atoms: C2_2  and  N1_4 
REMARK    1  A    between atoms: N1_4  and  N2_6 
REMARK       I    between atoms: N2_6  and  C3_8 
REMARK       I    between atoms: C3_8  and  N3_10 
REMARK    2  A    between atoms: N3_10  and  N4_12 
REMARK    3  A    between atoms: N4_12  and  C4_14 
REMARK    4  A    between atoms: C4_14  and  N5_16 
REMARK    5  A    between atoms: N5_16  and  N6_18 
REMARK       I    between atoms: N6_18  and  C5_20 
REMARK    6  A    between atoms: C5_20  and  C6_22 
ROOT
HETATM    1  N4  UNL     1      22.170  88.445  74.506  1.00  0.00    -0.271 N 
ATOM      2  H4  UNL     1      22.797  89.118  74.947  1.00  0.00     0.189 HD
ENDROOT
BRANCH   1   3
HETATM    3  N3  UNL     1      21.386  87.801  75.403  1.00  0.00    -0.248 N 
HETATM    4  C3  UNL     1      21.179  87.891  76.779  1.00  0.00     0.353 C 
HETATM    5  N2  UNL     1      20.228  87.004  77.398  1.00  0.00    -0.248 N 
HETATM    6  O2  UNL     1      21.743  88.675  77.554  1.00  0.00    -0.244 OA
ATOM      7  H2  UNL     1      19.727  86.336  76.812  1.00  0.00     0.192 HD
ATOM      8  H3  UNL     1      20.809  87.080  74.969  1.00  0.00     0.192 HD
BRANCH   5   9
HETATM    9  N1  UNL     1      19.967  87.023  78.754  1.00  0.00    -0.266 N 
HETATM   10  C2  UNL     1      20.510  86.009  79.582  1.00  0.00     0.232 C 
HETATM   11  C1  UNL     1      20.243  86.020  81.034  1.00  0.00     0.119 C 
HETATM   12  O1  UNL     1      21.215  85.118  79.055  1.00  0.00    -0.272 OA
ATOM     13  H1  UNL     1      19.389  87.761  79.156  1.00  0.00     0.190 HD
ENDBRANCH   5   9
ENDBRANCH   1   3
BRANCH   1  14
HETATM   14  C4  UNL     1      22.319  88.401  73.121  1.00  0.00     0.205 C 
HETATM   15  S1  UNL     1      23.749  88.232  72.372  1.00  0.00    -0.038 SA
BRANCH  14  16
HETATM   16  N5  UNL     1      21.158  88.505  72.257  1.00  0.00    -0.272 N 
ATOM     17  H5  UNL     1      21.242  88.360  71.252  1.00  0.00     0.189 HD
BRANCH  16  18
HETATM   18  N6  UNL     1      19.923  88.810  72.833  1.00  0.00    -0.261 N 
HETATM   19  C5  UNL     1      18.782  88.006  72.549  1.00  0.00     0.305 C 
HETATM   20  O3  UNL     1      18.826  87.016  71.795  1.00  0.00    -0.263 OA
ATOM     21  H6  UNL     1      19.837  89.610  73.460  1.00  0.00     0.190 HD
BRANCH  19  22
HETATM   22  C6  UNL     1      17.515  88.359  73.167  1.00  0.00     0.214 C 
HETATM   23  C7  UNL     1      16.490  89.142  72.457  1.00  0.00     0.102 C 
HETATM   24  O4  UNL     1      17.273  87.985  74.363  1.00  0.00    -0.288 OA
ENDBRANCH  19  22
ENDBRANCH  16  18
ENDBRANCH  14  16
ENDBRANCH   1  14
TORSDOF 6
ENDMDL
MODEL 5
REMARK VINA RESULT: -7.380100696      1.911      1.985
REMARK  6 active torsions:
REMARK  status: ('A' for Active; 'I' for Inactive)
REMARK       I    between atoms: C2_2  and  N1_4 
REMARK    1  A    between atoms: N1_4  and  N2_6 
REMARK       I    between atoms: N2_6  and  C3_8 
REMARK       I    between atoms: C3_8  and  N3_10 
REMARK    2  A    between atoms: N3_10  and  N4_12 
REMARK    3  A    between atoms: N4_12  and  C4_14 
REMARK    4  A    between atoms: C4_14  and  N5_16 
REMARK    5  A    between atoms: N5_16  and  N6_18 
REMARK       I    between atoms: N6_18  and  C5_20 
REMARK    6  A    between atoms: C5_20  and  C6_22 
ROOT
HETATM    1  N4  UNL     1      19.150  89.626  74.300  1.00  0.00    -0.271 N 
ATOM      2  H4  UNL     1      18.705  90.033  75.124  1.00  0.00     0.189 HD
ENDROOT
BRANCH   1   3
HETATM    3  N3  UNL     1      20.201  90.357  73.863  1.00  0.00    -0.248 N 
HETATM    4  C3  UNL     1      21.587  90.270  73.993  1.00  0.00     0.353 C 
HETATM    5  N2  UNL     1      22.408  91.271  73.362  1.00  0.00    -0.248 N 
HETATM    6  O2  UNL     1      22.211  89.398  74.611  1.00  0.00    -0.244 OA
ATOM      7  H2  UNL     1      21.954  92.016  72.833  1.00  0.00     0.192 HD
ATOM      8  H3  UNL     1      19.913  91.162  73.307  1.00  0.00     0.192 HD
BRANCH   5   9
HETATM    9  N1  UNL     1      23.787  91.262  73.444  1.00  0.00    -0.266 N 
HETATM   10  C2  UNL     1      24.534  90.492  72.518  1.00  0.00     0.232 C 
HETATM   11  C1  UNL     1      26.009  90.477  72.592  1.00  0.00     0.119 C 
HETATM   12  O1  UNL     1      23.918  89.838  71.646  1.00  0.00    -0.272 OA
ATOM     13  H1  UNL     1      24.263  91.804  74.166  1.00  0.00     0.190 HD
ENDBRANCH   5   9
ENDBRANCH   1   3
BRANCH   1  14
HETATM   14  C4  UNL     1      18.532  88.447  73.886  1.00  0.00     0.205 C 
HETATM   15  S1  UNL     1      17.453  88.369  72.677  1.00  0.00    -0.038 SA
BRANCH  14  16
HETATM   16  N5  UNL     1      18.843  87.190  74.542  1.00  0.00    -0.272 N 
ATOM     17  H5  UNL     1      18.231  86.381  74.435  1.00  0.00     0.189 HD
BRANCH  16  18
HETATM   18  N6  UNL     1      19.997  87.113  75.324  1.00  0.00    -0.261 N 
HETATM   19  C5  UNL     1      19.983  87.578  76.670  1.00  0.00     0.305 C 
HETATM   20  O3  UNL     1      18.969  88.061  77.207  1.00  0.00    -0.263 OA
ATOM     21  H6  UNL     1      20.853  86.723  74.930  1.00  0.00     0.190 HD
BRANCH  19  22
HETATM   22  C6  UNL     1      21.207  87.482  77.448  1.00  0.00     0.214 C 
HETATM   23  C7  UNL     1      21.798  86.186  77.822  1.00  0.00     0.102 C 
HETATM   24  O4  UNL     1      21.797  88.550  77.826  1.00  0.00    -0.288 OA
ENDBRANCH  19  22
ENDBRANCH  16  18
ENDBRANCH  14  16
ENDBRANCH   1  14
TORSDOF 6
ENDMDL
