MODEL 1
REMARK VINA RESULT: -8.482096594      0.000      0.000
REMARK  2 active torsions:
REMARK  status: ('A' for Active; 'I' for Inactive)
REMARK       I    between atoms: C2_5  and  N3_6 
REMARK       I    between atoms: C2_5  and  N7_15 
REMARK       I    between atoms: N3_6  and  C3_8 
REMARK       I    between atoms: C3_8  and  N4_10 
REMARK    1  A    between atoms: N7_15  and  C5_17 
REMARK    2  A    between atoms: C5_17  and  C6_18 
ROOT
HETATM    1  N1  UNL     1      22.993  87.271  76.880  1.00  0.00    -0.171 NA
HETATM    2  C1  UNL     1      22.064  87.685  76.326  1.00  0.00     0.196 C 
HETATM    3  N2  UNL     1      20.952  88.204  75.655  1.00  0.00    -0.126 N 
ATOM      4  H2  UNL     1      20.033  87.815  75.861  1.00  0.00     0.197 HD
HETATM    5  C2  UNL     1      21.040  89.163  74.778  1.00  0.00     0.693 C 
HETATM    6  N3  UNL     1      22.338  89.666  74.528  1.00  0.00    -0.141 N 
ATOM      7  H3  UNL     1      23.105  89.245  75.053  1.00  0.00     0.189 HD
HETATM    8  C3  UNL     1      22.674  90.696  73.622  1.00  0.00     0.340 C 
HETATM    9  O1  UNL     1      21.840  91.304  72.908  1.00  0.00    -0.246 OA
HETATM   10  N4  UNL     1      24.036  91.138  73.446  1.00  0.00    -0.284 N 
ATOM     11  H4  UNL     1      24.318  92.048  73.812  1.00  0.00     0.172 HD
HETATM   12  C4  UNL     1      24.902  90.406  72.836  1.00  0.00     0.204 C 
HETATM   13  N5  UNL     1      26.222  90.908  72.701  1.00  0.00    -0.066 NA
HETATM   14  N6  UNL     1      24.497  89.144  72.336  1.00  0.00    -0.066 NA
HETATM   15  N7  UNL     1      19.918  89.681  74.113  1.00  0.00    -0.180 N 
ATOM     16  H7  UNL     1      19.830  90.693  74.028  1.00  0.00     0.181 HD
ENDROOT
BRANCH  15  17
HETATM   17  C5  UNL     1      18.873  88.847  73.540  1.00  0.00     0.299 C 
HETATM   18  C7  UNL     1      17.642  89.692  73.216  1.00  0.00     0.076 C 
HETATM   19  C8  UNL     1      16.931  88.729  72.273  1.00  0.00     0.032 C 
HETATM   20  C9  UNL     1      18.040  87.928  71.633  1.00  0.00     0.236 C 
HETATM   21  N8  UNL     1      19.251  88.384  72.230  1.00  0.00    -0.038 N 
ATOM     22  H82 UNL     1      19.749  89.079  71.674  1.00  0.00     0.280 HD
ATOM     23  H81 UNL     1      19.995  87.686  72.238  1.00  0.00     0.280 HD
BRANCH  17  24
HETATM   24  C6  UNL     1      18.568  87.711  74.408  1.00  0.00     0.233 C 
HETATM   25  O2  UNL     1      19.109  86.589  74.132  1.00  0.00    -0.645 OA
HETATM   26  O3  UNL     1      17.743  87.726  75.510  1.00  0.00    -0.645 OA
ENDBRANCH  17  24
ENDBRANCH  15  17
TORSDOF 2
ENDMDL
MODEL 2
REMARK VINA RESULT: -7.833449618      2.082      5.783
REMARK  2 active torsions:
REMARK  status: ('A' for Active; 'I' for Inactive)
REMARK       I    between atoms: C2_5  and  N3_6 
REMARK       I    between atoms: C2_5  and  N7_15 
REMARK       I    between atoms: N3_6  and  C3_8 
REMARK       I    between atoms: C3_8  and  N4_10 
REMARK    1  A    between atoms: N7_15  and  C5_17 
REMARK    2  A    between atoms: C5_17  and  C6_18 
ROOT
HETATM    1  N1  UNL     1      19.761  87.715  77.298  1.00  0.00    -0.171 NA
HETATM    2  C1  UNL     1      20.474  87.777  76.387  1.00  0.00     0.196 C 
HETATM    3  N2  UNL     1      21.320  87.842  75.276  1.00  0.00    -0.126 N 
ATOM      4  H2  UNL     1      22.326  87.896  75.432  1.00  0.00     0.197 HD
HETATM    5  C2  UNL     1      20.880  87.837  74.051  1.00  0.00     0.693 C 
HETATM    6  N3  UNL     1      19.476  87.762  73.891  1.00  0.00    -0.141 N 
ATOM      7  H3  UNL     1      18.916  87.715  74.742  1.00  0.00     0.189 HD
HETATM    8  C3  UNL     1      18.776  87.745  72.664  1.00  0.00     0.340 C 
HETATM    9  O1  UNL     1      19.327  87.799  71.539  1.00  0.00    -0.246 OA
HETATM   10  N4  UNL     1      17.336  87.662  72.613  1.00  0.00    -0.284 N 
ATOM     11  H4  UNL     1      16.895  86.795  72.305  1.00  0.00     0.172 HD
HETATM   12  C4  UNL     1      16.597  88.662  72.949  1.00  0.00     0.204 C 
HETATM   13  N5  UNL     1      15.189  88.506  72.872  1.00  0.00    -0.066 NA
HETATM   14  N6  UNL     1      17.222  89.860  73.377  1.00  0.00    -0.066 NA
HETATM   15  N7  UNL     1      21.736  87.897  72.942  1.00  0.00    -0.180 N 
ATOM     16  H7  UNL     1      21.562  87.266  72.160  1.00  0.00     0.181 HD
ENDROOT
BRANCH  15  17
HETATM   17  C5  UNL     1      22.861  88.815  72.850  1.00  0.00     0.299 C 
HETATM   18  C7  UNL     1      24.134  88.144  73.365  1.00  0.00     0.076 C 
HETATM   19  C8  UNL     1      25.165  89.093  72.768  1.00  0.00     0.032 C 
HETATM   20  C9  UNL     1      24.514  89.632  71.517  1.00  0.00     0.236 C 
HETATM   21  N8  UNL     1      23.208  89.062  71.475  1.00  0.00    -0.038 N 
ATOM     22  H82 UNL     1      23.137  88.238  70.878  1.00  0.00     0.280 HD
ATOM     23  H81 UNL     1      22.525  89.630  70.973  1.00  0.00     0.280 HD
BRANCH  17  24
HETATM   24  C6  UNL     1      22.571  90.075  73.532  1.00  0.00     0.233 C 
HETATM   25  O2  UNL     1      22.153  91.052  72.823  1.00  0.00    -0.645 OA
HETATM   26  O3  UNL     1      22.705  90.324  74.879  1.00  0.00    -0.645 OA
ENDBRANCH  17  24
ENDBRANCH  15  17
TORSDOF 2
ENDMDL
MODEL 3
REMARK VINA RESULT: -7.472462826      2.506      5.836
REMARK  2 active torsions:
REMARK  status: ('A' for Active; 'I' for Inactive)
REMARK       I    between atoms: C2_5  and  N3_6 
REMARK       I    between atoms: C2_5  and  N7_15 
REMARK       I    between atoms: N3_6  and  C3_8 
REMARK       I    between atoms: C3_8  and  N4_10 
REMARK    1  A    between atoms: N7_15  and  C5_17 
REMARK    2  A    between atoms: C5_17  and  C6_18 
ROOT
HETATM    1  N1  UNL     1      19.943  87.694  77.277  1.00  0.00    -0.171 NA
HETATM    2  C1  UNL     1      20.637  87.729  76.350  1.00  0.00     0.196 C 
HETATM    3  N2  UNL     1      21.459  87.762  75.220  1.00  0.00    -0.126 N 
ATOM      4  H2  UNL     1      22.469  87.804  75.353  1.00  0.00     0.197 HD
HETATM    5  C2  UNL     1      20.992  87.740  74.004  1.00  0.00     0.693 C 
HETATM    6  N3  UNL     1      19.585  87.682  73.876  1.00  0.00    -0.141 N 
ATOM      7  H3  UNL     1      19.043  87.659  74.740  1.00  0.00     0.189 HD
HETATM    8  C3  UNL     1      18.857  87.653  72.666  1.00  0.00     0.340 C 
HETATM    9  O1  UNL     1      19.385  87.679  71.528  1.00  0.00    -0.246 OA
HETATM   10  N4  UNL     1      17.416  87.590  72.647  1.00  0.00    -0.284 N 
ATOM     11  H4  UNL     1      16.957  86.724  72.365  1.00  0.00     0.172 HD
HETATM   12  C4  UNL     1      16.699  88.607  72.980  1.00  0.00     0.204 C 
HETATM   13  N5  UNL     1      15.287  88.469  72.937  1.00  0.00    -0.066 NA
HETATM   14  N6  UNL     1      17.350  89.802  73.372  1.00  0.00    -0.066 NA
HETATM   15  N7  UNL     1      21.825  87.768  72.877  1.00  0.00    -0.180 N 
ATOM     16  H7  UNL     1      21.625  87.125  72.111  1.00  0.00     0.181 HD
ENDROOT
BRANCH  15  17
HETATM   17  C5  UNL     1      22.961  88.668  72.743  1.00  0.00     0.299 C 
HETATM   18  C7  UNL     1      22.629  89.794  71.765  1.00  0.00     0.076 C 
HETATM   19  C8  UNL     1      23.736  90.771  72.140  1.00  0.00     0.032 C 
HETATM   20  C9  UNL     1      24.022  90.490  73.596  1.00  0.00     0.236 C 
HETATM   21  N8  UNL     1      23.174  89.404  73.962  1.00  0.00    -0.038 N 
ATOM     22  H82 UNL     1      22.313  89.691  74.426  1.00  0.00     0.280 HD
ATOM     23  H81 UNL     1      23.537  88.837  74.728  1.00  0.00     0.280 HD
BRANCH  17  24
HETATM   24  C6  UNL     1      24.172  87.938  72.375  1.00  0.00     0.233 C 
HETATM   25  O2  UNL     1      24.159  87.277  71.282  1.00  0.00    -0.645 OA
HETATM   26  O3  UNL     1      25.344  87.886  73.095  1.00  0.00    -0.645 OA
ENDBRANCH  17  24
ENDBRANCH  15  17
TORSDOF 2
ENDMDL
MODEL 4
REMARK VINA RESULT: -6.921834662      2.689      5.836
REMARK  2 active torsions:
REMARK  status: ('A' for Active; 'I' for Inactive)
REMARK       I    between atoms: C2_5  and  N3_6 
REMARK       I    between atoms: C2_5  and  N7_15 
REMARK       I    between atoms: N3_6  and  C3_8 
REMARK       I    between atoms: C3_8  and  N4_10 
REMARK    1  A    between atoms: N7_15  and  C5_17 
REMARK    2  A    between atoms: C5_17  and  C6_18 
ROOT
HETATM    1  N1  UNL     1      22.560  90.897  74.342  1.00  0.00    -0.171 NA
HETATM    2  C1  UNL     1      22.181  90.231  75.211  1.00  0.00     0.196 C 
HETATM    3  N2  UNL     1      21.704  89.430  76.253  1.00  0.00    -0.126 N 
ATOM      4  H2  UNL     1      22.252  89.367  77.110  1.00  0.00     0.197 HD
HETATM    5  C2  UNL     1      20.589  88.760  76.176  1.00  0.00     0.693 C 
HETATM    6  N3  UNL     1      19.868  88.881  74.965  1.00  0.00    -0.141 N 
ATOM      7  H3  UNL     1      20.272  89.483  74.246  1.00  0.00     0.189 HD
HETATM    8  C3  UNL     1      18.644  88.249  74.655  1.00  0.00     0.340 C 
HETATM    9  O1  UNL     1      18.033  87.480  75.436  1.00  0.00    -0.246 OA
HETATM   10  N4  UNL     1      17.989  88.444  73.385  1.00  0.00    -0.284 N 
ATOM     11  H4  UNL     1      17.137  89.005  73.342  1.00  0.00     0.172 HD
HETATM   12  C4  UNL     1      18.458  87.925  72.304  1.00  0.00     0.204 C 
HETATM   13  N5  UNL     1      17.757  88.160  71.092  1.00  0.00    -0.066 NA
HETATM   14  N6  UNL     1      19.642  87.150  72.377  1.00  0.00    -0.066 NA
HETATM   15  N7  UNL     1      20.116  87.963  77.228  1.00  0.00    -0.180 N 
ATOM     16  H7  UNL     1      19.129  88.026  77.477  1.00  0.00     0.181 HD
ENDROOT
BRANCH  15  17
HETATM   17  C5  UNL     1      20.961  87.049  77.982  1.00  0.00     0.299 C 
HETATM   18  C7  UNL     1      20.307  86.710  79.321  1.00  0.00     0.076 C 
HETATM   19  C8  UNL     1      21.120  85.472  79.678  1.00  0.00     0.032 C 
HETATM   20  C9  UNL     1      21.515  84.874  78.348  1.00  0.00     0.236 C 
HETATM   21  N8  UNL     1      21.004  85.756  77.352  1.00  0.00    -0.038 N 
ATOM     22  H82 UNL     1      20.111  85.459  76.957  1.00  0.00     0.280 HD
ATOM     23  H81 UNL     1      21.530  85.740  76.478  1.00  0.00     0.280 HD
BRANCH  17  24
HETATM   24  C6  UNL     1      22.313  87.584  78.132  1.00  0.00     0.233 C 
HETATM   25  O2  UNL     1      22.496  88.504  78.998  1.00  0.00    -0.645 OA
HETATM   26  O3  UNL     1      23.428  87.194  77.426  1.00  0.00    -0.645 OA
ENDBRANCH  17  24
ENDBRANCH  15  17
TORSDOF 2
ENDMDL
MODEL 5
REMARK VINA RESULT: -6.805736389      2.386      5.759
REMARK  2 active torsions:
REMARK  status: ('A' for Active; 'I' for Inactive)
REMARK       I    between atoms: C2_5  and  N3_6 
REMARK       I    between atoms: C2_5  and  N7_15 
REMARK       I    between atoms: N3_6  and  C3_8 
REMARK       I    between atoms: C3_8  and  N4_10 
REMARK    1  A    between atoms: N7_15  and  C5_17 
REMARK    2  A    between atoms: C5_17  and  C6_18 
ROOT
HETATM    1  N1  UNL     1      22.564  91.039  74.324  1.00  0.00    -0.171 NA
HETATM    2  C1  UNL     1      22.167  90.397  75.202  1.00  0.00     0.196 C 
HETATM    3  N2  UNL     1      21.668  89.624  76.255  1.00  0.00    -0.126 N 
ATOM      4  H2  UNL     1      22.182  89.609  77.135  1.00  0.00     0.197 HD
HETATM    5  C2  UNL     1      20.574  88.923  76.160  1.00  0.00     0.693 C 
HETATM    6  N3  UNL     1      19.900  88.978  74.918  1.00  0.00    -0.141 N 
ATOM      7  H3  UNL     1      20.317  89.562  74.193  1.00  0.00     0.189 HD
HETATM    8  C3  UNL     1      18.706  88.302  74.585  1.00  0.00     0.340 C 
HETATM    9  O1  UNL     1      18.082  87.548  75.371  1.00  0.00    -0.246 OA
HETATM   10  N4  UNL     1      18.097  88.431  73.283  1.00  0.00    -0.284 N 
ATOM     11  H4  UNL     1      17.235  88.967  73.185  1.00  0.00     0.172 HD
HETATM   12  C4  UNL     1      18.623  87.883  72.243  1.00  0.00     0.204 C 
HETATM   13  N5  UNL     1      17.967  88.053  70.996  1.00  0.00    -0.066 NA
HETATM   14  N6  UNL     1      19.822  87.144  72.394  1.00  0.00    -0.066 NA
HETATM   15  N7  UNL     1      20.078  88.154  77.224  1.00  0.00    -0.180 N 
ATOM     16  H7  UNL     1      19.080  88.201  77.431  1.00  0.00     0.181 HD
ENDROOT
BRANCH  15  17
HETATM   17  C5  UNL     1      20.914  87.293  78.046  1.00  0.00     0.299 C 
HETATM   18  C7  UNL     1      21.458  86.133  77.213  1.00  0.00     0.076 C 
HETATM   19  C8  UNL     1      22.586  85.685  78.133  1.00  0.00     0.032 C 
HETATM   20  C9  UNL     1      23.006  86.936  78.867  1.00  0.00     0.236 C 
HETATM   21  N8  UNL     1      22.130  87.968  78.419  1.00  0.00    -0.038 N 
ATOM     22  H82 UNL     1      22.522  88.550  77.679  1.00  0.00     0.280 HD
ATOM     23  H81 UNL     1      21.994  88.717  79.098  1.00  0.00     0.280 HD
BRANCH  17  24
HETATM   24  C6  UNL     1      20.198  86.846  79.239  1.00  0.00     0.233 C 
HETATM   25  O2  UNL     1      20.069  87.675  80.201  1.00  0.00    -0.645 OA
HETATM   26  O3  UNL     1      19.640  85.604  79.438  1.00  0.00    -0.645 OA
ENDBRANCH  17  24
ENDBRANCH  15  17
TORSDOF 2
ENDMDL
