MODEL 1
REMARK VINA RESULT: -8.455572338      0.000      0.000
REMARK  2 active torsions:
REMARK  status: ('A' for Active; 'I' for Inactive)
REMARK       I    between atoms: C1_4  and  N2_5 
REMARK       I    between atoms: C1_4  and  N7_17 
REMARK       I    between atoms: N2_5  and  C2_7 
REMARK       I    between atoms: C2_7  and  N3_9 
REMARK    1  A    between atoms: N3_9  and  N4_11 
REMARK    2  A    between atoms: N4_11  and  N5_12 
REMARK       I    between atoms: N5_12  and  C3_14 
ROOT
HETATM    1  N1  UNL     1      23.141  86.575  77.279  1.00  0.00    -0.234 N 
ATOM      2  H11 UNL     1      23.379  86.152  78.176  1.00  0.00     0.174 HD
ATOM      3  H12 UNL     1      23.623  86.598  76.380  1.00  0.00     0.174 HD
HETATM    4  C1  UNL     1      21.934  87.209  77.307  1.00  0.00     0.679 C 
HETATM    5  N2  UNL     1      21.610  87.783  76.090  1.00  0.00    -0.141 N 
ATOM      6  H2  UNL     1      22.297  87.689  75.341  1.00  0.00     0.189 HD
HETATM    7  C2  UNL     1      20.432  88.480  75.784  1.00  0.00     0.351 C 
HETATM    8  O1  UNL     1      19.538  88.650  76.619  1.00  0.00    -0.245 OA
HETATM    9  N3  UNL     1      20.253  89.005  74.465  1.00  0.00    -0.235 N 
ATOM     10  H3  UNL     1      20.981  88.908  73.758  1.00  0.00     0.189 HD
HETATM   11  N7  UNL     1      21.277  87.179  78.533  1.00  0.00    -0.184 N 
HETATM   12  C4  UNL     1      19.956  86.737  78.931  1.00  0.00     0.174 C 
HETATM   13  C5  UNL     1      20.182  86.111  80.328  1.00  0.00     0.295 C 
HETATM   14  N8  UNL     1      21.545  86.323  80.551  1.00  0.00     0.113 N 
HETATM   15  C6  UNL     1      21.973  86.739  81.863  1.00  0.00     0.275 C 
HETATM   16  C7  UNL     1      23.289  87.463  81.536  1.00  0.00     0.034 C 
HETATM   17  C8  UNL     1      23.283  87.584  79.988  1.00  0.00     0.060 C 
HETATM   18  C9  UNL     1      21.803  87.584  79.816  1.00  0.00     0.339 C 
ENDROOT
BRANCH   9  19
HETATM   19  N4  UNL     1      19.037  89.661  74.170  1.00  0.00    -0.015 NA
BRANCH  19  20
HETATM   20  N5  UNL     1      18.101  88.722  73.733  1.00  0.00    -0.238 N 
HETATM   21  C3  UNL     1      16.952  88.971  72.974  1.00  0.00     0.345 C 
HETATM   22  N6  UNL     1      16.079  87.907  72.587  1.00  0.00    -0.039 NA
HETATM   23  O2  UNL     1      16.628  90.148  72.594  1.00  0.00    -0.250 OA
ATOM     24  H5  UNL     1      18.273  87.752  73.995  1.00  0.00     0.188 HD
ENDBRANCH  19  20
ENDBRANCH   9  19
TORSDOF 2
ENDMDL
MODEL 2
REMARK VINA RESULT: -8.067087067      1.472      1.475
REMARK  2 active torsions:
REMARK  status: ('A' for Active; 'I' for Inactive)
REMARK       I    between atoms: C1_4  and  N2_5 
REMARK       I    between atoms: C1_4  and  N7_17 
REMARK       I    between atoms: N2_5  and  C2_7 
REMARK       I    between atoms: C2_7  and  N3_9 
REMARK    1  A    between atoms: N3_9  and  N4_11 
REMARK    2  A    between atoms: N4_11  and  N5_12 
REMARK       I    between atoms: N5_12  and  C3_14 
ROOT
HETATM    1  N1  UNL     1      23.544  86.700  77.676  1.00  0.00    -0.234 N 
ATOM      2  H11 UNL     1      23.812  86.310  78.580  1.00  0.00     0.174 HD
ATOM      3  H12 UNL     1      24.063  86.848  76.810  1.00  0.00     0.174 HD
HETATM    4  C1  UNL     1      22.231  87.067  77.636  1.00  0.00     0.679 C 
HETATM    5  N2  UNL     1      21.868  87.595  76.410  1.00  0.00    -0.141 N 
ATOM      6  H2  UNL     1      22.602  87.669  75.705  1.00  0.00     0.189 HD
HETATM    7  C2  UNL     1      20.589  88.041  76.041  1.00  0.00     0.351 C 
HETATM    8  O1  UNL     1      19.631  87.996  76.820  1.00  0.00    -0.245 OA
HETATM    9  N3  UNL     1      20.382  88.554  74.721  1.00  0.00    -0.235 N 
ATOM     10  H3  UNL     1      21.156  88.632  74.061  1.00  0.00     0.189 HD
HETATM   11  N7  UNL     1      21.524  86.865  78.817  1.00  0.00    -0.184 N 
HETATM   12  C4  UNL     1      20.304  86.147  79.123  1.00  0.00     0.174 C 
HETATM   13  C5  UNL     1      20.574  85.542  80.522  1.00  0.00     0.295 C 
HETATM   14  N8  UNL     1      21.846  86.026  80.835  1.00  0.00     0.113 N 
HETATM   15  C6  UNL     1      22.099  86.484  82.178  1.00  0.00     0.275 C 
HETATM   16  C7  UNL     1      23.251  87.475  81.947  1.00  0.00     0.034 C 
HETATM   17  C8  UNL     1      23.311  87.637  80.404  1.00  0.00     0.060 C 
HETATM   18  C9  UNL     1      21.876  87.334  80.138  1.00  0.00     0.339 C 
ENDROOT
BRANCH   9  19
HETATM   19  N4  UNL     1      19.076  88.951  74.360  1.00  0.00    -0.015 NA
BRANCH  19  20
HETATM   20  N5  UNL     1      18.919  88.818  72.979  1.00  0.00    -0.238 N 
HETATM   21  C3  UNL     1      18.897  87.626  72.246  1.00  0.00     0.345 C 
HETATM   22  N6  UNL     1      18.721  87.635  70.828  1.00  0.00    -0.039 NA
HETATM   23  O2  UNL     1      19.033  86.483  72.802  1.00  0.00    -0.250 OA
ATOM     24  H5  UNL     1      18.810  89.682  72.448  1.00  0.00     0.188 HD
ENDBRANCH  19  20
ENDBRANCH   9  19
TORSDOF 2
ENDMDL
MODEL 3
REMARK VINA RESULT: -7.469085341      1.694      2.478
REMARK  2 active torsions:
REMARK  status: ('A' for Active; 'I' for Inactive)
REMARK       I    between atoms: C1_4  and  N2_5 
REMARK       I    between atoms: C1_4  and  N7_17 
REMARK       I    between atoms: N2_5  and  C2_7 
REMARK       I    between atoms: C2_7  and  N3_9 
REMARK    1  A    between atoms: N3_9  and  N4_11 
REMARK    2  A    between atoms: N4_11  and  N5_12 
REMARK       I    between atoms: N5_12  and  C3_14 
ROOT
HETATM    1  N1  UNL     1      19.574  86.558  80.203  1.00  0.00    -0.234 N 
ATOM      2  H11 UNL     1      20.141  86.335  81.021  1.00  0.00     0.174 HD
ATOM      3  H12 UNL     1      18.566  86.569  80.047  1.00  0.00     0.174 HD
HETATM    4  C1  UNL     1      20.332  86.929  79.131  1.00  0.00     0.679 C 
HETATM    5  N2  UNL     1      19.563  87.232  78.021  1.00  0.00    -0.141 N 
ATOM      6  H2  UNL     1      18.553  87.127  78.118  1.00  0.00     0.189 HD
HETATM    7  C2  UNL     1      20.036  87.670  76.774  1.00  0.00     0.351 C 
HETATM    8  O1  UNL     1      21.241  87.829  76.552  1.00  0.00    -0.245 OA
HETATM    9  N3  UNL     1      19.099  87.949  75.730  1.00  0.00    -0.235 N 
ATOM     10  H3  UNL     1      18.099  87.802  75.869  1.00  0.00     0.189 HD
HETATM   11  N7  UNL     1      21.706  86.914  79.344  1.00  0.00    -0.184 N 
HETATM   12  C4  UNL     1      22.739  87.917  79.184  1.00  0.00     0.174 C 
HETATM   13  C5  UNL     1      23.705  87.642  80.361  1.00  0.00     0.295 C 
HETATM   14  N8  UNL     1      23.139  86.524  80.979  1.00  0.00     0.113 N 
HETATM   15  C6  UNL     1      24.013  85.473  81.435  1.00  0.00     0.275 C 
HETATM   16  C7  UNL     1      23.067  84.262  81.410  1.00  0.00     0.034 C 
HETATM   17  C8  UNL     1      21.808  84.777  80.659  1.00  0.00     0.060 C 
HETATM   18  C9  UNL     1      22.501  85.815  79.845  1.00  0.00     0.339 C 
ENDROOT
BRANCH   9  19
HETATM   19  N4  UNL     1      19.598  88.433  74.501  1.00  0.00    -0.015 NA
BRANCH  19  20
HETATM   20  N5  UNL     1      18.642  89.261  73.909  1.00  0.00    -0.238 N 
HETATM   21  C3  UNL     1      17.558  88.863  73.119  1.00  0.00     0.345 C 
HETATM   22  N6  UNL     1      16.646  89.822  72.580  1.00  0.00    -0.039 NA
HETATM   23  O2  UNL     1      17.331  87.635  72.843  1.00  0.00    -0.250 OA
ATOM     24  H5  UNL     1      18.745  90.263  74.070  1.00  0.00     0.188 HD
ENDBRANCH  19  20
ENDBRANCH   9  19
TORSDOF 2
ENDMDL
MODEL 4
REMARK VINA RESULT: -7.410628903      2.088      2.749
REMARK  2 active torsions:
REMARK  status: ('A' for Active; 'I' for Inactive)
REMARK       I    between atoms: C1_4  and  N2_5 
REMARK       I    between atoms: C1_4  and  N7_17 
REMARK       I    between atoms: N2_5  and  C2_7 
REMARK       I    between atoms: C2_7  and  N3_9 
REMARK    1  A    between atoms: N3_9  and  N4_11 
REMARK    2  A    between atoms: N4_11  and  N5_12 
REMARK       I    between atoms: N5_12  and  C3_14 
ROOT
HETATM    1  N1  UNL     1      19.393  86.930  79.233  1.00  0.00    -0.234 N 
ATOM      2  H11 UNL     1      19.697  86.642  80.162  1.00  0.00     0.174 HD
ATOM      3  H12 UNL     1      18.472  87.133  78.843  1.00  0.00     0.174 HD
HETATM    4  C1  UNL     1      20.436  87.088  78.368  1.00  0.00     0.679 C 
HETATM    5  N2  UNL     1      20.023  87.480  77.107  1.00  0.00    -0.141 N 
ATOM      6  H2  UNL     1      19.018  87.582  76.964  1.00  0.00     0.189 HD
HETATM    7  C2  UNL     1      20.850  87.750  76.006  1.00  0.00     0.351 C 
HETATM    8  O1  UNL     1      22.080  87.655  76.073  1.00  0.00    -0.245 OA
HETATM    9  N3  UNL     1      20.256  88.155  74.769  1.00  0.00    -0.235 N 
ATOM     10  H3  UNL     1      19.243  88.217  74.668  1.00  0.00     0.189 HD
HETATM   11  N7  UNL     1      21.692  86.811  78.900  1.00  0.00    -0.184 N 
HETATM   12  C4  UNL     1      22.916  87.580  78.984  1.00  0.00     0.174 C 
HETATM   13  C5  UNL     1      23.508  87.181  80.357  1.00  0.00     0.295 C 
HETATM   14  N8  UNL     1      22.599  86.231  80.828  1.00  0.00     0.113 N 
HETATM   15  C6  UNL     1      23.110  85.052  81.481  1.00  0.00     0.275 C 
HETATM   16  C7  UNL     1      21.967  84.053  81.238  1.00  0.00     0.034 C 
HETATM   17  C8  UNL     1      21.048  84.767  80.210  1.00  0.00     0.060 C 
HETATM   18  C9  UNL     1      22.107  85.604  79.578  1.00  0.00     0.339 C 
ENDROOT
BRANCH   9  19
HETATM   19  N4  UNL     1      21.113  88.466  73.690  1.00  0.00    -0.015 NA
BRANCH  19  20
HETATM   20  N5  UNL     1      20.380  88.459  72.502  1.00  0.00    -0.238 N 
HETATM   21  C3  UNL     1      19.417  87.521  72.114  1.00  0.00     0.345 C 
HETATM   22  N6  UNL     1      18.733  87.639  70.865  1.00  0.00    -0.039 NA
HETATM   23  O2  UNL     1      19.106  86.521  72.847  1.00  0.00    -0.250 OA
ATOM     24  H5  UNL     1      20.566  89.219  71.848  1.00  0.00     0.188 HD
ENDBRANCH  19  20
ENDBRANCH   9  19
TORSDOF 2
ENDMDL
MODEL 5
REMARK VINA RESULT: -7.082020081      3.849      5.667
REMARK  2 active torsions:
REMARK  status: ('A' for Active; 'I' for Inactive)
REMARK       I    between atoms: C1_4  and  N2_5 
REMARK       I    between atoms: C1_4  and  N7_17 
REMARK       I    between atoms: N2_5  and  C2_7 
REMARK       I    between atoms: C2_7  and  N3_9 
REMARK    1  A    between atoms: N3_9  and  N4_11 
REMARK    2  A    between atoms: N4_11  and  N5_12 
REMARK       I    between atoms: N5_12  and  C3_14 
ROOT
HETATM    1  N1  UNL     1      23.250  87.626  75.412  1.00  0.00    -0.234 N 
ATOM      2  H11 UNL     1      24.130  88.023  75.084  1.00  0.00     0.174 HD
ATOM      3  H12 UNL     1      23.036  86.882  76.077  1.00  0.00     0.174 HD
HETATM    4  C1  UNL     1      22.164  88.236  74.855  1.00  0.00     0.679 C 
HETATM    5  N2  UNL     1      20.970  87.698  75.300  1.00  0.00    -0.141 N 
ATOM      6  H2  UNL     1      21.033  86.918  75.955  1.00  0.00     0.189 HD
HETATM    7  C2  UNL     1      19.680  88.119  74.939  1.00  0.00     0.351 C 
HETATM    8  O1  UNL     1      19.494  89.053  74.153  1.00  0.00    -0.245 OA
HETATM    9  N3  UNL     1      18.545  87.454  75.502  1.00  0.00    -0.235 N 
ATOM     10  H3  UNL     1      18.661  86.661  76.133  1.00  0.00     0.189 HD
HETATM   11  N7  UNL     1      22.456  89.250  73.948  1.00  0.00    -0.184 N 
HETATM   12  C4  UNL     1      22.059  90.640  73.865  1.00  0.00     0.174 C 
HETATM   13  C5  UNL     1      23.320  91.352  73.319  1.00  0.00     0.295 C 
HETATM   14  N8  UNL     1      24.216  90.298  73.122  1.00  0.00     0.113 N 
HETATM   15  C6  UNL     1      25.026  90.295  71.930  1.00  0.00     0.275 C 
HETATM   16  C7  UNL     1      25.316  88.795  71.766  1.00  0.00     0.034 C 
HETATM   17  C8  UNL     1      24.368  88.109  72.787  1.00  0.00     0.060 C 
HETATM   18  C9  UNL     1      23.318  89.166  72.791  1.00  0.00     0.339 C 
ENDROOT
BRANCH   9  19
HETATM   19  N4  UNL     1      17.260  87.928  75.159  1.00  0.00    -0.015 NA
BRANCH  19  20
HETATM   20  N5  UNL     1      17.270  88.370  73.835  1.00  0.00    -0.238 N 
HETATM   21  C3  UNL     1      16.159  88.597  73.016  1.00  0.00     0.345 C 
HETATM   22  N6  UNL     1      16.315  89.059  71.672  1.00  0.00    -0.039 NA
HETATM   23  O2  UNL     1      14.962  88.406  73.422  1.00  0.00    -0.250 OA
ATOM     24  H5  UNL     1      18.186  88.545  73.420  1.00  0.00     0.188 HD
ENDBRANCH  19  20
ENDBRANCH   9  19
TORSDOF 2
ENDMDL
