MODEL 1
REMARK VINA RESULT: -9.324395330      0.000      0.000
REMARK  6 active torsions:
REMARK  status: ('A' for Active; 'I' for Inactive)
REMARK    1  A    between atoms: C2_2  and  C4_4 
REMARK    2  A    between atoms: C4_4  and  N1_5 
REMARK    3  A    between atoms: C4_4  and  C12_18 
REMARK       I    between atoms: N1_5  and  C5_7 
REMARK    4  A    between atoms: C5_7  and  C6_9 
REMARK    5  A    between atoms: C7_10  and  C8_11 
REMARK       I    between atoms: C12_18  and  N4_20 
REMARK    6  A    between atoms: N4_20  and  C13_22 
ROOT
HETATM    1  C4  UNL     1      14.301   5.233  20.725  1.00  0.00     0.180 C 
ENDROOT
BRANCH   1   2
HETATM    2  C2  UNL     1      14.321   4.484  22.046  1.00  0.00     0.009 C 
HETATM    3  C1  UNL     1      14.885   5.349  23.139  1.00  0.00     0.012 C 
HETATM    4  C3  UNL     1      15.154   3.223  21.946  1.00  0.00     0.012 C 
ENDBRANCH   1   2
BRANCH   1   5
HETATM    5  N1  UNL     1      14.776   6.567  20.838  1.00  0.00    -0.344 N 
HETATM    6  C5  UNL     1      15.912   6.991  20.044  1.00  0.00     0.241 C 
HETATM    7  O1  UNL     1      16.381   6.118  19.313  1.00  0.00    -0.269 OA
ATOM      8  H1  UNL     1      14.321   7.222  21.474  1.00  0.00     0.163 HD
BRANCH   6   9
HETATM    9  C6  UNL     1      16.382   8.329  20.166  1.00  0.00     0.075 C 
HETATM   10  C7  UNL     1      16.803   9.259  19.408  1.00  0.00     0.020 C 
BRANCH  10  11
HETATM   11  C8  UNL     1      17.026   9.434  18.001  1.00  0.00    -0.002 A 
HETATM   12  C9  UNL     1      16.736   8.633  16.932  1.00  0.00     0.120 A 
HETATM   13  N2  UNL     1      17.149   9.250  15.787  1.00  0.00    -0.310 N 
HETATM   14  N3  UNL     1      17.679  10.388  16.087  1.00  0.00    -0.307 N 
ATOM     15  H2  UNL     1      17.054   8.872  14.845  1.00  0.00     0.186 HD
HETATM   16  C10 UNL     1      18.223  11.303  15.093  1.00  0.00     0.177 C 
HETATM   17  C11 UNL     1      17.636  10.560  17.403  1.00  0.00     0.122 A 
ENDBRANCH  10  11
ENDBRANCH   6   9
ENDBRANCH   1   5
BRANCH   1  18
HETATM   18  C12 UNL     1      12.901   5.245  20.238  1.00  0.00     0.241 C 
HETATM   19  O2  UNL     1      12.637   5.872  19.181  1.00  0.00    -0.271 OA
HETATM   20  N4  UNL     1      11.892   4.556  20.963  1.00  0.00    -0.354 N 
ATOM     21  H4  UNL     1      12.122   4.053  21.819  1.00  0.00     0.162 HD
BRANCH  20  22
HETATM   22  C13 UNL     1      10.544   4.581  20.474  1.00  0.00     0.089 C 
HETATM   23  C14 UNL     1       9.917   3.243  20.781  1.00  0.00     0.030 C 
HETATM   24  C15 UNL     1       8.666   3.460  21.575  1.00  0.00    -0.012 C 
HETATM   25  C16 UNL     1       7.765   4.388  20.811  1.00  0.00     0.010 C 
HETATM   26  C20 UNL     1       9.078   4.123  22.882  1.00  0.00     0.010 C 
HETATM   27  C17 UNL     1       8.349   5.771  20.822  1.00  0.00    -0.007 C 
HETATM   28  C18 UNL     1       8.187   6.296  22.258  1.00  0.00     0.010 C 
HETATM   29  C21 UNL     1       9.831   5.733  21.103  1.00  0.00     0.017 C 
HETATM   30  C19 UNL     1       9.484   5.527  22.557  1.00  0.00    -0.007 C 
ENDBRANCH  20  22
ENDBRANCH   1  18
TORSDOF 6
ENDMDL
MODEL 2
REMARK VINA RESULT: -9.305974654      1.412      1.927
REMARK  6 active torsions:
REMARK  status: ('A' for Active; 'I' for Inactive)
REMARK    1  A    between atoms: C2_2  and  C4_4 
REMARK    2  A    between atoms: C4_4  and  N1_5 
REMARK    3  A    between atoms: C4_4  and  C12_18 
REMARK       I    between atoms: N1_5  and  C5_7 
REMARK    4  A    between atoms: C5_7  and  C6_9 
REMARK    5  A    between atoms: C7_10  and  C8_11 
REMARK       I    between atoms: C12_18  and  N4_20 
REMARK    6  A    between atoms: N4_20  and  C13_22 
ROOT
HETATM    1  C4  UNL     1      15.150   5.617  19.985  1.00  0.00     0.180 C 
ENDROOT
BRANCH   1   2
HETATM    2  C2  UNL     1      15.725   4.547  20.897  1.00  0.00     0.009 C 
HETATM    3  C1  UNL     1      16.350   5.166  22.115  1.00  0.00     0.012 C 
HETATM    4  C3  UNL     1      16.774   3.724  20.178  1.00  0.00     0.012 C 
ENDBRANCH   1   2
BRANCH   1   5
HETATM    5  N1  UNL     1      15.505   6.933  20.385  1.00  0.00    -0.344 N 
HETATM    6  C5  UNL     1      16.173   7.810  19.445  1.00  0.00     0.241 C 
HETATM    7  O1  UNL     1      16.381   7.313  18.338  1.00  0.00    -0.269 OA
ATOM      8  H1  UNL     1      15.290   7.258  21.328  1.00  0.00     0.163 HD
BRANCH   6   9
HETATM    9  C6  UNL     1      16.526   9.127  19.855  1.00  0.00     0.075 C 
HETATM   10  C7  UNL     1      17.154  10.129  19.390  1.00  0.00     0.020 C 
BRANCH  10  11
HETATM   11  C8  UNL     1      17.850  10.450  18.176  1.00  0.00    -0.002 A 
HETATM   12  C9  UNL     1      19.077  11.012  17.957  1.00  0.00     0.120 A 
HETATM   13  N2  UNL     1      19.289  11.110  16.613  1.00  0.00    -0.310 N 
HETATM   14  N3  UNL     1      18.263  10.641  15.987  1.00  0.00    -0.307 N 
ATOM     15  H2  UNL     1      20.126  11.493  16.173  1.00  0.00     0.186 HD
HETATM   16  C10 UNL     1      18.164  10.596  14.534  1.00  0.00     0.177 C 
HETATM   17  C11 UNL     1      17.361  10.227  16.869  1.00  0.00     0.122 A 
ENDBRANCH  10  11
ENDBRANCH   6   9
ENDBRANCH   1   5
BRANCH   1  18
HETATM   18  C12 UNL     1      13.675   5.474  20.001  1.00  0.00     0.241 C 
HETATM   19  O2  UNL     1      13.007   6.030  19.094  1.00  0.00    -0.271 OA
HETATM   20  N4  UNL     1      13.046   4.722  21.030  1.00  0.00    -0.354 N 
ATOM     21  H4  UNL     1      13.603   4.277  21.760  1.00  0.00     0.162 HD
BRANCH  20  22
HETATM   22  C13 UNL     1      11.618   4.596  21.026  1.00  0.00     0.089 C 
HETATM   23  C14 UNL     1      11.269   3.300  20.336  1.00  0.00     0.030 C 
HETATM   24  C15 UNL     1      10.429   2.468  21.255  1.00  0.00    -0.012 C 
HETATM   25  C16 UNL     1       9.230   3.271  21.671  1.00  0.00     0.010 C 
HETATM   26  C20 UNL     1      11.278   2.161  22.481  1.00  0.00     0.010 C 
HETATM   27  C17 UNL     1       9.662   4.367  22.602  1.00  0.00    -0.007 C 
HETATM   28  C18 UNL     1      10.049   3.683  23.923  1.00  0.00     0.010 C 
HETATM   29  C21 UNL     1      11.131   4.672  22.437  1.00  0.00     0.017 C 
HETATM   30  C19 UNL     1      11.413   3.436  23.256  1.00  0.00    -0.007 C 
ENDBRANCH  20  22
ENDBRANCH   1  18
TORSDOF 6
ENDMDL
MODEL 3
REMARK VINA RESULT: -9.159425530      1.498      2.007
REMARK  6 active torsions:
REMARK  status: ('A' for Active; 'I' for Inactive)
REMARK    1  A    between atoms: C2_2  and  C4_4 
REMARK    2  A    between atoms: C4_4  and  N1_5 
REMARK    3  A    between atoms: C4_4  and  C12_18 
REMARK       I    between atoms: N1_5  and  C5_7 
REMARK    4  A    between atoms: C5_7  and  C6_9 
REMARK    5  A    between atoms: C7_10  and  C8_11 
REMARK       I    between atoms: C12_18  and  N4_20 
REMARK    6  A    between atoms: N4_20  and  C13_22 
ROOT
HETATM    1  C4  UNL     1      12.758   5.560  21.072  1.00  0.00     0.180 C 
ENDROOT
BRANCH   1   2
HETATM    2  C2  UNL     1      12.837   4.240  21.821  1.00  0.00     0.009 C 
HETATM    3  C1  UNL     1      13.936   4.277  22.847  1.00  0.00     0.012 C 
HETATM    4  C3  UNL     1      13.098   3.090  20.871  1.00  0.00     0.012 C 
ENDBRANCH   1   2
BRANCH   1   5
HETATM    5  N1  UNL     1      13.702   6.515  21.534  1.00  0.00    -0.344 N 
HETATM    6  C5  UNL     1      14.704   7.030  20.623  1.00  0.00     0.241 C 
HETATM    7  O1  UNL     1      14.643   6.571  19.482  1.00  0.00    -0.269 OA
ATOM      8  H1  UNL     1      13.674   6.838  22.502  1.00  0.00     0.163 HD
BRANCH   6   9
HETATM    9  C6  UNL     1      15.646   7.986  21.096  1.00  0.00     0.075 C 
HETATM   10  C7  UNL     1      16.463   8.833  20.613  1.00  0.00     0.020 C 
BRANCH  10  11
HETATM   11  C8  UNL     1      16.860   9.265  19.304  1.00  0.00    -0.002 A 
HETATM   12  C9  UNL     1      16.740   8.670  18.079  1.00  0.00     0.120 A 
HETATM   13  N2  UNL     1      17.276   9.490  17.130  1.00  0.00    -0.310 N 
HETATM   14  N3  UNL     1      17.723  10.559  17.698  1.00  0.00    -0.307 N 
ATOM     15  H2  UNL     1      17.317   9.290  16.130  1.00  0.00     0.186 HD
HETATM   16  C10 UNL     1      18.360  11.647  16.967  1.00  0.00     0.177 C 
HETATM   17  C11 UNL     1      17.504  10.487  19.005  1.00  0.00     0.122 A 
ENDBRANCH  10  11
ENDBRANCH   6   9
ENDBRANCH   1   5
BRANCH   1  18
HETATM   18  C12 UNL     1      11.386   6.092  21.247  1.00  0.00     0.241 C 
HETATM   19  O2  UNL     1      11.207   7.333  21.164  1.00  0.00    -0.271 OA
HETATM   20  N4  UNL     1      10.308   5.203  21.505  1.00  0.00    -0.354 N 
ATOM     21  H4  UNL     1      10.469   4.198  21.570  1.00  0.00     0.162 HD
BRANCH  20  22
HETATM   22  C13 UNL     1       8.988   5.739  21.671  1.00  0.00     0.089 C 
HETATM   23  C14 UNL     1       8.232   5.514  20.384  1.00  0.00     0.030 C 
HETATM   24  C15 UNL     1       6.975   4.758  20.681  1.00  0.00    -0.012 C 
HETATM   25  C16 UNL     1       6.191   5.512  21.718  1.00  0.00     0.010 C 
HETATM   26  C20 UNL     1       7.391   3.408  21.252  1.00  0.00     0.010 C 
HETATM   27  C17 UNL     1       6.895   5.420  23.041  1.00  0.00    -0.007 C 
HETATM   28  C18 UNL     1       6.723   3.969  23.520  1.00  0.00     0.010 C 
HETATM   29  C21 UNL     1       8.356   5.087  22.857  1.00  0.00     0.017 C 
HETATM   30  C19 UNL     1       7.935   3.657  22.625  1.00  0.00    -0.007 C 
ENDBRANCH  20  22
ENDBRANCH   1  18
TORSDOF 6
ENDMDL
MODEL 4
REMARK VINA RESULT: -8.890496973      2.835      5.250
REMARK  6 active torsions:
REMARK  status: ('A' for Active; 'I' for Inactive)
REMARK    1  A    between atoms: C2_2  and  C4_4 
REMARK    2  A    between atoms: C4_4  and  N1_5 
REMARK    3  A    between atoms: C4_4  and  C12_18 
REMARK       I    between atoms: N1_5  and  C5_7 
REMARK    4  A    between atoms: C5_7  and  C6_9 
REMARK    5  A    between atoms: C7_10  and  C8_11 
REMARK       I    between atoms: C12_18  and  N4_20 
REMARK    6  A    between atoms: N4_20  and  C13_22 
ROOT
HETATM    1  C4  UNL     1      16.881   8.276  18.364  1.00  0.00     0.180 C 
ENDROOT
BRANCH   1   2
HETATM    2  C2  UNL     1      16.563   9.401  19.333  1.00  0.00     0.009 C 
HETATM    3  C1  UNL     1      17.577  10.505  19.216  1.00  0.00     0.012 C 
HETATM    4  C3  UNL     1      16.551   8.903  20.763  1.00  0.00     0.012 C 
ENDBRANCH   1   2
BRANCH   1   5
HETATM    5  N1  UNL     1      16.637   8.627  17.009  1.00  0.00    -0.344 N 
HETATM    6  C5  UNL     1      17.745   9.010  16.158  1.00  0.00     0.241 C 
HETATM    7  O1  UNL     1      18.845   8.995  16.711  1.00  0.00    -0.269 OA
ATOM      8  H1  UNL     1      15.686   8.609  16.638  1.00  0.00     0.163 HD
BRANCH   6   9
HETATM    9  C6  UNL     1      17.490   9.361  14.803  1.00  0.00     0.075 C 
HETATM   10  C7  UNL     1      17.850  10.251  13.969  1.00  0.00     0.020 C 
BRANCH  10  11
HETATM   11  C8  UNL     1      18.724  11.388  13.975  1.00  0.00    -0.002 A 
HETATM   12  C9  UNL     1      19.260  12.114  15.003  1.00  0.00     0.120 A 
HETATM   13  N2  UNL     1      20.038  13.109  14.489  1.00  0.00    -0.310 N 
HETATM   14  N3  UNL     1      20.014  13.043  13.200  1.00  0.00    -0.307 N 
ATOM     15  H2  UNL     1      20.556  13.797  15.036  1.00  0.00     0.186 HD
HETATM   16  C10 UNL     1      20.742  13.964  12.338  1.00  0.00     0.177 C 
HETATM   17  C11 UNL     1      19.242  12.029  12.827  1.00  0.00     0.122 A 
ENDBRANCH  10  11
ENDBRANCH   6   9
ENDBRANCH   1   5
BRANCH   1  18
HETATM   18  C12 UNL     1      16.040   7.113  18.735  1.00  0.00     0.241 C 
HETATM   19  O2  UNL     1      14.984   6.903  18.087  1.00  0.00    -0.271 OA
HETATM   20  N4  UNL     1      16.435   6.266  19.805  1.00  0.00    -0.354 N 
ATOM     21  H4  UNL     1      17.294   6.450  20.322  1.00  0.00     0.162 HD
BRANCH  20  22
HETATM   22  C13 UNL     1      15.607   5.147  20.148  1.00  0.00     0.089 C 
HETATM   23  C14 UNL     1      16.300   4.378  21.246  1.00  0.00     0.030 C 
HETATM   24  C15 UNL     1      15.375   4.257  22.417  1.00  0.00    -0.012 C 
HETATM   25  C16 UNL     1      14.092   3.626  21.956  1.00  0.00     0.010 C 
HETATM   26  C20 UNL     1      15.090   5.670  22.908  1.00  0.00     0.010 C 
HETATM   27  C17 UNL     1      13.336   4.601  21.099  1.00  0.00    -0.007 C 
HETATM   28  C18 UNL     1      12.818   5.695  22.046  1.00  0.00     0.010 C 
HETATM   29  C21 UNL     1      14.256   5.655  20.535  1.00  0.00     0.017 C 
HETATM   30  C19 UNL     1      14.212   6.325  21.887  1.00  0.00    -0.007 C 
ENDBRANCH  20  22
ENDBRANCH   1  18
TORSDOF 6
ENDMDL
MODEL 5
REMARK VINA RESULT: -8.882379666      1.676      2.395
REMARK  6 active torsions:
REMARK  status: ('A' for Active; 'I' for Inactive)
REMARK    1  A    between atoms: C2_2  and  C4_4 
REMARK    2  A    between atoms: C4_4  and  N1_5 
REMARK    3  A    between atoms: C4_4  and  C12_18 
REMARK       I    between atoms: N1_5  and  C5_7 
REMARK    4  A    between atoms: C5_7  and  C6_9 
REMARK    5  A    between atoms: C7_10  and  C8_11 
REMARK       I    between atoms: C12_18  and  N4_20 
REMARK    6  A    between atoms: N4_20  and  C13_22 
ROOT
HETATM    1  C4  UNL     1      15.759   5.158  21.343  1.00  0.00     0.180 C 
ENDROOT
BRANCH   1   2
HETATM    2  C2  UNL     1      16.656   4.116  21.988  1.00  0.00     0.009 C 
HETATM    3  C1  UNL     1      18.018   4.119  21.352  1.00  0.00     0.012 C 
HETATM    4  C3  UNL     1      16.062   2.729  21.858  1.00  0.00     0.012 C 
ENDBRANCH   1   2
BRANCH   1   5
HETATM    5  N1  UNL     1      16.365   6.440  21.269  1.00  0.00    -0.344 N 
HETATM    6  C5  UNL     1      15.868   7.414  20.318  1.00  0.00     0.241 C 
HETATM    7  O1  UNL     1      14.924   7.023  19.630  1.00  0.00    -0.269 OA
ATOM      8  H1  UNL     1      17.146   6.675  21.883  1.00  0.00     0.163 HD
BRANCH   6   9
HETATM    9  C6  UNL     1      16.483   8.695  20.251  1.00  0.00     0.075 C 
HETATM   10  C7  UNL     1      16.956   9.476  19.365  1.00  0.00     0.020 C 
BRANCH  10  11
HETATM   11  C8  UNL     1      17.117   9.456  17.940  1.00  0.00    -0.002 A 
HETATM   12  C9  UNL     1      16.756   8.529  17.001  1.00  0.00     0.120 A 
HETATM   13  N2  UNL     1      17.130   8.976  15.767  1.00  0.00    -0.310 N 
HETATM   14  N3  UNL     1      17.702  10.126  15.889  1.00  0.00    -0.307 N 
ATOM     15  H2  UNL     1      16.980   8.479  14.889  1.00  0.00     0.186 HD
HETATM   16  C10 UNL     1      18.222  10.884  14.758  1.00  0.00     0.177 C 
HETATM   17  C11 UNL     1      17.726  10.472  17.170  1.00  0.00     0.122 A 
ENDBRANCH  10  11
ENDBRANCH   6   9
ENDBRANCH   1   5
BRANCH   1  18
HETATM   18  C12 UNL     1      14.517   5.241  22.147  1.00  0.00     0.241 C 
HETATM   19  O2  UNL     1      14.607   5.543  23.363  1.00  0.00    -0.271 OA
HETATM   20  N4  UNL     1      13.260   4.979  21.538  1.00  0.00    -0.354 N 
ATOM     21  H4  UNL     1      13.204   4.733  20.550  1.00  0.00     0.162 HD
BRANCH  20  22
HETATM   22  C13 UNL     1      12.070   5.065  22.334  1.00  0.00     0.089 C 
HETATM   23  C14 UNL     1      10.928   5.434  21.420  1.00  0.00     0.030 C 
HETATM   24  C15 UNL     1       9.846   4.408  21.550  1.00  0.00    -0.012 C 
HETATM   25  C16 UNL     1       9.452   4.302  22.996  1.00  0.00     0.010 C 
HETATM   26  C20 UNL     1      10.434   3.080  21.093  1.00  0.00     0.010 C 
HETATM   27  C17 UNL     1      10.559   3.644  23.768  1.00  0.00    -0.007 C 
HETATM   28  C18 UNL     1      10.563   2.167  23.341  1.00  0.00     0.010 C 
HETATM   29  C21 UNL     1      11.874   3.761  23.039  1.00  0.00     0.017 C 
HETATM   30  C19 UNL     1      11.405   2.639  22.144  1.00  0.00    -0.007 C 
ENDBRANCH  20  22
ENDBRANCH   1  18
TORSDOF 6
ENDMDL
