MODEL 1
REMARK VINA RESULT: -8.632686674      0.000      0.000
REMARK  7 active torsions:
REMARK  status: ('A' for Active; 'I' for Inactive)
REMARK    1  A    between atoms: O1_2  and  C2_3 
REMARK    2  A    between atoms: C2_3  and  C3_5 
REMARK    3  A    between atoms: C3_5  and  N1_6 
REMARK       I    between atoms: N1_6  and  C4_8 
REMARK    4  A    between atoms: C4_8  and  C5_10 
REMARK    5  A    between atoms: C8_15  and  C9_16 
REMARK    6  A    between atoms: C9_16  and  S1_17 
REMARK    7  A    between atoms: C16_25  and  C17_26 
ROOT
HETATM    1  C5  UNL     1      17.422   9.281  15.911  1.00  0.00     0.116 A 
HETATM    2  N2  UNL     1      16.822   8.067  16.140  1.00  0.00    -0.350 N 
ATOM      3  H2  UNL     1      16.621   7.370  15.423  1.00  0.00     0.166 HD
HETATM    4  C6  UNL     1      16.540   7.933  17.442  1.00  0.00     0.045 A 
HETATM    5  C7  UNL     1      15.946   6.915  18.168  1.00  0.00     0.039 A 
HETATM    6  C8  UNL     1      15.743   6.971  19.526  1.00  0.00    -0.038 A 
HETATM    7  C11 UNL     1      16.150   8.098  20.198  1.00  0.00    -0.048 A 
HETATM    8  C12 UNL     1      15.945   8.184  21.646  1.00  0.00     0.049 C 
HETATM    9  C13 UNL     1      16.753   9.145  19.501  1.00  0.00    -0.042 A 
HETATM   10  C14 UNL     1      17.176  10.346  20.248  1.00  0.00     0.049 C 
HETATM   11  C15 UNL     1      16.944   9.057  18.133  1.00  0.00     0.013 A 
HETATM   12  C16 UNL     1      17.494   9.889  17.150  1.00  0.00     0.055 A 
ENDROOT
BRANCH   1  13
HETATM   13  C4  UNL     1      17.832   9.702  14.588  1.00  0.00     0.269 C 
HETATM   14  N1  UNL     1      18.132  11.016  14.194  1.00  0.00    -0.346 N 
ATOM     15  H1  UNL     1      18.078  11.779  14.869  1.00  0.00     0.163 HD
HETATM   16  O3  UNL     1      17.920   8.759  13.709  1.00  0.00    -0.266 OA
BRANCH  14  17
HETATM   17  C3  UNL     1      18.520  11.280  12.820  1.00  0.00     0.234 C 
BRANCH  17  18
HETATM   18  C2  UNL     1      18.989  12.677  12.657  1.00  0.00     0.276 C 
HETATM   19  O2  UNL     1      18.249  13.657  12.411  1.00  0.00    -0.263 OA
BRANCH  18  20
HETATM   20  O1  UNL     1      20.360  12.971  12.777  1.00  0.00    -0.325 OA
HETATM   21  C1  UNL     1      20.913  13.281  14.050  1.00  0.00     0.213 C 
ENDBRANCH  18  20
ENDBRANCH  17  18
ENDBRANCH  14  17
ENDBRANCH   1  13
BRANCH  12  22
HETATM   22  C17 UNL     1      18.038  11.185  17.428  1.00  0.00     0.159 C 
HETATM   23  C18 UNL     1      19.443  11.432  17.915  1.00  0.00     0.097 C 
HETATM   24  O5  UNL     1      17.306  12.214  17.260  1.00  0.00    -0.293 OA
ENDBRANCH  12  22
BRANCH   6  25
HETATM   25  C9  UNL     1      15.086   5.835  20.250  1.00  0.00     0.147 C 
BRANCH  25  26
HETATM   26  S1  UNL     1      13.326   6.021  20.319  1.00  0.00     0.015 S 
HETATM   27  C10 UNL     1      12.615   4.711  21.332  1.00  0.00     0.127 C 
HETATM   28  O4  UNL     1      12.726   5.781  18.757  1.00  0.00    -0.258 OA
ENDBRANCH  25  26
ENDBRANCH   6  25
TORSDOF 7
ENDMDL
MODEL 2
REMARK VINA RESULT: -8.174980276      3.246      6.653
REMARK  7 active torsions:
REMARK  status: ('A' for Active; 'I' for Inactive)
REMARK    1  A    between atoms: O1_2  and  C2_3 
REMARK    2  A    between atoms: C2_3  and  C3_5 
REMARK    3  A    between atoms: C3_5  and  N1_6 
REMARK       I    between atoms: N1_6  and  C4_8 
REMARK    4  A    between atoms: C4_8  and  C5_10 
REMARK    5  A    between atoms: C8_15  and  C9_16 
REMARK    6  A    between atoms: C9_16  and  S1_17 
REMARK    7  A    between atoms: C16_25  and  C17_26 
ROOT
HETATM    1  C5  UNL     1      14.908   6.795  21.070  1.00  0.00     0.116 A 
HETATM    2  N2  UNL     1      13.586   7.145  21.195  1.00  0.00    -0.350 N 
ATOM      3  H2  UNL     1      13.203   8.065  20.981  1.00  0.00     0.166 HD
HETATM    4  C6  UNL     1      12.875   6.101  21.637  1.00  0.00     0.045 A 
HETATM    5  C7  UNL     1      11.530   5.941  21.921  1.00  0.00     0.039 A 
HETATM    6  C8  UNL     1      10.985   4.763  22.375  1.00  0.00    -0.038 A 
HETATM    7  C11 UNL     1      11.821   3.688  22.556  1.00  0.00    -0.048 A 
HETATM    8  C12 UNL     1      11.266   2.421  23.039  1.00  0.00     0.049 C 
HETATM    9  C13 UNL     1      13.182   3.811  22.281  1.00  0.00    -0.042 A 
HETATM   10  C14 UNL     1      14.058   2.640  22.489  1.00  0.00     0.049 C 
HETATM   11  C15 UNL     1      13.700   5.010  21.824  1.00  0.00     0.013 A 
HETATM   12  C16 UNL     1      14.971   5.472  21.463  1.00  0.00     0.055 A 
ENDROOT
BRANCH   1  13
HETATM   13  C4  UNL     1      15.916   7.731  20.618  1.00  0.00     0.269 C 
HETATM   14  N1  UNL     1      16.088   8.190  19.303  1.00  0.00    -0.346 N 
ATOM     15  H1  UNL     1      15.466   7.868  18.562  1.00  0.00     0.163 HD
HETATM   16  O3  UNL     1      16.717   8.168  21.533  1.00  0.00    -0.266 OA
BRANCH  14  17
HETATM   17  C3  UNL     1      17.157   9.126  19.005  1.00  0.00     0.234 C 
BRANCH  17  18
HETATM   18  C2  UNL     1      17.405   9.207  17.545  1.00  0.00     0.276 C 
HETATM   19  O2  UNL     1      16.512   9.244  16.668  1.00  0.00    -0.263 OA
BRANCH  18  20
HETATM   20  O1  UNL     1      18.726   9.247  17.063  1.00  0.00    -0.325 OA
HETATM   21  C1  UNL     1      19.035   9.990  15.890  1.00  0.00     0.213 C 
ENDBRANCH  18  20
ENDBRANCH  17  18
ENDBRANCH  14  17
ENDBRANCH   1  13
BRANCH  12  22
HETATM   22  C17 UNL     1      16.150   4.657  21.512  1.00  0.00     0.159 C 
HETATM   23  C18 UNL     1      16.723   3.916  20.332  1.00  0.00     0.097 C 
HETATM   24  O5  UNL     1      16.773   4.535  22.617  1.00  0.00    -0.293 OA
ENDBRANCH  12  22
BRANCH   6  25
HETATM   25  C9  UNL     1       9.519   4.662  22.670  1.00  0.00     0.147 C 
BRANCH  25  26
HETATM   26  S1  UNL     1       8.617   6.050  22.040  1.00  0.00     0.015 S 
HETATM   27  C10 UNL     1       6.912   5.981  22.617  1.00  0.00     0.127 C 
HETATM   28  O4  UNL     1       8.548   5.892  20.359  1.00  0.00    -0.258 OA
ENDBRANCH  25  26
ENDBRANCH   6  25
TORSDOF 7
ENDMDL
MODEL 3
REMARK VINA RESULT: -8.117664929      1.411      1.622
REMARK  7 active torsions:
REMARK  status: ('A' for Active; 'I' for Inactive)
REMARK    1  A    between atoms: O1_2  and  C2_3 
REMARK    2  A    between atoms: C2_3  and  C3_5 
REMARK    3  A    between atoms: C3_5  and  N1_6 
REMARK       I    between atoms: N1_6  and  C4_8 
REMARK    4  A    between atoms: C4_8  and  C5_10 
REMARK    5  A    between atoms: C8_15  and  C9_16 
REMARK    6  A    between atoms: C9_16  and  S1_17 
REMARK    7  A    between atoms: C16_25  and  C17_26 
ROOT
HETATM    1  C5  UNL     1      17.369   9.257  15.982  1.00  0.00     0.116 A 
HETATM    2  N2  UNL     1      16.741   8.052  16.183  1.00  0.00    -0.350 N 
ATOM      3  H2  UNL     1      16.538   7.370  15.452  1.00  0.00     0.166 HD
HETATM    4  C6  UNL     1      16.436   7.903  17.478  1.00  0.00     0.045 A 
HETATM    5  C7  UNL     1      15.811   6.886  18.178  1.00  0.00     0.039 A 
HETATM    6  C8  UNL     1      15.587   6.925  19.534  1.00  0.00    -0.038 A 
HETATM    7  C11 UNL     1      16.006   8.033  20.230  1.00  0.00    -0.048 A 
HETATM    8  C12 UNL     1      15.780   8.101  21.676  1.00  0.00     0.049 C 
HETATM    9  C13 UNL     1      16.640   9.079  19.559  1.00  0.00    -0.042 A 
HETATM   10  C14 UNL     1      17.075  10.259  20.331  1.00  0.00     0.049 C 
HETATM   11  C15 UNL     1      16.851   9.009  18.193  1.00  0.00     0.013 A 
HETATM   12  C16 UNL     1      17.432   9.844  17.232  1.00  0.00     0.055 A 
ENDROOT
BRANCH   1  13
HETATM   13  C4  UNL     1      17.807   9.691  14.673  1.00  0.00     0.269 C 
HETATM   14  N1  UNL     1      18.089  11.012  14.291  1.00  0.00    -0.346 N 
ATOM     15  H1  UNL     1      17.999  11.772  14.965  1.00  0.00     0.163 HD
HETATM   16  O3  UNL     1      17.942   8.753  13.795  1.00  0.00    -0.266 OA
BRANCH  14  17
HETATM   17  C3  UNL     1      18.511  11.289  12.929  1.00  0.00     0.234 C 
BRANCH  17  18
HETATM   18  C2  UNL     1      19.277  12.556  12.854  1.00  0.00     0.276 C 
HETATM   19  O2  UNL     1      20.360  12.775  13.444  1.00  0.00    -0.263 OA
BRANCH  18  20
HETATM   20  O1  UNL     1      18.790  13.620  12.074  1.00  0.00    -0.325 OA
HETATM   21  C1  UNL     1      19.692  14.432  11.333  1.00  0.00     0.213 C 
ENDBRANCH  18  20
ENDBRANCH  17  18
ENDBRANCH  14  17
ENDBRANCH   1  13
BRANCH  12  22
HETATM   22  C17 UNL     1      17.998  11.125  17.539  1.00  0.00     0.159 C 
HETATM   23  C18 UNL     1      19.409  11.339  18.023  1.00  0.00     0.097 C 
HETATM   24  O5  UNL     1      17.280  12.169  17.401  1.00  0.00    -0.293 OA
ENDBRANCH  12  22
BRANCH   6  25
HETATM   25  C9  UNL     1      14.898   5.791  20.229  1.00  0.00     0.147 C 
BRANCH  25  26
HETATM   26  S1  UNL     1      16.049   4.601  20.861  1.00  0.00     0.015 S 
HETATM   27  C10 UNL     1      15.424   2.936  20.570  1.00  0.00     0.127 C 
HETATM   28  O4  UNL     1      16.108   4.791  22.539  1.00  0.00    -0.258 OA
ENDBRANCH  25  26
ENDBRANCH   6  25
TORSDOF 7
ENDMDL
MODEL 4
REMARK VINA RESULT: -8.090067901      3.001      6.264
REMARK  7 active torsions:
REMARK  status: ('A' for Active; 'I' for Inactive)
REMARK    1  A    between atoms: O1_2  and  C2_3 
REMARK    2  A    between atoms: C2_3  and  C3_5 
REMARK    3  A    between atoms: C3_5  and  N1_6 
REMARK       I    between atoms: N1_6  and  C4_8 
REMARK    4  A    between atoms: C4_8  and  C5_10 
REMARK    5  A    between atoms: C8_15  and  C9_16 
REMARK    6  A    between atoms: C9_16  and  S1_17 
REMARK    7  A    between atoms: C16_25  and  C17_26 
ROOT
HETATM    1  C5  UNL     1      15.273   6.860  20.672  1.00  0.00     0.116 A 
HETATM    2  N2  UNL     1      13.989   7.226  20.995  1.00  0.00    -0.350 N 
ATOM      3  H2  UNL     1      13.617   8.173  20.925  1.00  0.00     0.166 HD
HETATM    4  C6  UNL     1      13.299   6.158  21.414  1.00  0.00     0.045 A 
HETATM    5  C7  UNL     1      11.993   6.002  21.846  1.00  0.00     0.039 A 
HETATM    6  C8  UNL     1      11.464   4.796  22.241  1.00  0.00    -0.038 A 
HETATM    7  C11 UNL     1      12.276   3.689  22.208  1.00  0.00    -0.048 A 
HETATM    8  C12 UNL     1      11.738   2.391  22.624  1.00  0.00     0.049 C 
HETATM    9  C13 UNL     1      13.598   3.807  21.778  1.00  0.00    -0.042 A 
HETATM   10  C14 UNL     1      14.449   2.600  21.757  1.00  0.00     0.049 C 
HETATM   11  C15 UNL     1      14.100   5.035  21.385  1.00  0.00     0.013 A 
HETATM   12  C16 UNL     1      15.334   5.502  20.917  1.00  0.00     0.055 A 
ENDROOT
BRANCH   1  13
HETATM   13  C4  UNL     1      16.252   7.814  20.196  1.00  0.00     0.269 C 
HETATM   14  N1  UNL     1      16.338   8.330  18.893  1.00  0.00    -0.346 N 
ATOM     15  H1  UNL     1      15.668   8.042  18.182  1.00  0.00     0.163 HD
HETATM   16  O3  UNL     1      17.113   8.209  21.074  1.00  0.00    -0.266 OA
BRANCH  14  17
HETATM   17  C3  UNL     1      17.389   9.277  18.566  1.00  0.00     0.234 C 
BRANCH  17  18
HETATM   18  C2  UNL     1      17.173   9.874  17.227  1.00  0.00     0.276 C 
HETATM   19  O2  UNL     1      17.098  11.103  16.994  1.00  0.00    -0.263 OA
BRANCH  18  20
HETATM   20  O1  UNL     1      17.036   9.039  16.104  1.00  0.00    -0.325 OA
HETATM   21  C1  UNL     1      17.760   9.320  14.913  1.00  0.00     0.213 C 
ENDBRANCH  18  20
ENDBRANCH  17  18
ENDBRANCH  14  17
ENDBRANCH   1  13
BRANCH  12  22
HETATM   22  C17 UNL     1      16.479   4.658  20.737  1.00  0.00     0.159 C 
HETATM   23  C18 UNL     1      17.450   4.295  21.832  1.00  0.00     0.097 C 
HETATM   24  O5  UNL     1      16.713   4.168  19.585  1.00  0.00    -0.293 OA
ENDBRANCH  12  22
BRANCH   6  25
HETATM   25  C9  UNL     1      10.042   4.699  22.705  1.00  0.00     0.147 C 
BRANCH  25  26
HETATM   26  S1  UNL     1       9.060   6.052  22.119  1.00  0.00     0.015 S 
HETATM   27  C10 UNL     1       7.398   5.940  22.807  1.00  0.00     0.127 C 
HETATM   28  O4  UNL     1       8.887   5.870  20.448  1.00  0.00    -0.258 OA
ENDBRANCH  25  26
ENDBRANCH   6  25
TORSDOF 7
ENDMDL
MODEL 5
REMARK VINA RESULT: -7.878288906      3.855      7.774
REMARK  7 active torsions:
REMARK  status: ('A' for Active; 'I' for Inactive)
REMARK    1  A    between atoms: O1_2  and  C2_3 
REMARK    2  A    between atoms: C2_3  and  C3_5 
REMARK    3  A    between atoms: C3_5  and  N1_6 
REMARK       I    between atoms: N1_6  and  C4_8 
REMARK    4  A    between atoms: C4_8  and  C5_10 
REMARK    5  A    between atoms: C8_15  and  C9_16 
REMARK    6  A    between atoms: C9_16  and  S1_17 
REMARK    7  A    between atoms: C16_25  and  C17_26 
ROOT
HETATM    1  C5  UNL     1      13.696   6.303  21.300  1.00  0.00     0.116 A 
HETATM    2  N2  UNL     1      12.586   7.090  21.484  1.00  0.00    -0.350 N 
ATOM      3  H2  UNL     1      12.571   8.107  21.408  1.00  0.00     0.166 HD
HETATM    4  C6  UNL     1      11.526   6.327  21.777  1.00  0.00     0.045 A 
HETATM    5  C7  UNL     1      10.203   6.632  22.045  1.00  0.00     0.039 A 
HETATM    6  C8  UNL     1       9.248   5.683  22.328  1.00  0.00    -0.038 A 
HETATM    7  C11 UNL     1       9.630   4.363  22.347  1.00  0.00    -0.048 A 
HETATM    8  C12 UNL     1       8.633   3.332  22.646  1.00  0.00     0.049 C 
HETATM    9  C13 UNL     1      10.955   4.017  22.081  1.00  0.00    -0.042 A 
HETATM   10  C14 UNL     1      11.337   2.592  22.112  1.00  0.00     0.049 C 
HETATM   11  C15 UNL     1      11.891   4.996  21.798  1.00  0.00     0.013 A 
HETATM   12  C16 UNL     1      13.258   5.008  21.497  1.00  0.00     0.055 A 
ENDROOT
BRANCH   1  13
HETATM   13  C4  UNL     1      14.993   6.860  20.979  1.00  0.00     0.269 C 
HETATM   14  N1  UNL     1      15.402   7.335  19.723  1.00  0.00    -0.346 N 
ATOM     15  H1  UNL     1      14.759   7.313  18.932  1.00  0.00     0.163 HD
HETATM   16  O3  UNL     1      15.831   6.912  21.961  1.00  0.00    -0.266 OA
BRANCH  14  17
HETATM   17  C3  UNL     1      16.747   7.857  19.558  1.00  0.00     0.234 C 
BRANCH  17  18
HETATM   18  C2  UNL     1      16.777   8.951  18.558  1.00  0.00     0.276 C 
HETATM   19  O2  UNL     1      16.399   8.844  17.368  1.00  0.00    -0.263 OA
BRANCH  18  20
HETATM   20  O1  UNL     1      17.259  10.220  18.926  1.00  0.00    -0.325 OA
HETATM   21  C1  UNL     1      18.270  10.851  18.149  1.00  0.00     0.213 C 
ENDBRANCH  18  20
ENDBRANCH  17  18
ENDBRANCH  14  17
ENDBRANCH   1  13
BRANCH  12  22
HETATM   22  C17 UNL     1      14.058   3.820  21.419  1.00  0.00     0.159 C 
HETATM   23  C18 UNL     1      14.886   3.276  22.555  1.00  0.00     0.097 C 
HETATM   24  O5  UNL     1      14.088   3.163  20.329  1.00  0.00    -0.293 OA
ENDBRANCH  12  22
BRANCH   6  25
HETATM   25  C9  UNL     1       7.833   6.083  22.617  1.00  0.00     0.147 C 
BRANCH  25  26
HETATM   26  S1  UNL     1       6.899   6.336  21.133  1.00  0.00     0.015 S 
HETATM   27  C10 UNL     1       5.508   5.192  21.087  1.00  0.00     0.127 C 
HETATM   28  O4  UNL     1       7.891   5.918  19.830  1.00  0.00    -0.258 OA
ENDBRANCH  25  26
ENDBRANCH   6  25
TORSDOF 7
ENDMDL
