MODEL 1
REMARK VINA RESULT: -3.933151921      0.000      0.000
REMARK  1 active torsions:
REMARK  status: ('A' for Active; 'I' for Inactive)
REMARK    1  A    between atoms: C2_5  and  C3_6 
ROOT
HETATM    1  C1  UNL     1      -5.309   3.997  15.033  1.00  0.00     0.179 C 
HETATM    2  N1  UNL     1      -4.769   2.868  15.779  1.00  0.00    -0.280 N 
HETATM    3  N2  UNL     1      -3.883   1.933  16.230  1.00  0.00    -0.282 N 
ATOM      4  H2  UNL     1      -2.937   1.555  16.191  1.00  0.00     0.188 HD
HETATM    5  C2  UNL     1      -5.060   1.860  16.738  1.00  0.00     0.146 A 
ENDROOT
BRANCH   5   6
HETATM    6  C3  UNL     1      -6.041   1.205  17.662  1.00  0.00     0.248 C 
HETATM    7 CL1  UNL     1      -7.661   1.126  16.938  1.00  0.00    -0.100 Cl
HETATM    8 CL2  UNL     1      -6.147   2.139  19.194  1.00  0.00    -0.100 Cl
ENDBRANCH   5   6
TORSDOF 1
ENDMDL
MODEL 2
REMARK VINA RESULT: -3.916404908      1.996      2.175
REMARK  1 active torsions:
REMARK  status: ('A' for Active; 'I' for Inactive)
REMARK    1  A    between atoms: C2_5  and  C3_6 
ROOT
HETATM    1  C1  UNL     1      -4.473   1.403  13.397  1.00  0.00     0.179 C 
HETATM    2  N1  UNL     1      -4.611   0.934  14.770  1.00  0.00    -0.280 N 
HETATM    3  N2  UNL     1      -4.458   0.160  15.883  1.00  0.00    -0.282 N 
ATOM      4  H2  UNL     1      -4.040  -0.669  16.305  1.00  0.00     0.188 HD
HETATM    5  C2  UNL     1      -5.203   1.195  16.035  1.00  0.00     0.146 A 
ENDROOT
BRANCH   5   6
HETATM    6  C3  UNL     1      -6.069   2.061  16.899  1.00  0.00     0.248 C 
HETATM    7 CL1  UNL     1      -7.592   1.247  17.314  1.00  0.00    -0.100 Cl
HETATM    8 CL2  UNL     1      -6.457   3.587  16.031  1.00  0.00    -0.100 Cl
ENDBRANCH   5   6
TORSDOF 1
ENDMDL
MODEL 3
REMARK VINA RESULT: -3.884704203      1.951      1.990
REMARK  1 active torsions:
REMARK  status: ('A' for Active; 'I' for Inactive)
REMARK    1  A    between atoms: C2_5  and  C3_6 
ROOT
HETATM    1  C1  UNL     1      -4.396   1.455  13.561  1.00  0.00     0.179 C 
HETATM    2  N1  UNL     1      -4.650   1.005  14.923  1.00  0.00    -0.280 N 
HETATM    3  N2  UNL     1      -4.537   0.294  16.082  1.00  0.00    -0.282 N 
ATOM      4  H2  UNL     1      -4.058  -0.447  16.594  1.00  0.00     0.188 HD
HETATM    5  C2  UNL     1      -5.447   1.200  16.084  1.00  0.00     0.146 A 
ENDROOT
BRANCH   5   6
HETATM    6  C3  UNL     1      -6.549   1.937  16.783  1.00  0.00     0.248 C 
HETATM    7 CL1  UNL     1      -6.618   3.637  16.271  1.00  0.00    -0.100 Cl
HETATM    8 CL2  UNL     1      -6.279   1.888  18.559  1.00  0.00    -0.100 Cl
ENDBRANCH   5   6
TORSDOF 1
ENDMDL
MODEL 4
REMARK VINA RESULT: -3.731032383      1.041      1.867
REMARK  1 active torsions:
REMARK  status: ('A' for Active; 'I' for Inactive)
REMARK    1  A    between atoms: C2_5  and  C3_6 
ROOT
HETATM    1  C1  UNL     1      -4.794   2.295  13.751  1.00  0.00     0.179 C 
HETATM    2  N1  UNL     1      -4.593   2.079  15.178  1.00  0.00    -0.280 N 
HETATM    3  N2  UNL     1      -3.972   1.784  16.356  1.00  0.00    -0.282 N 
ATOM      4  H2  UNL     1      -3.112   1.509  16.831  1.00  0.00     0.188 HD
HETATM    5  C2  UNL     1      -5.215   2.092  16.456  1.00  0.00     0.146 A 
ENDROOT
BRANCH   5   6
HETATM    6  C3  UNL     1      -6.439   2.311  17.292  1.00  0.00     0.248 C 
HETATM    7 CL1  UNL     1      -6.091   2.097  19.020  1.00  0.00    -0.100 Cl
HETATM    8 CL2  UNL     1      -7.714   1.135  16.818  1.00  0.00    -0.100 Cl
ENDBRANCH   5   6
TORSDOF 1
ENDMDL
MODEL 5
REMARK VINA RESULT: -3.692911276      1.410      1.430
REMARK  1 active torsions:
REMARK  status: ('A' for Active; 'I' for Inactive)
REMARK    1  A    between atoms: C2_5  and  C3_6 
ROOT
HETATM    1  C1  UNL     1      -4.935   2.649  13.740  1.00  0.00     0.179 C 
HETATM    2  N1  UNL     1      -4.648   2.076  15.048  1.00  0.00    -0.280 N 
HETATM    3  N2  UNL     1      -3.995   1.405  16.041  1.00  0.00    -0.282 N 
ATOM      4  H2  UNL     1      -3.174   0.870  16.321  1.00  0.00     0.188 HD
HETATM    5  C2  UNL     1      -5.125   1.914  16.378  1.00  0.00     0.146 A 
ENDROOT
BRANCH   5   6
HETATM    6  C3  UNL     1      -6.186   2.164  17.407  1.00  0.00     0.248 C 
HETATM    7 CL1  UNL     1      -7.426   0.894  17.382  1.00  0.00    -0.100 Cl
HETATM    8 CL2  UNL     1      -6.981   3.744  17.084  1.00  0.00    -0.100 Cl
ENDBRANCH   5   6
TORSDOF 1
ENDMDL
