MODEL 1
REMARK VINA RESULT: -5.092903248      0.000      0.000
REMARK  1 active torsions:
REMARK  status: ('A' for Active; 'I' for Inactive)
REMARK    1  A    between atoms: O1_1  and  N1_3 
ROOT
HETATM    1  N1  UNL     1      -4.818   1.000  16.593  1.00  0.00    -0.135 N 
HETATM    2  N2  UNL     1      -5.389  -0.036  16.937  1.00  0.00    -0.249 N 
ATOM      3  H2  UNL     1      -5.379  -0.983  17.315  1.00  0.00     0.188 HD
HETATM    4  C1  UNL     1      -6.100   1.138  16.385  1.00  0.00     0.336 A 
HETATM    5  O2  UNL     1      -7.329   1.057  16.856  1.00  0.00    -0.288 OA
HETATM    6  C2  UNL     1      -6.729   2.126  17.394  1.00  0.00     0.297 A 
HETATM    7 CL1  UNL     1      -6.942   3.761  16.707  1.00  0.00    -0.063 Cl
HETATM    8 CL2  UNL     1      -6.191   1.991  19.073  1.00  0.00    -0.063 Cl
ENDROOT
BRANCH   1   9
HETATM    9  O1  UNL     1      -3.529   1.550  16.529  1.00  0.00    -0.268 OA
ATOM     10  H1  UNL     1      -2.921   2.048  17.063  1.00  0.00     0.246 HD
ENDBRANCH   1   9
TORSDOF 1
ENDMDL
MODEL 2
REMARK VINA RESULT: -4.797945025      1.894      2.434
REMARK  1 active torsions:
REMARK  status: ('A' for Active; 'I' for Inactive)
REMARK    1  A    between atoms: O1_1  and  N1_3 
ROOT
HETATM    1  N1  UNL     1      -4.657   0.549  15.578  1.00  0.00    -0.135 N 
HETATM    2  N2  UNL     1      -3.806   1.356  15.958  1.00  0.00    -0.249 N 
ATOM      3  H2  UNL     1      -2.938   1.874  15.825  1.00  0.00     0.188 HD
HETATM    4  C1  UNL     1      -5.003   1.002  16.753  1.00  0.00     0.336 A 
HETATM    5  O2  UNL     1      -5.223   2.039  17.536  1.00  0.00    -0.288 OA
HETATM    6  C2  UNL     1      -6.225   1.944  16.654  1.00  0.00     0.297 A 
HETATM    7 CL1  UNL     1      -7.756   1.120  17.066  1.00  0.00    -0.063 Cl
HETATM    8 CL2  UNL     1      -6.232   3.092  15.310  1.00  0.00    -0.063 Cl
ENDROOT
BRANCH   1   9
HETATM    9  O1  UNL     1      -4.939  -0.285  14.486  1.00  0.00    -0.268 OA
ATOM     10  H1  UNL     1      -5.610  -0.883  14.178  1.00  0.00     0.246 HD
ENDBRANCH   1   9
TORSDOF 1
ENDMDL
MODEL 3
REMARK VINA RESULT: -4.648831361      2.101      3.141
REMARK  1 active torsions:
REMARK  status: ('A' for Active; 'I' for Inactive)
REMARK    1  A    between atoms: O1_1  and  N1_3 
ROOT
HETATM    1  N1  UNL     1      -5.322   0.974  16.334  1.00  0.00    -0.135 N 
HETATM    2  N2  UNL     1      -4.143   0.649  16.182  1.00  0.00    -0.249 N 
ATOM      3  H2  UNL     1      -3.418  -0.050  16.026  1.00  0.00     0.188 HD
HETATM    4  C1  UNL     1      -4.579   2.047  16.398  1.00  0.00     0.336 A 
HETATM    5  O2  UNL     1      -3.640   2.795  15.856  1.00  0.00    -0.288 OA
HETATM    6  C2  UNL     1      -4.766   2.933  15.145  1.00  0.00     0.297 A 
HETATM    7 CL1  UNL     1      -5.889   4.292  15.432  1.00  0.00    -0.063 Cl
HETATM    8 CL2  UNL     1      -4.848   2.098  13.590  1.00  0.00    -0.063 Cl
ENDROOT
BRANCH   1   9
HETATM    9  O1  UNL     1      -6.600   0.398  16.382  1.00  0.00    -0.268 OA
ATOM     10  H1  UNL     1      -7.510   0.649  16.493  1.00  0.00     0.246 HD
ENDBRANCH   1   9
TORSDOF 1
ENDMDL
MODEL 4
REMARK VINA RESULT: -4.443310186      1.683      2.093
REMARK  1 active torsions:
REMARK  status: ('A' for Active; 'I' for Inactive)
REMARK    1  A    between atoms: O1_1  and  N1_3 
ROOT
HETATM    1  N1  UNL     1      -4.718   1.696  16.114  1.00  0.00    -0.135 N 
HETATM    2  N2  UNL     1      -5.311   2.185  15.150  1.00  0.00    -0.249 N 
ATOM      3  H2  UNL     1      -5.553   2.201  14.160  1.00  0.00     0.188 HD
HETATM    4  C1  UNL     1      -5.404   2.730  16.523  1.00  0.00     0.336 A 
HETATM    5  O2  UNL     1      -6.560   3.361  16.571  1.00  0.00    -0.288 OA
HETATM    6  C2  UNL     1      -6.617   2.294  17.378  1.00  0.00     0.297 A 
HETATM    7 CL1  UNL     1      -6.301   2.432  19.131  1.00  0.00    -0.063 Cl
HETATM    8 CL2  UNL     1      -7.529   0.894  16.802  1.00  0.00    -0.063 Cl
ENDROOT
BRANCH   1   9
HETATM    9  O1  UNL     1      -3.848   0.639  16.421  1.00  0.00    -0.268 OA
ATOM     10  H1  UNL     1      -3.851  -0.308  16.502  1.00  0.00     0.246 HD
ENDBRANCH   1   9
TORSDOF 1
ENDMDL
MODEL 5
REMARK VINA RESULT: -4.296568498      2.231      3.164
REMARK  1 active torsions:
REMARK  status: ('A' for Active; 'I' for Inactive)
REMARK    1  A    between atoms: O1_1  and  N1_3 
ROOT
HETATM    1  N1  UNL     1      -6.053   1.307  16.834  1.00  0.00    -0.135 N 
HETATM    2  N2  UNL     1      -5.331   0.370  17.181  1.00  0.00    -0.249 N 
ATOM      3  H2  UNL     1      -5.190  -0.607  17.437  1.00  0.00     0.188 HD
HETATM    4  C1  UNL     1      -4.826   1.740  16.944  1.00  0.00     0.336 A 
HETATM    5  O2  UNL     1      -3.553   1.595  16.635  1.00  0.00    -0.288 OA
HETATM    6  C2  UNL     1      -4.211   2.039  15.557  1.00  0.00     0.297 A 
HETATM    7 CL1  UNL     1      -4.265   3.777  15.147  1.00  0.00    -0.063 Cl
HETATM    8 CL2  UNL     1      -4.544   0.869  14.275  1.00  0.00    -0.063 Cl
ENDROOT
BRANCH   1   9
HETATM    9  O1  UNL     1      -7.397   1.578  16.536  1.00  0.00    -0.268 OA
ATOM     10  H1  UNL     1      -8.017   1.493  15.822  1.00  0.00     0.246 HD
ENDBRANCH   1   9
TORSDOF 1
ENDMDL
