MODEL 1
REMARK VINA RESULT: -4.506009410      0.000      0.000
REMARK  1 active torsions:
REMARK  status: ('A' for Active; 'I' for Inactive)
REMARK    1  A    between atoms: O1_1  and  C1_3 
ROOT
HETATM    1  C1  UNL     1      -4.650   1.592  16.890  1.00  0.00     0.198 A 
HETATM    2  C2  UNL     1      -5.992   1.701  16.217  1.00  0.00     0.173 A 
HETATM    3 CL1  UNL     1      -6.529   3.371  15.937  1.00  0.00    -0.117 Cl
HETATM    4  C3  UNL     1      -5.879   1.185  17.615  1.00  0.00     0.225 A 
HETATM    5  F1  UNL     1      -6.222  -0.128  17.780  1.00  0.00    -0.221 F 
HETATM    6 CL2  UNL     1      -6.333   2.233  18.981  1.00  0.00    -0.078 Cl
ENDROOT
BRANCH   1   7
HETATM    7  O1  UNL     1      -3.796   0.666  16.325  1.00  0.00    -0.389 OA
ATOM      8  H1  UNL     1      -2.872   0.855  16.443  1.00  0.00     0.210 HD
ENDBRANCH   1   7
TORSDOF 1
ENDMDL
MODEL 2
REMARK VINA RESULT: -4.325634319      1.798      1.993
REMARK  1 active torsions:
REMARK  status: ('A' for Active; 'I' for Inactive)
REMARK    1  A    between atoms: O1_1  and  C1_3 
ROOT
HETATM    1  C1  UNL     1      -5.718   1.075  17.597  1.00  0.00     0.198 A 
HETATM    2  C2  UNL     1      -5.654   1.290  16.109  1.00  0.00     0.173 A 
HETATM    3 CL1  UNL     1      -4.435   2.479  15.601  1.00  0.00    -0.117 Cl
HETATM    4  C3  UNL     1      -6.844   1.740  16.894  1.00  0.00     0.225 A 
HETATM    5  F1  UNL     1      -8.009   1.084  16.609  1.00  0.00    -0.221 F 
HETATM    6 CL2  UNL     1      -7.052   3.468  17.267  1.00  0.00    -0.078 Cl
ENDROOT
BRANCH   1   7
HETATM    7  O1  UNL     1      -5.781  -0.249  17.985  1.00  0.00    -0.389 OA
ATOM      8  H1  UNL     1      -6.326  -0.414  18.745  1.00  0.00     0.210 HD
ENDBRANCH   1   7
TORSDOF 1
ENDMDL
MODEL 3
REMARK VINA RESULT: -4.283453512      2.034      2.730
REMARK  1 active torsions:
REMARK  status: ('A' for Active; 'I' for Inactive)
REMARK    1  A    between atoms: O1_1  and  C1_3 
ROOT
HETATM    1  C1  UNL     1      -4.964   1.004  15.960  1.00  0.00     0.198 A 
HETATM    2  C2  UNL     1      -5.477   1.790  17.135  1.00  0.00     0.173 A 
HETATM    3 CL1  UNL     1      -7.228   1.641  17.400  1.00  0.00    -0.117 Cl
HETATM    4  C3  UNL     1      -4.971   2.487  15.914  1.00  0.00     0.225 A 
HETATM    5  F1  UNL     1      -3.833   3.223  16.094  1.00  0.00    -0.221 F 
HETATM    6 CL2  UNL     1      -6.127   3.203  14.765  1.00  0.00    -0.078 Cl
ENDROOT
BRANCH   1   7
HETATM    7  O1  UNL     1      -3.810   0.286  16.206  1.00  0.00    -0.389 OA
ATOM      8  H1  UNL     1      -3.831  -0.614  15.903  1.00  0.00     0.210 HD
ENDBRANCH   1   7
TORSDOF 1
ENDMDL
MODEL 4
REMARK VINA RESULT: -4.235203928      1.296      1.521
REMARK  1 active torsions:
REMARK  status: ('A' for Active; 'I' for Inactive)
REMARK    1  A    between atoms: O1_1  and  C1_3 
ROOT
HETATM    1  C1  UNL     1      -4.565   2.000  16.436  1.00  0.00     0.198 A 
HETATM    2  C2  UNL     1      -5.282   2.148  15.121  1.00  0.00     0.173 A 
HETATM    3 CL1  UNL     1      -5.191   3.781  14.426  1.00  0.00    -0.117 Cl
HETATM    4  C3  UNL     1      -6.046   1.924  16.385  1.00  0.00     0.225 A 
HETATM    5  F1  UNL     1      -6.714   0.733  16.458  1.00  0.00    -0.221 F 
HETATM    6 CL2  UNL     1      -6.899   3.285  17.153  1.00  0.00    -0.078 Cl
ENDROOT
BRANCH   1   7
HETATM    7  O1  UNL     1      -3.780   0.868  16.539  1.00  0.00    -0.389 OA
ATOM      8  H1  UNL     1      -2.862   1.003  16.334  1.00  0.00     0.210 HD
ENDBRANCH   1   7
TORSDOF 1
ENDMDL
MODEL 5
REMARK VINA RESULT: -4.000205349      1.621      1.683
REMARK  1 active torsions:
REMARK  status: ('A' for Active; 'I' for Inactive)
REMARK    1  A    between atoms: O1_1  and  C1_3 
ROOT
HETATM    1  C1  UNL     1      -4.614   2.117  16.577  1.00  0.00     0.198 A 
HETATM    2  C2  UNL     1      -5.203   2.279  15.202  1.00  0.00     0.173 A 
HETATM    3 CL1  UNL     1      -6.314   3.656  15.046  1.00  0.00    -0.117 Cl
HETATM    4  C3  UNL     1      -5.582   1.117  16.062  1.00  0.00     0.225 A 
HETATM    5  F1  UNL     1      -5.183  -0.105  15.597  1.00  0.00    -0.221 F 
HETATM    6 CL2  UNL     1      -7.163   1.104  16.880  1.00  0.00    -0.078 Cl
ENDROOT
BRANCH   1   7
HETATM    7  O1  UNL     1      -3.255   1.875  16.596  1.00  0.00    -0.389 OA
ATOM      8  H1  UNL     1      -2.959   1.227  15.967  1.00  0.00     0.210 HD
ENDBRANCH   1   7
TORSDOF 1
ENDMDL
