MODEL 1
REMARK VINA RESULT: -4.460337052      0.000      0.000
REMARK  0 active torsions:
REMARK  status: ('A' for Active; 'I' for Inactive)
ROOT
HETATM    1  O1  UNL     1      -3.716   0.931  16.553  1.00  0.00    -0.291 OA
HETATM    2  C1  UNL     1      -4.684   1.551  16.169  1.00  0.00     0.217 C 
HETATM    3  C2  UNL     1      -4.877   2.639  15.196  1.00  0.00     0.355 C 
HETATM    4 CL1  UNL     1      -3.710   3.943  15.217  1.00  0.00    -0.086 Cl
HETATM    5  N1  UNL     1      -6.089   3.005  15.913  1.00  0.00    -0.027 N 
ATOM      6  H11 UNL     1      -6.883   3.425  15.428  1.00  0.00     0.281 HD
ATOM      7  H12 UNL     1      -6.101   3.791  16.563  1.00  0.00     0.281 HD
HETATM    8  C3  UNL     1      -6.141   1.618  16.394  1.00  0.00     0.355 C 
HETATM    9 CL2  UNL     1      -6.680   1.451  18.055  1.00  0.00    -0.086 Cl
ENDROOT
TORSDOF 0
ENDMDL
MODEL 2
REMARK VINA RESULT: -4.342333511      1.027      2.893
REMARK  0 active torsions:
REMARK  status: ('A' for Active; 'I' for Inactive)
ROOT
HETATM    1  O1  UNL     1      -3.805   0.735  16.493  1.00  0.00    -0.291 OA
HETATM    2  C1  UNL     1      -4.577   1.644  16.275  1.00  0.00     0.217 C 
HETATM    3  C2  UNL     1      -5.785   2.140  16.956  1.00  0.00     0.355 C 
HETATM    4 CL1  UNL     1      -6.927   0.943  17.527  1.00  0.00    -0.086 Cl
HETATM    5  N1  UNL     1      -6.211   2.713  15.688  1.00  0.00    -0.027 N 
ATOM      6  H11 UNL     1      -6.777   3.561  15.655  1.00  0.00     0.281 HD
ATOM      7  H12 UNL     1      -6.913   2.251  15.109  1.00  0.00     0.281 HD
HETATM    8  C3  UNL     1      -4.795   2.729  15.298  1.00  0.00     0.355 C 
HETATM    9 CL2  UNL     1      -4.506   2.329  13.614  1.00  0.00    -0.086 Cl
ENDROOT
TORSDOF 0
ENDMDL
MODEL 3
REMARK VINA RESULT: -4.256002784      1.599      3.094
REMARK  0 active torsions:
REMARK  status: ('A' for Active; 'I' for Inactive)
ROOT
HETATM    1  O1  UNL     1      -4.857  -0.473  15.539  1.00  0.00    -0.291 OA
HETATM    2  C1  UNL     1      -4.996   0.729  15.598  1.00  0.00     0.217 C 
HETATM    3  C2  UNL     1      -5.701   1.629  16.526  1.00  0.00     0.355 C 
HETATM    4 CL1  UNL     1      -7.300   1.144  17.047  1.00  0.00    -0.086 Cl
HETATM    5  N1  UNL     1      -5.770   2.609  15.453  1.00  0.00    -0.027 N 
ATOM      6  H11 UNL     1      -5.766   3.610  15.651  1.00  0.00     0.281 HD
ATOM      7  H12 UNL     1      -6.626   2.743  14.915  1.00  0.00     0.281 HD
HETATM    8  C3  UNL     1      -4.598   1.947  14.865  1.00  0.00     0.355 C 
HETATM    9 CL2  UNL     1      -4.629   1.847  13.114  1.00  0.00    -0.086 Cl
ENDROOT
TORSDOF 0
ENDMDL
MODEL 4
REMARK VINA RESULT: -3.895773320      3.717      4.164
REMARK  0 active torsions:
REMARK  status: ('A' for Active; 'I' for Inactive)
ROOT
HETATM    1  O1  UNL     1      -5.836   2.263  11.413  1.00  0.00    -0.291 OA
HETATM    2  C1  UNL     1      -5.087   2.131  12.357  1.00  0.00     0.217 C 
HETATM    3  C2  UNL     1      -4.039   1.154  12.697  1.00  0.00     0.355 C 
HETATM    4 CL1  UNL     1      -4.394  -0.533  12.392  1.00  0.00    -0.086 Cl
HETATM    5  N1  UNL     1      -4.241   1.491  14.098  1.00  0.00    -0.027 N 
ATOM      6  H11 UNL     1      -3.475   1.439  14.769  1.00  0.00     0.281 HD
ATOM      7  H12 UNL     1      -4.789   0.888  14.712  1.00  0.00     0.281 HD
HETATM    8  C3  UNL     1      -4.763   2.786  13.640  1.00  0.00     0.355 C 
HETATM    9 CL2  UNL     1      -6.123   3.386  14.572  1.00  0.00    -0.086 Cl
ENDROOT
TORSDOF 0
ENDMDL
MODEL 5
REMARK VINA RESULT: -3.888357042      1.754      1.894
REMARK  0 active torsions:
REMARK  status: ('A' for Active; 'I' for Inactive)
ROOT
HETATM    1  O1  UNL     1      -5.796  -0.364  17.326  1.00  0.00    -0.291 OA
HETATM    2  C1  UNL     1      -6.150   0.768  17.076  1.00  0.00     0.217 C 
HETATM    3  C2  UNL     1      -6.082   1.615  15.873  1.00  0.00     0.355 C 
HETATM    4 CL1  UNL     1      -4.587   1.587  14.962  1.00  0.00    -0.086 Cl
HETATM    5  N1  UNL     1      -6.150   2.779  16.742  1.00  0.00    -0.027 N 
ATOM      6  H11 UNL     1      -6.585   3.647  16.429  1.00  0.00     0.281 HD
ATOM      7  H12 UNL     1      -5.312   3.312  16.977  1.00  0.00     0.281 HD
HETATM    8  C3  UNL     1      -6.805   1.916  17.733  1.00  0.00     0.355 C 
HETATM    9 CL2  UNL     1      -6.333   2.236  19.393  1.00  0.00    -0.086 Cl
ENDROOT
TORSDOF 0
ENDMDL
