MODEL 1
REMARK VINA RESULT: -4.582762176      0.000      0.000
REMARK  5 active torsions:
REMARK  status: ('A' for Active; 'I' for Inactive)
REMARK    1  A    between atoms: C2_3  and  N2_4 
REMARK    2  A    between atoms: C4_6  and  S1_7 
REMARK    3  A    between atoms: S1_7  and  N3_8 
REMARK    4  A    between atoms: C5_13  and  N4_14 
REMARK    5  A    between atoms: C6_19  and  N6_20 
ROOT
HETATM    1  N1  UNL     1      46.159  -1.457  21.207  1.00  0.00    -0.196 NA
HETATM    2  C1  UNL     1      46.612  -1.946  22.154  1.00  0.00     0.079 C 
HETATM    3  C2  UNL     1      47.204  -2.574  23.338  1.00  0.00     0.270 C 
ENDROOT
BRANCH   3   4
HETATM    4  N2  UNL     1      47.781  -3.856  23.017  1.00  0.00    -0.179 N 
HETATM    5  C3  UNL     1      49.106  -4.012  22.795  1.00  0.00     0.139 A 
HETATM    6  C4  UNL     1      49.672  -5.223  22.489  1.00  0.00     0.139 A 
HETATM    7  C5  UNL     1      48.875  -6.342  22.399  1.00  0.00     0.139 A 
HETATM    8  N5  UNL     1      47.557  -6.170  22.623  1.00  0.00    -0.176 N 
HETATM    9  C6  UNL     1      47.026  -4.969  22.922  1.00  0.00     0.680 A 
ATOM     10  H5  UNL     1      46.939  -6.979  22.563  1.00  0.00     0.186 HD
BRANCH   6  11
HETATM   11  S1  UNL     1      51.381  -5.421  22.202  1.00  0.00     0.261 S 
HETATM   12  O1  UNL     1      51.546  -5.744  20.729  1.00  0.00    -0.201 OA
HETATM   13  O2  UNL     1      51.855  -6.571  23.014  1.00  0.00    -0.201 OA
BRANCH  11  14
HETATM   14  N3  UNL     1      52.266  -4.010  22.602  1.00  0.00    -0.324 N 
ATOM     15  H32 UNL     1      53.023  -4.002  23.285  1.00  0.00     0.169 HD
ATOM     16  H31 UNL     1      51.943  -3.197  22.078  1.00  0.00     0.169 HD
ENDBRANCH  11  14
ENDBRANCH   6  11
BRANCH   7  17
HETATM   17  N4  UNL     1      49.368  -7.503  22.113  1.00  0.00    -0.384 N 
ATOM     18  H42 UNL     1      49.778  -7.700  21.200  1.00  0.00     0.157 HD
ATOM     19  H41 UNL     1      49.365  -8.266  22.790  1.00  0.00     0.157 HD
ENDBRANCH   7  17
BRANCH   9  20
HETATM   20  N6  UNL     1      45.751  -4.842  23.131  1.00  0.00    -0.234 N 
ATOM     21  H62 UNL     1      45.269  -3.972  22.899  1.00  0.00     0.174 HD
ATOM     22  H61 UNL     1      45.262  -5.642  23.533  1.00  0.00     0.174 HD
ENDBRANCH   9  20
ENDBRANCH   3   4
TORSDOF 5
ENDMDL
MODEL 2
REMARK VINA RESULT: -4.551829267      3.071      4.693
REMARK  5 active torsions:
REMARK  status: ('A' for Active; 'I' for Inactive)
REMARK    1  A    between atoms: C2_3  and  N2_4 
REMARK    2  A    between atoms: C4_6  and  S1_7 
REMARK    3  A    between atoms: S1_7  and  N3_8 
REMARK    4  A    between atoms: C5_13  and  N4_14 
REMARK    5  A    between atoms: C6_19  and  N6_20 
ROOT
HETATM    1  N1  UNL     1      52.660  -3.638  23.031  1.00  0.00    -0.196 NA
HETATM    2  C1  UNL     1      52.013  -4.502  22.611  1.00  0.00     0.079 C 
HETATM    3  C2  UNL     1      51.176  -5.578  22.074  1.00  0.00     0.270 C 
ENDROOT
BRANCH   3   4
HETATM    4  N2  UNL     1      49.779  -5.342  22.348  1.00  0.00    -0.179 N 
HETATM    5  C3  UNL     1      49.284  -4.098  22.535  1.00  0.00     0.139 A 
HETATM    6  C4  UNL     1      47.960  -3.855  22.796  1.00  0.00     0.139 A 
HETATM    7  C5  UNL     1      47.078  -4.910  22.876  1.00  0.00     0.139 A 
HETATM    8  N5  UNL     1      47.587  -6.143  22.687  1.00  0.00    -0.176 N 
HETATM    9  C6  UNL     1      48.893  -6.355  22.432  1.00  0.00     0.680 A 
ATOM     10  H5  UNL     1      46.961  -6.946  22.740  1.00  0.00     0.186 HD
BRANCH   6  11
HETATM   11  S1  UNL     1      47.324  -2.249  23.037  1.00  0.00     0.261 S 
HETATM   12  O1  UNL     1      46.887  -2.161  24.487  1.00  0.00    -0.201 OA
HETATM   13  O2  UNL     1      46.140  -2.084  22.156  1.00  0.00    -0.201 OA
BRANCH  11  14
HETATM   14  N3  UNL     1      48.489  -1.040  22.694  1.00  0.00    -0.324 N 
ATOM     15  H32 UNL     1      49.293  -1.197  22.087  1.00  0.00     0.169 HD
ATOM     16  H31 UNL     1      48.277  -0.162  23.168  1.00  0.00     0.169 HD
ENDBRANCH  11  14
ENDBRANCH   6  11
BRANCH   7  17
HETATM   17  N4  UNL     1      45.822  -4.725  23.119  1.00  0.00    -0.384 N 
ATOM     18  H42 UNL     1      45.447  -3.798  23.319  1.00  0.00     0.157 HD
ATOM     19  H41 UNL     1      45.159  -5.500  23.121  1.00  0.00     0.157 HD
ENDBRANCH   7  17
BRANCH   9  20
HETATM   20  N6  UNL     1      49.348  -7.558  22.256  1.00  0.00    -0.234 N 
ATOM     21  H62 UNL     1      48.858  -8.217  21.649  1.00  0.00     0.174 HD
ATOM     22  H61 UNL     1      50.206  -7.809  22.746  1.00  0.00     0.174 HD
ENDBRANCH   9  20
ENDBRANCH   3   4
TORSDOF 5
ENDMDL
MODEL 3
REMARK VINA RESULT: -4.523771428      3.186      4.654
REMARK  5 active torsions:
REMARK  status: ('A' for Active; 'I' for Inactive)
REMARK    1  A    between atoms: C2_3  and  N2_4 
REMARK    2  A    between atoms: C4_6  and  S1_7 
REMARK    3  A    between atoms: S1_7  and  N3_8 
REMARK    4  A    between atoms: C5_13  and  N4_14 
REMARK    5  A    between atoms: C6_19  and  N6_20 
ROOT
HETATM    1  N1  UNL     1      51.865  -4.435  19.838  1.00  0.00    -0.196 NA
HETATM    2  C1  UNL     1      51.564  -4.903  20.854  1.00  0.00     0.079 C 
HETATM    3  C2  UNL     1      51.159  -5.502  22.128  1.00  0.00     0.270 C 
ENDROOT
BRANCH   3   4
HETATM    4  N2  UNL     1      49.760  -5.273  22.393  1.00  0.00    -0.179 N 
HETATM    5  C3  UNL     1      49.263  -4.035  22.611  1.00  0.00     0.139 A 
HETATM    6  C4  UNL     1      47.936  -3.799  22.865  1.00  0.00     0.139 A 
HETATM    7  C5  UNL     1      47.054  -4.855  22.904  1.00  0.00     0.139 A 
HETATM    8  N5  UNL     1      47.565  -6.083  22.686  1.00  0.00    -0.176 N 
HETATM    9  C6  UNL     1      48.872  -6.288  22.438  1.00  0.00     0.680 A 
ATOM     10  H5  UNL     1      46.938  -6.887  22.708  1.00  0.00     0.186 HD
BRANCH   6  11
HETATM   11  S1  UNL     1      47.298  -2.200  23.146  1.00  0.00     0.261 S 
HETATM   12  O1  UNL     1      46.887  -2.140  24.605  1.00  0.00    -0.201 OA
HETATM   13  O2  UNL     1      46.098  -2.025  22.290  1.00  0.00    -0.201 OA
BRANCH  11  14
HETATM   14  N3  UNL     1      48.451  -0.981  22.804  1.00  0.00    -0.324 N 
ATOM     15  H32 UNL     1      48.259  -0.187  22.193  1.00  0.00     0.169 HD
ATOM     16  H31 UNL     1      49.336  -1.148  23.282  1.00  0.00     0.169 HD
ENDBRANCH  11  14
ENDBRANCH   6  11
BRANCH   7  17
HETATM   17  N4  UNL     1      45.794  -4.677  23.140  1.00  0.00    -0.384 N 
ATOM     18  H42 UNL     1      45.078  -5.221  22.659  1.00  0.00     0.157 HD
ATOM     19  H41 UNL     1      45.471  -3.985  23.816  1.00  0.00     0.157 HD
ENDBRANCH   7  17
BRANCH   9  20
HETATM   20  N6  UNL     1      49.329  -7.486  22.232  1.00  0.00    -0.234 N 
ATOM     21  H62 UNL     1      48.883  -8.104  21.554  1.00  0.00     0.174 HD
ATOM     22  H61 UNL     1      50.144  -7.773  22.773  1.00  0.00     0.174 HD
ENDBRANCH   9  20
ENDBRANCH   3   4
TORSDOF 5
ENDMDL
MODEL 4
REMARK VINA RESULT: -4.326696301      1.994      2.120
REMARK  5 active torsions:
REMARK  status: ('A' for Active; 'I' for Inactive)
REMARK    1  A    between atoms: C2_3  and  N2_4 
REMARK    2  A    between atoms: C4_6  and  S1_7 
REMARK    3  A    between atoms: S1_7  and  N3_8 
REMARK    4  A    between atoms: C5_13  and  N4_14 
REMARK    5  A    between atoms: C6_19  and  N6_20 
ROOT
HETATM    1  N1  UNL     1      45.802  -2.854  18.508  1.00  0.00    -0.196 NA
HETATM    2  C1  UNL     1      46.116  -2.845  19.623  1.00  0.00     0.079 C 
HETATM    3  C2  UNL     1      46.535  -2.844  21.027  1.00  0.00     0.270 C 
ENDROOT
BRANCH   3   4
HETATM    4  N2  UNL     1      47.279  -4.037  21.352  1.00  0.00    -0.179 N 
HETATM    5  C3  UNL     1      48.381  -4.406  20.663  1.00  0.00     0.139 A 
HETATM    6  C4  UNL     1      49.100  -5.536  20.958  1.00  0.00     0.139 A 
HETATM    7  C5  UNL     1      48.699  -6.344  21.998  1.00  0.00     0.139 A 
HETATM    8  N5  UNL     1      47.598  -5.962  22.675  1.00  0.00    -0.176 N 
HETATM    9  C6  UNL     1      46.910  -4.847  22.365  1.00  0.00     0.680 A 
ATOM     10  H5  UNL     1      47.274  -6.539  23.452  1.00  0.00     0.186 HD
BRANCH   6  11
HETATM   11  S1  UNL     1      50.522  -6.011  20.066  1.00  0.00     0.261 S 
HETATM   12  O1  UNL     1      50.243  -7.388  19.493  1.00  0.00    -0.201 OA
HETATM   13  O2  UNL     1      51.657  -6.096  21.019  1.00  0.00    -0.201 OA
BRANCH  11  14
HETATM   14  N3  UNL     1      50.887  -4.908  18.808  1.00  0.00    -0.324 N 
ATOM     15  H32 UNL     1      50.435  -4.935  17.894  1.00  0.00     0.169 HD
ATOM     16  H31 UNL     1      51.601  -4.235  19.086  1.00  0.00     0.169 HD
ENDBRANCH  11  14
ENDBRANCH   6  11
BRANCH   7  17
HETATM   17  N4  UNL     1      49.348  -7.418  22.310  1.00  0.00    -0.384 N 
ATOM     18  H42 UNL     1      50.292  -7.591  21.966  1.00  0.00     0.157 HD
ATOM     19  H41 UNL     1      48.939  -8.133  22.912  1.00  0.00     0.157 HD
ENDBRANCH   7  17
BRANCH   9  20
HETATM   20  N6  UNL     1      45.853  -4.510  23.040  1.00  0.00    -0.234 N 
ATOM     21  H62 UNL     1      45.903  -4.370  24.050  1.00  0.00     0.174 HD
ATOM     22  H61 UNL     1      44.984  -4.394  22.519  1.00  0.00     0.174 HD
ENDBRANCH   9  20
ENDBRANCH   3   4
TORSDOF 5
ENDMDL
MODEL 5
REMARK VINA RESULT: -4.308504265      4.775      6.626
REMARK  5 active torsions:
REMARK  status: ('A' for Active; 'I' for Inactive)
REMARK    1  A    between atoms: C2_3  and  N2_4 
REMARK    2  A    between atoms: C4_6  and  S1_7 
REMARK    3  A    between atoms: S1_7  and  N3_8 
REMARK    4  A    between atoms: C5_13  and  N4_14 
REMARK    5  A    between atoms: C6_19  and  N6_20 
ROOT
HETATM    1  N1  UNL     1      46.167  -5.252  22.956  1.00  0.00    -0.196 NA
HETATM    2  C1  UNL     1      46.922  -4.375  22.982  1.00  0.00     0.079 C 
HETATM    3  C2  UNL     1      47.860  -3.250  23.026  1.00  0.00     0.270 C 
ENDROOT
BRANCH   3   4
HETATM    4  N2  UNL     1      47.187  -1.998  22.777  1.00  0.00    -0.179 N 
HETATM    5  C3  UNL     1      46.499  -1.766  21.636  1.00  0.00     0.139 A 
HETATM    6  C4  UNL     1      45.854  -0.583  21.383  1.00  0.00     0.139 A 
HETATM    7  C5  UNL     1      45.897   0.428  22.318  1.00  0.00     0.139 A 
HETATM    8  N5  UNL     1      46.587   0.181  23.449  1.00  0.00    -0.176 N 
HETATM    9  C6  UNL     1      47.212  -0.990  23.673  1.00  0.00     0.680 A 
ATOM     10  H5  UNL     1      46.639   0.909  24.161  1.00  0.00     0.186 HD
BRANCH   6  11
HETATM   11  S1  UNL     1      44.967  -0.287  19.911  1.00  0.00     0.261 S 
HETATM   12  O1  UNL     1      45.562   0.959  19.281  1.00  0.00    -0.201 OA
HETATM   13  O2  UNL     1      43.550  -0.027  20.270  1.00  0.00    -0.201 OA
BRANCH  11  14
HETATM   14  N3  UNL     1      45.070  -1.607  18.824  1.00  0.00    -0.324 N 
ATOM     15  H32 UNL     1      45.677  -2.411  18.980  1.00  0.00     0.169 HD
ATOM     16  H31 UNL     1      44.457  -1.486  18.018  1.00  0.00     0.169 HD
ENDBRANCH  11  14
ENDBRANCH   6  11
BRANCH   7  17
HETATM   17  N4  UNL     1      45.302   1.559  22.119  1.00  0.00    -0.384 N 
ATOM     18  H42 UNL     1      45.137   1.918  21.179  1.00  0.00     0.157 HD
ATOM     19  H41 UNL     1      44.977   2.135  22.895  1.00  0.00     0.157 HD
ENDBRANCH   7  17
BRANCH   9  20
HETATM   20  N6  UNL     1      47.868  -1.192  24.775  1.00  0.00    -0.234 N 
ATOM     21  H62 UNL     1      48.687  -1.801  24.790  1.00  0.00     0.174 HD
ATOM     22  H61 UNL     1      47.529  -0.718  25.613  1.00  0.00     0.174 HD
ENDBRANCH   9  20
ENDBRANCH   3   4
TORSDOF 5
ENDMDL
