MODEL 1
REMARK VINA RESULT: -5.496437565      0.000      0.000
REMARK  4 active torsions:
REMARK  status: ('A' for Active; 'I' for Inactive)
REMARK    1  A    between atoms: N1_1  and  C1_5 
REMARK    2  A    between atoms: C1_5  and  C2_6 
REMARK    3  A    between atoms: C3_7  and  C4_8 
REMARK    4  A    between atoms: C4_8  and  C5_9 
ROOT
HETATM    1  C2  UNL     1      45.885  -0.452  21.983  1.00  0.00     0.058 A 
HETATM    2  C3  UNL     1      46.521  -1.665  21.785  1.00  0.00     0.034 A 
HETATM    3  N6  UNL     1      46.346  -2.256  20.574  1.00  0.00    -0.311 N 
ATOM      4  H6  UNL     1      46.804  -3.154  20.419  1.00  0.00     0.170 HD
HETATM    5  C6  UNL     1      45.629  -1.757  19.580  1.00  0.00     0.327 A 
HETATM    6  O1  UNL     1      45.473  -2.319  18.470  1.00  0.00    -0.247 OA
HETATM    7  N7  UNL     1      44.999  -0.558  19.780  1.00  0.00    -0.275 N 
ATOM      8  H7  UNL     1      44.436  -0.132  19.043  1.00  0.00     0.173 HD
HETATM    9  C7  UNL     1      45.145   0.045  20.980  1.00  0.00     0.259 A 
HETATM   10  O2  UNL     1      44.477   1.154  21.055  1.00  0.00    -0.267 OA
ENDROOT
BRANCH   2  11
HETATM   11  C4  UNL     1      47.308  -2.325  22.799  1.00  0.00     0.137 C 
BRANCH  11  12
HETATM   12  C5  UNL     1      47.093  -3.813  22.933  1.00  0.00     0.118 A 
HETATM   13  N2  UNL     1      45.992  -4.455  23.365  1.00  0.00    -0.272 N 
HETATM   14  N3  UNL     1      46.273  -5.769  23.276  1.00  0.00    -0.227 N 
ATOM     15  H2  UNL     1      45.123  -4.033  23.692  1.00  0.00     0.190 HD
HETATM   16  N4  UNL     1      47.458  -5.916  22.794  1.00  0.00    -0.227 N 
ATOM     17  H3  UNL     1      45.648  -6.527  23.548  1.00  0.00     0.210 HD
HETATM   18  N5  UNL     1      47.955  -4.756  22.602  1.00  0.00    -0.272 N 
ATOM     19  H4  UNL     1      47.919  -6.805  22.598  1.00  0.00     0.210 HD
ATOM     20  H5  UNL     1      48.893  -4.581  22.242  1.00  0.00     0.190 HD
ENDBRANCH  11  12
ENDBRANCH   2  11
BRANCH   1  21
HETATM   21  C1  UNL     1      46.308   0.315  23.169  1.00  0.00     0.275 C 
BRANCH  21  22
HETATM   22  N1  UNL     1      45.436   1.313  23.690  1.00  0.00    -0.075 N 
ATOM     23  H13 UNL     1      45.849   1.700  24.538  1.00  0.00     0.274 HD
ATOM     24  H12 UNL     1      45.458   2.124  23.072  1.00  0.00     0.274 HD
ATOM     25  H11 UNL     1      44.464   1.067  23.878  1.00  0.00     0.274 HD
ENDBRANCH  21  22
ENDBRANCH   1  21
TORSDOF 4
ENDMDL
MODEL 2
REMARK VINA RESULT: -5.164844152      4.120      5.784
REMARK  4 active torsions:
REMARK  status: ('A' for Active; 'I' for Inactive)
REMARK    1  A    between atoms: N1_1  and  C1_5 
REMARK    2  A    between atoms: C1_5  and  C2_6 
REMARK    3  A    between atoms: C3_7  and  C4_8 
REMARK    4  A    between atoms: C4_8  and  C5_9 
ROOT
HETATM    1  C2  UNL     1      49.880  -4.711  22.623  1.00  0.00     0.058 A 
HETATM    2  C3  UNL     1      49.455  -6.018  22.454  1.00  0.00     0.034 A 
HETATM    3  N6  UNL     1      48.117  -6.239  22.528  1.00  0.00    -0.311 N 
ATOM      4  H6  UNL     1      47.792  -7.200  22.413  1.00  0.00     0.170 HD
HETATM    5  C6  UNL     1      47.201  -5.307  22.738  1.00  0.00     0.327 A 
HETATM    6  O1  UNL     1      45.969  -5.530  22.809  1.00  0.00    -0.247 OA
HETATM    7  N7  UNL     1      47.624  -4.015  22.906  1.00  0.00    -0.275 N 
ATOM      8  H7  UNL     1      46.956  -3.261  23.068  1.00  0.00     0.173 HD
HETATM    9  C7  UNL     1      48.951  -3.769  22.851  1.00  0.00     0.259 A 
HETATM   10  O2  UNL     1      49.225  -2.518  23.055  1.00  0.00    -0.267 OA
ENDROOT
BRANCH   2  11
HETATM   11  C4  UNL     1      50.357  -7.125  22.248  1.00  0.00     0.137 C 
BRANCH  11  12
HETATM   12  C5  UNL     1      49.733  -8.386  21.700  1.00  0.00     0.118 A 
HETATM   13  N2  UNL     1      49.293  -8.616  20.449  1.00  0.00    -0.272 N 
HETATM   14  N3  UNL     1      48.852  -9.889  20.442  1.00  0.00    -0.227 N 
ATOM     15  H2  UNL     1      49.293  -7.961  19.668  1.00  0.00     0.190 HD
HETATM   16  N4  UNL     1      49.040 -10.408  21.605  1.00  0.00    -0.227 N 
ATOM     17  H3  UNL     1      48.436 -10.365  19.643  1.00  0.00     0.210 HD
HETATM   18  N5  UNL     1      49.549  -9.514  22.361  1.00  0.00    -0.272 N 
ATOM     19  H4  UNL     1      48.820 -11.366  21.876  1.00  0.00     0.210 HD
ATOM     20  H5  UNL     1      49.783  -9.653  23.344  1.00  0.00     0.190 HD
ENDBRANCH  11  12
ENDBRANCH   2  11
BRANCH   1  21
HETATM   21  C1  UNL     1      51.280  -4.433  22.255  1.00  0.00     0.275 C 
BRANCH  21  22
HETATM   22  N1  UNL     1      52.005  -3.458  22.997  1.00  0.00    -0.075 N 
ATOM     23  H13 UNL     1      51.454  -2.601  23.040  1.00  0.00     0.274 HD
ATOM     24  H12 UNL     1      52.018  -3.735  23.979  1.00  0.00     0.274 HD
ATOM     25  H11 UNL     1      52.955  -3.226  22.708  1.00  0.00     0.274 HD
ENDBRANCH  21  22
ENDBRANCH   1  21
TORSDOF 4
ENDMDL
MODEL 3
REMARK VINA RESULT: -5.066109842      1.444      2.918
REMARK  4 active torsions:
REMARK  status: ('A' for Active; 'I' for Inactive)
REMARK    1  A    between atoms: N1_1  and  C1_5 
REMARK    2  A    between atoms: C1_5  and  C2_6 
REMARK    3  A    between atoms: C3_7  and  C4_8 
REMARK    4  A    between atoms: C4_8  and  C5_9 
ROOT
HETATM    1  C2  UNL     1      46.122  -1.469  20.324  1.00  0.00     0.058 A 
HETATM    2  C3  UNL     1      46.744  -1.637  21.550  1.00  0.00     0.034 A 
HETATM    3  N6  UNL     1      46.413  -0.754  22.528  1.00  0.00    -0.311 N 
ATOM      4  H6  UNL     1      46.871  -0.863  23.433  1.00  0.00     0.170 HD
HETATM    5  C6  UNL     1      45.543   0.235  22.399  1.00  0.00     0.327 A 
HETATM    6  O1  UNL     1      45.254   1.045  23.311  1.00  0.00    -0.247 OA
HETATM    7  N7  UNL     1      44.931   0.399  21.185  1.00  0.00    -0.275 N 
ATOM      8  H7  UNL     1      44.251   1.146  21.037  1.00  0.00     0.173 HD
HETATM    9  C7  UNL     1      45.252  -0.456  20.190  1.00  0.00     0.259 A 
HETATM   10  O2  UNL     1      44.631  -0.178  19.086  1.00  0.00    -0.267 OA
ENDROOT
BRANCH   2  11
HETATM   11  C4  UNL     1      47.730  -2.659  21.807  1.00  0.00     0.137 C 
BRANCH  11  12
HETATM   12  C5  UNL     1      47.198  -3.963  22.348  1.00  0.00     0.118 A 
HETATM   13  N2  UNL     1      46.251  -4.146  23.286  1.00  0.00    -0.272 N 
HETATM   14  N3  UNL     1      46.102  -5.479  23.405  1.00  0.00    -0.227 N 
ATOM     15  H2  UNL     1      45.749  -3.423  23.802  1.00  0.00     0.190 HD
HETATM   16  N4  UNL     1      46.887  -6.068  22.571  1.00  0.00    -0.227 N 
ATOM     17  H3  UNL     1      45.469  -5.948  24.053  1.00  0.00     0.210 HD
HETATM   18  N5  UNL     1      47.551  -5.172  21.951  1.00  0.00    -0.272 N 
ATOM     19  H4  UNL     1      46.964  -7.075  22.431  1.00  0.00     0.210 HD
ATOM     20  H5  UNL     1      48.260  -5.364  21.243  1.00  0.00     0.190 HD
ENDBRANCH  11  12
ENDBRANCH   2  11
BRANCH   1  21
HETATM   21  C1  UNL     1      46.258  -2.586  19.372  1.00  0.00     0.275 C 
BRANCH  21  22
HETATM   22  N1  UNL     1      45.086  -3.107  18.752  1.00  0.00    -0.075 N 
ATOM     23  H13 UNL     1      44.269  -2.656  19.163  1.00  0.00     0.274 HD
ATOM     24  H12 UNL     1      45.041  -2.764  17.793  1.00  0.00     0.274 HD
ATOM     25  H11 UNL     1      44.939  -4.117  18.748  1.00  0.00     0.274 HD
ENDBRANCH  21  22
ENDBRANCH   1  21
TORSDOF 4
ENDMDL
MODEL 4
REMARK VINA RESULT: -5.028312876      1.858      2.527
REMARK  4 active torsions:
REMARK  status: ('A' for Active; 'I' for Inactive)
REMARK    1  A    between atoms: N1_1  and  C1_5 
REMARK    2  A    between atoms: C1_5  and  C2_6 
REMARK    3  A    between atoms: C3_7  and  C4_8 
REMARK    4  A    between atoms: C4_8  and  C5_9 
ROOT
HETATM    1  C2  UNL     1      47.319  -0.386  23.969  1.00  0.00     0.058 A 
HETATM    2  C3  UNL     1      47.252  -1.326  22.954  1.00  0.00     0.034 A 
HETATM    3  N6  UNL     1      46.281  -1.148  22.021  1.00  0.00    -0.311 N 
ATOM      4  H6  UNL     1      46.217  -1.838  21.272  1.00  0.00     0.170 HD
HETATM    5  C6  UNL     1      45.413  -0.149  22.006  1.00  0.00     0.327 A 
HETATM    6  O1  UNL     1      44.518  -0.003  21.139  1.00  0.00    -0.247 OA
HETATM    7  N7  UNL     1      45.480   0.778  23.012  1.00  0.00    -0.275 N 
ATOM      8  H7  UNL     1      44.834   1.567  23.042  1.00  0.00     0.173 HD
HETATM    9  C7  UNL     1      46.428   0.617  23.961  1.00  0.00     0.259 A 
HETATM   10  O2  UNL     1      46.369   1.539  24.872  1.00  0.00    -0.267 OA
ENDROOT
BRANCH   2  11
HETATM   11  C4  UNL     1      48.123  -2.473  22.876  1.00  0.00     0.137 C 
BRANCH  11  12
HETATM   12  C5  UNL     1      47.444  -3.819  22.947  1.00  0.00     0.118 A 
HETATM   13  N2  UNL     1      46.284  -4.131  23.555  1.00  0.00    -0.272 N 
HETATM   14  N3  UNL     1      46.084  -5.441  23.316  1.00  0.00    -0.227 N 
ATOM     15  H2  UNL     1      45.682  -3.504  24.087  1.00  0.00     0.190 HD
HETATM   16  N4  UNL     1      47.044  -5.890  22.585  1.00  0.00    -0.227 N 
ATOM     17  H3  UNL     1      45.297  -5.991  23.660  1.00  0.00     0.210 HD
HETATM   18  N5  UNL     1      47.863  -4.934  22.375  1.00  0.00    -0.272 N 
ATOM     19  H4  UNL     1      47.135  -6.843  22.235  1.00  0.00     0.210 HD
ATOM     20  H5  UNL     1      48.725  -5.018  21.838  1.00  0.00     0.190 HD
ENDBRANCH  11  12
ENDBRANCH   2  11
BRANCH   1  21
HETATM   21  C1  UNL     1      48.537  -0.416  24.799  1.00  0.00     0.275 C 
BRANCH  21  22
HETATM   22  N1  UNL     1      48.413  -0.249  26.208  1.00  0.00    -0.075 N 
ATOM     23  H13 UNL     1      48.941   0.577  26.489  1.00  0.00     0.274 HD
ATOM     24  H12 UNL     1      47.459   0.043  26.422  1.00  0.00     0.274 HD
ATOM     25  H11 UNL     1      48.665  -1.026  26.819  1.00  0.00     0.274 HD
ENDBRANCH  21  22
ENDBRANCH   1  21
TORSDOF 4
ENDMDL
MODEL 5
REMARK VINA RESULT: -4.927797479      4.084      6.025
REMARK  4 active torsions:
REMARK  status: ('A' for Active; 'I' for Inactive)
REMARK    1  A    between atoms: N1_1  and  C1_5 
REMARK    2  A    between atoms: C1_5  and  C2_6 
REMARK    3  A    between atoms: C3_7  and  C4_8 
REMARK    4  A    between atoms: C4_8  and  C5_9 
ROOT
HETATM    1  C2  UNL     1      49.002  -6.671  19.141  1.00  0.00     0.058 A 
HETATM    2  C3  UNL     1      48.891  -5.591  20.000  1.00  0.00     0.034 A 
HETATM    3  N6  UNL     1      48.617  -4.387  19.434  1.00  0.00    -0.311 N 
ATOM      4  H6  UNL     1      48.539  -3.582  20.057  1.00  0.00     0.170 HD
HETATM    5  C6  UNL     1      48.442  -4.176  18.140  1.00  0.00     0.327 A 
HETATM    6  O1  UNL     1      48.195  -3.055  17.633  1.00  0.00    -0.247 OA
HETATM    7  N7  UNL     1      48.555  -5.245  17.292  1.00  0.00    -0.275 N 
ATOM      8  H7  UNL     1      48.427  -5.133  16.286  1.00  0.00     0.173 HD
HETATM    9  C7  UNL     1      48.840  -6.453  17.826  1.00  0.00     0.259 A 
HETATM   10  O2  UNL     1      48.952  -7.375  16.921  1.00  0.00    -0.267 OA
ENDROOT
BRANCH   2  11
HETATM   11  C4  UNL     1      49.087  -5.688  21.426  1.00  0.00     0.137 C 
BRANCH  11  12
HETATM   12  C5  UNL     1      47.903  -5.301  22.279  1.00  0.00     0.118 A 
HETATM   13  N2  UNL     1      47.649  -4.110  22.852  1.00  0.00    -0.272 N 
HETATM   14  N3  UNL     1      46.467  -4.249  23.482  1.00  0.00    -0.227 N 
ATOM     15  H2  UNL     1      48.232  -3.274  22.816  1.00  0.00     0.190 HD
HETATM   16  N4  UNL     1      46.018  -5.439  23.281  1.00  0.00    -0.227 N 
ATOM     17  H3  UNL     1      46.002  -3.528  24.032  1.00  0.00     0.210 HD
HETATM   18  N5  UNL     1      46.875  -6.073  22.579  1.00  0.00    -0.272 N 
ATOM     19  H4  UNL     1      45.131  -5.810  23.623  1.00  0.00     0.210 HD
ATOM     20  H5  UNL     1      46.778  -7.046  22.289  1.00  0.00     0.190 HD
ENDBRANCH  11  12
ENDBRANCH   2  11
BRANCH   1  21
HETATM   21  C1  UNL     1      49.006  -8.003  19.772  1.00  0.00     0.275 C 
BRANCH  21  22
HETATM   22  N1  UNL     1      47.976  -8.927  19.434  1.00  0.00    -0.075 N 
ATOM     23  H13 UNL     1      47.926  -9.006  18.419  1.00  0.00     0.274 HD
ATOM     24  H12 UNL     1      48.279  -9.866  19.692  1.00  0.00     0.274 HD
ATOM     25  H11 UNL     1      47.037  -8.772  19.800  1.00  0.00     0.274 HD
ENDBRANCH  21  22
ENDBRANCH   1  21
TORSDOF 4
ENDMDL
