MODEL 1
REMARK VINA RESULT: -4.738979979      0.000      0.000
REMARK  4 active torsions:
REMARK  status: ('A' for Active; 'I' for Inactive)
REMARK    1  A    between atoms: C3_8  and  C4_9 
REMARK    2  A    between atoms: C4_9  and  N3_10 
REMARK    3  A    between atoms: C4_9  and  N4_14 
REMARK    4  A    between atoms: C5_18  and  N5_19 
ROOT
HETATM    1  N1  UNL     1      46.279  -5.917  23.504  1.00  0.00    -0.234 N 
ATOM      2  H11 UNL     1      45.409  -5.530  23.872  1.00  0.00     0.174 HD
ATOM      3  H12 UNL     1      46.695  -6.745  23.930  1.00  0.00     0.174 HD
HETATM    4  C1  UNL     1      46.808  -5.317  22.492  1.00  0.00     0.677 A 
HETATM    5  N2  UNL     1      47.975  -5.834  21.999  1.00  0.00    -0.201 N 
ATOM      6  H2  UNL     1      48.383  -6.663  22.432  1.00  0.00     0.183 HD
HETATM    7  C2  UNL     1      48.587  -5.262  20.949  1.00  0.00     0.121 A 
HETATM    8  C3  UNL     1      47.990  -4.139  20.398  1.00  0.00     0.060 A 
HETATM    9  C5  UNL     1      46.825  -3.605  20.874  1.00  0.00     0.138 A 
HETATM   10  N7  UNL     1      46.263  -4.234  21.936  1.00  0.00    -0.176 N 
ATOM     11  H7  UNL     1      45.394  -3.866  22.323  1.00  0.00     0.186 HD
ENDROOT
BRANCH   8  12
HETATM   12  C4  UNL     1      48.707  -3.520  19.248  1.00  0.00     0.416 C 
BRANCH  12  13
HETATM   13  N3  UNL     1      48.240  -4.149  18.026  1.00  0.00    -0.046 N 
ATOM     14  H33 UNL     1      47.385  -4.687  18.164  1.00  0.00     0.277 HD
ATOM     15  H32 UNL     1      47.874  -3.475  17.354  1.00  0.00     0.277 HD
ATOM     16  H31 UNL     1      49.000  -4.711  17.643  1.00  0.00     0.277 HD
ENDBRANCH  12  13
BRANCH  12  17
HETATM   17  N4  UNL     1      50.097  -4.015  19.374  1.00  0.00    -0.046 N 
ATOM     18  H43 UNL     1      50.779  -3.292  19.605  1.00  0.00     0.277 HD
ATOM     19  H42 UNL     1      50.262  -4.591  20.200  1.00  0.00     0.277 HD
ATOM     20  H41 UNL     1      50.277  -4.492  18.490  1.00  0.00     0.277 HD
ENDBRANCH  12  17
ENDBRANCH   8  12
BRANCH   9  21
HETATM   21  N5  UNL     1      46.214  -2.456  20.302  1.00  0.00    -0.283 N 
HETATM   22  C6  UNL     1      46.241  -1.155  20.899  1.00  0.00     0.155 C 
HETATM   23  C7  UNL     1      45.573  -0.244  19.934  1.00  0.00     0.144 C 
HETATM   24  N6  UNL     1      45.402  -1.025  18.725  1.00  0.00    -0.341 N 
HETATM   25  C8  UNL     1      45.489  -2.396  19.100  1.00  0.00     0.324 C 
ATOM     26  H6  UNL     1      45.248  -0.662  17.784  1.00  0.00     0.164 HD
HETATM   27  O1  UNL     1      44.977  -3.343  18.419  1.00  0.00    -0.247 OA
ENDBRANCH   9  21
TORSDOF 4
ENDMDL
MODEL 2
REMARK VINA RESULT: -4.629889145      1.138      3.127
REMARK  4 active torsions:
REMARK  status: ('A' for Active; 'I' for Inactive)
REMARK    1  A    between atoms: C3_8  and  C4_9 
REMARK    2  A    between atoms: C4_9  and  N3_10 
REMARK    3  A    between atoms: C4_9  and  N4_14 
REMARK    4  A    between atoms: C5_18  and  N5_19 
ROOT
HETATM    1  N1  UNL     1      50.809  -4.857  19.633  1.00  0.00    -0.234 N 
ATOM      2  H11 UNL     1      50.962  -4.230  18.843  1.00  0.00     0.174 HD
ATOM      3  H12 UNL     1      51.504  -5.566  19.870  1.00  0.00     0.174 HD
HETATM    4  C1  UNL     1      49.718  -4.704  20.303  1.00  0.00     0.677 A 
HETATM    5  N2  UNL     1      49.512  -5.545  21.363  1.00  0.00    -0.201 N 
ATOM      6  H2  UNL     1      50.212  -6.252  21.591  1.00  0.00     0.183 HD
HETATM    7  C2  UNL     1      48.397  -5.450  22.106  1.00  0.00     0.121 A 
HETATM    8  C3  UNL     1      47.479  -4.473  21.754  1.00  0.00     0.060 A 
HETATM    9  C5  UNL     1      47.664  -3.622  20.700  1.00  0.00     0.138 A 
HETATM   10  N7  UNL     1      48.811  -3.777  19.994  1.00  0.00    -0.176 N 
ATOM     11  H7  UNL     1      48.986  -3.163  19.199  1.00  0.00     0.186 HD
ENDROOT
BRANCH   8  12
HETATM   12  C4  UNL     1      46.246  -4.409  22.588  1.00  0.00     0.416 C 
BRANCH  12  13
HETATM   13  N3  UNL     1      46.500  -3.527  23.712  1.00  0.00    -0.046 N 
ATOM     14  H33 UNL     1      46.577  -4.029  24.596  1.00  0.00     0.277 HD
ATOM     15  H32 UNL     1      47.440  -3.130  23.695  1.00  0.00     0.277 HD
ATOM     16  H31 UNL     1      45.773  -2.811  23.730  1.00  0.00     0.277 HD
ENDBRANCH  12  13
BRANCH  12  17
HETATM   17  N4  UNL     1      46.161  -5.746  23.219  1.00  0.00    -0.046 N 
ATOM     18  H43 UNL     1      47.066  -6.177  23.409  1.00  0.00     0.277 HD
ATOM     19  H42 UNL     1      45.840  -5.731  24.187  1.00  0.00     0.277 HD
ATOM     20  H41 UNL     1      45.566  -6.285  22.590  1.00  0.00     0.277 HD
ENDBRANCH  12  17
ENDBRANCH   8  12
BRANCH   9  21
HETATM   21  N5  UNL     1      46.721  -2.618  20.346  1.00  0.00    -0.283 N 
HETATM   22  C6  UNL     1      46.551  -1.392  21.063  1.00  0.00     0.155 C 
HETATM   23  C7  UNL     1      45.542  -0.607  20.307  1.00  0.00     0.144 C 
HETATM   24  N6  UNL     1      45.352  -1.325  19.062  1.00  0.00    -0.341 N 
HETATM   25  C8  UNL     1      45.810  -2.656  19.276  1.00  0.00     0.324 C 
ATOM     26  H6  UNL     1      44.965  -0.948  18.197  1.00  0.00     0.164 HD
HETATM   27  O1  UNL     1      45.420  -3.651  18.584  1.00  0.00    -0.247 OA
ENDBRANCH   9  21
TORSDOF 4
ENDMDL
MODEL 3
REMARK VINA RESULT: -4.590312285      1.441      1.776
REMARK  4 active torsions:
REMARK  status: ('A' for Active; 'I' for Inactive)
REMARK    1  A    between atoms: C3_8  and  C4_9 
REMARK    2  A    between atoms: C4_9  and  N3_10 
REMARK    3  A    between atoms: C4_9  and  N4_14 
REMARK    4  A    between atoms: C5_18  and  N5_19 
ROOT
HETATM    1  N1  UNL     1      46.279  -5.852  23.350  1.00  0.00    -0.234 N 
ATOM      2  H11 UNL     1      45.289  -5.680  23.525  1.00  0.00     0.174 HD
ATOM      3  H12 UNL     1      46.774  -6.582  23.863  1.00  0.00     0.174 HD
HETATM    4  C1  UNL     1      46.856  -5.117  22.461  1.00  0.00     0.677 A 
HETATM    5  N2  UNL     1      48.185  -5.347  22.226  1.00  0.00    -0.201 N 
ATOM      6  H2  UNL     1      48.670  -6.079  22.746  1.00  0.00     0.183 HD
HETATM    7  C2  UNL     1      48.854  -4.619  21.318  1.00  0.00     0.121 A 
HETATM    8  C3  UNL     1      48.148  -3.638  20.640  1.00  0.00     0.060 A 
HETATM    9  C5  UNL     1      46.821  -3.391  20.858  1.00  0.00     0.138 A 
HETATM   10  N7  UNL     1      46.209  -4.164  21.790  1.00  0.00    -0.176 N 
ATOM     11  H7  UNL     1      45.219  -4.010  21.983  1.00  0.00     0.186 HD
ENDROOT
BRANCH   8  12
HETATM   12  C4  UNL     1      48.928  -2.839  19.654  1.00  0.00     0.416 C 
BRANCH  12  13
HETATM   13  N3  UNL     1      50.086  -3.615  19.250  1.00  0.00    -0.046 N 
ATOM     14  H33 UNL     1      50.805  -3.044  18.808  1.00  0.00     0.277 HD
ATOM     15  H32 UNL     1      50.636  -3.942  20.044  1.00  0.00     0.277 HD
ATOM     16  H31 UNL     1      49.768  -4.378  18.652  1.00  0.00     0.277 HD
ENDBRANCH  12  13
BRANCH  12  17
HETATM   17  N4  UNL     1      49.518  -1.742  20.457  1.00  0.00    -0.046 N 
ATOM     18  H43 UNL     1      48.832  -1.103  20.858  1.00  0.00     0.277 HD
ATOM     19  H42 UNL     1      49.921  -2.044  21.344  1.00  0.00     0.277 HD
ATOM     20  H41 UNL     1      50.184  -1.298  19.825  1.00  0.00     0.277 HD
ENDBRANCH  12  17
ENDBRANCH   8  12
BRANCH   9  21
HETATM   21  N5  UNL     1      46.099  -2.388  20.156  1.00  0.00    -0.283 N 
HETATM   22  C6  UNL     1      45.363  -2.627  18.952  1.00  0.00     0.155 C 
HETATM   23  C7  UNL     1      44.695  -1.343  18.615  1.00  0.00     0.144 C 
HETATM   24  N6  UNL     1      44.893  -0.492  19.772  1.00  0.00    -0.341 N 
HETATM   25  C8  UNL     1      45.994  -1.029  20.499  1.00  0.00     0.324 C 
ATOM     26  H6  UNL     1      44.347   0.333  20.019  1.00  0.00     0.164 HD
HETATM   27  O1  UNL     1      46.708  -0.341  21.297  1.00  0.00    -0.247 OA
ENDBRANCH   9  21
TORSDOF 4
ENDMDL
MODEL 4
REMARK VINA RESULT: -4.585949652      2.071      4.981
REMARK  4 active torsions:
REMARK  status: ('A' for Active; 'I' for Inactive)
REMARK    1  A    between atoms: C3_8  and  C4_9 
REMARK    2  A    between atoms: C4_9  and  N3_10 
REMARK    3  A    between atoms: C4_9  and  N4_14 
REMARK    4  A    between atoms: C5_18  and  N5_19 
ROOT
HETATM    1  N1  UNL     1      44.697  -1.661  18.543  1.00  0.00    -0.234 N 
ATOM      2  H11 UNL     1      44.549  -2.484  17.960  1.00  0.00     0.174 HD
ATOM      3  H12 UNL     1      44.262  -0.772  18.299  1.00  0.00     0.174 HD
HETATM    4  C1  UNL     1      45.443  -1.806  19.586  1.00  0.00     0.677 A 
HETATM    5  N2  UNL     1      45.643  -0.701  20.369  1.00  0.00    -0.201 N 
ATOM      6  H2  UNL     1      45.204   0.184  20.115  1.00  0.00     0.183 HD
HETATM    7  C2  UNL     1      46.411  -0.772  21.468  1.00  0.00     0.121 A 
HETATM    8  C3  UNL     1      46.984  -1.998  21.768  1.00  0.00     0.060 A 
HETATM    9  C5  UNL     1      46.798  -3.115  21.000  1.00  0.00     0.138 A 
HETATM   10  N7  UNL     1      46.011  -2.969  19.905  1.00  0.00    -0.176 N 
ATOM     11  H7  UNL     1      45.849  -3.777  19.305  1.00  0.00     0.186 HD
ENDROOT
BRANCH   8  12
HETATM   12  C4  UNL     1      47.844  -2.034  22.983  1.00  0.00     0.416 C 
BRANCH  12  13
HETATM   13  N3  UNL     1      47.007  -2.344  24.127  1.00  0.00    -0.046 N 
ATOM     14  H33 UNL     1      46.958  -1.577  24.797  1.00  0.00     0.277 HD
ATOM     15  H32 UNL     1      46.016  -2.384  23.889  1.00  0.00     0.277 HD
ATOM     16  H31 UNL     1      47.344  -3.211  24.548  1.00  0.00     0.277 HD
ENDBRANCH  12  13
BRANCH  12  17
HETATM   17  N4  UNL     1      48.218  -0.619  23.210  1.00  0.00    -0.046 N 
ATOM     18  H43 UNL     1      48.606  -0.153  22.390  1.00  0.00     0.277 HD
ATOM     19  H42 UNL     1      47.423   0.009  23.329  1.00  0.00     0.277 HD
ATOM     20  H41 UNL     1      48.849  -0.650  24.011  1.00  0.00     0.277 HD
ENDBRANCH  12  17
ENDBRANCH   8  12
BRANCH   9  21
HETATM   21  N5  UNL     1      47.383  -4.372  21.314  1.00  0.00    -0.283 N 
HETATM   22  C6  UNL     1      48.512  -4.922  20.628  1.00  0.00     0.155 C 
HETATM   23  C7  UNL     1      48.846  -6.187  21.331  1.00  0.00     0.144 C 
HETATM   24  N6  UNL     1      48.035  -6.184  22.532  1.00  0.00    -0.341 N 
HETATM   25  C8  UNL     1      46.965  -5.272  22.309  1.00  0.00     0.324 C 
ATOM     26  H6  UNL     1      48.200  -6.731  23.377  1.00  0.00     0.164 HD
HETATM   27  O1  UNL     1      45.857  -5.324  22.935  1.00  0.00    -0.247 OA
ENDBRANCH   9  21
TORSDOF 4
ENDMDL
MODEL 5
REMARK VINA RESULT: -4.525779760      2.414      3.633
REMARK  4 active torsions:
REMARK  status: ('A' for Active; 'I' for Inactive)
REMARK    1  A    between atoms: C3_8  and  C4_9 
REMARK    2  A    between atoms: C4_9  and  N3_10 
REMARK    3  A    between atoms: C4_9  and  N4_14 
REMARK    4  A    between atoms: C5_18  and  N5_19 
ROOT
HETATM    1  N1  UNL     1      46.105  -5.611  22.277  1.00  0.00    -0.234 N 
ATOM      2  H11 UNL     1      45.879  -5.948  21.341  1.00  0.00     0.174 HD
ATOM      3  H12 UNL     1      46.147  -6.261  23.062  1.00  0.00     0.174 HD
HETATM    4  C1  UNL     1      46.334  -4.349  22.409  1.00  0.00     0.677 A 
HETATM    5  N2  UNL     1      46.637  -3.897  23.665  1.00  0.00    -0.201 N 
ATOM      6  H2  UNL     1      46.675  -4.555  24.443  1.00  0.00     0.183 HD
HETATM    7  C2  UNL     1      46.883  -2.594  23.882  1.00  0.00     0.121 A 
HETATM    8  C3  UNL     1      46.818  -1.743  22.790  1.00  0.00     0.060 A 
HETATM    9  C5  UNL     1      46.519  -2.172  21.527  1.00  0.00     0.138 A 
HETATM   10  N7  UNL     1      46.280  -3.499  21.383  1.00  0.00    -0.176 N 
ATOM     11  H7  UNL     1      46.051  -3.860  20.457  1.00  0.00     0.186 HD
ENDROOT
BRANCH   8  12
HETATM   12  C4  UNL     1      47.079  -0.303  23.073  1.00  0.00     0.416 C 
BRANCH  12  13
HETATM   13  N3  UNL     1      47.696  -0.198  24.382  1.00  0.00    -0.046 N 
ATOM     14  H33 UNL     1      47.600  -1.052  24.930  1.00  0.00     0.277 HD
ATOM     15  H32 UNL     1      48.715  -0.177  24.335  1.00  0.00     0.277 HD
ATOM     16  H31 UNL     1      47.308   0.618  24.856  1.00  0.00     0.277 HD
ENDBRANCH  12  13
BRANCH  12  17
HETATM   17  N4  UNL     1      45.734   0.279  23.284  1.00  0.00    -0.046 N 
ATOM     18  H43 UNL     1      45.026  -0.057  22.630  1.00  0.00     0.277 HD
ATOM     19  H42 UNL     1      45.267  -0.046  24.130  1.00  0.00     0.277 HD
ATOM     20  H41 UNL     1      45.887   1.287  23.252  1.00  0.00     0.277 HD
ENDBRANCH  12  17
ENDBRANCH   8  12
BRANCH   9  21
HETATM   21  N5  UNL     1      46.458  -1.295  20.410  1.00  0.00    -0.283 N 
HETATM   22  C6  UNL     1      47.575  -0.998  19.566  1.00  0.00     0.155 C 
HETATM   23  C7  UNL     1      47.053  -0.125  18.482  1.00  0.00     0.144 C 
HETATM   24  N6  UNL     1      45.611  -0.154  18.628  1.00  0.00    -0.341 N 
HETATM   25  C8  UNL     1      45.336  -0.579  19.959  1.00  0.00     0.324 C 
ATOM     26  H6  UNL     1      44.923   0.084  17.913  1.00  0.00     0.164 HD
HETATM   27  O1  UNL     1      44.248  -0.319  20.567  1.00  0.00    -0.247 OA
ENDBRANCH   9  21
TORSDOF 4
ENDMDL
