MODEL 1
REMARK VINA RESULT: -4.790181495      0.000      0.000
REMARK  5 active torsions:
REMARK  status: ('A' for Active; 'I' for Inactive)
REMARK    1  A    between atoms: C3_5  and  C4_6 
REMARK    2  A    between atoms: C4_6  and  N2_7 
REMARK    3  A    between atoms: C4_6  and  C5_11 
REMARK    4  A    between atoms: C5_11  and  N3_13 
REMARK    5  A    between atoms: N5_22  and  N6_24 
ROOT
HETATM    1  C1  UNL     1      50.680  -2.923  22.980  1.00  0.00     0.064 C 
HETATM    2  C2  UNL     1      49.858  -3.791  22.446  1.00  0.00     0.112 C 
HETATM    3  N1  UNL     1      48.657  -3.353  21.823  1.00  0.00    -0.340 N 
ATOM      4  H1  UNL     1      48.719  -2.412  21.434  1.00  0.00     0.167 HD
HETATM    5  C3  UNL     1      47.487  -3.917  21.647  1.00  0.00     0.113 C 
HETATM    6  C7  UNL     1      47.192  -5.266  22.117  1.00  0.00     0.284 C 
HETATM    7  O1  UNL     1      45.989  -5.462  22.479  1.00  0.00    -0.265 OA
HETATM    8  N4  UNL     1      48.074  -6.387  22.224  1.00  0.00    -0.153 N 
ATOM      9  H4  UNL     1      47.647  -7.312  22.204  1.00  0.00     0.187 HD
HETATM   10  C8  UNL     1      49.498  -6.333  22.357  1.00  0.00     0.700 C 
HETATM   11  N5  UNL     1      50.145  -7.447  22.301  1.00  0.00    -0.138 N 
ATOM     12  H5  UNL     1      51.161  -7.445  22.393  1.00  0.00     0.205 HD
HETATM   13  N7  UNL     1      50.272  -5.148  22.548  1.00  0.00    -0.176 N 
ATOM     14  H7  UNL     1      51.252  -5.294  22.790  1.00  0.00     0.186 HD
ENDROOT
BRANCH   5  15
HETATM   15  C4  UNL     1      46.472  -3.133  20.938  1.00  0.00     0.268 C 
BRANCH  15  16
HETATM   16  N2  UNL     1      46.514  -1.767  21.490  1.00  0.00    -0.067 N 
ATOM     17  H23 UNL     1      46.102  -1.699  22.421  1.00  0.00     0.275 HD
ATOM     18  H22 UNL     1      47.456  -1.466  21.740  1.00  0.00     0.275 HD
ATOM     19  H21 UNL     1      46.066  -1.154  20.809  1.00  0.00     0.275 HD
ENDBRANCH  15  16
BRANCH  15  20
HETATM   20  C5  UNL     1      46.591  -3.001  19.473  1.00  0.00     0.215 C 
HETATM   21  C6  UNL     1      47.077  -1.586  19.099  1.00  0.00     0.042 C 
BRANCH  20  22
HETATM   22  N3  UNL     1      45.291  -3.090  18.851  1.00  0.00    -0.073 N 
ATOM     23  H33 UNL     1      45.268  -3.798  18.117  1.00  0.00     0.274 HD
ATOM     24  H32 UNL     1      44.598  -3.498  19.478  1.00  0.00     0.274 HD
ATOM     25  H31 UNL     1      44.999  -2.176  18.505  1.00  0.00     0.274 HD
ENDBRANCH  20  22
ENDBRANCH  15  20
ENDBRANCH   5  15
BRANCH  11  26
HETATM   26  N6  UNL     1      49.477  -8.645  22.119  1.00  0.00    -0.331 N 
ATOM     27  H62 UNL     1      48.941  -8.779  21.262  1.00  0.00     0.177 HD
ATOM     28  H61 UNL     1      49.519  -9.378  22.826  1.00  0.00     0.177 HD
ENDBRANCH  11  26
TORSDOF 5
ENDMDL
MODEL 2
REMARK VINA RESULT: -4.750206972      2.084      5.195
REMARK  5 active torsions:
REMARK  status: ('A' for Active; 'I' for Inactive)
REMARK    1  A    between atoms: C3_5  and  C4_6 
REMARK    2  A    between atoms: C4_6  and  N2_7 
REMARK    3  A    between atoms: C4_6  and  C5_11 
REMARK    4  A    between atoms: C5_11  and  N3_13 
REMARK    5  A    between atoms: N5_22  and  N6_24 
ROOT
HETATM    1  C1  UNL     1      48.382  -0.677  24.279  1.00  0.00     0.064 C 
HETATM    2  C2  UNL     1      47.556  -1.302  23.476  1.00  0.00     0.112 C 
HETATM    3  N1  UNL     1      47.473  -2.721  23.495  1.00  0.00    -0.340 N 
ATOM      4  H1  UNL     1      47.704  -3.131  24.400  1.00  0.00     0.167 HD
HETATM    5  C3  UNL     1      47.159  -3.608  22.583  1.00  0.00     0.113 C 
HETATM    6  C7  UNL     1      46.786  -3.232  21.224  1.00  0.00     0.284 C 
HETATM    7  O1  UNL     1      47.122  -4.061  20.320  1.00  0.00    -0.265 OA
HETATM    8  N4  UNL     1      46.100  -2.059  20.779  1.00  0.00    -0.153 N 
ATOM      9  H4  UNL     1      45.600  -2.126  19.893  1.00  0.00     0.187 HD
HETATM   10  C8  UNL     1      46.047  -0.800  21.458  1.00  0.00     0.700 C 
HETATM   11  N5  UNL     1      45.266   0.106  20.977  1.00  0.00    -0.138 N 
ATOM     12  H5  UNL     1      45.205   1.015  21.437  1.00  0.00     0.205 HD
HETATM   13  N7  UNL     1      46.790  -0.454  22.629  1.00  0.00    -0.176 N 
ATOM     14  H7  UNL     1      46.768   0.531  22.892  1.00  0.00     0.186 HD
ENDROOT
BRANCH   5  15
HETATM   15  C4  UNL     1      47.185  -5.016  22.988  1.00  0.00     0.268 C 
BRANCH  15  16
HETATM   16  N2  UNL     1      46.058  -5.684  22.311  1.00  0.00    -0.067 N 
ATOM     17  H23 UNL     1      45.418  -5.030  21.860  1.00  0.00     0.275 HD
ATOM     18  H22 UNL     1      46.340  -6.192  21.473  1.00  0.00     0.275 HD
ATOM     19  H21 UNL     1      45.601  -6.277  23.004  1.00  0.00     0.275 HD
ENDBRANCH  15  16
BRANCH  15  20
HETATM   20  C5  UNL     1      48.393  -5.807  22.680  1.00  0.00     0.215 C 
HETATM   21  C6  UNL     1      49.628  -4.889  22.593  1.00  0.00     0.042 C 
BRANCH  20  22
HETATM   22  N3  UNL     1      48.299  -6.377  21.358  1.00  0.00    -0.073 N 
ATOM     23  H33 UNL     1      47.332  -6.435  21.036  1.00  0.00     0.274 HD
ATOM     24  H32 UNL     1      48.657  -5.742  20.645  1.00  0.00     0.274 HD
ATOM     25  H31 UNL     1      48.764  -7.284  21.327  1.00  0.00     0.274 HD
ENDBRANCH  20  22
ENDBRANCH  15  20
ENDBRANCH   5  15
BRANCH  11  26
HETATM   26  N6  UNL     1      44.509  -0.141  19.846  1.00  0.00    -0.331 N 
ATOM     27  H62 UNL     1      43.935  -0.982  19.817  1.00  0.00     0.177 HD
ATOM     28  H61 UNL     1      44.526   0.505  19.056  1.00  0.00     0.177 HD
ENDBRANCH  11  26
TORSDOF 5
ENDMDL
MODEL 3
REMARK VINA RESULT: -4.496756079      2.974      5.668
REMARK  5 active torsions:
REMARK  status: ('A' for Active; 'I' for Inactive)
REMARK    1  A    between atoms: C3_5  and  C4_6 
REMARK    2  A    between atoms: C4_6  and  N2_7 
REMARK    3  A    between atoms: C4_6  and  C5_11 
REMARK    4  A    between atoms: C5_11  and  N3_13 
REMARK    5  A    between atoms: N5_22  and  N6_24 
ROOT
HETATM    1  C1  UNL     1      50.151  -1.059  24.109  1.00  0.00     0.064 C 
HETATM    2  C2  UNL     1      48.860  -1.064  23.886  1.00  0.00     0.112 C 
HETATM    3  N1  UNL     1      48.237  -2.202  23.304  1.00  0.00    -0.340 N 
ATOM      4  H1  UNL     1      48.717  -3.079  23.507  1.00  0.00     0.167 HD
HETATM    5  C3  UNL     1      47.169  -2.350  22.559  1.00  0.00     0.113 C 
HETATM    6  C7  UNL     1      46.332  -1.224  22.161  1.00  0.00     0.284 C 
HETATM    7  O1  UNL     1      45.782  -1.334  21.020  1.00  0.00    -0.265 OA
HETATM    8  N4  UNL     1      46.055  -0.020  22.882  1.00  0.00    -0.153 N 
ATOM      9  H4  UNL     1      45.190   0.467  22.649  1.00  0.00     0.187 HD
HETATM   10  C8  UNL     1      46.875   0.566  23.898  1.00  0.00     0.700 C 
HETATM   11  N5  UNL     1      46.400   1.580  24.537  1.00  0.00    -0.138 N 
ATOM     12  H5  UNL     1      46.959   2.022  25.268  1.00  0.00     0.205 HD
HETATM   13  N7  UNL     1      48.182   0.126  24.269  1.00  0.00    -0.176 N 
ATOM     14  H7  UNL     1      48.699   0.748  24.891  1.00  0.00     0.186 HD
ENDROOT
BRANCH   5  15
HETATM   15  C4  UNL     1      46.834  -3.714  22.142  1.00  0.00     0.268 C 
BRANCH  15  16
HETATM   16  N2  UNL     1      47.430  -3.920  20.809  1.00  0.00    -0.067 N 
ATOM     17  H23 UNL     1      46.913  -3.455  20.063  1.00  0.00     0.275 HD
ATOM     18  H22 UNL     1      48.314  -3.425  20.686  1.00  0.00     0.275 HD
ATOM     19  H21 UNL     1      47.514  -4.928  20.670  1.00  0.00     0.275 HD
ENDBRANCH  15  16
BRANCH  15  20
HETATM   20  C5  UNL     1      47.292  -4.834  22.988  1.00  0.00     0.215 C 
HETATM   21  C6  UNL     1      48.362  -5.663  22.248  1.00  0.00     0.042 C 
BRANCH  20  22
HETATM   22  N3  UNL     1      46.220  -5.777  23.201  1.00  0.00    -0.073 N 
ATOM     23  H33 UNL     1      46.385  -6.361  24.021  1.00  0.00     0.274 HD
ATOM     24  H32 UNL     1      45.366  -5.315  23.514  1.00  0.00     0.274 HD
ATOM     25  H31 UNL     1      46.065  -6.336  22.362  1.00  0.00     0.274 HD
ENDBRANCH  20  22
ENDBRANCH  15  20
ENDBRANCH   5  15
BRANCH  11  26
HETATM   26  N6  UNL     1      45.142   2.075  24.244  1.00  0.00    -0.331 N 
ATOM     27  H62 UNL     1      44.426   1.427  23.918  1.00  0.00     0.177 HD
ATOM     28  H61 UNL     1      44.934   3.067  24.351  1.00  0.00     0.177 HD
ENDBRANCH  11  26
TORSDOF 5
ENDMDL
MODEL 4
REMARK VINA RESULT: -4.453800598      1.702      1.986
REMARK  5 active torsions:
REMARK  status: ('A' for Active; 'I' for Inactive)
REMARK    1  A    between atoms: C3_5  and  C4_6 
REMARK    2  A    between atoms: C4_6  and  N2_7 
REMARK    3  A    between atoms: C4_6  and  C5_11 
REMARK    4  A    between atoms: C5_11  and  N3_13 
REMARK    5  A    between atoms: N5_22  and  N6_24 
ROOT
HETATM    1  C1  UNL     1      51.362  -3.855  22.755  1.00  0.00     0.064 C 
HETATM    2  C2  UNL     1      50.231  -4.320  22.283  1.00  0.00     0.112 C 
HETATM    3  N1  UNL     1      49.026  -3.587  22.457  1.00  0.00    -0.340 N 
ATOM      4  H1  UNL     1      49.167  -2.579  22.525  1.00  0.00     0.167 HD
HETATM    5  C3  UNL     1      47.769  -3.947  22.547  1.00  0.00     0.113 C 
HETATM    6  C7  UNL     1      47.348  -5.342  22.463  1.00  0.00     0.284 C 
HETATM    7  O1  UNL     1      46.327  -5.642  23.159  1.00  0.00    -0.265 OA
HETATM    8  N4  UNL     1      47.933  -6.406  21.708  1.00  0.00    -0.153 N 
ATOM      9  H4  UNL     1      47.324  -7.187  21.466  1.00  0.00     0.187 HD
HETATM   10  C8  UNL     1      49.290  -6.481  21.260  1.00  0.00     0.700 C 
HETATM   11  N5  UNL     1      49.607  -7.451  20.473  1.00  0.00    -0.138 N 
ATOM     12  H5  UNL     1      50.566  -7.534  20.135  1.00  0.00     0.205 HD
HETATM   13  N7  UNL     1      50.333  -5.570  21.612  1.00  0.00    -0.176 N 
ATOM     14  H7  UNL     1      51.276  -5.854  21.346  1.00  0.00     0.186 HD
ENDROOT
BRANCH   5  15
HETATM   15  C4  UNL     1      46.783  -2.879  22.726  1.00  0.00     0.268 C 
BRANCH  15  16
HETATM   16  N2  UNL     1      46.589  -2.705  24.177  1.00  0.00    -0.067 N 
ATOM     17  H23 UNL     1      46.593  -3.588  24.689  1.00  0.00     0.275 HD
ATOM     18  H22 UNL     1      47.393  -2.280  24.640  1.00  0.00     0.275 HD
ATOM     19  H21 UNL     1      45.728  -2.173  24.304  1.00  0.00     0.275 HD
ENDBRANCH  15  16
BRANCH  15  20
HETATM   20  C5  UNL     1      47.094  -1.543  22.178  1.00  0.00     0.215 C 
HETATM   21  C6  UNL     1      46.622  -0.442  23.149  1.00  0.00     0.042 C 
BRANCH  20  22
HETATM   22  N3  UNL     1      46.325  -1.296  20.983  1.00  0.00    -0.073 N 
ATOM     23  H33 UNL     1      46.628  -1.886  20.207  1.00  0.00     0.274 HD
ATOM     24  H32 UNL     1      45.368  -1.639  21.070  1.00  0.00     0.274 HD
ATOM     25  H31 UNL     1      46.353  -0.306  20.740  1.00  0.00     0.274 HD
ENDBRANCH  20  22
ENDBRANCH  15  20
ENDBRANCH   5  15
BRANCH  11  26
HETATM   26  N6  UNL     1      48.660  -8.381  20.080  1.00  0.00    -0.331 N 
ATOM     27  H62 UNL     1      47.811  -8.050  19.622  1.00  0.00     0.177 HD
ATOM     28  H61 UNL     1      48.808  -9.376  20.245  1.00  0.00     0.177 HD
ENDBRANCH  11  26
TORSDOF 5
ENDMDL
MODEL 5
REMARK VINA RESULT: -4.449782884      2.697      3.677
REMARK  5 active torsions:
REMARK  status: ('A' for Active; 'I' for Inactive)
REMARK    1  A    between atoms: C3_5  and  C4_6 
REMARK    2  A    between atoms: C4_6  and  N2_7 
REMARK    3  A    between atoms: C4_6  and  C5_11 
REMARK    4  A    between atoms: C5_11  and  N3_13 
REMARK    5  A    between atoms: N5_22  and  N6_24 
ROOT
HETATM    1  C1  UNL     1      49.494  -4.439  17.958  1.00  0.00     0.064 C 
HETATM    2  C2  UNL     1      49.023  -5.218  18.901  1.00  0.00     0.112 C 
HETATM    3  N1  UNL     1      48.761  -4.696  20.198  1.00  0.00    -0.340 N 
ATOM      4  H1  UNL     1      48.526  -3.703  20.199  1.00  0.00     0.167 HD
HETATM    5  C3  UNL     1      48.762  -5.235  21.392  1.00  0.00     0.113 C 
HETATM    6  C7  UNL     1      49.062  -6.646  21.612  1.00  0.00     0.284 C 
HETATM    7  O1  UNL     1      49.646  -6.911  22.710  1.00  0.00    -0.265 OA
HETATM    8  N4  UNL     1      48.788  -7.760  20.758  1.00  0.00    -0.153 N 
ATOM      9  H4  UNL     1      48.714  -8.674  21.203  1.00  0.00     0.187 HD
HETATM   10  C8  UNL     1      48.607  -7.714  19.339  1.00  0.00     0.700 C 
HETATM   11  N5  UNL     1      48.230  -8.798  18.750  1.00  0.00    -0.138 N 
ATOM     12  H5  UNL     1      48.092  -8.800  17.739  1.00  0.00     0.205 HD
HETATM   13  N7  UNL     1      48.810  -6.568  18.510  1.00  0.00    -0.176 N 
ATOM     14  H7  UNL     1      48.801  -6.742  17.505  1.00  0.00     0.186 HD
ENDROOT
BRANCH   5  15
HETATM   15  C4  UNL     1      48.433  -4.357  22.518  1.00  0.00     0.268 C 
BRANCH  15  16
HETATM   16  N2  UNL     1      49.176  -3.099  22.320  1.00  0.00    -0.067 N 
ATOM     17  H23 UNL     1      49.701  -3.079  21.445  1.00  0.00     0.275 HD
ATOM     18  H22 UNL     1      48.569  -2.302  22.129  1.00  0.00     0.275 HD
ATOM     19  H21 UNL     1      49.765  -2.966  23.142  1.00  0.00     0.275 HD
ENDBRANCH  15  16
BRANCH  15  20
HETATM   20  C5  UNL     1      47.019  -3.984  22.722  1.00  0.00     0.215 C 
HETATM   21  C6  UNL     1      46.912  -2.799  23.702  1.00  0.00     0.042 C 
BRANCH  20  22
HETATM   22  N3  UNL     1      46.309  -5.046  23.394  1.00  0.00    -0.073 N 
ATOM     23  H33 UNL     1      46.933  -5.805  23.669  1.00  0.00     0.274 HD
ATOM     24  H32 UNL     1      45.994  -4.764  24.322  1.00  0.00     0.274 HD
ATOM     25  H31 UNL     1      45.538  -5.380  22.816  1.00  0.00     0.274 HD
ENDBRANCH  20  22
ENDBRANCH  15  20
ENDBRANCH   5  15
BRANCH  11  26
HETATM   26  N6  UNL     1      48.010  -9.956  19.474  1.00  0.00    -0.331 N 
ATOM     27  H62 UNL     1      47.062 -10.326  19.527  1.00  0.00     0.177 HD
ATOM     28  H61 UNL     1      48.780 -10.431  19.945  1.00  0.00     0.177 HD
ENDBRANCH  11  26
TORSDOF 5
ENDMDL
