MODEL 1
REMARK VINA RESULT: -5.968070431      0.000      0.000
REMARK  2 active torsions:
REMARK  status: ('A' for Active; 'I' for Inactive)
REMARK    1  A    between atoms: C2_2  and  N1_4 
REMARK    2  A    between atoms: N1_4  and  C4_6 
ROOT
HETATM    1  C4  UNL     1       6.034  21.761  50.403  1.00  0.00     0.140 A 
HETATM    2  N2  UNL     1       4.817  21.950  50.277  1.00  0.00    -0.347 N 
ATOM      3  H2  UNL     1       4.290  22.798  50.066  1.00  0.00     0.163 HD
HETATM    4  C5  UNL     1       4.401  20.670  50.507  1.00  0.00     0.126 A 
HETATM    5  C6  UNL     1       3.679  19.966  49.341  1.00  0.00     0.049 C 
HETATM    6  C7  UNL     1       3.215  18.607  49.848  1.00  0.00     0.004 C 
HETATM    7  C8  UNL     1       1.996  18.804  50.743  1.00  0.00     0.006 C 
HETATM    8  C9  UNL     1       2.045  20.194  51.356  1.00  0.00     0.055 C 
HETATM    9  C10 UNL     1       3.460  20.466  51.681  1.00  0.00     0.019 C 
HETATM   10  N3  UNL     1       3.880  20.529  52.872  1.00  0.00    -0.403 N 
ATOM     11  H31 UNL     1       3.248  20.391  53.660  1.00  0.00     0.155 HD
ATOM     12  H32 UNL     1       4.857  20.716  53.096  1.00  0.00     0.155 HD
HETATM   13  S1  UNL     1       6.023  20.052  50.751  1.00  0.00    -0.057 SA
ENDROOT
BRANCH   1  14
HETATM   14  N1  UNL     1       7.209  22.647  50.309  1.00  0.00    -0.367 N 
ATOM     15  H1  UNL     1       7.130  23.613  50.626  1.00  0.00     0.162 HD
BRANCH  14  16
HETATM   16  C2  UNL     1       8.458  22.185  49.782  1.00  0.00     0.075 C 
HETATM   17  C1  UNL     1       9.188  23.371  49.192  1.00  0.00     0.032 C 
HETATM   18  C3  UNL     1       9.363  21.658  50.903  1.00  0.00     0.032 C 
ENDBRANCH  14  16
ENDBRANCH   1  14
TORSDOF 2
ENDMDL
MODEL 2
REMARK VINA RESULT: -5.887861564      2.458      6.022
REMARK  2 active torsions:
REMARK  status: ('A' for Active; 'I' for Inactive)
REMARK    1  A    between atoms: C2_2  and  N1_4 
REMARK    2  A    between atoms: N1_4  and  C4_6 
ROOT
HETATM    1  C4  UNL     1       7.522  20.993  52.222  1.00  0.00     0.140 A 
HETATM    2  N2  UNL     1       8.614  21.577  52.193  1.00  0.00    -0.347 N 
ATOM      3  H2  UNL     1       9.193  21.950  52.946  1.00  0.00     0.163 HD
HETATM    4  C5  UNL     1       8.801  21.565  50.841  1.00  0.00     0.126 A 
HETATM    5  C6  UNL     1      10.026  20.781  50.327  1.00  0.00     0.049 C 
HETATM    6  C7  UNL     1      10.099  20.989  48.820  1.00  0.00     0.004 C 
HETATM    7  C8  UNL     1      10.632  22.390  48.541  1.00  0.00     0.006 C 
HETATM    8  C9  UNL     1      10.292  23.297  49.711  1.00  0.00     0.055 C 
HETATM    9  C10 UNL     1       8.938  22.918  50.165  1.00  0.00     0.019 C 
HETATM   10  N3  UNL     1       7.936  23.671  50.006  1.00  0.00    -0.403 N 
ATOM     11  H31 UNL     1       8.028  24.580  49.551  1.00  0.00     0.155 HD
ATOM     12  H32 UNL     1       7.001  23.409  50.318  1.00  0.00     0.155 HD
HETATM   13  S1  UNL     1       7.295  20.730  50.512  1.00  0.00    -0.057 SA
ENDROOT
BRANCH   1  14
HETATM   14  N1  UNL     1       6.616  20.598  53.315  1.00  0.00    -0.367 N 
ATOM     15  H1  UNL     1       6.892  19.842  53.941  1.00  0.00     0.162 HD
BRANCH  14  16
HETATM   16  C2  UNL     1       5.358  21.250  53.522  1.00  0.00     0.075 C 
HETATM   17  C1  UNL     1       4.301  20.488  52.754  1.00  0.00     0.032 C 
HETATM   18  C3  UNL     1       4.937  21.173  54.995  1.00  0.00     0.032 C 
ENDBRANCH  14  16
ENDBRANCH   1  14
TORSDOF 2
ENDMDL
MODEL 3
REMARK VINA RESULT: -5.840405353      3.529      5.995
REMARK  2 active torsions:
REMARK  status: ('A' for Active; 'I' for Inactive)
REMARK    1  A    between atoms: C2_2  and  N1_4 
REMARK    2  A    between atoms: N1_4  and  C4_6 
ROOT
HETATM    1  C4  UNL     1       7.297  21.206  52.203  1.00  0.00     0.140 A 
HETATM    2  N2  UNL     1       8.436  21.690  52.193  1.00  0.00    -0.347 N 
ATOM      3  H2  UNL     1       9.020  22.042  52.952  1.00  0.00     0.163 HD
HETATM    4  C5  UNL     1       8.668  21.606  50.851  1.00  0.00     0.126 A 
HETATM    5  C6  UNL     1       9.835  20.697  50.413  1.00  0.00     0.049 C 
HETATM    6  C7  UNL     1       9.977  20.835  48.903  1.00  0.00     0.004 C 
HETATM    7  C8  UNL     1      10.643  22.171  48.592  1.00  0.00     0.006 C 
HETATM    8  C9  UNL     1      10.345  23.153  49.713  1.00  0.00     0.055 C 
HETATM    9  C10 UNL     1       8.948  22.912  50.129  1.00  0.00     0.019 C 
HETATM   10  N3  UNL     1       8.023  23.743  49.904  1.00  0.00    -0.403 N 
ATOM     11  H31 UNL     1       8.211  24.621  49.419  1.00  0.00     0.155 HD
ATOM     12  H32 UNL     1       7.059  23.577  50.191  1.00  0.00     0.155 HD
HETATM   13  S1  UNL     1       7.106  20.893  50.497  1.00  0.00    -0.057 SA
ENDROOT
BRANCH   1  14
HETATM   14  N1  UNL     1       6.322  20.937  53.275  1.00  0.00    -0.367 N 
ATOM     15  H1  UNL     1       5.393  20.599  53.029  1.00  0.00     0.162 HD
BRANCH  14  16
HETATM   16  C2  UNL     1       6.649  21.139  54.655  1.00  0.00     0.075 C 
HETATM   17  C1  UNL     1       5.783  22.260  55.185  1.00  0.00     0.032 C 
HETATM   18  C3  UNL     1       6.284  19.904  55.490  1.00  0.00     0.032 C 
ENDBRANCH  14  16
ENDBRANCH   1  14
TORSDOF 2
ENDMDL
MODEL 4
REMARK VINA RESULT: -5.826278071      2.217      3.153
REMARK  2 active torsions:
REMARK  status: ('A' for Active; 'I' for Inactive)
REMARK    1  A    between atoms: C2_2  and  N1_4 
REMARK    2  A    between atoms: N1_4  and  C4_6 
ROOT
HETATM    1  C4  UNL     1       8.823  20.430  49.661  1.00  0.00     0.140 A 
HETATM    2  N2  UNL     1       7.665  20.156  49.318  1.00  0.00    -0.347 N 
ATOM      3  H2  UNL     1       7.279  19.908  48.407  1.00  0.00     0.163 HD
HETATM    4  C5  UNL     1       7.068  20.287  50.538  1.00  0.00     0.126 A 
HETATM    5  C6  UNL     1       6.423  19.014  51.125  1.00  0.00     0.049 C 
HETATM    6  C7  UNL     1       5.734  19.412  52.423  1.00  0.00     0.004 C 
HETATM    7  C8  UNL     1       4.442  20.149  52.089  1.00  0.00     0.006 C 
HETATM    8  C9  UNL     1       4.580  20.811  50.728  1.00  0.00     0.055 C 
HETATM    9  C10 UNL     1       5.963  21.324  50.643  1.00  0.00     0.019 C 
HETATM   10  N3  UNL     1       6.228  22.559  50.655  1.00  0.00    -0.403 N 
ATOM     11  H31 UNL     1       5.486  23.256  50.725  1.00  0.00     0.155 HD
ATOM     12  H32 UNL     1       7.183  22.913  50.596  1.00  0.00     0.155 HD
HETATM   13  S1  UNL     1       8.555  20.715  51.362  1.00  0.00    -0.057 SA
ENDROOT
BRANCH   1  14
HETATM   14  N1  UNL     1      10.100  20.516  48.930  1.00  0.00    -0.367 N 
ATOM     15  H1  UNL     1      10.526  19.662  48.572  1.00  0.00     0.162 HD
BRANCH  14  16
HETATM   16  C2  UNL     1      10.756  21.770  48.710  1.00  0.00     0.075 C 
HETATM   17  C1  UNL     1      11.229  21.808  47.273  1.00  0.00     0.032 C 
HETATM   18  C3  UNL     1       9.771  22.937  48.853  1.00  0.00     0.032 C 
ENDBRANCH  14  16
ENDBRANCH   1  14
TORSDOF 2
ENDMDL
MODEL 5
REMARK VINA RESULT: -5.802718308      1.764      2.559
REMARK  2 active torsions:
REMARK  status: ('A' for Active; 'I' for Inactive)
REMARK    1  A    between atoms: C2_2  and  N1_4 
REMARK    2  A    between atoms: N1_4  and  C4_6 
ROOT
HETATM    1  C4  UNL     1       8.529  22.176  50.575  1.00  0.00     0.140 A 
HETATM    2  N2  UNL     1       7.347  22.363  50.258  1.00  0.00    -0.347 N 
ATOM      3  H2  UNL     1       6.892  23.159  49.812  1.00  0.00     0.163 HD
HETATM    4  C5  UNL     1       6.843  21.171  50.693  1.00  0.00     0.126 A 
HETATM    5  C6  UNL     1       6.230  20.254  49.614  1.00  0.00     0.049 C 
HETATM    6  C7  UNL     1       5.642  19.043  50.328  1.00  0.00     0.004 C 
HETATM    7  C8  UNL     1       4.336  19.454  50.999  1.00  0.00     0.006 C 
HETATM    8  C9  UNL     1       4.381  20.940  51.314  1.00  0.00     0.055 C 
HETATM    9  C10 UNL     1       5.759  21.241  51.754  1.00  0.00     0.019 C 
HETATM   10  N3  UNL     1       6.036  21.543  52.949  1.00  0.00    -0.403 N 
ATOM     11  H31 UNL     1       5.308  21.591  53.662  1.00  0.00     0.155 HD
ATOM     12  H32 UNL     1       6.987  21.751  53.253  1.00  0.00     0.155 HD
HETATM   13  S1  UNL     1       8.391  20.579  51.263  1.00  0.00    -0.057 SA
ENDROOT
BRANCH   1  14
HETATM   14  N1  UNL     1       9.749  22.993  50.450  1.00  0.00    -0.367 N 
ATOM     15  H1  UNL     1      10.039  23.577  51.234  1.00  0.00     0.162 HD
BRANCH  14  16
HETATM   16  C2  UNL     1      10.538  22.989  49.254  1.00  0.00     0.075 C 
HETATM   17  C1  UNL     1      10.639  21.562  48.762  1.00  0.00     0.032 C 
HETATM   18  C3  UNL     1       9.836  23.765  48.133  1.00  0.00     0.032 C 
ENDBRANCH  14  16
ENDBRANCH   1  14
TORSDOF 2
ENDMDL
