MODEL 1
REMARK VINA RESULT: -6.197670165      0.000      0.000
REMARK  1 active torsions:
REMARK  status: ('A' for Active; 'I' for Inactive)
REMARK    1  A    between atoms: C12_17  and  O1_18 
ROOT
HETATM    1  C1  UNL     1       2.722  17.618  48.850  1.00  0.00     0.011 C 
HETATM    2  C2  UNL     1       2.544  19.022  49.316  1.00  0.00    -0.007 C 
HETATM    3  C3  UNL     1       2.076  18.937  50.762  1.00  0.00     0.005 C 
HETATM    4  C4  UNL     1       1.889  20.252  51.414  1.00  0.00     0.001 C 
HETATM    5  C5  UNL     1       2.953  21.256  51.020  1.00  0.00     0.008 C 
HETATM    6  C6  UNL     1       4.118  20.413  50.516  1.00  0.00     0.028 C 
HETATM    7  C7  UNL     1       3.723  19.919  49.144  1.00  0.00     0.063 C 
HETATM    8  C8  UNL     1       4.886  19.326  48.493  1.00  0.00     0.076 C 
HETATM    9  N1  UNL     1       4.845  18.869  47.270  1.00  0.00    -0.389 N 
ATOM     10  H11 UNL     1       5.658  18.455  46.814  1.00  0.00     0.157 HD
ATOM     11  H12 UNL     1       3.973  18.922  46.742  1.00  0.00     0.157 HD
HETATM   12  N2  UNL     1       6.100  19.252  49.228  1.00  0.00    -0.369 N 
ATOM     13  H2  UNL     1       6.724  18.469  49.031  1.00  0.00     0.161 HD
HETATM   14  C9  UNL     1       6.518  20.205  50.236  1.00  0.00     0.050 C 
HETATM   15  C10 UNL     1       7.737  20.983  49.737  1.00  0.00     0.041 C 
HETATM   16  C11 UNL     1       6.945  19.482  51.492  1.00  0.00     0.041 C 
HETATM   17  C12 UNL     1       5.404  21.189  50.503  1.00  0.00     0.150 C 
ENDROOT
BRANCH  17  18
HETATM   18  O1  UNL     1       5.577  21.730  51.785  1.00  0.00    -0.393 OA
ATOM     19  H1  UNL     1       5.426  22.666  51.719  1.00  0.00     0.210 HD
ENDBRANCH  17  18
TORSDOF 1
ENDMDL
MODEL 2
REMARK VINA RESULT: -6.148656804      3.716      4.761
REMARK  1 active torsions:
REMARK  status: ('A' for Active; 'I' for Inactive)
REMARK    1  A    between atoms: C12_17  and  O1_18 
ROOT
HETATM    1  C1  UNL     1       9.027  18.714  52.133  1.00  0.00     0.011 C 
HETATM    2  C2  UNL     1       7.845  19.432  51.577  1.00  0.00    -0.007 C 
HETATM    3  C3  UNL     1       7.259  20.244  52.723  1.00  0.00     0.005 C 
HETATM    4  C4  UNL     1       6.091  21.069  52.342  1.00  0.00     0.001 C 
HETATM    5  C5  UNL     1       6.238  21.692  50.970  1.00  0.00     0.008 C 
HETATM    6  C6  UNL     1       7.737  21.680  50.693  1.00  0.00     0.028 C 
HETATM    7  C7  UNL     1       8.097  20.252  50.358  1.00  0.00     0.063 C 
HETATM    8  C8  UNL     1       9.455  20.209  49.829  1.00  0.00     0.076 C 
HETATM    9  N1  UNL     1      10.005  19.105  49.402  1.00  0.00    -0.389 N 
ATOM     10  H11 UNL     1      10.955  19.075  49.032  1.00  0.00     0.157 HD
ATOM     11  H12 UNL     1       9.475  18.234  49.436  1.00  0.00     0.157 HD
HETATM   12  N2  UNL     1      10.194  21.423  49.783  1.00  0.00    -0.369 N 
ATOM     13  H2  UNL     1      11.206  21.363  49.896  1.00  0.00     0.161 HD
HETATM   14  C9  UNL     1       9.617  22.738  49.586  1.00  0.00     0.050 C 
HETATM   15  C10 UNL     1      10.049  23.293  48.228  1.00  0.00     0.041 C 
HETATM   16  C11 UNL     1      10.134  23.696  50.634  1.00  0.00     0.041 C 
HETATM   17  C12 UNL     1       8.110  22.643  49.602  1.00  0.00     0.150 C 
ENDROOT
BRANCH  17  18
HETATM   18  O1  UNL     1       7.583  23.894  49.952  1.00  0.00    -0.393 OA
ATOM     19  H1  UNL     1       8.193  24.299  50.556  1.00  0.00     0.210 HD
ENDBRANCH  17  18
TORSDOF 1
ENDMDL
MODEL 3
REMARK VINA RESULT: -5.868501738      2.454      5.306
REMARK  1 active torsions:
REMARK  status: ('A' for Active; 'I' for Inactive)
REMARK    1  A    between atoms: C12_17  and  O1_18 
ROOT
HETATM    1  C1  UNL     1       9.955  18.375  50.356  1.00  0.00     0.011 C 
HETATM    2  C2  UNL     1       9.817  19.841  50.586  1.00  0.00    -0.007 C 
HETATM    3  C3  UNL     1       9.717  20.484  49.210  1.00  0.00     0.005 C 
HETATM    4  C4  UNL     1       9.526  21.950  49.242  1.00  0.00     0.001 C 
HETATM    5  C5  UNL     1       8.598  22.395  50.354  1.00  0.00     0.008 C 
HETATM    6  C6  UNL     1       7.789  21.153  50.707  1.00  0.00     0.028 C 
HETATM    7  C7  UNL     1       8.711  20.254  51.497  1.00  0.00     0.063 C 
HETATM    8  C8  UNL     1       7.935  19.171  52.091  1.00  0.00     0.076 C 
HETATM    9  N1  UNL     1       8.472  18.277  52.877  1.00  0.00    -0.389 N 
ATOM     10  H11 UNL     1       7.929  17.519  53.293  1.00  0.00     0.157 HD
ATOM     11  H12 UNL     1       9.468  18.326  53.089  1.00  0.00     0.157 HD
HETATM   12  N2  UNL     1       6.547  19.102  51.796  1.00  0.00    -0.369 N 
ATOM     13  H2  UNL     1       6.116  18.178  51.767  1.00  0.00     0.161 HD
HETATM   14  C9  UNL     1       5.697  20.246  51.534  1.00  0.00     0.050 C 
HETATM   15  C10 UNL     1       4.687  20.410  52.671  1.00  0.00     0.041 C 
HETATM   16  C11 UNL     1       4.900  20.024  50.269  1.00  0.00     0.041 C 
HETATM   17  C12 UNL     1       6.536  21.500  51.459  1.00  0.00     0.150 C 
ENDROOT
BRANCH  17  18
HETATM   18  O1  UNL     1       5.847  22.459  50.703  1.00  0.00    -0.393 OA
ATOM     19  H1  UNL     1       5.141  22.011  50.253  1.00  0.00     0.210 HD
ENDBRANCH  17  18
TORSDOF 1
ENDMDL
MODEL 4
REMARK VINA RESULT: -5.860167646      2.230      3.370
REMARK  1 active torsions:
REMARK  status: ('A' for Active; 'I' for Inactive)
REMARK    1  A    between atoms: C12_17  and  O1_18 
ROOT
HETATM    1  C1  UNL     1       2.503  20.806  51.369  1.00  0.00     0.011 C 
HETATM    2  C2  UNL     1       3.311  19.716  50.753  1.00  0.00    -0.007 C 
HETATM    3  C3  UNL     1       3.198  19.898  49.247  1.00  0.00     0.005 C 
HETATM    4  C4  UNL     1       3.983  18.921  48.461  1.00  0.00     0.001 C 
HETATM    5  C5  UNL     1       5.327  18.612  49.088  1.00  0.00     0.008 C 
HETATM    6  C6  UNL     1       5.610  19.793  50.008  1.00  0.00     0.028 C 
HETATM    7  C7  UNL     1       4.724  19.612  51.218  1.00  0.00     0.063 C 
HETATM    8  C8  UNL     1       5.125  20.555  52.255  1.00  0.00     0.076 C 
HETATM    9  N1  UNL     1       4.565  20.579  53.434  1.00  0.00    -0.389 N 
ATOM     10  H11 UNL     1       4.846  21.239  54.159  1.00  0.00     0.157 HD
ATOM     11  H12 UNL     1       3.816  19.919  53.648  1.00  0.00     0.157 HD
HETATM   12  N2  UNL     1       6.167  21.475  51.956  1.00  0.00    -0.369 N 
ATOM     13  H2  UNL     1       6.133  22.389  52.408  1.00  0.00     0.161 HD
HETATM   14  C9  UNL     1       7.274  21.211  51.058  1.00  0.00     0.050 C 
HETATM   15  C10 UNL     1       8.578  21.139  51.853  1.00  0.00     0.041 C 
HETATM   16  C11 UNL     1       7.425  22.345  50.071  1.00  0.00     0.041 C 
HETATM   17  C12 UNL     1       7.066  19.885  50.366  1.00  0.00     0.150 C 
ENDROOT
BRANCH  17  18
HETATM   18  O1  UNL     1       7.791  19.883  49.166  1.00  0.00    -0.393 OA
ATOM     19  H1  UNL     1       7.332  20.449  48.557  1.00  0.00     0.210 HD
ENDBRANCH  17  18
TORSDOF 1
ENDMDL
MODEL 5
REMARK VINA RESULT: -5.768312532      2.791      5.710
REMARK  1 active torsions:
REMARK  status: ('A' for Active; 'I' for Inactive)
REMARK    1  A    between atoms: C12_17  and  O1_18 
ROOT
HETATM    1  C1  UNL     1      11.082  20.836  48.698  1.00  0.00     0.011 C 
HETATM    2  C2  UNL     1      10.421  21.954  49.428  1.00  0.00    -0.007 C 
HETATM    3  C3  UNL     1       9.843  22.878  48.366  1.00  0.00     0.005 C 
HETATM    4  C4  UNL     1       9.100  24.034  48.911  1.00  0.00     0.001 C 
HETATM    5  C5  UNL     1       8.277  23.677  50.132  1.00  0.00     0.008 C 
HETATM    6  C6  UNL     1       8.094  22.167  50.051  1.00  0.00     0.028 C 
HETATM    7  C7  UNL     1       9.415  21.555  50.454  1.00  0.00     0.063 C 
HETATM    8  C8  UNL     1       9.241  20.121  50.654  1.00  0.00     0.076 C 
HETATM    9  N1  UNL     1      10.211  19.349  51.064  1.00  0.00    -0.389 N 
ATOM     10  H11 UNL     1      10.090  18.346  51.203  1.00  0.00     0.157 HD
ATOM     11  H12 UNL     1      11.129  19.753  51.254  1.00  0.00     0.157 HD
HETATM   12  N2  UNL     1       7.963  19.558  50.389  1.00  0.00    -0.369 N 
ATOM     13  H2  UNL     1       7.932  18.596  50.050  1.00  0.00     0.161 HD
HETATM   14  C9  UNL     1       6.701  20.248  50.564  1.00  0.00     0.050 C 
HETATM   15  C10 UNL     1       5.918  19.610  51.712  1.00  0.00     0.041 C 
HETATM   16  C11 UNL     1       5.851  20.104  49.322  1.00  0.00     0.041 C 
HETATM   17  C12 UNL     1       6.954  21.697  50.909  1.00  0.00     0.150 C 
ENDROOT
BRANCH  17  18
HETATM   18  O1  UNL     1       5.826  22.450  50.552  1.00  0.00    -0.393 OA
ATOM     19  H1  UNL     1       5.658  23.060  51.261  1.00  0.00     0.210 HD
ENDBRANCH  17  18
TORSDOF 1
ENDMDL
