MODEL 1
REMARK VINA RESULT: -6.229034953      0.000      0.000
REMARK  2 active torsions:
REMARK  status: ('A' for Active; 'I' for Inactive)
REMARK    1  A    between atoms: C12_13  and  O1_14 
REMARK    2  A    between atoms: C12_13  and  O2_16 
ROOT
HETATM    1  C1  UNL     1       9.641  23.539  50.277  1.00  0.00     0.060 C 
HETATM    2  C2  UNL     1       9.607  22.189  49.658  1.00  0.00     0.026 C 
HETATM    3  C3  UNL     1      10.522  21.963  48.578  1.00  0.00     0.095 C 
HETATM    4  N1  UNL     1      11.281  21.800  47.693  1.00  0.00    -0.192 NA
HETATM    5  C4  UNL     1       8.772  21.281  50.100  1.00  0.00    -0.002 C 
HETATM    6  C5  UNL     1       7.863  21.659  51.247  1.00  0.00     0.045 C 
HETATM    7  C6  UNL     1       8.159  20.601  52.311  1.00  0.00    -0.014 C 
HETATM    8  C7  UNL     1       7.562  20.961  53.637  1.00  0.00     0.010 C 
HETATM    9  C8  UNL     1       7.695  19.290  51.770  1.00  0.00     0.019 C 
HETATM   10  C9  UNL     1       8.699  18.868  50.694  1.00  0.00     0.013 C 
HETATM   11  C10 UNL     1      10.068  18.742  51.280  1.00  0.00     0.021 C 
HETATM   12  C11 UNL     1       8.309  17.531  50.097  1.00  0.00     0.021 C 
HETATM   13  C12 UNL     1       8.613  19.912  49.604  1.00  0.00     0.193 C 
ENDROOT
BRANCH  13  14
HETATM   14  O1  UNL     1       7.295  19.813  49.100  1.00  0.00    -0.361 OA
ATOM     15  H1  UNL     1       6.762  19.450  49.798  1.00  0.00     0.213 HD
ENDBRANCH  13  14
BRANCH  13  16
HETATM   16  O2  UNL     1       9.453  19.599  48.553  1.00  0.00    -0.361 OA
ATOM     17  H2  UNL     1      10.241  19.138  48.816  1.00  0.00     0.213 HD
ENDBRANCH  13  16
TORSDOF 2
ENDMDL
MODEL 2
REMARK VINA RESULT: -6.094643570      2.739      3.840
REMARK  2 active torsions:
REMARK  status: ('A' for Active; 'I' for Inactive)
REMARK    1  A    between atoms: C12_13  and  O1_14 
REMARK    2  A    between atoms: C12_13  and  O2_16 
ROOT
HETATM    1  C1  UNL     1       9.621  20.349  51.022  1.00  0.00     0.060 C 
HETATM    2  C2  UNL     1       8.376  21.135  50.833  1.00  0.00     0.026 C 
HETATM    3  C3  UNL     1       8.499  22.348  50.080  1.00  0.00     0.095 C 
HETATM    4  N1  UNL     1       8.624  23.341  49.459  1.00  0.00    -0.192 NA
HETATM    5  C4  UNL     1       7.245  20.712  51.341  1.00  0.00    -0.002 C 
HETATM    6  C5  UNL     1       7.262  19.412  52.114  1.00  0.00     0.045 C 
HETATM    7  C6  UNL     1       6.218  18.551  51.403  1.00  0.00    -0.014 C 
HETATM    8  C7  UNL     1       6.280  17.120  51.843  1.00  0.00     0.010 C 
HETATM    9  C8  UNL     1       4.890  19.198  51.621  1.00  0.00     0.019 C 
HETATM   10  C9  UNL     1       4.848  20.446  50.736  1.00  0.00     0.013 C 
HETATM   11  C10 UNL     1       5.022  20.071  49.300  1.00  0.00     0.021 C 
HETATM   12  C11 UNL     1       3.521  21.161  50.887  1.00  0.00     0.021 C 
HETATM   13  C12 UNL     1       5.935  21.363  51.247  1.00  0.00     0.193 C 
ENDROOT
BRANCH  13  14
HETATM   14  O1  UNL     1       5.551  21.694  52.567  1.00  0.00    -0.361 OA
ATOM     15  H1  UNL     1       6.262  22.204  52.939  1.00  0.00     0.213 HD
ENDBRANCH  13  14
BRANCH  13  16
HETATM   16  O2  UNL     1       5.954  22.550  50.540  1.00  0.00    -0.361 OA
ATOM     17  H2  UNL     1       5.396  22.546  49.771  1.00  0.00     0.213 HD
ENDBRANCH  13  16
TORSDOF 2
ENDMDL
MODEL 3
REMARK VINA RESULT: -6.013828970      4.283      5.710
REMARK  2 active torsions:
REMARK  status: ('A' for Active; 'I' for Inactive)
REMARK    1  A    between atoms: C12_13  and  O1_14 
REMARK    2  A    between atoms: C12_13  and  O2_16 
ROOT
HETATM    1  C1  UNL     1       2.176  20.261  52.156  1.00  0.00     0.060 C 
HETATM    2  C2  UNL     1       3.571  20.699  52.415  1.00  0.00     0.026 C 
HETATM    3  C3  UNL     1       3.919  20.929  53.786  1.00  0.00     0.095 C 
HETATM    4  N1  UNL     1       4.183  21.113  54.919  1.00  0.00    -0.192 NA
HETATM    5  C4  UNL     1       4.408  20.858  51.420  1.00  0.00    -0.002 C 
HETATM    6  C5  UNL     1       3.903  20.579  50.023  1.00  0.00     0.045 C 
HETATM    7  C6  UNL     1       4.877  19.530  49.486  1.00  0.00    -0.014 C 
HETATM    8  C7  UNL     1       4.387  18.913  48.212  1.00  0.00     0.010 C 
HETATM    9  C8  UNL     1       6.213  20.187  49.369  1.00  0.00     0.019 C 
HETATM   10  C9  UNL     1       6.759  20.349  50.790  1.00  0.00     0.013 C 
HETATM   11  C10 UNL     1       6.883  19.016  51.455  1.00  0.00     0.021 C 
HETATM   12  C11 UNL     1       8.127  21.000  50.764  1.00  0.00     0.021 C 
HETATM   13  C12 UNL     1       5.808  21.282  51.504  1.00  0.00     0.193 C 
ENDROOT
BRANCH  13  14
HETATM   14  O1  UNL     1       5.903  22.510  50.808  1.00  0.00    -0.361 OA
ATOM     15  H1  UNL     1       6.696  22.936  51.111  1.00  0.00     0.213 HD
ENDBRANCH  13  14
BRANCH  13  16
HETATM   16  O2  UNL     1       6.237  21.535  52.792  1.00  0.00    -0.361 OA
ATOM     17  H2  UNL     1       7.033  22.053  52.836  1.00  0.00     0.213 HD
ENDBRANCH  13  16
TORSDOF 2
ENDMDL
MODEL 4
REMARK VINA RESULT: -5.913638498      2.039      3.233
REMARK  2 active torsions:
REMARK  status: ('A' for Active; 'I' for Inactive)
REMARK    1  A    between atoms: C12_13  and  O1_14 
REMARK    2  A    between atoms: C12_13  and  O2_16 
ROOT
HETATM    1  C1  UNL     1      11.191  21.713  48.000  1.00  0.00     0.060 C 
HETATM    2  C2  UNL     1      10.062  22.239  48.810  1.00  0.00     0.026 C 
HETATM    3  C3  UNL     1       9.531  23.508  48.409  1.00  0.00     0.095 C 
HETATM    4  N1  UNL     1       9.111  24.552  48.062  1.00  0.00    -0.192 NA
HETATM    5  C4  UNL     1       9.605  21.553  49.828  1.00  0.00    -0.002 C 
HETATM    6  C5  UNL     1      10.263  20.227  50.137  1.00  0.00     0.045 C 
HETATM    7  C6  UNL     1       9.104  19.229  50.107  1.00  0.00    -0.014 C 
HETATM    8  C7  UNL     1       9.588  17.812  50.113  1.00  0.00     0.010 C 
HETATM    9  C8  UNL     1       8.200  19.570  51.244  1.00  0.00     0.019 C 
HETATM   10  C9  UNL     1       7.454  20.850  50.857  1.00  0.00     0.013 C 
HETATM   11  C10 UNL     1       6.668  20.635  49.604  1.00  0.00     0.021 C 
HETATM   12  C11 UNL     1       6.498  21.262  51.958  1.00  0.00     0.021 C 
HETATM   13  C12 UNL     1       8.506  21.927  50.722  1.00  0.00     0.193 C 
ENDROOT
BRANCH  13  14
HETATM   14  O1  UNL     1       9.063  22.064  52.015  1.00  0.00    -0.361 OA
ATOM     15  H1  UNL     1       8.475  22.625  52.508  1.00  0.00     0.213 HD
ENDBRANCH  13  14
BRANCH  13  16
HETATM   16  O2  UNL     1       7.930  23.144  50.418  1.00  0.00    -0.361 OA
ATOM     17  H2  UNL     1       7.063  23.074  50.034  1.00  0.00     0.213 HD
ENDBRANCH  13  16
TORSDOF 2
ENDMDL
MODEL 5
REMARK VINA RESULT: -5.876110832      3.351      4.810
REMARK  2 active torsions:
REMARK  status: ('A' for Active; 'I' for Inactive)
REMARK    1  A    between atoms: C12_13  and  O1_14 
REMARK    2  A    between atoms: C12_13  and  O2_16 
ROOT
HETATM    1  C1  UNL     1       4.469  20.990  54.611  1.00  0.00     0.060 C 
HETATM    2  C2  UNL     1       5.643  21.318  53.763  1.00  0.00     0.026 C 
HETATM    3  C3  UNL     1       6.807  21.799  54.447  1.00  0.00     0.095 C 
HETATM    4  N1  UNL     1       7.751  22.192  55.031  1.00  0.00    -0.192 NA
HETATM    5  C4  UNL     1       5.581  21.165  52.463  1.00  0.00    -0.002 C 
HETATM    6  C5  UNL     1       4.287  20.649  51.875  1.00  0.00     0.045 C 
HETATM    7  C6  UNL     1       4.713  19.408  51.090  1.00  0.00    -0.014 C 
HETATM    8  C7  UNL     1       3.535  18.588  50.660  1.00  0.00     0.010 C 
HETATM    9  C8  UNL     1       5.576  19.873  49.964  1.00  0.00     0.019 C 
HETATM   10  C9  UNL     1       6.924  20.276  50.568  1.00  0.00     0.013 C 
HETATM   11  C10 UNL     1       7.550  19.112  51.267  1.00  0.00     0.021 C 
HETATM   12  C11 UNL     1       7.871  20.751  49.486  1.00  0.00     0.021 C 
HETATM   13  C12 UNL     1       6.642  21.441  51.490  1.00  0.00     0.193 C 
ENDROOT
BRANCH  13  14
HETATM   14  O1  UNL     1       6.162  22.471  50.648  1.00  0.00    -0.361 OA
ATOM     15  H1  UNL     1       6.918  22.832  50.200  1.00  0.00     0.213 HD
ENDBRANCH  13  14
BRANCH  13  16
HETATM   16  O2  UNL     1       7.807  21.916  52.057  1.00  0.00    -0.361 OA
ATOM     17  H2  UNL     1       8.192  22.647  51.586  1.00  0.00     0.213 HD
ENDBRANCH  13  16
TORSDOF 2
ENDMDL
