MODEL 1
REMARK VINA RESULT: -6.139064923      0.000      0.000
REMARK  1 active torsions:
REMARK  status: ('A' for Active; 'I' for Inactive)
REMARK    1  A    between atoms: C8_9  and  O1_10 
ROOT
HETATM    1  C1  UNL     1       9.327  17.760  51.639  1.00  0.00     0.021 C 
HETATM    2  C2  UNL     1       8.680  19.056  51.294  1.00  0.00    -0.005 C 
HETATM    3  C3  UNL     1       9.591  20.059  50.669  1.00  0.00     0.021 C 
HETATM    4  C4  UNL     1       9.246  21.378  51.272  1.00  0.00     0.011 C 
HETATM    5  C5  UNL     1       8.743  22.397  50.309  1.00  0.00     0.100 C 
HETATM    6  C6  UNL     1       9.533  22.438  49.106  1.00  0.00     0.064 C 
HETATM    7  N1  UNL     1      10.163  22.489  48.141  1.00  0.00    -0.197 NA
HETATM    8  C7  UNL     1       7.278  22.108  50.065  1.00  0.00     0.058 C 
HETATM    9  C8  UNL     1       6.857  21.217  51.227  1.00  0.00     0.068 C 
HETATM   10  C9  UNL     1       6.381  19.924  50.677  1.00  0.00     0.091 C 
HETATM   11  C10 UNL     1       7.471  18.925  50.465  1.00  0.00    -0.009 C 
HETATM   12  N2  UNL     1       7.325  18.019  49.601  1.00  0.00    -0.405 N 
ATOM     13  H21 UNL     1       6.488  17.928  49.026  1.00  0.00     0.155 HD
ATOM     14  H22 UNL     1       8.070  17.337  49.456  1.00  0.00     0.155 HD
HETATM   15  C11 UNL     1       8.022  21.131  52.148  1.00  0.00     0.027 C 
HETATM   16  C12 UNL     1       8.232  19.708  52.609  1.00  0.00     0.023 C 
ENDROOT
BRANCH   9  17
HETATM   17  O1  UNL     1       5.809  21.844  51.924  1.00  0.00    -0.389 OA
ATOM     18  H1  UNL     1       5.845  21.579  52.836  1.00  0.00     0.210 HD
ENDBRANCH   9  17
TORSDOF 1
ENDMDL
MODEL 2
REMARK VINA RESULT: -5.955474847      2.377      3.452
REMARK  1 active torsions:
REMARK  status: ('A' for Active; 'I' for Inactive)
REMARK    1  A    between atoms: C8_9  and  O1_10 
ROOT
HETATM    1  C1  UNL     1       4.059  20.646  52.033  1.00  0.00     0.021 C 
HETATM    2  C2  UNL     1       5.537  20.658  51.851  1.00  0.00    -0.005 C 
HETATM    3  C3  UNL     1       6.019  21.533  50.743  1.00  0.00     0.021 C 
HETATM    4  C4  UNL     1       7.108  20.782  50.054  1.00  0.00     0.011 C 
HETATM    5  C5  UNL     1       8.447  21.434  50.100  1.00  0.00     0.100 C 
HETATM    6  C6  UNL     1       8.371  22.842  49.815  1.00  0.00     0.064 C 
HETATM    7  N1  UNL     1       8.326  23.971  49.578  1.00  0.00    -0.197 NA
HETATM    8  C7  UNL     1       9.061  21.119  51.447  1.00  0.00     0.058 C 
HETATM    9  C8  UNL     1       8.266  19.927  51.968  1.00  0.00     0.068 C 
HETATM   10  C9  UNL     1       7.624  20.317  53.247  1.00  0.00     0.091 C 
HETATM   11  C10 UNL     1       6.293  20.973  53.074  1.00  0.00    -0.009 C 
HETATM   12  N2  UNL     1       5.866  21.759  53.962  1.00  0.00    -0.405 N 
ATOM     13  H21 UNL     1       6.390  21.978  54.809  1.00  0.00     0.155 HD
ATOM     14  H22 UNL     1       4.958  22.207  53.844  1.00  0.00     0.155 HD
HETATM   15  C11 UNL     1       7.335  19.521  50.881  1.00  0.00     0.027 C 
HETATM   16  C12 UNL     1       5.958  19.242  51.437  1.00  0.00     0.023 C 
ENDROOT
BRANCH   9  17
HETATM   17  O1  UNL     1       9.149  18.856  52.194  1.00  0.00    -0.389 OA
ATOM     18  H1  UNL     1       9.447  18.521  51.356  1.00  0.00     0.210 HD
ENDBRANCH   9  17
TORSDOF 1
ENDMDL
MODEL 3
REMARK VINA RESULT: -5.827739275      2.509      3.700
REMARK  1 active torsions:
REMARK  status: ('A' for Active; 'I' for Inactive)
REMARK    1  A    between atoms: C8_9  and  O1_10 
ROOT
HETATM    1  C1  UNL     1       9.691  21.073  49.902  1.00  0.00     0.021 C 
HETATM    2  C2  UNL     1       8.467  20.992  50.748  1.00  0.00    -0.005 C 
HETATM    3  C3  UNL     1       8.712  21.140  52.212  1.00  0.00     0.021 C 
HETATM    4  C4  UNL     1       7.837  20.141  52.891  1.00  0.00     0.011 C 
HETATM    5  C5  UNL     1       6.809  20.721  53.799  1.00  0.00     0.100 C 
HETATM    6  C6  UNL     1       7.353  21.758  54.637  1.00  0.00     0.064 C 
HETATM    7  N1  UNL     1       7.779  22.584  55.322  1.00  0.00    -0.197 NA
HETATM    8  C7  UNL     1       5.649  21.179  52.943  1.00  0.00     0.058 C 
HETATM    9  C8  UNL     1       5.831  20.449  51.618  1.00  0.00     0.068 C 
HETATM   10  C9  UNL     1       5.985  21.460  50.543  1.00  0.00     0.091 C 
HETATM   11  C10 UNL     1       7.394  21.916  50.346  1.00  0.00    -0.009 C 
HETATM   12  N2  UNL     1       7.616  23.054  49.851  1.00  0.00    -0.405 N 
ATOM     13  H21 UNL     1       6.873  23.694  49.573  1.00  0.00     0.155 HD
ATOM     14  H22 UNL     1       8.578  23.365  49.717  1.00  0.00     0.155 HD
HETATM   15  C11 UNL     1       6.981  19.520  51.792  1.00  0.00     0.027 C 
HETATM   16  C12 UNL     1       7.897  19.576  50.592  1.00  0.00     0.023 C 
ENDROOT
BRANCH   9  17
HETATM   17  O1  UNL     1       4.688  19.668  51.367  1.00  0.00    -0.389 OA
ATOM     18  H1  UNL     1       4.893  19.031  50.693  1.00  0.00     0.210 HD
ENDBRANCH   9  17
TORSDOF 1
ENDMDL
MODEL 4
REMARK VINA RESULT: -5.821354540      1.106      1.177
REMARK  1 active torsions:
REMARK  status: ('A' for Active; 'I' for Inactive)
REMARK    1  A    between atoms: C8_9  and  O1_10 
ROOT
HETATM    1  C1  UNL     1       7.358  17.304  51.700  1.00  0.00     0.021 C 
HETATM    2  C2  UNL     1       7.405  18.730  51.269  1.00  0.00    -0.005 C 
HETATM    3  C3  UNL     1       8.779  19.267  51.047  1.00  0.00     0.021 C 
HETATM    4  C4  UNL     1       8.790  20.648  51.610  1.00  0.00     0.011 C 
HETATM    5  C5  UNL     1       9.055  21.728  50.619  1.00  0.00     0.100 C 
HETATM    6  C6  UNL     1      10.143  21.396  49.738  1.00  0.00     0.064 C 
HETATM    7  N1  UNL     1      11.021  21.147  49.030  1.00  0.00    -0.197 NA
HETATM    8  C7  UNL     1       7.755  22.015  49.900  1.00  0.00     0.058 C 
HETATM    9  C8  UNL     1       6.675  21.420  50.794  1.00  0.00     0.068 C 
HETATM   10  C9  UNL     1       5.946  20.384  50.022  1.00  0.00     0.091 C 
HETATM   11  C10 UNL     1       6.577  19.031  50.091  1.00  0.00    -0.009 C 
HETATM   12  N2  UNL     1       6.383  18.206  49.158  1.00  0.00    -0.405 N 
ATOM     13  H21 UNL     1       5.809  18.415  48.341  1.00  0.00     0.155 HD
ATOM     14  H22 UNL     1       6.813  17.283  49.205  1.00  0.00     0.155 HD
HETATM   15  C11 UNL     1       7.352  20.940  52.028  1.00  0.00     0.027 C 
HETATM   16  C12 UNL     1       6.841  19.574  52.420  1.00  0.00     0.023 C 
ENDROOT
BRANCH   9  17
HETATM   17  O1  UNL     1       5.781  22.440  51.168  1.00  0.00    -0.389 OA
ATOM     18  H1  UNL     1       4.893  22.148  51.000  1.00  0.00     0.210 HD
ENDBRANCH   9  17
TORSDOF 1
ENDMDL
MODEL 5
REMARK VINA RESULT: -5.796415105      2.016      2.789
REMARK  1 active torsions:
REMARK  status: ('A' for Active; 'I' for Inactive)
REMARK    1  A    between atoms: C8_9  and  O1_10 
ROOT
HETATM    1  C1  UNL     1       6.728  19.449  54.293  1.00  0.00     0.021 C 
HETATM    2  C2  UNL     1       7.116  19.928  52.936  1.00  0.00    -0.005 C 
HETATM    3  C3  UNL     1       8.118  19.071  52.239  1.00  0.00     0.021 C 
HETATM    4  C4  UNL     1       9.073  19.998  51.566  1.00  0.00     0.011 C 
HETATM    5  C5  UNL     1       9.110  19.893  50.081  1.00  0.00     0.100 C 
HETATM    6  C6  UNL     1       9.141  18.524  49.638  1.00  0.00     0.064 C 
HETATM    7  N1  UNL     1       9.176  17.430  49.269  1.00  0.00    -0.197 NA
HETATM    8  C7  UNL     1       7.939  20.681  49.538  1.00  0.00     0.058 C 
HETATM    9  C8  UNL     1       7.517  21.592  50.685  1.00  0.00     0.068 C 
HETATM   10  C9  UNL     1       6.111  21.276  51.041  1.00  0.00     0.091 C 
HETATM   11  C10 UNL     1       5.979  20.167  52.033  1.00  0.00    -0.009 C 
HETATM   12  N2  UNL     1       4.919  19.486  52.067  1.00  0.00    -0.405 N 
ATOM     13  H21 UNL     1       4.131  19.651  51.441  1.00  0.00     0.155 HD
ATOM     14  H22 UNL     1       4.828  18.729  52.744  1.00  0.00     0.155 HD
HETATM   15  C11 UNL     1       8.511  21.401  51.775  1.00  0.00     0.027 C 
HETATM   16  C12 UNL     1       7.819  21.280  53.112  1.00  0.00     0.023 C 
ENDROOT
BRANCH   9  17
HETATM   17  O1  UNL     1       7.603  22.929  50.260  1.00  0.00    -0.389 OA
ATOM     18  H1  UNL     1       6.863  23.121  49.696  1.00  0.00     0.210 HD
ENDBRANCH   9  17
TORSDOF 1
ENDMDL
