MODEL 1
REMARK VINA RESULT: -6.609862750      0.000      0.000
REMARK  2 active torsions:
REMARK  status: ('A' for Active; 'I' for Inactive)
REMARK    1  A    between atoms: O1_1  and  N1_3 
REMARK    2  A    between atoms: C4_8  and  O2_9 
ROOT
HETATM    1  N1  UNL     1      11.594  21.428  47.889  1.00  0.00    -0.277 N 
ATOM      2  H1  UNL     1      12.196  20.605  47.924  1.00  0.00     0.193 HD
HETATM    3  C1  UNL     1      10.638  21.559  48.733  1.00  0.00     0.011 C 
HETATM    4  C2  UNL     1       9.784  22.768  48.649  1.00  0.00     0.057 C 
HETATM    5  C3  UNL     1       9.178  22.941  50.023  1.00  0.00     0.038 C 
HETATM    6  C4  UNL     1       8.332  21.739  50.361  1.00  0.00     0.127 C 
HETATM    7  C5  UNL     1       9.089  20.453  50.362  1.00  0.00    -0.009 C 
HETATM    8  C6  UNL     1       9.269  20.037  51.806  1.00  0.00     0.012 C 
HETATM    9  C7  UNL     1       8.182  19.138  52.304  1.00  0.00     0.001 C 
HETATM   10  C8  UNL     1       8.559  17.722  52.024  1.00  0.00     0.000 C 
HETATM   11  C9  UNL     1       9.374  17.523  50.792  1.00  0.00     0.000 C 
HETATM   12  C10 UNL     1       8.795  18.083  49.548  1.00  0.00     0.001 C 
HETATM   13  C11 UNL     1       8.270  19.450  49.580  1.00  0.00     0.012 C 
HETATM   14  C12 UNL     1      10.441  20.513  49.730  1.00  0.00     0.066 C 
ENDROOT
BRANCH   6  15
HETATM   15  O2  UNL     1       7.772  22.012  51.617  1.00  0.00    -0.395 OA
ATOM     16  H2  UNL     1       6.838  22.096  51.468  1.00  0.00     0.210 HD
ENDBRANCH   6  15
BRANCH   1  17
HETATM   17  O1  UNL     1      11.806  22.381  46.951  1.00  0.00    -0.290 OA
ATOM     18  H1  UNL     1      11.940  22.134  46.044  1.00  0.00     0.244 HD
ENDBRANCH   1  17
TORSDOF 2
ENDMDL
MODEL 2
REMARK VINA RESULT: -6.505242083      3.959      4.642
REMARK  2 active torsions:
REMARK  status: ('A' for Active; 'I' for Inactive)
REMARK    1  A    between atoms: O1_1  and  N1_3 
REMARK    2  A    between atoms: C4_8  and  O2_9 
ROOT
HETATM    1  N1  UNL     1       8.067  17.926  49.439  1.00  0.00    -0.277 N 
ATOM      2  H1  UNL     1       7.636  17.011  49.576  1.00  0.00     0.193 HD
HETATM    3  C1  UNL     1       7.445  18.987  49.804  1.00  0.00     0.011 C 
HETATM    4  C2  UNL     1       8.102  20.298  49.588  1.00  0.00     0.057 C 
HETATM    5  C3  UNL     1       7.465  21.246  50.578  1.00  0.00     0.038 C 
HETATM    6  C4  UNL     1       5.988  21.361  50.295  1.00  0.00     0.127 C 
HETATM    7  C5  UNL     1       5.257  20.063  50.381  1.00  0.00    -0.009 C 
HETATM    8  C6  UNL     1       4.448  20.085  51.660  1.00  0.00     0.012 C 
HETATM    9  C7  UNL     1       3.056  20.599  51.472  1.00  0.00     0.001 C 
HETATM   10  C8  UNL     1       2.162  19.457  51.124  1.00  0.00     0.000 C 
HETATM   11  C9  UNL     1       2.814  18.366  50.344  1.00  0.00     0.000 C 
HETATM   12  C10 UNL     1       3.494  18.794  49.099  1.00  0.00     0.001 C 
HETATM   13  C11 UNL     1       4.378  19.960  49.155  1.00  0.00     0.012 C 
HETATM   14  C12 UNL     1       6.126  18.848  50.409  1.00  0.00     0.066 C 
ENDROOT
BRANCH   6  15
HETATM   15  O2  UNL     1       5.497  22.295  51.218  1.00  0.00    -0.395 OA
ATOM     16  H2  UNL     1       5.449  21.834  52.047  1.00  0.00     0.210 HD
ENDBRANCH   6  15
BRANCH   1  17
HETATM   17  O1  UNL     1       9.293  18.019  48.875  1.00  0.00    -0.290 OA
ATOM     18  H1  UNL     1       9.944  18.605  49.244  1.00  0.00     0.244 HD
ENDBRANCH   1  17
TORSDOF 2
ENDMDL
MODEL 3
REMARK VINA RESULT: -6.313373238      1.140      1.321
REMARK  2 active torsions:
REMARK  status: ('A' for Active; 'I' for Inactive)
REMARK    1  A    between atoms: O1_1  and  N1_3 
REMARK    2  A    between atoms: C4_8  and  O2_9 
ROOT
HETATM    1  N1  UNL     1      11.423  20.794  48.730  1.00  0.00    -0.277 N 
ATOM      2  H1  UNL     1      11.861  20.001  49.200  1.00  0.00     0.193 HD
HETATM    3  C1  UNL     1      10.312  21.264  49.168  1.00  0.00     0.011 C 
HETATM    4  C2  UNL     1       9.706  22.415  48.458  1.00  0.00     0.057 C 
HETATM    5  C3  UNL     1       8.799  23.088  49.463  1.00  0.00     0.038 C 
HETATM    6  C4  UNL     1       7.720  22.127  49.897  1.00  0.00     0.127 C 
HETATM    7  C5  UNL     1       8.243  20.881  50.527  1.00  0.00    -0.009 C 
HETATM    8  C6  UNL     1       7.977  20.981  52.014  1.00  0.00     0.012 C 
HETATM    9  C7  UNL     1       6.674  20.373  52.425  1.00  0.00     0.001 C 
HETATM   10  C8  UNL     1       6.888  18.929  52.731  1.00  0.00     0.000 C 
HETATM   11  C9  UNL     1       7.954  18.270  51.924  1.00  0.00     0.000 C 
HETATM   12  C10 UNL     1       7.810  18.396  50.455  1.00  0.00     0.001 C 
HETATM   13  C11 UNL     1       7.511  19.717  49.897  1.00  0.00     0.012 C 
HETATM   14  C12 UNL     1       9.705  20.641  50.338  1.00  0.00     0.066 C 
ENDROOT
BRANCH   6  15
HETATM   15  O2  UNL     1       6.902  22.850  50.777  1.00  0.00    -0.395 OA
ATOM     16  H2  UNL     1       7.389  22.907  51.590  1.00  0.00     0.210 HD
ENDBRANCH   6  15
BRANCH   1  17
HETATM   17  O1  UNL     1      12.014  21.350  47.647  1.00  0.00    -0.290 OA
ATOM     18  H1  UNL     1      11.809  21.030  46.776  1.00  0.00     0.244 HD
ENDBRANCH   1  17
TORSDOF 2
ENDMDL
MODEL 4
REMARK VINA RESULT: -6.285947738      2.279      3.259
REMARK  2 active torsions:
REMARK  status: ('A' for Active; 'I' for Inactive)
REMARK    1  A    between atoms: O1_1  and  N1_3 
REMARK    2  A    between atoms: C4_8  and  O2_9 
ROOT
HETATM    1  N1  UNL     1       8.964  22.917  51.474  1.00  0.00    -0.277 N 
ATOM      2  H1  UNL     1       8.180  23.065  52.110  1.00  0.00     0.193 HD
HETATM    3  C1  UNL     1       9.092  21.795  50.866  1.00  0.00     0.011 C 
HETATM    4  C2  UNL     1      10.245  21.617  49.951  1.00  0.00     0.057 C 
HETATM    5  C3  UNL     1       9.843  20.521  48.990  1.00  0.00     0.038 C 
HETATM    6  C4  UNL     1       9.592  19.243  49.752  1.00  0.00     0.127 C 
HETATM    7  C5  UNL     1       8.516  19.359  50.779  1.00  0.00    -0.009 C 
HETATM    8  C6  UNL     1       7.305  18.624  50.246  1.00  0.00     0.012 C 
HETATM    9  C7  UNL     1       7.245  17.191  50.670  1.00  0.00     0.001 C 
HETATM   10  C8  UNL     1       6.520  17.101  51.970  1.00  0.00     0.000 C 
HETATM   11  C9  UNL     1       6.690  18.280  52.865  1.00  0.00     0.000 C 
HETATM   12  C10 UNL     1       8.092  18.655  53.164  1.00  0.00     0.001 C 
HETATM   13  C11 UNL     1       9.042  18.735  52.053  1.00  0.00     0.012 C 
HETATM   14  C12 UNL     1       8.099  20.755  51.106  1.00  0.00     0.066 C 
ENDROOT
BRANCH   6  15
HETATM   15  O2  UNL     1       9.284  18.280  48.783  1.00  0.00    -0.395 OA
ATOM     16  H2  UNL     1      10.119  17.969  48.455  1.00  0.00     0.210 HD
ENDBRANCH   6  15
BRANCH   1  17
HETATM   17  O1  UNL     1       9.867  23.904  51.273  1.00  0.00    -0.290 OA
ATOM     18  H1  UNL     1      10.208  24.395  52.011  1.00  0.00     0.244 HD
ENDBRANCH   1  17
TORSDOF 2
ENDMDL
MODEL 5
REMARK VINA RESULT: -6.087903392      2.828      5.104
REMARK  2 active torsions:
REMARK  status: ('A' for Active; 'I' for Inactive)
REMARK    1  A    between atoms: O1_1  and  N1_3 
REMARK    2  A    between atoms: C4_8  and  O2_9 
ROOT
HETATM    1  N1  UNL     1       7.423  21.674  53.973  1.00  0.00    -0.277 N 
ATOM      2  H1  UNL     1       8.049  22.443  54.214  1.00  0.00     0.193 HD
HETATM    3  C1  UNL     1       7.596  21.026  52.879  1.00  0.00     0.011 C 
HETATM    4  C2  UNL     1       6.665  19.917  52.563  1.00  0.00     0.057 C 
HETATM    5  C3  UNL     1       7.408  19.018  51.601  1.00  0.00     0.038 C 
HETATM    6  C4  UNL     1       7.740  19.782  50.343  1.00  0.00     0.127 C 
HETATM    7  C5  UNL     1       8.588  20.987  50.579  1.00  0.00    -0.009 C 
HETATM    8  C6  UNL     1       9.981  20.661  50.084  1.00  0.00     0.012 C 
HETATM    9  C7  UNL     1      10.211  21.055  48.660  1.00  0.00     0.001 C 
HETATM   10  C8  UNL     1      10.708  22.461  48.621  1.00  0.00     0.000 C 
HETATM   11  C9  UNL     1      10.187  23.339  49.707  1.00  0.00     0.000 C 
HETATM   12  C10 UNL     1       8.711  23.392  49.830  1.00  0.00     0.001 C 
HETATM   13  C11 UNL     1       7.966  22.132  49.811  1.00  0.00     0.012 C 
HETATM   14  C12 UNL     1       8.697  21.415  52.006  1.00  0.00     0.066 C 
ENDROOT
BRANCH   6  15
HETATM   15  O2  UNL     1       8.371  18.861  49.497  1.00  0.00    -0.395 OA
ATOM     16  H2  UNL     1       7.690  18.533  48.921  1.00  0.00     0.210 HD
ENDBRANCH   6  15
BRANCH   1  17
HETATM   17  O1  UNL     1       6.412  21.338  54.807  1.00  0.00    -0.290 OA
ATOM     18  H1  UNL     1       5.514  21.354  54.497  1.00  0.00     0.244 HD
ENDBRANCH   1  17
TORSDOF 2
ENDMDL
