MODEL 1
REMARK VINA RESULT: -9.388833663      0.000      0.000
REMARK  14 active torsions:
REMARK  status: ('A' for Active; 'I' for Inactive)
REMARK    1  A    between atoms: C2_2  and  N1_4 
REMARK       I    between atoms: N1_4  and  C4_6 
REMARK    2  A    between atoms: C4_6  and  C5_8 
REMARK    3  A    between atoms: C5_8  and  C6_9 
REMARK    4  A    between atoms: C6_9  and  C7_10 
REMARK    5  A    between atoms: C7_10  and  C8_11 
REMARK    6  A    between atoms: C8_11  and  C9_12 
REMARK    7  A    between atoms: C9_12  and  N2_13 
REMARK       I    between atoms: N2_13  and  C10_15 
REMARK    8  A    between atoms: C10_15  and  C11_17 
REMARK    9  A    between atoms: C11_17  and  C12_18 
REMARK   10  A    between atoms: C12_18  and  C13_19 
REMARK   11  A    between atoms: C13_19  and  O3_20 
REMARK   12  A    between atoms: C13_19  and  C14_22 
REMARK   13  A    between atoms: C23_31  and  C24_32 
REMARK   14  A    between atoms: C24_32  and  O4_33 
ROOT
HETATM    1  C14 UNL     1      -9.136  15.677  25.505  1.00  0.00     0.023 C 
HETATM    2  C15 UNL     1      -7.601  15.763  25.648  1.00  0.00     0.008 C 
HETATM    3  C16 UNL     1      -7.329  15.770  27.130  1.00  0.00     0.006 C 
HETATM    4  C17 UNL     1      -8.661  15.506  27.711  1.00  0.00    -0.001 C 
HETATM    5  C18 UNL     1      -8.854  15.664  29.133  1.00  0.00    -0.002 C 
HETATM    6  C19 UNL     1      -8.265  16.853  29.828  1.00  0.00     0.033 C 
HETATM    7  C20 UNL     1      -8.342  16.544  31.282  1.00  0.00    -0.023 C 
HETATM    8  C21 UNL     1      -9.413  15.951  31.793  1.00  0.00    -0.079 C 
HETATM    9  C22 UNL     1      -9.396  15.685  33.249  1.00  0.00     0.041 C 
HETATM   10  C23 UNL     1     -10.518  14.911  33.806  1.00  0.00     0.013 C 
HETATM   11  C25 UNL     1     -11.541  14.392  32.871  1.00  0.00     0.007 C 
HETATM   12  C26 UNL     1     -11.040  14.207  31.461  1.00  0.00     0.010 C 
HETATM   13  C27 UNL     1     -10.583  15.563  30.971  1.00  0.00     0.019 C 
HETATM   14  C28 UNL     1     -10.305  15.466  29.509  1.00  0.00    -0.002 C 
HETATM   15  C29 UNL     1     -11.136  16.418  28.678  1.00  0.00     0.006 C 
HETATM   16  C30 UNL     1     -10.955  15.973  27.234  1.00  0.00     0.010 C 
HETATM   17  C31 UNL     1      -9.575  16.313  26.774  1.00  0.00    -0.034 C 
HETATM   18  C32 UNL     1      -9.241  17.779  26.828  1.00  0.00     0.016 C 
ENDROOT
BRANCH   1  19
HETATM   19  C13 UNL     1      -9.433  16.372  24.216  1.00  0.00     0.123 C 
BRANCH  19  20
HETATM   20  C12 UNL     1      -9.910  15.530  23.098  1.00  0.00     0.041 C 
BRANCH  20  21
HETATM   21  C11 UNL     1     -10.327  16.380  21.935  1.00  0.00     0.105 C 
BRANCH  21  22
HETATM   22  C10 UNL     1      -9.341  16.349  20.823  1.00  0.00     0.217 C 
HETATM   23  N2  UNL     1      -8.151  17.099  20.846  1.00  0.00    -0.361 N 
ATOM     24  H2  UNL     1      -7.963  17.694  21.653  1.00  0.00     0.162 HD
HETATM   25  O2  UNL     1      -9.577  15.626  19.827  1.00  0.00    -0.274 OA
BRANCH  23  26
HETATM   26  C9  UNL     1      -7.198  17.059  19.787  1.00  0.00     0.122 C 
BRANCH  26  27
HETATM   27  C8  UNL     1      -6.122  18.093  19.978  1.00  0.00     0.020 C 
BRANCH  27  28
HETATM   28  C7  UNL     1      -4.787  17.422  20.263  1.00  0.00     0.002 C 
BRANCH  28  29
HETATM   29  C6  UNL     1      -4.228  17.988  21.533  1.00  0.00     0.009 C 
BRANCH  29  30
HETATM   30  C5  UNL     1      -5.243  18.309  22.580  1.00  0.00     0.103 C 
BRANCH  30  31
HETATM   31  C4  UNL     1      -4.664  18.622  23.901  1.00  0.00     0.217 C 
HETATM   32  N1  UNL     1      -5.426  18.398  25.078  1.00  0.00    -0.357 N 
ATOM     33  H1  UNL     1      -6.372  18.025  25.004  1.00  0.00     0.162 HD
HETATM   34  O1  UNL     1      -3.510  19.080  23.996  1.00  0.00    -0.274 OA
BRANCH  32  35
HETATM   35  C2  UNL     1      -4.864  18.700  26.396  1.00  0.00     0.076 C 
HETATM   36  C1  UNL     1      -5.965  19.200  27.324  1.00  0.00     0.032 C 
HETATM   37  C3  UNL     1      -4.195  17.473  26.917  1.00  0.00     0.032 C 
ENDBRANCH  32  35
ENDBRANCH  30  31
ENDBRANCH  29  30
ENDBRANCH  28  29
ENDBRANCH  27  28
ENDBRANCH  26  27
ENDBRANCH  23  26
ENDBRANCH  21  22
ENDBRANCH  20  21
ENDBRANCH  19  20
BRANCH  19  38
HETATM   38  O3  UNL     1      -8.132  16.811  23.785  1.00  0.00    -0.395 OA
ATOM     39  H3  UNL     1      -7.548  16.128  24.093  1.00  0.00     0.210 HD
ENDBRANCH  19  38
ENDBRANCH   1  19
BRANCH  10  40
HETATM   40  C24 UNL     1     -11.235  15.643  34.946  1.00  0.00     0.168 C 
BRANCH  40  41
HETATM   41  O4  UNL     1     -10.857  16.964  35.044  1.00  0.00    -0.400 OA
ATOM     42  H4  UNL     1     -11.388  17.535  34.501  1.00  0.00     0.209 HD
ENDBRANCH  40  41
ENDBRANCH  10  40
TORSDOF 14
ENDMDL
MODEL 2
REMARK VINA RESULT: -9.178376936      0.890      1.024
REMARK  14 active torsions:
REMARK  status: ('A' for Active; 'I' for Inactive)
REMARK    1  A    between atoms: C2_2  and  N1_4 
REMARK       I    between atoms: N1_4  and  C4_6 
REMARK    2  A    between atoms: C4_6  and  C5_8 
REMARK    3  A    between atoms: C5_8  and  C6_9 
REMARK    4  A    between atoms: C6_9  and  C7_10 
REMARK    5  A    between atoms: C7_10  and  C8_11 
REMARK    6  A    between atoms: C8_11  and  C9_12 
REMARK    7  A    between atoms: C9_12  and  N2_13 
REMARK       I    between atoms: N2_13  and  C10_15 
REMARK    8  A    between atoms: C10_15  and  C11_17 
REMARK    9  A    between atoms: C11_17  and  C12_18 
REMARK   10  A    between atoms: C12_18  and  C13_19 
REMARK   11  A    between atoms: C13_19  and  O3_20 
REMARK   12  A    between atoms: C13_19  and  C14_22 
REMARK   13  A    between atoms: C23_31  and  C24_32 
REMARK   14  A    between atoms: C24_32  and  O4_33 
ROOT
HETATM    1  C14 UNL     1      -9.071  15.984  25.304  1.00  0.00     0.023 C 
HETATM    2  C15 UNL     1      -7.536  15.904  25.459  1.00  0.00     0.008 C 
HETATM    3  C16 UNL     1      -7.281  15.809  26.941  1.00  0.00     0.006 C 
HETATM    4  C17 UNL     1      -8.639  15.656  27.501  1.00  0.00    -0.001 C 
HETATM    5  C18 UNL     1      -8.830  15.762  28.928  1.00  0.00    -0.002 C 
HETATM    6  C19 UNL     1      -8.130  16.848  29.686  1.00  0.00     0.033 C 
HETATM    7  C20 UNL     1      -8.253  16.477  31.121  1.00  0.00    -0.023 C 
HETATM    8  C21 UNL     1      -9.385  15.973  31.596  1.00  0.00    -0.079 C 
HETATM    9  C22 UNL     1      -9.410  15.635  33.036  1.00  0.00     0.041 C 
HETATM   10  C23 UNL     1     -10.612  14.955  33.548  1.00  0.00     0.013 C 
HETATM   11  C25 UNL     1     -11.673  14.590  32.583  1.00  0.00     0.007 C 
HETATM   12  C26 UNL     1     -11.179  14.425  31.168  1.00  0.00     0.010 C 
HETATM   13  C27 UNL     1     -10.579  15.749  30.750  1.00  0.00     0.019 C 
HETATM   14  C28 UNL     1     -10.298  15.696  29.286  1.00  0.00    -0.002 C 
HETATM   15  C29 UNL     1     -11.017  16.769  28.499  1.00  0.00     0.006 C 
HETATM   16  C30 UNL     1     -10.867  16.380  27.036  1.00  0.00     0.010 C 
HETATM   17  C31 UNL     1      -9.455  16.599  26.601  1.00  0.00    -0.034 C 
HETATM   18  C32 UNL     1      -8.973  18.017  26.730  1.00  0.00     0.016 C 
ENDROOT
BRANCH   1  19
HETATM   19  C13 UNL     1      -9.281  16.769  24.049  1.00  0.00     0.123 C 
BRANCH  19  20
HETATM   20  C12 UNL     1      -9.880  16.050  22.905  1.00  0.00     0.041 C 
BRANCH  20  21
HETATM   21  C11 UNL     1      -8.817  15.600  21.947  1.00  0.00     0.105 C 
BRANCH  21  22
HETATM   22  C10 UNL     1      -8.360  16.692  21.047  1.00  0.00     0.217 C 
HETATM   23  N2  UNL     1      -7.024  16.814  20.626  1.00  0.00    -0.361 N 
ATOM     24  H2  UNL     1      -6.341  16.134  20.958  1.00  0.00     0.162 HD
HETATM   25  O2  UNL     1      -9.197  17.533  20.648  1.00  0.00    -0.274 OA
BRANCH  23  26
HETATM   26  C9  UNL     1      -6.587  17.853  19.752  1.00  0.00     0.122 C 
BRANCH  26  27
HETATM   27  C8  UNL     1      -5.086  17.928  19.697  1.00  0.00     0.020 C 
BRANCH  27  28
HETATM   28  C7  UNL     1      -4.514  18.147  21.090  1.00  0.00     0.002 C 
BRANCH  28  29
HETATM   29  C6  UNL     1      -3.060  17.787  21.071  1.00  0.00     0.009 C 
BRANCH  29  30
HETATM   30  C5  UNL     1      -2.538  17.207  22.344  1.00  0.00     0.103 C 
BRANCH  30  31
HETATM   31  C4  UNL     1      -2.869  17.999  23.545  1.00  0.00     0.217 C 
HETATM   32  N1  UNL     1      -3.769  17.477  24.510  1.00  0.00    -0.357 N 
ATOM     33  H1  UNL     1      -4.186  16.557  24.367  1.00  0.00     0.162 HD
HETATM   34  O1  UNL     1      -2.364  19.124  23.722  1.00  0.00    -0.274 OA
BRANCH  32  35
HETATM   35  C2  UNL     1      -4.104  18.248  25.708  1.00  0.00     0.076 C 
HETATM   36  C1  UNL     1      -5.467  18.907  25.533  1.00  0.00     0.032 C 
HETATM   37  C3  UNL     1      -4.060  17.335  26.887  1.00  0.00     0.032 C 
ENDBRANCH  32  35
ENDBRANCH  30  31
ENDBRANCH  29  30
ENDBRANCH  28  29
ENDBRANCH  27  28
ENDBRANCH  26  27
ENDBRANCH  23  26
ENDBRANCH  21  22
ENDBRANCH  20  21
ENDBRANCH  19  20
BRANCH  19  38
HETATM   38  O3  UNL     1      -7.936  17.043  23.617  1.00  0.00    -0.395 OA
ATOM     39  H3  UNL     1      -7.421  16.359  24.029  1.00  0.00     0.210 HD
ENDBRANCH  19  38
ENDBRANCH   1  19
BRANCH  10  40
HETATM   40  C24 UNL     1     -11.262  15.699  34.719  1.00  0.00     0.168 C 
BRANCH  40  41
HETATM   41  O4  UNL     1     -10.694  16.935  34.938  1.00  0.00    -0.400 OA
ATOM     42  H4  UNL     1     -11.328  17.640  34.890  1.00  0.00     0.209 HD
ENDBRANCH  40  41
ENDBRANCH  10  40
TORSDOF 14
ENDMDL
MODEL 3
REMARK VINA RESULT: -8.693157155      1.798      2.405
REMARK  14 active torsions:
REMARK  status: ('A' for Active; 'I' for Inactive)
REMARK    1  A    between atoms: C2_2  and  N1_4 
REMARK       I    between atoms: N1_4  and  C4_6 
REMARK    2  A    between atoms: C4_6  and  C5_8 
REMARK    3  A    between atoms: C5_8  and  C6_9 
REMARK    4  A    between atoms: C6_9  and  C7_10 
REMARK    5  A    between atoms: C7_10  and  C8_11 
REMARK    6  A    between atoms: C8_11  and  C9_12 
REMARK    7  A    between atoms: C9_12  and  N2_13 
REMARK       I    between atoms: N2_13  and  C10_15 
REMARK    8  A    between atoms: C10_15  and  C11_17 
REMARK    9  A    between atoms: C11_17  and  C12_18 
REMARK   10  A    between atoms: C12_18  and  C13_19 
REMARK   11  A    between atoms: C13_19  and  O3_20 
REMARK   12  A    between atoms: C13_19  and  C14_22 
REMARK   13  A    between atoms: C23_31  and  C24_32 
REMARK   14  A    between atoms: C24_32  and  O4_33 
ROOT
HETATM    1  C14 UNL     1      -9.016  15.830  25.178  1.00  0.00     0.023 C 
HETATM    2  C15 UNL     1      -7.485  15.942  25.342  1.00  0.00     0.008 C 
HETATM    3  C16 UNL     1      -7.233  15.942  26.827  1.00  0.00     0.006 C 
HETATM    4  C17 UNL     1      -8.567  15.650  27.389  1.00  0.00    -0.001 C 
HETATM    5  C18 UNL     1      -8.782  15.793  28.809  1.00  0.00    -0.002 C 
HETATM    6  C19 UNL     1      -8.224  16.986  29.521  1.00  0.00     0.033 C 
HETATM    7  C20 UNL     1      -8.314  16.665  30.971  1.00  0.00    -0.023 C 
HETATM    8  C21 UNL     1      -9.381  16.049  31.463  1.00  0.00    -0.079 C 
HETATM    9  C22 UNL     1      -9.378  15.772  32.917  1.00  0.00     0.041 C 
HETATM   10  C23 UNL     1     -10.493  14.974  33.454  1.00  0.00     0.013 C 
HETATM   11  C25 UNL     1     -11.495  14.444  32.501  1.00  0.00     0.007 C 
HETATM   12  C26 UNL     1     -10.972  14.280  31.097  1.00  0.00     0.010 C 
HETATM   13  C27 UNL     1     -10.533  15.647  30.624  1.00  0.00     0.019 C 
HETATM   14  C28 UNL     1     -10.234  15.566  29.164  1.00  0.00    -0.002 C 
HETATM   15  C29 UNL     1     -11.070  16.510  28.330  1.00  0.00     0.006 C 
HETATM   16  C30 UNL     1     -10.862  16.080  26.885  1.00  0.00     0.010 C 
HETATM   17  C31 UNL     1      -9.483  16.449  26.446  1.00  0.00    -0.034 C 
HETATM   18  C32 UNL     1      -9.176  17.919  26.516  1.00  0.00     0.016 C 
ENDROOT
BRANCH   1  19
HETATM   19  C13 UNL     1      -9.308  16.530  23.890  1.00  0.00     0.123 C 
BRANCH  19  20
HETATM   20  C12 UNL     1      -8.953  15.815  22.646  1.00  0.00     0.041 C 
BRANCH  20  21
HETATM   21  C11 UNL     1      -9.243  16.664  21.445  1.00  0.00     0.105 C 
BRANCH  21  22
HETATM   22  C10 UNL     1      -8.009  17.211  20.822  1.00  0.00     0.217 C 
HETATM   23  N2  UNL     1      -6.721  16.884  21.283  1.00  0.00    -0.361 N 
ATOM     24  H2  UNL     1      -6.631  16.255  22.081  1.00  0.00     0.162 HD
HETATM   25  O2  UNL     1      -8.119  17.992  19.849  1.00  0.00    -0.274 OA
BRANCH  23  26
HETATM   26  C9  UNL     1      -5.536  17.397  20.678  1.00  0.00     0.122 C 
BRANCH  26  27
HETATM   27  C8  UNL     1      -4.680  18.123  21.679  1.00  0.00     0.020 C 
BRANCH  27  28
HETATM   28  C7  UNL     1      -5.485  18.448  22.929  1.00  0.00     0.002 C 
BRANCH  28  29
HETATM   29  C6  UNL     1      -4.533  18.736  24.049  1.00  0.00     0.009 C 
BRANCH  29  30
HETATM   30  C5  UNL     1      -3.888  17.534  24.655  1.00  0.00     0.103 C 
BRANCH  30  31
HETATM   31  C4  UNL     1      -2.483  17.338  24.249  1.00  0.00     0.217 C 
HETATM   32  N1  UNL     1      -2.015  16.037  23.926  1.00  0.00    -0.357 N 
ATOM     33  H1  UNL     1      -2.653  15.243  23.980  1.00  0.00     0.162 HD
HETATM   34  O1  UNL     1      -1.700  18.305  24.185  1.00  0.00    -0.274 OA
BRANCH  32  35
HETATM   35  C2  UNL     1      -0.625  15.827  23.518  1.00  0.00     0.076 C 
HETATM   36  C1  UNL     1      -0.133  14.481  24.037  1.00  0.00     0.032 C 
HETATM   37  C3  UNL     1      -0.549  15.926  22.032  1.00  0.00     0.032 C 
ENDBRANCH  32  35
ENDBRANCH  30  31
ENDBRANCH  29  30
ENDBRANCH  28  29
ENDBRANCH  27  28
ENDBRANCH  26  27
ENDBRANCH  23  26
ENDBRANCH  21  22
ENDBRANCH  20  21
ENDBRANCH  19  20
BRANCH  19  38
HETATM   38  O3  UNL     1      -8.396  17.643  23.919  1.00  0.00    -0.395 OA
ATOM     39  H3  UNL     1      -8.949  18.394  23.738  1.00  0.00     0.210 HD
ENDBRANCH  19  38
ENDBRANCH   1  19
BRANCH  10  40
HETATM   40  C24 UNL     1     -11.238  15.684  34.589  1.00  0.00     0.168 C 
BRANCH  40  41
HETATM   41  O4  UNL     1     -10.671  16.897  34.914  1.00  0.00    -0.400 OA
ATOM     42  H4  UNL     1     -11.305  17.514  35.258  1.00  0.00     0.209 HD
ENDBRANCH  40  41
ENDBRANCH  10  40
TORSDOF 14
ENDMDL
MODEL 4
REMARK VINA RESULT: -8.674480458      1.686      4.571
REMARK  14 active torsions:
REMARK  status: ('A' for Active; 'I' for Inactive)
REMARK    1  A    between atoms: C2_2  and  N1_4 
REMARK       I    between atoms: N1_4  and  C4_6 
REMARK    2  A    between atoms: C4_6  and  C5_8 
REMARK    3  A    between atoms: C5_8  and  C6_9 
REMARK    4  A    between atoms: C6_9  and  C7_10 
REMARK    5  A    between atoms: C7_10  and  C8_11 
REMARK    6  A    between atoms: C8_11  and  C9_12 
REMARK    7  A    between atoms: C9_12  and  N2_13 
REMARK       I    between atoms: N2_13  and  C10_15 
REMARK    8  A    between atoms: C10_15  and  C11_17 
REMARK    9  A    between atoms: C11_17  and  C12_18 
REMARK   10  A    between atoms: C12_18  and  C13_19 
REMARK   11  A    between atoms: C13_19  and  O3_20 
REMARK   12  A    between atoms: C13_19  and  C14_22 
REMARK   13  A    between atoms: C23_31  and  C24_32 
REMARK   14  A    between atoms: C24_32  and  O4_33 
ROOT
HETATM    1  C14 UNL     1      -8.236  17.894  28.039  1.00  0.00     0.023 C 
HETATM    2  C15 UNL     1      -9.523  17.801  27.191  1.00  0.00     0.008 C 
HETATM    3  C16 UNL     1     -10.555  17.164  28.084  1.00  0.00     0.006 C 
HETATM    4  C17 UNL     1      -9.873  17.113  29.393  1.00  0.00    -0.001 C 
HETATM    5  C18 UNL     1     -10.464  16.352  30.468  1.00  0.00    -0.002 C 
HETATM    6  C19 UNL     1     -11.036  14.998  30.183  1.00  0.00     0.033 C 
HETATM    7  C20 UNL     1     -11.849  14.647  31.380  1.00  0.00    -0.023 C 
HETATM    8  C21 UNL     1     -11.414  14.930  32.600  1.00  0.00    -0.079 C 
HETATM    9  C22 UNL     1     -12.293  14.544  33.726  1.00  0.00     0.041 C 
HETATM   10  C23 UNL     1     -11.885  14.968  35.076  1.00  0.00     0.013 C 
HETATM   11  C25 UNL     1     -10.675  15.809  35.209  1.00  0.00     0.007 C 
HETATM   12  C26 UNL     1     -10.342  16.598  33.968  1.00  0.00     0.010 C 
HETATM   13  C27 UNL     1     -10.117  15.600  32.854  1.00  0.00     0.019 C 
HETATM   14  C28 UNL     1      -9.557  16.326  31.678  1.00  0.00    -0.002 C 
HETATM   15  C29 UNL     1      -8.209  15.800  31.238  1.00  0.00     0.006 C 
HETATM   16  C30 UNL     1      -7.664  16.829  30.258  1.00  0.00     0.010 C 
HETATM   17  C31 UNL     1      -8.433  16.761  28.980  1.00  0.00    -0.034 C 
HETATM   18  C32 UNL     1      -8.383  15.426  28.289  1.00  0.00     0.016 C 
ENDROOT
BRANCH   1  19
HETATM   19  C13 UNL     1      -7.124  17.815  27.045  1.00  0.00     0.123 C 
BRANCH  19  20
HETATM   20  C12 UNL     1      -6.095  18.874  27.107  1.00  0.00     0.041 C 
BRANCH  20  21
HETATM   21  C11 UNL     1      -4.787  18.315  27.585  1.00  0.00     0.105 C 
BRANCH  21  22
HETATM   22  C10 UNL     1      -4.078  17.543  26.531  1.00  0.00     0.217 C 
HETATM   23  N2  UNL     1      -3.531  18.151  25.387  1.00  0.00    -0.361 N 
ATOM     24  H2  UNL     1      -3.633  19.159  25.272  1.00  0.00     0.162 HD
HETATM   25  O2  UNL     1      -3.962  16.303  26.668  1.00  0.00    -0.274 OA
BRANCH  23  26
HETATM   26  C9  UNL     1      -2.839  17.413  24.382  1.00  0.00     0.122 C 
BRANCH  26  27
HETATM   27  C8  UNL     1      -3.371  17.723  23.010  1.00  0.00     0.020 C 
BRANCH  27  28
HETATM   28  C7  UNL     1      -4.695  18.467  23.111  1.00  0.00     0.002 C 
BRANCH  28  29
HETATM   29  C6  UNL     1      -5.537  18.108  21.925  1.00  0.00     0.009 C 
BRANCH  29  30
HETATM   30  C5  UNL     1      -6.907  18.702  21.920  1.00  0.00     0.103 C 
BRANCH  30  31
HETATM   31  C4  UNL     1      -7.992  17.706  21.817  1.00  0.00     0.217 C 
HETATM   32  N1  UNL     1      -8.254  16.831  22.903  1.00  0.00    -0.357 N 
ATOM     33  H1  UNL     1      -7.688  16.893  23.750  1.00  0.00     0.162 HD
HETATM   34  O1  UNL     1      -8.683  17.626  20.784  1.00  0.00    -0.274 OA
BRANCH  32  35
HETATM   35  C2  UNL     1      -9.329  15.841  22.818  1.00  0.00     0.076 C 
HETATM   36  C1  UNL     1      -8.746  14.437  22.918  1.00  0.00     0.032 C 
HETATM   37  C3  UNL     1     -10.319  16.125  23.897  1.00  0.00     0.032 C 
ENDBRANCH  32  35
ENDBRANCH  30  31
ENDBRANCH  29  30
ENDBRANCH  28  29
ENDBRANCH  27  28
ENDBRANCH  26  27
ENDBRANCH  23  26
ENDBRANCH  21  22
ENDBRANCH  20  21
ENDBRANCH  19  20
BRANCH  19  38
HETATM   38  O3  UNL     1      -7.795  18.061  25.796  1.00  0.00    -0.395 OA
ATOM     39  H3  UNL     1      -8.647  17.656  25.912  1.00  0.00     0.210 HD
ENDBRANCH  19  38
ENDBRANCH   1  19
BRANCH  10  40
HETATM   40  C24 UNL     1     -11.766  13.796  36.056  1.00  0.00     0.168 C 
BRANCH  40  41
HETATM   41  O4  UNL     1     -11.513  12.601  35.420  1.00  0.00    -0.400 OA
ATOM     42  H4  UNL     1     -11.986  11.875  35.809  1.00  0.00     0.209 HD
ENDBRANCH  40  41
ENDBRANCH  10  40
TORSDOF 14
ENDMDL
MODEL 5
REMARK VINA RESULT: -8.635019093      1.484      4.322
REMARK  14 active torsions:
REMARK  status: ('A' for Active; 'I' for Inactive)
REMARK    1  A    between atoms: C2_2  and  N1_4 
REMARK       I    between atoms: N1_4  and  C4_6 
REMARK    2  A    between atoms: C4_6  and  C5_8 
REMARK    3  A    between atoms: C5_8  and  C6_9 
REMARK    4  A    between atoms: C6_9  and  C7_10 
REMARK    5  A    between atoms: C7_10  and  C8_11 
REMARK    6  A    between atoms: C8_11  and  C9_12 
REMARK    7  A    between atoms: C9_12  and  N2_13 
REMARK       I    between atoms: N2_13  and  C10_15 
REMARK    8  A    between atoms: C10_15  and  C11_17 
REMARK    9  A    between atoms: C11_17  and  C12_18 
REMARK   10  A    between atoms: C12_18  and  C13_19 
REMARK   11  A    between atoms: C13_19  and  O3_20 
REMARK   12  A    between atoms: C13_19  and  C14_22 
REMARK   13  A    between atoms: C23_31  and  C24_32 
REMARK   14  A    between atoms: C24_32  and  O4_33 
ROOT
HETATM    1  C14 UNL     1      -8.315  17.856  27.741  1.00  0.00     0.023 C 
HETATM    2  C15 UNL     1      -9.650  17.797  26.967  1.00  0.00     0.008 C 
HETATM    3  C16 UNL     1     -10.655  17.222  27.931  1.00  0.00     0.006 C 
HETATM    4  C17 UNL     1      -9.903  17.171  29.201  1.00  0.00    -0.001 C 
HETATM    5  C18 UNL     1     -10.462  16.458  30.325  1.00  0.00    -0.002 C 
HETATM    6  C19 UNL     1     -11.102  15.122  30.104  1.00  0.00     0.033 C 
HETATM    7  C20 UNL     1     -11.860  14.831  31.352  1.00  0.00    -0.023 C 
HETATM    8  C21 UNL     1     -11.346  15.123  32.539  1.00  0.00    -0.079 C 
HETATM    9  C22 UNL     1     -12.175  14.796  33.721  1.00  0.00     0.041 C 
HETATM   10  C23 UNL     1     -11.677  15.233  35.036  1.00  0.00     0.013 C 
HETATM   11  C25 UNL     1     -10.428  16.027  35.082  1.00  0.00     0.007 C 
HETATM   12  C26 UNL     1     -10.135  16.775  33.805  1.00  0.00     0.010 C 
HETATM   13  C27 UNL     1     -10.012  15.744  32.705  1.00  0.00     0.019 C 
HETATM   14  C28 UNL     1      -9.490  16.421  31.483  1.00  0.00    -0.002 C 
HETATM   15  C29 UNL     1      -8.191  15.833  30.982  1.00  0.00     0.006 C 
HETATM   16  C30 UNL     1      -7.662  16.817  29.949  1.00  0.00     0.010 C 
HETATM   17  C31 UNL     1      -8.504  16.752  28.717  1.00  0.00    -0.034 C 
HETATM   18  C32 UNL     1      -8.545  15.402  28.057  1.00  0.00     0.016 C 
ENDROOT
BRANCH   1  19
HETATM   19  C13 UNL     1      -7.264  17.710  26.689  1.00  0.00     0.123 C 
BRANCH  19  20
HETATM   20  C12 UNL     1      -6.262  18.793  26.591  1.00  0.00     0.041 C 
BRANCH  20  21
HETATM   21  C11 UNL     1      -5.019  18.304  25.907  1.00  0.00     0.105 C 
BRANCH  21  22
HETATM   22  C10 UNL     1      -4.929  18.761  24.495  1.00  0.00     0.217 C 
HETATM   23  N2  UNL     1      -5.936  18.497  23.549  1.00  0.00    -0.361 N 
ATOM     24  H2  UNL     1      -6.755  17.964  23.841  1.00  0.00     0.162 HD
HETATM   25  O2  UNL     1      -3.918  19.407  24.134  1.00  0.00    -0.274 OA
BRANCH  23  26
HETATM   26  C9  UNL     1      -5.857  18.946  22.198  1.00  0.00     0.122 C 
BRANCH  26  27
HETATM   27  C8  UNL     1      -5.191  17.924  21.319  1.00  0.00     0.020 C 
BRANCH  27  28
HETATM   28  C7  UNL     1      -6.004  17.704  20.052  1.00  0.00     0.002 C 
BRANCH  28  29
HETATM   29  C6  UNL     1      -7.459  17.753  20.402  1.00  0.00     0.009 C 
BRANCH  29  30
HETATM   30  C5  UNL     1      -8.242  16.541  20.019  1.00  0.00     0.103 C 
BRANCH  30  31
HETATM   31  C4  UNL     1      -8.752  15.769  21.169  1.00  0.00     0.217 C 
HETATM   32  N1  UNL     1      -7.929  14.789  21.783  1.00  0.00    -0.357 N 
ATOM     33  H1  UNL     1      -6.989  14.620  21.424  1.00  0.00     0.162 HD
HETATM   34  O1  UNL     1      -9.900  15.968  21.608  1.00  0.00    -0.274 OA
BRANCH  32  35
HETATM   35  C2  UNL     1      -8.419  14.017  22.927  1.00  0.00     0.076 C 
HETATM   36  C1  UNL     1      -7.923  12.579  22.829  1.00  0.00     0.032 C 
HETATM   37  C3  UNL     1      -7.970  14.690  24.179  1.00  0.00     0.032 C 
ENDBRANCH  32  35
ENDBRANCH  30  31
ENDBRANCH  29  30
ENDBRANCH  28  29
ENDBRANCH  27  28
ENDBRANCH  26  27
ENDBRANCH  23  26
ENDBRANCH  21  22
ENDBRANCH  20  21
ENDBRANCH  19  20
BRANCH  19  38
HETATM   38  O3  UNL     1      -8.017  17.828  25.469  1.00  0.00    -0.395 OA
ATOM     39  H3  UNL     1      -7.355  17.788  24.788  1.00  0.00     0.210 HD
ENDBRANCH  19  38
ENDBRANCH   1  19
BRANCH  10  40
HETATM   40  C24 UNL     1     -11.548  14.079  36.036  1.00  0.00     0.168 C 
BRANCH  40  41
HETATM   41  O4  UNL     1     -12.406  14.211  37.106  1.00  0.00    -0.400 OA
ATOM     42  H4  UNL     1     -12.165  13.654  37.836  1.00  0.00     0.209 HD
ENDBRANCH  40  41
ENDBRANCH  10  40
TORSDOF 14
ENDMDL
