MODEL 1
REMARK VINA RESULT: -9.269449100      0.000      0.000
REMARK  11 active torsions:
REMARK  status: ('A' for Active; 'I' for Inactive)
REMARK    1  A    between atoms: C2_2  and  C3_3 
REMARK    2  A    between atoms: C3_3  and  C4_4 
REMARK    3  A    between atoms: C4_4  and  C5_5 
REMARK    4  A    between atoms: C5_5  and  N1_6 
REMARK       I    between atoms: N1_6  and  C6_8 
REMARK       I    between atoms: C6_8  and  N2_10 
REMARK    5  A    between atoms: N2_10  and  C7_12 
REMARK    6  A    between atoms: C14_21  and  N4_22 
REMARK    7  A    between atoms: N4_22  and  C15_24 
REMARK    8  A    between atoms: C15_24  and  C16_25 
REMARK    9  A    between atoms: C16_25  and  C17_26 
REMARK   10  A    between atoms: C17_26  and  N5_27 
REMARK       I    between atoms: N5_27  and  C18_29 
REMARK   11  A    between atoms: C18_29  and  C19_31 
ROOT
HETATM    1  C7  UNL     1      -9.701  16.897  25.049  1.00  0.00     0.037 A 
HETATM    2  C8  UNL     1     -10.970  16.373  25.033  1.00  0.00     0.032 A 
HETATM    3  C9  UNL     1     -11.506  15.930  26.221  1.00  0.00     0.033 A 
HETATM    4  C10 UNL     1     -10.800  16.002  27.399  1.00  0.00     0.043 A 
HETATM    5  N3  UNL     1     -11.343  15.589  28.540  1.00  0.00    -0.358 N 
ATOM      6  H3  UNL     1     -12.287  15.201  28.532  1.00  0.00     0.166 HD
HETATM    7  C11 UNL     1     -10.675  15.671  29.705  1.00  0.00     0.017 A 
HETATM    8  C12 UNL     1      -9.414  16.174  29.803  1.00  0.00    -0.023 A 
HETATM    9  C13 UNL     1      -8.781  16.631  28.615  1.00  0.00    -0.000 A 
HETATM   10  C14 UNL     1      -7.464  17.156  28.851  1.00  0.00     0.096 C 
HETATM   11  C24 UNL     1      -9.503  16.532  27.441  1.00  0.00     0.005 A 
HETATM   12  C25 UNL     1      -8.991  16.964  26.271  1.00  0.00     0.044 A 
HETATM   13  C26 UNL     1      -8.651  16.247  31.113  1.00  0.00     0.047 C 
HETATM   14  C27 UNL     1      -9.714  16.243  32.131  1.00  0.00     0.003 A 
HETATM   15  C28 UNL     1     -10.371  14.839  31.895  1.00  0.00     0.004 A 
HETATM   16  C29 UNL     1     -11.432  15.159  30.930  1.00  0.00     0.063 C 
HETATM   17  C30 UNL     1     -10.054  15.363  33.181  1.00  0.00    -0.039 A 
HETATM   18  C31 UNL     1     -11.251  15.729  34.072  1.00  0.00     0.015 C 
HETATM   19  C32 UNL     1      -8.960  14.696  33.988  1.00  0.00     0.015 C 
ENDROOT
BRANCH  10  20
HETATM   20  N4  UNL     1      -6.633  17.541  27.806  1.00  0.00    -0.398 N 
ATOM     21  H4  UNL     1      -6.201  16.882  27.157  1.00  0.00     0.158 HD
BRANCH  20  22
HETATM   22  C15 UNL     1      -6.439  19.003  27.732  1.00  0.00     0.120 C 
BRANCH  22  23
HETATM   23  C16 UNL     1      -5.684  19.439  26.523  1.00  0.00     0.039 C 
BRANCH  23  24
HETATM   24  C17 UNL     1      -5.745  18.347  25.480  1.00  0.00     0.124 C 
BRANCH  24  25
HETATM   25  N5  UNL     1      -4.650  18.455  24.560  1.00  0.00    -0.361 N 
HETATM   26  C18 UNL     1      -3.602  17.527  24.530  1.00  0.00     0.221 C 
HETATM   27  O2  UNL     1      -3.565  16.547  25.314  1.00  0.00    -0.273 OA
ATOM     28  H5  UNL     1      -4.634  19.237  23.905  1.00  0.00     0.162 HD
BRANCH  26  29
HETATM   29  C19 UNL     1      -2.494  17.728  23.517  1.00  0.00     0.078 C 
HETATM   30  C20 UNL     1      -1.659  16.469  23.529  1.00  0.00     0.014 C 
HETATM   31  C21 UNL     1      -0.225  16.894  23.491  1.00  0.00     0.001 C 
HETATM   32  C22 UNL     1      -0.171  18.359  23.832  1.00  0.00     0.001 C 
HETATM   33  C23 UNL     1      -1.592  18.848  23.949  1.00  0.00     0.014 C 
ENDBRANCH  26  29
ENDBRANCH  24  25
ENDBRANCH  23  24
ENDBRANCH  22  23
ENDBRANCH  20  22
ENDBRANCH  10  20
BRANCH   1  34
HETATM   34  N2  UNL     1      -9.049  17.380  23.904  1.00  0.00    -0.309 N 
HETATM   35  C6  UNL     1      -8.460  16.663  22.846  1.00  0.00     0.320 C 
HETATM   36  N1  UNL     1      -7.831  17.330  21.746  1.00  0.00    -0.343 N 
HETATM   37  O1  UNL     1      -8.450  15.422  22.800  1.00  0.00    -0.247 OA
ATOM     38  H1  UNL     1      -7.813  18.350  21.751  1.00  0.00     0.164 HD
ATOM     39  H2  UNL     1      -8.993  18.396  23.828  1.00  0.00     0.170 HD
BRANCH  36  40
HETATM   40  C5  UNL     1      -7.227  16.657  20.645  1.00  0.00     0.124 C 
BRANCH  40  41
HETATM   41  C4  UNL     1      -6.243  17.528  19.946  1.00  0.00     0.020 C 
BRANCH  41  42
HETATM   42  C3  UNL     1      -4.966  17.719  20.750  1.00  0.00     0.001 C 
BRANCH  42  43
HETATM   43  C2  UNL     1      -3.798  18.086  19.877  1.00  0.00    -0.004 C 
HETATM   44  C1  UNL     1      -2.803  16.950  19.895  1.00  0.00     0.005 C 
ENDBRANCH  42  43
ENDBRANCH  41  42
ENDBRANCH  40  41
ENDBRANCH  36  40
ENDBRANCH   1  34
TORSDOF 11
ENDMDL
MODEL 2
REMARK VINA RESULT: -9.229296868      1.839      2.878
REMARK  11 active torsions:
REMARK  status: ('A' for Active; 'I' for Inactive)
REMARK    1  A    between atoms: C2_2  and  C3_3 
REMARK    2  A    between atoms: C3_3  and  C4_4 
REMARK    3  A    between atoms: C4_4  and  C5_5 
REMARK    4  A    between atoms: C5_5  and  N1_6 
REMARK       I    between atoms: N1_6  and  C6_8 
REMARK       I    between atoms: C6_8  and  N2_10 
REMARK    5  A    between atoms: N2_10  and  C7_12 
REMARK    6  A    between atoms: C14_21  and  N4_22 
REMARK    7  A    between atoms: N4_22  and  C15_24 
REMARK    8  A    between atoms: C15_24  and  C16_25 
REMARK    9  A    between atoms: C16_25  and  C17_26 
REMARK   10  A    between atoms: C17_26  and  N5_27 
REMARK       I    between atoms: N5_27  and  C18_29 
REMARK   11  A    between atoms: C18_29  and  C19_31 
ROOT
HETATM    1  C7  UNL     1     -10.407  16.395  25.773  1.00  0.00     0.037 A 
HETATM    2  C8  UNL     1     -11.671  15.889  25.952  1.00  0.00     0.032 A 
HETATM    3  C9  UNL     1     -12.064  15.557  27.228  1.00  0.00     0.033 A 
HETATM    4  C10 UNL     1     -11.224  15.720  28.304  1.00  0.00     0.043 A 
HETATM    5  N3  UNL     1     -11.630  15.414  29.533  1.00  0.00    -0.358 N 
ATOM      6  H3  UNL     1     -12.570  15.041  29.669  1.00  0.00     0.166 HD
HETATM    7  C11 UNL     1     -10.829  15.587  30.599  1.00  0.00     0.017 A 
HETATM    8  C12 UNL     1      -9.563  16.079  30.505  1.00  0.00    -0.023 A 
HETATM    9  C13 UNL     1      -9.073  16.423  29.215  1.00  0.00    -0.000 A 
HETATM   10  C14 UNL     1      -7.735  16.948  29.249  1.00  0.00     0.096 C 
HETATM   11  C24 UNL     1      -9.929  16.233  28.148  1.00  0.00     0.005 A 
HETATM   12  C25 UNL     1      -9.556  16.556  26.893  1.00  0.00     0.044 A 
HETATM   13  C26 UNL     1      -8.651  16.253  31.705  1.00  0.00     0.047 C 
HETATM   14  C27 UNL     1      -9.586  16.352  32.837  1.00  0.00     0.003 A 
HETATM   15  C28 UNL     1     -10.271  14.942  32.803  1.00  0.00     0.004 A 
HETATM   16  C29 UNL     1     -11.438  15.193  31.945  1.00  0.00     0.063 C 
HETATM   17  C30 UNL     1      -9.803  15.570  33.992  1.00  0.00    -0.039 A 
HETATM   18  C31 UNL     1     -10.885  16.028  34.982  1.00  0.00     0.015 C 
HETATM   19  C32 UNL     1      -8.624  14.960  34.721  1.00  0.00     0.015 C 
ENDROOT
BRANCH  10  20
HETATM   20  N4  UNL     1      -7.032  17.229  28.084  1.00  0.00    -0.398 N 
ATOM     21  H4  UNL     1      -6.695  16.512  27.441  1.00  0.00     0.158 HD
BRANCH  20  22
HETATM   22  C15 UNL     1      -6.823  18.676  27.872  1.00  0.00     0.120 C 
BRANCH  22  23
HETATM   23  C16 UNL     1      -5.669  18.982  26.980  1.00  0.00     0.039 C 
BRANCH  23  24
HETATM   24  C17 UNL     1      -5.479  17.842  26.006  1.00  0.00     0.124 C 
BRANCH  24  25
HETATM   25  N5  UNL     1      -5.156  18.334  24.698  1.00  0.00    -0.361 N 
HETATM   26  C18 UNL     1      -5.955  18.072  23.580  1.00  0.00     0.221 C 
HETATM   27  O2  UNL     1      -7.003  17.384  23.664  1.00  0.00    -0.273 OA
ATOM     28  H5  UNL     1      -4.312  18.895  24.579  1.00  0.00     0.162 HD
BRANCH  26  29
HETATM   29  C19 UNL     1      -5.530  18.641  22.242  1.00  0.00     0.078 C 
HETATM   30  C20 UNL     1      -6.630  18.318  21.260  1.00  0.00     0.014 C 
HETATM   31  C21 UNL     1      -5.971  17.864  19.996  1.00  0.00     0.001 C 
HETATM   32  C22 UNL     1      -4.533  17.553  20.315  1.00  0.00     0.001 C 
HETATM   33  C23 UNL     1      -4.294  17.944  21.751  1.00  0.00     0.014 C 
ENDBRANCH  26  29
ENDBRANCH  24  25
ENDBRANCH  23  24
ENDBRANCH  22  23
ENDBRANCH  20  22
ENDBRANCH  10  20
BRANCH   1  34
HETATM   34  N2  UNL     1      -9.892  16.767  24.521  1.00  0.00    -0.309 N 
HETATM   35  C6  UNL     1     -10.155  16.220  23.251  1.00  0.00     0.320 C 
HETATM   36  N1  UNL     1      -9.530  16.734  22.069  1.00  0.00    -0.343 N 
HETATM   37  O1  UNL     1     -10.933  15.269  23.079  1.00  0.00    -0.247 OA
ATOM     38  H1  UNL     1      -8.878  17.512  22.171  1.00  0.00     0.164 HD
ATOM     39  H2  UNL     1      -9.234  17.546  24.534  1.00  0.00     0.170 HD
BRANCH  36  40
HETATM   40  C5  UNL     1      -9.764  16.226  20.759  1.00  0.00     0.124 C 
BRANCH  40  41
HETATM   41  C4  UNL     1      -8.676  15.308  20.328  1.00  0.00     0.020 C 
BRANCH  41  42
HETATM   42  C3  UNL     1      -7.895  14.742  21.504  1.00  0.00     0.001 C 
BRANCH  42  43
HETATM   43  C2  UNL     1      -7.912  13.240  21.524  1.00  0.00    -0.004 C 
HETATM   44  C1  UNL     1      -8.056  12.773  22.954  1.00  0.00     0.005 C 
ENDBRANCH  42  43
ENDBRANCH  41  42
ENDBRANCH  40  41
ENDBRANCH  36  40
ENDBRANCH   1  34
TORSDOF 11
ENDMDL
MODEL 3
REMARK VINA RESULT: -9.095245260      2.164      8.413
REMARK  11 active torsions:
REMARK  status: ('A' for Active; 'I' for Inactive)
REMARK    1  A    between atoms: C2_2  and  C3_3 
REMARK    2  A    between atoms: C3_3  and  C4_4 
REMARK    3  A    between atoms: C4_4  and  C5_5 
REMARK    4  A    between atoms: C5_5  and  N1_6 
REMARK       I    between atoms: N1_6  and  C6_8 
REMARK       I    between atoms: C6_8  and  N2_10 
REMARK    5  A    between atoms: N2_10  and  C7_12 
REMARK    6  A    between atoms: C14_21  and  N4_22 
REMARK    7  A    between atoms: N4_22  and  C15_24 
REMARK    8  A    between atoms: C15_24  and  C16_25 
REMARK    9  A    between atoms: C16_25  and  C17_26 
REMARK   10  A    between atoms: C17_26  and  N5_27 
REMARK       I    between atoms: N5_27  and  C18_29 
REMARK   11  A    between atoms: C18_29  and  C19_31 
ROOT
HETATM    1  C7  UNL     1     -10.464  16.456  29.011  1.00  0.00     0.037 A 
HETATM    2  C8  UNL     1     -11.710  16.058  28.591  1.00  0.00     0.032 A 
HETATM    3  C9  UNL     1     -11.926  15.914  27.240  1.00  0.00     0.033 A 
HETATM    4  C10 UNL     1     -10.931  16.159  26.323  1.00  0.00     0.043 A 
HETATM    5  N3  UNL     1     -11.152  15.993  25.022  1.00  0.00    -0.358 N 
ATOM      6  H3  UNL     1     -12.076  15.695  24.707  1.00  0.00     0.166 HD
HETATM    7  C11 UNL     1     -10.185  16.209  24.113  1.00  0.00     0.017 A 
HETATM    8  C12 UNL     1      -8.928  16.609  24.448  1.00  0.00    -0.023 A 
HETATM    9  C13 UNL     1      -8.632  16.804  25.825  1.00  0.00    -0.000 A 
HETATM   10  C14 UNL     1      -7.270  17.205  26.051  1.00  0.00     0.096 C 
HETATM   11  C24 UNL     1      -9.652  16.568  26.726  1.00  0.00     0.005 A 
HETATM   12  C25 UNL     1      -9.453  16.704  28.052  1.00  0.00     0.044 A 
HETATM   13  C26 UNL     1      -7.842  16.874  23.421  1.00  0.00     0.047 C 
HETATM   14  C27 UNL     1      -8.268  16.081  22.257  1.00  0.00     0.003 A 
HETATM   15  C28 UNL     1      -9.627  16.771  21.887  1.00  0.00     0.004 A 
HETATM   16  C29 UNL     1     -10.591  15.974  22.658  1.00  0.00     0.063 C 
HETATM   17  C30 UNL     1      -8.631  16.412  20.934  1.00  0.00    -0.039 A 
HETATM   18  C31 UNL     1      -8.997  15.267  19.977  1.00  0.00     0.015 C 
HETATM   19  C32 UNL     1      -7.893  17.515  20.203  1.00  0.00     0.015 C 
ENDROOT
BRANCH  10  20
HETATM   20  N4  UNL     1      -6.815  17.563  27.315  1.00  0.00    -0.398 N 
ATOM     21  H4  UNL     1      -7.113  17.101  28.173  1.00  0.00     0.158 HD
BRANCH  20  22
HETATM   22  C15 UNL     1      -5.853  18.684  27.284  1.00  0.00     0.120 C 
BRANCH  22  23
HETATM   23  C16 UNL     1      -4.521  18.335  27.854  1.00  0.00     0.039 C 
BRANCH  23  24
HETATM   24  C17 UNL     1      -3.812  17.387  26.913  1.00  0.00     0.124 C 
BRANCH  24  25
HETATM   25  N5  UNL     1      -3.652  17.979  25.616  1.00  0.00    -0.361 N 
HETATM   26  C18 UNL     1      -3.122  17.272  24.531  1.00  0.00     0.221 C 
HETATM   27  O2  UNL     1      -2.754  16.075  24.638  1.00  0.00    -0.273 OA
ATOM     28  H5  UNL     1      -3.933  18.950  25.480  1.00  0.00     0.162 HD
BRANCH  26  29
HETATM   29  C19 UNL     1      -2.997  17.984  23.200  1.00  0.00     0.078 C 
HETATM   30  C20 UNL     1      -4.396  18.139  22.654  1.00  0.00     0.014 C 
HETATM   31  C21 UNL     1      -4.337  17.810  21.196  1.00  0.00     0.001 C 
HETATM   32  C22 UNL     1      -3.030  17.108  20.937  1.00  0.00     0.001 C 
HETATM   33  C23 UNL     1      -2.244  17.130  22.222  1.00  0.00     0.014 C 
ENDBRANCH  26  29
ENDBRANCH  24  25
ENDBRANCH  23  24
ENDBRANCH  22  23
ENDBRANCH  20  22
ENDBRANCH  10  20
BRANCH   1  34
HETATM   34  N2  UNL     1     -10.124  16.639  30.360  1.00  0.00    -0.309 N 
HETATM   35  C6  UNL     1      -9.999  15.682  31.385  1.00  0.00     0.320 C 
HETATM   36  N1  UNL     1      -9.640  16.056  32.721  1.00  0.00    -0.343 N 
HETATM   37  O1  UNL     1     -10.191  14.470  31.198  1.00  0.00    -0.247 OA
ATOM     38  H1  UNL     1      -9.481  17.044  32.915  1.00  0.00     0.164 HD
ATOM     39  H2  UNL     1      -9.942  17.603  30.638  1.00  0.00     0.170 HD
BRANCH  36  40
HETATM   40  C5  UNL     1      -9.491  15.132  33.794  1.00  0.00     0.124 C 
BRANCH  40  41
HETATM   41  C4  UNL     1      -9.867  15.744  35.097  1.00  0.00     0.020 C 
BRANCH  41  42
HETATM   42  C3  UNL     1     -11.271  15.357  35.536  1.00  0.00     0.001 C 
BRANCH  42  43
HETATM   43  C2  UNL     1     -11.765  14.125  34.830  1.00  0.00    -0.004 C 
HETATM   44  C1  UNL     1     -12.169  13.101  35.864  1.00  0.00     0.005 C 
ENDBRANCH  42  43
ENDBRANCH  41  42
ENDBRANCH  40  41
ENDBRANCH  36  40
ENDBRANCH   1  34
TORSDOF 11
ENDMDL
MODEL 4
REMARK VINA RESULT: -8.856624285      3.670      8.514
REMARK  11 active torsions:
REMARK  status: ('A' for Active; 'I' for Inactive)
REMARK    1  A    between atoms: C2_2  and  C3_3 
REMARK    2  A    between atoms: C3_3  and  C4_4 
REMARK    3  A    between atoms: C4_4  and  C5_5 
REMARK    4  A    between atoms: C5_5  and  N1_6 
REMARK       I    between atoms: N1_6  and  C6_8 
REMARK       I    between atoms: C6_8  and  N2_10 
REMARK    5  A    between atoms: N2_10  and  C7_12 
REMARK    6  A    between atoms: C14_21  and  N4_22 
REMARK    7  A    between atoms: N4_22  and  C15_24 
REMARK    8  A    between atoms: C15_24  and  C16_25 
REMARK    9  A    between atoms: C16_25  and  C17_26 
REMARK   10  A    between atoms: C17_26  and  N5_27 
REMARK       I    between atoms: N5_27  and  C18_29 
REMARK   11  A    between atoms: C18_29  and  C19_31 
ROOT
HETATM    1  C7  UNL     1      -8.512  16.218  26.927  1.00  0.00     0.037 A 
HETATM    2  C8  UNL     1      -7.703  17.262  27.302  1.00  0.00     0.032 A 
HETATM    3  C9  UNL     1      -7.645  17.593  28.637  1.00  0.00     0.033 A 
HETATM    4  C10 UNL     1      -8.373  16.905  29.580  1.00  0.00     0.043 A 
HETATM    5  N3  UNL     1      -8.287  17.226  30.868  1.00  0.00    -0.358 N 
ATOM      6  H3  UNL     1      -7.685  17.999  31.151  1.00  0.00     0.166 HD
HETATM    7  C11 UNL     1      -8.977  16.551  31.805  1.00  0.00     0.017 A 
HETATM    8  C12 UNL     1      -9.801  15.509  31.513  1.00  0.00    -0.023 A 
HETATM    9  C13 UNL     1      -9.935  15.121  30.152  1.00  0.00    -0.000 A 
HETATM   10  C14 UNL     1     -10.816  13.999  29.975  1.00  0.00     0.096 C 
HETATM   11  C24 UNL     1      -9.208  15.837  29.221  1.00  0.00     0.005 A 
HETATM   12  C25 UNL     1      -9.254  15.523  27.911  1.00  0.00     0.044 A 
HETATM   13  C26 UNL     1     -10.597  14.761  32.568  1.00  0.00     0.047 C 
HETATM   14  C27 UNL     1      -9.843  15.010  33.807  1.00  0.00     0.003 A 
HETATM   15  C28 UNL     1      -9.972  16.566  33.948  1.00  0.00     0.004 A 
HETATM   16  C29 UNL     1      -8.772  17.034  33.241  1.00  0.00     0.063 C 
HETATM   17  C30 UNL     1     -10.155  15.652  35.025  1.00  0.00    -0.039 A 
HETATM   18  C31 UNL     1      -9.081  15.682  36.122  1.00  0.00     0.015 C 
HETATM   19  C32 UNL     1     -11.538  15.501  35.623  1.00  0.00     0.015 C 
ENDROOT
BRANCH  10  20
HETATM   20  N4  UNL     1     -11.174  13.544  28.712  1.00  0.00    -0.398 N 
ATOM     21  H4  UNL     1     -10.498  13.304  27.986  1.00  0.00     0.158 HD
BRANCH  20  22
HETATM   22  C15 UNL     1     -12.636  13.444  28.529  1.00  0.00     0.120 C 
BRANCH  22  23
HETATM   23  C16 UNL     1     -13.369  14.674  28.945  1.00  0.00     0.039 C 
BRANCH  23  24
HETATM   24  C17 UNL     1     -14.310  14.331  30.077  1.00  0.00     0.124 C 
BRANCH  24  25
HETATM   25  N5  UNL     1     -14.445  12.910  30.217  1.00  0.00    -0.361 N 
HETATM   26  C18 UNL     1     -14.715  12.301  31.448  1.00  0.00     0.221 C 
HETATM   27  O2  UNL     1     -14.850  12.972  32.501  1.00  0.00    -0.273 OA
ATOM     28  H5  UNL     1     -14.340  12.322  29.390  1.00  0.00     0.162 HD
BRANCH  26  29
HETATM   29  C19 UNL     1     -14.843  10.792  31.491  1.00  0.00     0.078 C 
HETATM   30  C20 UNL     1     -15.621  10.384  30.262  1.00  0.00     0.014 C 
HETATM   31  C21 UNL     1     -16.607   9.345  30.693  1.00  0.00     0.001 C 
HETATM   32  C22 UNL     1     -16.696   9.390  32.195  1.00  0.00     0.001 C 
HETATM   33  C23 UNL     1     -15.661  10.374  32.679  1.00  0.00     0.014 C 
ENDBRANCH  26  29
ENDBRANCH  24  25
ENDBRANCH  23  24
ENDBRANCH  22  23
ENDBRANCH  20  22
ENDBRANCH  10  20
BRANCH   1  34
HETATM   34  N2  UNL     1      -8.655  15.790  25.598  1.00  0.00    -0.309 N 
HETATM   35  C6  UNL     1      -9.581  16.205  24.623  1.00  0.00     0.320 C 
HETATM   36  N1  UNL     1      -9.579  15.650  23.302  1.00  0.00    -0.343 N 
HETATM   37  O1  UNL     1     -10.447  17.067  24.843  1.00  0.00    -0.247 OA
ATOM     38  H1  UNL     1      -8.887  14.934  23.084  1.00  0.00     0.164 HD
ATOM     39  H2  UNL     1      -7.993  15.074  25.296  1.00  0.00     0.170 HD
BRANCH  36  40
HETATM   40  C5  UNL     1     -10.486  16.037  22.273  1.00  0.00     0.124 C 
BRANCH  40  41
HETATM   41  C4  UNL     1      -9.799  16.166  20.961  1.00  0.00     0.020 C 
BRANCH  41  42
HETATM   42  C3  UNL     1      -8.701  17.219  20.982  1.00  0.00     0.001 C 
BRANCH  42  43
HETATM   43  C2  UNL     1      -7.371  16.659  20.562  1.00  0.00    -0.004 C 
HETATM   44  C1  UNL     1      -6.539  17.772  19.971  1.00  0.00     0.005 C 
ENDBRANCH  42  43
ENDBRANCH  41  42
ENDBRANCH  40  41
ENDBRANCH  36  40
ENDBRANCH   1  34
TORSDOF 11
ENDMDL
MODEL 5
REMARK VINA RESULT: -8.842006537      1.187      1.817
REMARK  11 active torsions:
REMARK  status: ('A' for Active; 'I' for Inactive)
REMARK    1  A    between atoms: C2_2  and  C3_3 
REMARK    2  A    between atoms: C3_3  and  C4_4 
REMARK    3  A    between atoms: C4_4  and  C5_5 
REMARK    4  A    between atoms: C5_5  and  N1_6 
REMARK       I    between atoms: N1_6  and  C6_8 
REMARK       I    between atoms: C6_8  and  N2_10 
REMARK    5  A    between atoms: N2_10  and  C7_12 
REMARK    6  A    between atoms: C14_21  and  N4_22 
REMARK    7  A    between atoms: N4_22  and  C15_24 
REMARK    8  A    between atoms: C15_24  and  C16_25 
REMARK    9  A    between atoms: C16_25  and  C17_26 
REMARK   10  A    between atoms: C17_26  and  N5_27 
REMARK       I    between atoms: N5_27  and  C18_29 
REMARK   11  A    between atoms: C18_29  and  C19_31 
ROOT
HETATM    1  C7  UNL     1      -9.732  17.055  25.225  1.00  0.00     0.037 A 
HETATM    2  C8  UNL     1     -10.866  16.292  25.098  1.00  0.00     0.032 A 
HETATM    3  C9  UNL     1     -11.377  15.693  26.227  1.00  0.00     0.033 A 
HETATM    4  C10 UNL     1     -10.778  15.845  27.455  1.00  0.00     0.043 A 
HETATM    5  N3  UNL     1     -11.299  15.277  28.538  1.00  0.00    -0.358 N 
ATOM      6  H3  UNL     1     -12.143  14.711  28.448  1.00  0.00     0.166 HD
HETATM    7  C11 UNL     1     -10.737  15.432  29.750  1.00  0.00     0.017 A 
HETATM    8  C12 UNL     1      -9.612  16.169  29.958  1.00  0.00    -0.023 A 
HETATM    9  C13 UNL     1      -9.008  16.800  28.836  1.00  0.00    -0.000 A 
HETATM   10  C14 UNL     1      -7.841  17.563  29.186  1.00  0.00     0.096 C 
HETATM   11  C24 UNL     1      -9.618  16.618  27.611  1.00  0.00     0.005 A 
HETATM   12  C25 UNL     1      -9.129  17.200  26.497  1.00  0.00     0.044 A 
HETATM   13  C26 UNL     1      -8.965  16.326  31.322  1.00  0.00     0.047 C 
HETATM   14  C27 UNL     1     -10.069  16.062  32.259  1.00  0.00     0.003 A 
HETATM   15  C28 UNL     1     -10.413  14.569  31.926  1.00  0.00     0.004 A 
HETATM   16  C29 UNL     1     -11.453  14.720  30.899  1.00  0.00     0.063 C 
HETATM   17  C30 UNL     1     -10.292  15.081  33.249  1.00  0.00    -0.039 A 
HETATM   18  C31 UNL     1     -11.592  15.158  34.063  1.00  0.00     0.015 C 
HETATM   19  C32 UNL     1      -9.140  14.605  34.110  1.00  0.00     0.015 C 
ENDROOT
BRANCH  10  20
HETATM   20  N4  UNL     1      -7.039  18.156  28.219  1.00  0.00    -0.398 N 
ATOM     21  H4  UNL     1      -7.210  19.086  27.837  1.00  0.00     0.158 HD
BRANCH  20  22
HETATM   22  C15 UNL     1      -5.913  17.297  27.799  1.00  0.00     0.120 C 
BRANCH  22  23
HETATM   23  C16 UNL     1      -4.739  18.066  27.296  1.00  0.00     0.039 C 
BRANCH  23  24
HETATM   24  C17 UNL     1      -5.010  18.511  25.877  1.00  0.00     0.124 C 
BRANCH  24  25
HETATM   25  N5  UNL     1      -4.347  17.654  24.936  1.00  0.00    -0.361 N 
HETATM   26  C18 UNL     1      -3.346  18.119  24.075  1.00  0.00     0.221 C 
HETATM   27  O2  UNL     1      -2.977  19.320  24.079  1.00  0.00    -0.273 OA
ATOM     28  H5  UNL     1      -4.615  16.671  24.894  1.00  0.00     0.162 HD
BRANCH  26  29
HETATM   29  C19 UNL     1      -2.704  17.133  23.121  1.00  0.00     0.078 C 
HETATM   30  C20 UNL     1      -1.777  16.270  23.944  1.00  0.00     0.014 C 
HETATM   31  C21 UNL     1      -0.512  16.115  23.161  1.00  0.00     0.001 C 
HETATM   32  C22 UNL     1      -0.514  17.157  22.074  1.00  0.00     0.001 C 
HETATM   33  C23 UNL     1      -1.846  17.858  22.124  1.00  0.00     0.014 C 
ENDBRANCH  26  29
ENDBRANCH  24  25
ENDBRANCH  23  24
ENDBRANCH  22  23
ENDBRANCH  20  22
ENDBRANCH  10  20
BRANCH   1  34
HETATM   34  N2  UNL     1      -9.118  17.713  24.148  1.00  0.00    -0.309 N 
HETATM   35  C6  UNL     1      -7.870  17.463  23.546  1.00  0.00     0.320 C 
HETATM   36  N1  UNL     1      -7.399  18.246  22.443  1.00  0.00    -0.343 N 
HETATM   37  O1  UNL     1      -7.109  16.560  23.930  1.00  0.00    -0.247 OA
ATOM     38  H1  UNL     1      -7.993  19.002  22.104  1.00  0.00     0.164 HD
ATOM     39  H2  UNL     1      -9.652  18.482  23.744  1.00  0.00     0.170 HD
BRANCH  36  40
HETATM   40  C5  UNL     1      -6.150  18.034  21.790  1.00  0.00     0.124 C 
BRANCH  40  41
HETATM   41  C4  UNL     1      -6.313  17.233  20.548  1.00  0.00     0.020 C 
BRANCH  41  42
HETATM   42  C3  UNL     1      -7.735  17.281  20.010  1.00  0.00     0.001 C 
BRANCH  42  43
HETATM   43  C2  UNL     1      -8.417  15.944  20.093  1.00  0.00    -0.004 C 
HETATM   44  C1  UNL     1      -9.772  16.127  20.733  1.00  0.00     0.005 C 
ENDBRANCH  42  43
ENDBRANCH  41  42
ENDBRANCH  40  41
ENDBRANCH  36  40
ENDBRANCH   1  34
TORSDOF 11
ENDMDL
