MODEL 1
REMARK VINA RESULT: -7.735719991      0.000      0.000
REMARK  15 active torsions:
REMARK  status: ('A' for Active; 'I' for Inactive)
REMARK    1  A    between atoms: C2_2  and  C3_3 
REMARK    2  A    between atoms: C3_3  and  C4_4 
REMARK    3  A    between atoms: C4_4  and  C5_5 
REMARK    4  A    between atoms: C5_5  and  C6_6 
REMARK    5  A    between atoms: C6_6  and  O1_7 
REMARK    6  A    between atoms: C6_6  and  C7_9 
REMARK    7  A    between atoms: C9_11  and  N1_12 
REMARK    8  A    between atoms: N1_12  and  C10_14 
REMARK    9  A    between atoms: C10_14  and  C11_15 
REMARK   10  A    between atoms: C11_15  and  C12_16 
REMARK   11  A    between atoms: C12_16  and  N2_17 
REMARK   12  A    between atoms: N2_17  and  C13_18 
REMARK   13  A    between atoms: N2_17  and  C15_20 
REMARK   14  A    between atoms: C26_31  and  O2_32 
REMARK   15  A    between atoms: C33_41  and  O4_42 
ROOT
HETATM    1  C7  UNL     1      -9.808  16.020  28.890  1.00  0.00     0.007 C 
HETATM    2  C8  UNL     1      -9.799  14.625  29.464  1.00  0.00     0.020 C 
HETATM    3  C9  UNL     1     -11.014  16.146  27.960  1.00  0.00     0.091 C 
HETATM    4  C17 UNL     1     -10.773  15.602  26.597  1.00  0.00     0.027 C 
HETATM    5  C18 UNL     1      -9.492  16.234  26.025  1.00  0.00     0.016 C 
HETATM    6  C19 UNL     1      -8.324  15.810  26.851  1.00  0.00    -0.013 C 
HETATM    7  C20 UNL     1      -8.078  14.326  26.890  1.00  0.00     0.021 C 
HETATM    8  C21 UNL     1      -7.059  16.398  26.335  1.00  0.00    -0.034 C 
HETATM    9  C22 UNL     1      -6.219  17.146  27.035  1.00  0.00    -0.044 C 
HETATM   10  C23 UNL     1      -6.445  17.501  28.481  1.00  0.00     0.038 C 
HETATM   11  C24 UNL     1      -7.332  16.360  29.015  1.00  0.00     0.011 C 
HETATM   12  C25 UNL     1      -8.574  16.420  28.205  1.00  0.00     0.011 C 
HETATM   13  C26 UNL     1      -4.950  17.715  26.462  1.00  0.00     0.160 C 
HETATM   14  C27 UNL     1      -5.094  18.132  25.038  1.00  0.00     0.019 C 
HETATM   15  C28 UNL     1      -3.882  17.717  24.202  1.00  0.00     0.023 C 
HETATM   16  C29 UNL     1      -5.311  19.600  24.803  1.00  0.00     0.099 C 
HETATM   17  C30 UNL     1      -6.002  19.545  23.460  1.00  0.00     0.150 C 
HETATM   18  O3  UNL     1      -5.959  20.326  22.502  1.00  0.00    -0.293 OA
HETATM   19  C31 UNL     1      -6.791  18.307  23.496  1.00  0.00     0.056 C 
HETATM   20  C32 UNL     1      -6.279  17.502  24.390  1.00  0.00    -0.032 C 
HETATM   21  C33 UNL     1      -6.594  16.146  24.923  1.00  0.00     0.178 C 
ENDROOT
BRANCH   3  22
HETATM   22  N1  UNL     1     -12.179  15.703  28.570  1.00  0.00    -0.397 N 
ATOM     23  H1  UNL     1     -12.427  16.106  29.473  1.00  0.00     0.159 HD
BRANCH  22  24
HETATM   24  C10 UNL     1     -13.027  14.750  28.035  1.00  0.00     0.057 C 
BRANCH  24  25
HETATM   25  C11 UNL     1     -12.933  13.308  28.426  1.00  0.00     0.074 C 
BRANCH  25  26
HETATM   26  C12 UNL     1     -12.885  13.198  29.959  1.00  0.00     0.277 C 
BRANCH  26  27
HETATM   27  N2  UNL     1     -14.176  13.422  30.532  1.00  0.00     0.088 N 
BRANCH  27  28
HETATM   28  C13 UNL     1     -14.988  12.265  30.713  1.00  0.00     0.268 C 
HETATM   29  C14 UNL     1     -14.129  11.063  31.071  1.00  0.00     0.037 C 
ENDBRANCH  27  28
BRANCH  27  30
HETATM   30  C15 UNL     1     -14.087  14.313  31.640  1.00  0.00     0.268 C 
HETATM   31  C16 UNL     1     -12.602  14.492  31.969  1.00  0.00     0.037 C 
ENDBRANCH  27  30
ENDBRANCH  26  27
ENDBRANCH  25  26
ENDBRANCH  24  25
ENDBRANCH  22  24
ENDBRANCH   3  22
BRANCH   1  32
HETATM   32  C6  UNL     1     -10.044  16.929  30.076  1.00  0.00     0.128 C 
BRANCH  32  33
HETATM   33  C5  UNL     1      -8.944  17.047  31.053  1.00  0.00     0.032 C 
BRANCH  33  34
HETATM   34  C4  UNL     1      -9.487  16.683  32.437  1.00  0.00     0.002 C 
BRANCH  34  35
HETATM   35  C3  UNL     1      -9.125  15.311  32.881  1.00  0.00    -0.000 C 
BRANCH  35  36
HETATM   36  C2  UNL     1      -9.490  15.206  34.372  1.00  0.00    -0.005 C 
HETATM   37  C1  UNL     1     -10.461  16.309  34.738  1.00  0.00     0.005 C 
ENDBRANCH  35  36
ENDBRANCH  34  35
ENDBRANCH  33  34
ENDBRANCH  32  33
BRANCH  32  38
HETATM   38  O1  UNL     1     -10.342  18.197  29.581  1.00  0.00    -0.395 OA
ATOM     39  H1  UNL     1      -9.615  18.495  29.045  1.00  0.00     0.210 HD
ENDBRANCH  32  38
ENDBRANCH   1  32
BRANCH  21  40
HETATM   40  O4  UNL     1      -7.396  15.377  24.162  1.00  0.00    -0.387 OA
ATOM     41  H4  UNL     1      -6.965  14.712  23.639  1.00  0.00     0.210 HD
ENDBRANCH  21  40
BRANCH  13  42
HETATM   42  O2  UNL     1      -3.989  16.725  26.585  1.00  0.00    -0.390 OA
ATOM     43  H2  UNL     1      -3.369  17.035  27.233  1.00  0.00     0.210 HD
ENDBRANCH  13  42
TORSDOF 15
ENDMDL
MODEL 2
REMARK VINA RESULT: -7.570212374      2.971      6.494
REMARK  15 active torsions:
REMARK  status: ('A' for Active; 'I' for Inactive)
REMARK    1  A    between atoms: C2_2  and  C3_3 
REMARK    2  A    between atoms: C3_3  and  C4_4 
REMARK    3  A    between atoms: C4_4  and  C5_5 
REMARK    4  A    between atoms: C5_5  and  C6_6 
REMARK    5  A    between atoms: C6_6  and  O1_7 
REMARK    6  A    between atoms: C6_6  and  C7_9 
REMARK    7  A    between atoms: C9_11  and  N1_12 
REMARK    8  A    between atoms: N1_12  and  C10_14 
REMARK    9  A    between atoms: C10_14  and  C11_15 
REMARK   10  A    between atoms: C11_15  and  C12_16 
REMARK   11  A    between atoms: C12_16  and  N2_17 
REMARK   12  A    between atoms: N2_17  and  C13_18 
REMARK   13  A    between atoms: N2_17  and  C15_20 
REMARK   14  A    between atoms: C26_31  and  O2_32 
REMARK   15  A    between atoms: C33_41  and  O4_42 
ROOT
HETATM    1  C7  UNL     1      -7.814  16.619  24.119  1.00  0.00     0.007 C 
HETATM    2  C8  UNL     1      -8.725  17.745  24.542  1.00  0.00     0.020 C 
HETATM    3  C9  UNL     1      -7.315  15.910  25.378  1.00  0.00     0.091 C 
HETATM    4  C17 UNL     1      -6.157  16.586  26.021  1.00  0.00     0.027 C 
HETATM    5  C18 UNL     1      -5.058  16.806  24.967  1.00  0.00     0.016 C 
HETATM    6  C19 UNL     1      -5.558  17.750  23.925  1.00  0.00    -0.013 C 
HETATM    7  C20 UNL     1      -5.935  19.116  24.431  1.00  0.00     0.021 C 
HETATM    8  C21 UNL     1      -4.527  17.995  22.882  1.00  0.00    -0.034 C 
HETATM    9  C22 UNL     1      -4.687  17.791  21.583  1.00  0.00    -0.044 C 
HETATM   10  C23 UNL     1      -5.968  17.275  20.983  1.00  0.00     0.038 C 
HETATM   11  C24 UNL     1      -7.053  17.697  21.993  1.00  0.00     0.011 C 
HETATM   12  C25 UNL     1      -6.693  17.015  23.261  1.00  0.00     0.011 C 
HETATM   13  C26 UNL     1      -3.607  18.058  20.569  1.00  0.00     0.160 C 
HETATM   14  C27 UNL     1      -2.244  17.727  21.073  1.00  0.00     0.019 C 
HETATM   15  C28 UNL     1      -1.222  18.797  20.686  1.00  0.00     0.023 C 
HETATM   16  C29 UNL     1      -1.686  16.402  20.635  1.00  0.00     0.099 C 
HETATM   17  C30 UNL     1      -0.702  16.156  21.754  1.00  0.00     0.150 C 
HETATM   18  O3  UNL     1       0.400  15.594  21.746  1.00  0.00    -0.293 OA
HETATM   19  C31 UNL     1      -1.331  16.745  22.942  1.00  0.00     0.056 C 
HETATM   20  C32 UNL     1      -2.208  17.638  22.561  1.00  0.00    -0.032 C 
HETATM   21  C33 UNL     1      -3.172  18.555  23.233  1.00  0.00     0.178 C 
ENDROOT
BRANCH   3  22
HETATM   22  N1  UNL     1      -8.359  15.594  26.235  1.00  0.00    -0.397 N 
ATOM     23  H1  UNL     1      -9.308  15.629  25.863  1.00  0.00     0.159 HD
BRANCH  22  24
HETATM   24  C10 UNL     1      -8.200  15.234  27.561  1.00  0.00     0.057 C 
BRANCH  24  25
HETATM   25  C11 UNL     1      -8.938  15.936  28.658  1.00  0.00     0.074 C 
BRANCH  25  26
HETATM   26  C12 UNL     1     -10.449  15.716  28.477  1.00  0.00     0.277 C 
BRANCH  26  27
HETATM   27  N2  UNL     1     -10.893  14.571  29.210  1.00  0.00     0.088 N 
BRANCH  27  28
HETATM   28  C13 UNL     1     -10.503  14.517  30.580  1.00  0.00     0.268 C 
HETATM   29  C14 UNL     1     -11.721  14.626  31.484  1.00  0.00     0.037 C 
ENDBRANCH  27  28
BRANCH  27  30
HETATM   30  C15 UNL     1     -12.263  14.296  28.931  1.00  0.00     0.268 C 
HETATM   31  C16 UNL     1     -12.690  15.206  27.776  1.00  0.00     0.037 C 
ENDBRANCH  27  30
ENDBRANCH  26  27
ENDBRANCH  25  26
ENDBRANCH  24  25
ENDBRANCH  22  24
ENDBRANCH   3  22
BRANCH   1  32
HETATM   32  C6  UNL     1      -8.707  15.655  23.370  1.00  0.00     0.128 C 
BRANCH  32  33
HETATM   33  C5  UNL     1      -8.299  14.237  23.366  1.00  0.00     0.032 C 
BRANCH  33  34
HETATM   34  C4  UNL     1      -7.983  13.829  21.925  1.00  0.00     0.002 C 
BRANCH  34  35
HETATM   35  C3  UNL     1      -7.627  12.394  21.772  1.00  0.00    -0.000 C 
BRANCH  35  36
HETATM   36  C2  UNL     1      -7.692  11.759  23.172  1.00  0.00    -0.005 C 
HETATM   37  C1  UNL     1      -6.717  10.604  23.254  1.00  0.00     0.005 C 
ENDBRANCH  35  36
ENDBRANCH  34  35
ENDBRANCH  33  34
ENDBRANCH  32  33
BRANCH  32  38
HETATM   38  O1  UNL     1      -9.984  15.753  23.918  1.00  0.00    -0.395 OA
ATOM     39  H1  UNL     1     -10.607  15.904  23.216  1.00  0.00     0.210 HD
ENDBRANCH  32  38
ENDBRANCH   1  32
BRANCH  21  40
HETATM   40  O4  UNL     1      -2.951  18.801  24.538  1.00  0.00    -0.387 OA
ATOM     41  H4  UNL     1      -2.443  19.578  24.737  1.00  0.00     0.210 HD
ENDBRANCH  21  40
BRANCH  13  42
HETATM   42  O2  UNL     1      -3.696  19.403  20.251  1.00  0.00    -0.390 OA
ATOM     43  H2  UNL     1      -2.830  19.666  19.962  1.00  0.00     0.210 HD
ENDBRANCH  13  42
TORSDOF 15
ENDMDL
MODEL 3
REMARK VINA RESULT: -7.565443325      3.036      6.658
REMARK  15 active torsions:
REMARK  status: ('A' for Active; 'I' for Inactive)
REMARK    1  A    between atoms: C2_2  and  C3_3 
REMARK    2  A    between atoms: C3_3  and  C4_4 
REMARK    3  A    between atoms: C4_4  and  C5_5 
REMARK    4  A    between atoms: C5_5  and  C6_6 
REMARK    5  A    between atoms: C6_6  and  O1_7 
REMARK    6  A    between atoms: C6_6  and  C7_9 
REMARK    7  A    between atoms: C9_11  and  N1_12 
REMARK    8  A    between atoms: N1_12  and  C10_14 
REMARK    9  A    between atoms: C10_14  and  C11_15 
REMARK   10  A    between atoms: C11_15  and  C12_16 
REMARK   11  A    between atoms: C12_16  and  N2_17 
REMARK   12  A    between atoms: N2_17  and  C13_18 
REMARK   13  A    between atoms: N2_17  and  C15_20 
REMARK   14  A    between atoms: C26_31  and  O2_32 
REMARK   15  A    between atoms: C33_41  and  O4_42 
ROOT
HETATM    1  C7  UNL     1      -7.625  16.657  24.160  1.00  0.00     0.007 C 
HETATM    2  C8  UNL     1      -8.510  17.786  24.628  1.00  0.00     0.020 C 
HETATM    3  C9  UNL     1      -7.090  15.928  25.392  1.00  0.00     0.091 C 
HETATM    4  C17 UNL     1      -5.904  16.586  26.003  1.00  0.00     0.027 C 
HETATM    5  C18 UNL     1      -4.840  16.809  24.915  1.00  0.00     0.016 C 
HETATM    6  C19 UNL     1      -5.367  17.769  23.902  1.00  0.00    -0.013 C 
HETATM    7  C20 UNL     1      -5.712  19.133  24.436  1.00  0.00     0.021 C 
HETATM    8  C21 UNL     1      -4.369  18.017  22.827  1.00  0.00    -0.034 C 
HETATM    9  C22 UNL     1      -4.576  17.831  21.531  1.00  0.00    -0.044 C 
HETATM   10  C23 UNL     1      -5.882  17.333  20.970  1.00  0.00     0.038 C 
HETATM   11  C24 UNL     1      -6.927  17.754  22.021  1.00  0.00     0.011 C 
HETATM   12  C25 UNL     1      -6.530  17.053  23.268  1.00  0.00     0.011 C 
HETATM   13  C26 UNL     1      -3.529  18.099  20.484  1.00  0.00     0.160 C 
HETATM   14  C27 UNL     1      -2.153  17.750  20.937  1.00  0.00     0.019 C 
HETATM   15  C28 UNL     1      -1.135  18.815  20.527  1.00  0.00     0.023 C 
HETATM   16  C29 UNL     1      -1.623  16.426  20.464  1.00  0.00     0.099 C 
HETATM   17  C30 UNL     1      -0.604  16.156  21.546  1.00  0.00     0.150 C 
HETATM   18  O3  UNL     1       0.492  15.585  21.493  1.00  0.00    -0.293 OA
HETATM   19  C31 UNL     1      -1.185  16.738  22.762  1.00  0.00     0.056 C 
HETATM   20  C32 UNL     1      -2.066  17.642  22.421  1.00  0.00    -0.032 C 
HETATM   21  C33 UNL     1      -2.997  18.561  23.137  1.00  0.00     0.178 C 
ENDROOT
BRANCH   3  22
HETATM   22  N1  UNL     1      -8.107  15.612  26.282  1.00  0.00    -0.397 N 
ATOM     23  H1  UNL     1      -9.020  15.373  25.895  1.00  0.00     0.159 HD
BRANCH  22  24
HETATM   24  C10 UNL     1      -7.966  15.598  27.657  1.00  0.00     0.057 C 
BRANCH  24  25
HETATM   25  C11 UNL     1      -8.454  16.731  28.506  1.00  0.00     0.074 C 
BRANCH  25  26
HETATM   26  C12 UNL     1      -9.962  16.568  28.756  1.00  0.00     0.277 C 
BRANCH  26  27
HETATM   27  N2  UNL     1     -10.235  16.370  30.146  1.00  0.00     0.088 N 
BRANCH  27  28
HETATM   28  C13 UNL     1     -10.649  15.059  30.520  1.00  0.00     0.268 C 
HETATM   29  C14 UNL     1     -11.097  14.273  29.299  1.00  0.00     0.037 C 
ENDBRANCH  27  28
BRANCH  27  30
HETATM   30  C15 UNL     1      -9.220  16.967  30.948  1.00  0.00     0.268 C 
HETATM   31  C16 UNL     1      -9.133  16.167  32.251  1.00  0.00     0.037 C 
ENDBRANCH  27  30
ENDBRANCH  26  27
ENDBRANCH  25  26
ENDBRANCH  24  25
ENDBRANCH  22  24
ENDBRANCH   3  22
BRANCH   1  32
HETATM   32  C6  UNL     1      -8.552  15.711  23.431  1.00  0.00     0.128 C 
BRANCH  32  33
HETATM   33  C5  UNL     1      -8.149  14.292  23.379  1.00  0.00     0.032 C 
BRANCH  33  34
HETATM   34  C4  UNL     1      -8.015  13.882  21.910  1.00  0.00     0.002 C 
BRANCH  34  35
HETATM   35  C3  UNL     1      -7.647  12.454  21.718  1.00  0.00    -0.000 C 
BRANCH  35  36
HETATM   36  C2  UNL     1      -7.748  11.771  23.093  1.00  0.00    -0.005 C 
HETATM   37  C1  UNL     1      -6.704  10.680  23.198  1.00  0.00     0.005 C 
ENDBRANCH  35  36
ENDBRANCH  34  35
ENDBRANCH  33  34
ENDBRANCH  32  33
BRANCH  32  38
HETATM   38  O1  UNL     1      -9.804  15.799  24.037  1.00  0.00    -0.395 OA
ATOM     39  H1  UNL     1      -9.756  16.426  24.750  1.00  0.00     0.210 HD
ENDBRANCH  32  38
ENDBRANCH   1  32
BRANCH  21  40
HETATM   40  O4  UNL     1      -2.730  18.789  24.436  1.00  0.00    -0.387 OA
ATOM     41  H4  UNL     1      -2.221  19.567  24.628  1.00  0.00     0.210 HD
ENDBRANCH  21  40
BRANCH  13  42
HETATM   42  O2  UNL     1      -3.616  19.449  20.185  1.00  0.00    -0.390 OA
ATOM     43  H2  UNL     1      -3.022  19.892  20.779  1.00  0.00     0.210 HD
ENDBRANCH  13  42
TORSDOF 15
ENDMDL
MODEL 4
REMARK VINA RESULT: -7.126351511      2.824      6.659
REMARK  15 active torsions:
REMARK  status: ('A' for Active; 'I' for Inactive)
REMARK    1  A    between atoms: C2_2  and  C3_3 
REMARK    2  A    between atoms: C3_3  and  C4_4 
REMARK    3  A    between atoms: C4_4  and  C5_5 
REMARK    4  A    between atoms: C5_5  and  C6_6 
REMARK    5  A    between atoms: C6_6  and  O1_7 
REMARK    6  A    between atoms: C6_6  and  C7_9 
REMARK    7  A    between atoms: C9_11  and  N1_12 
REMARK    8  A    between atoms: N1_12  and  C10_14 
REMARK    9  A    between atoms: C10_14  and  C11_15 
REMARK   10  A    between atoms: C11_15  and  C12_16 
REMARK   11  A    between atoms: C12_16  and  N2_17 
REMARK   12  A    between atoms: N2_17  and  C13_18 
REMARK   13  A    between atoms: N2_17  and  C15_20 
REMARK   14  A    between atoms: C26_31  and  O2_32 
REMARK   15  A    between atoms: C33_41  and  O4_42 
ROOT
HETATM    1  C7  UNL     1      -7.123  16.866  25.136  1.00  0.00     0.007 C 
HETATM    2  C8  UNL     1      -7.952  18.025  25.633  1.00  0.00     0.020 C 
HETATM    3  C9  UNL     1      -6.379  16.265  26.329  1.00  0.00     0.091 C 
HETATM    4  C17 UNL     1      -5.129  16.991  26.676  1.00  0.00     0.027 C 
HETATM    5  C18 UNL     1      -4.258  17.121  25.415  1.00  0.00     0.016 C 
HETATM    6  C19 UNL     1      -4.965  17.974  24.416  1.00  0.00    -0.013 C 
HETATM    7  C20 UNL     1      -5.257  19.378  24.870  1.00  0.00     0.021 C 
HETATM    8  C21 UNL     1      -4.158  18.129  23.176  1.00  0.00    -0.034 C 
HETATM    9  C22 UNL     1      -4.563  17.817  21.953  1.00  0.00    -0.044 C 
HETATM   10  C23 UNL     1      -5.929  17.254  21.658  1.00  0.00     0.038 C 
HETATM   11  C24 UNL     1      -6.804  17.761  22.821  1.00  0.00     0.011 C 
HETATM   12  C25 UNL     1      -6.195  17.187  24.047  1.00  0.00     0.011 C 
HETATM   13  C26 UNL     1      -3.705  17.996  20.731  1.00  0.00     0.160 C 
HETATM   14  C27 UNL     1      -2.265  17.707  20.987  1.00  0.00     0.019 C 
HETATM   15  C28 UNL     1      -1.354  18.739  20.321  1.00  0.00     0.023 C 
HETATM   16  C29 UNL     1      -1.782  16.350  20.559  1.00  0.00     0.099 C 
HETATM   17  C30 UNL     1      -0.597  16.197  21.483  1.00  0.00     0.150 C 
HETATM   18  O3  UNL     1       0.492  15.635  21.308  1.00  0.00    -0.293 OA
HETATM   19  C31 UNL     1      -0.993  16.885  22.718  1.00  0.00     0.056 C 
HETATM   20  C32 UNL     1      -1.940  17.743  22.441  1.00  0.00    -0.032 C 
HETATM   21  C33 UNL     1      -2.770  18.715  23.209  1.00  0.00     0.178 C 
ENDROOT
BRANCH   3  22
HETATM   22  N1  UNL     1      -7.233  16.023  27.395  1.00  0.00    -0.397 N 
ATOM     23  H1  UNL     1      -7.766  15.154  27.391  1.00  0.00     0.159 HD
BRANCH  22  24
HETATM   24  C10 UNL     1      -7.409  16.882  28.465  1.00  0.00     0.057 C 
BRANCH  24  25
HETATM   25  C11 UNL     1      -8.234  16.495  29.653  1.00  0.00     0.074 C 
BRANCH  25  26
HETATM   26  C12 UNL     1      -9.676  16.989  29.454  1.00  0.00     0.277 C 
BRANCH  26  27
HETATM   27  N2  UNL     1     -10.559  15.898  29.176  1.00  0.00     0.088 N 
BRANCH  27  28
HETATM   28  C13 UNL     1     -11.011  15.788  27.829  1.00  0.00     0.268 C 
HETATM   29  C14 UNL     1     -12.468  15.358  27.790  1.00  0.00     0.037 C 
ENDBRANCH  27  28
BRANCH  27  30
HETATM   30  C15 UNL     1     -10.086  14.700  29.785  1.00  0.00     0.268 C 
HETATM   31  C16 UNL     1     -10.956  14.434  31.017  1.00  0.00     0.037 C 
ENDBRANCH  27  30
ENDBRANCH  26  27
ENDBRANCH  25  26
ENDBRANCH  24  25
ENDBRANCH  22  24
ENDBRANCH   3  22
BRANCH   1  32
HETATM   32  C6  UNL     1      -8.129  15.844  24.657  1.00  0.00     0.128 C 
BRANCH  32  33
HETATM   33  C5  UNL     1      -9.436  16.358  24.204  1.00  0.00     0.032 C 
BRANCH  33  34
HETATM   34  C4  UNL     1      -9.981  15.413  23.129  1.00  0.00     0.002 C 
BRANCH  34  35
HETATM   35  C3  UNL     1     -10.690  16.109  22.023  1.00  0.00    -0.000 C 
BRANCH  35  36
HETATM   36  C2  UNL     1      -9.614  16.692  21.091  1.00  0.00    -0.005 C 
HETATM   37  C1  UNL     1      -9.037  15.592  20.227  1.00  0.00     0.005 C 
ENDBRANCH  35  36
ENDBRANCH  34  35
ENDBRANCH  33  34
ENDBRANCH  32  33
BRANCH  32  38
HETATM   38  O1  UNL     1      -7.541  15.133  23.614  1.00  0.00    -0.395 OA
ATOM     39  H1  UNL     1      -8.175  15.035  22.913  1.00  0.00     0.210 HD
ENDBRANCH  32  38
ENDBRANCH   1  32
BRANCH  21  40
HETATM   40  O4  UNL     1      -2.304  19.070  24.422  1.00  0.00    -0.387 OA
ATOM     41  H4  UNL     1      -2.889  18.918  25.155  1.00  0.00     0.210 HD
ENDBRANCH  21  40
BRANCH  13  42
HETATM   42  O2  UNL     1      -3.873  19.309  20.326  1.00  0.00    -0.390 OA
ATOM     43  H2  UNL     1      -3.651  19.335  19.403  1.00  0.00     0.210 HD
ENDBRANCH  13  42
TORSDOF 15
ENDMDL
MODEL 5
REMARK VINA RESULT: -6.974385203      2.947      6.824
REMARK  15 active torsions:
REMARK  status: ('A' for Active; 'I' for Inactive)
REMARK    1  A    between atoms: C2_2  and  C3_3 
REMARK    2  A    between atoms: C3_3  and  C4_4 
REMARK    3  A    between atoms: C4_4  and  C5_5 
REMARK    4  A    between atoms: C5_5  and  C6_6 
REMARK    5  A    between atoms: C6_6  and  O1_7 
REMARK    6  A    between atoms: C6_6  and  C7_9 
REMARK    7  A    between atoms: C9_11  and  N1_12 
REMARK    8  A    between atoms: N1_12  and  C10_14 
REMARK    9  A    between atoms: C10_14  and  C11_15 
REMARK   10  A    between atoms: C11_15  and  C12_16 
REMARK   11  A    between atoms: C12_16  and  N2_17 
REMARK   12  A    between atoms: N2_17  and  C13_18 
REMARK   13  A    between atoms: N2_17  and  C15_20 
REMARK   14  A    between atoms: C26_31  and  O2_32 
REMARK   15  A    between atoms: C33_41  and  O4_42 
ROOT
HETATM    1  C7  UNL     1      -7.304  16.868  24.654  1.00  0.00     0.007 C 
HETATM    2  C8  UNL     1      -8.091  18.032  25.201  1.00  0.00     0.020 C 
HETATM    3  C9  UNL     1      -6.708  16.097  25.832  1.00  0.00     0.091 C 
HETATM    4  C17 UNL     1      -5.446  16.688  26.351  1.00  0.00     0.027 C 
HETATM    5  C18 UNL     1      -4.462  16.874  25.182  1.00  0.00     0.016 C 
HETATM    6  C19 UNL     1      -5.021  17.872  24.224  1.00  0.00    -0.013 C 
HETATM    7  C20 UNL     1      -5.255  19.243  24.798  1.00  0.00     0.021 C 
HETATM    8  C21 UNL     1      -4.102  18.086  23.074  1.00  0.00    -0.034 C 
HETATM    9  C22 UNL     1      -4.421  17.927  21.798  1.00  0.00    -0.044 C 
HETATM   10  C23 UNL     1      -5.791  17.501  21.340  1.00  0.00     0.038 C 
HETATM   11  C24 UNL     1      -6.726  17.957  22.476  1.00  0.00     0.011 C 
HETATM   12  C25 UNL     1      -6.266  17.221  23.680  1.00  0.00     0.011 C 
HETATM   13  C26 UNL     1      -3.450  18.159  20.672  1.00  0.00     0.160 C 
HETATM   14  C27 UNL     1      -2.060  17.737  21.010  1.00  0.00     0.019 C 
HETATM   15  C28 UNL     1      -1.027  18.756  20.528  1.00  0.00     0.023 C 
HETATM   16  C29 UNL     1      -1.636  16.395  20.483  1.00  0.00     0.099 C 
HETATM   17  C30 UNL     1      -0.548  16.062  21.476  1.00  0.00     0.150 C 
HETATM   18  O3  UNL     1       0.511  15.439  21.330  1.00  0.00    -0.293 OA
HETATM   19  C31 UNL     1      -1.001  16.655  22.741  1.00  0.00     0.056 C 
HETATM   20  C32 UNL     1      -1.860  17.606  22.481  1.00  0.00    -0.032 C 
HETATM   21  C33 UNL     1      -2.685  18.558  23.278  1.00  0.00     0.178 C 
ENDROOT
BRANCH   3  22
HETATM   22  N1  UNL     1      -7.665  15.818  26.797  1.00  0.00    -0.397 N 
ATOM     23  H1  UNL     1      -8.530  15.372  26.494  1.00  0.00     0.159 HD
BRANCH  22  24
HETATM   24  C10 UNL     1      -7.523  16.105  28.142  1.00  0.00     0.057 C 
BRANCH  24  25
HETATM   25  C11 UNL     1      -8.246  17.250  28.780  1.00  0.00     0.074 C 
BRANCH  25  26
HETATM   26  C12 UNL     1      -9.566  16.747  29.386  1.00  0.00     0.277 C 
BRANCH  26  27
HETATM   27  N2  UNL     1      -9.324  15.856  30.479  1.00  0.00     0.088 N 
BRANCH  27  28
HETATM   28  C13 UNL     1      -8.893  16.462  31.695  1.00  0.00     0.268 C 
HETATM   29  C14 UNL     1      -9.519  15.760  32.890  1.00  0.00     0.037 C 
ENDBRANCH  27  28
BRANCH  27  30
HETATM   30  C15 UNL     1     -10.370  14.895  30.586  1.00  0.00     0.268 C 
HETATM   31  C16 UNL     1     -10.570  14.274  29.201  1.00  0.00     0.037 C 
ENDBRANCH  27  30
ENDBRANCH  26  27
ENDBRANCH  25  26
ENDBRANCH  24  25
ENDBRANCH  22  24
ENDBRANCH   3  22
BRANCH   1  32
HETATM   32  C6  UNL     1      -8.332  15.977  23.993  1.00  0.00     0.128 C 
BRANCH  32  33
HETATM   33  C5  UNL     1      -7.989  14.548  23.862  1.00  0.00     0.032 C 
BRANCH  33  34
HETATM   34  C4  UNL     1      -8.525  14.043  22.520  1.00  0.00     0.002 C 
BRANCH  34  35
HETATM   35  C3  UNL     1      -7.960  14.753  21.342  1.00  0.00    -0.000 C 
BRANCH  35  36
HETATM   36  C2  UNL     1      -9.147  15.205  20.474  1.00  0.00    -0.005 C 
HETATM   37  C1  UNL     1      -9.434  16.670  20.725  1.00  0.00     0.005 C 
ENDBRANCH  35  36
ENDBRANCH  34  35
ENDBRANCH  33  34
ENDBRANCH  32  33
BRANCH  32  38
HETATM   38  O1  UNL     1      -9.514  16.089  24.721  1.00  0.00    -0.395 OA
ATOM     39  H1  UNL     1      -9.849  15.217  24.898  1.00  0.00     0.210 HD
ENDBRANCH  32  38
ENDBRANCH   1  32
BRANCH  21  40
HETATM   40  O4  UNL     1      -2.303  18.756  24.553  1.00  0.00    -0.387 OA
ATOM     41  H4  UNL     1      -1.381  18.938  24.691  1.00  0.00     0.210 HD
ENDBRANCH  21  40
BRANCH  13  42
HETATM   42  O2  UNL     1      -3.493  19.514  20.394  1.00  0.00    -0.390 OA
ATOM     43  H2  UNL     1      -3.837  19.595  19.513  1.00  0.00     0.210 HD
ENDBRANCH  13  42
TORSDOF 15
ENDMDL
