MODEL 1
REMARK VINA RESULT: -7.992381600      0.000      0.000
REMARK  0 active torsions:
REMARK  status: ('A' for Active; 'I' for Inactive)
ROOT
HETATM    1  F1  UNL     1      18.134  -3.788  -0.962  1.00  0.00    -0.203 F 
HETATM    2  C1  UNL     1      18.269  -4.085  -2.293  1.00  0.00     0.152 A 
HETATM    3  C2  UNL     1      19.356  -4.936  -2.531  1.00  0.00     0.045 A 
HETATM    4  C3  UNL     1      19.625  -5.312  -3.812  1.00  0.00     0.006 A 
HETATM    5  C4  UNL     1      18.804  -4.831  -4.821  1.00  0.00     0.040 A 
HETATM    6  C5  UNL     1      17.725  -3.989  -4.615  1.00  0.00     0.105 A 
HETATM    7  C6  UNL     1      17.453  -3.608  -3.291  1.00  0.00     0.140 A 
HETATM    8  O1  UNL     1      16.408  -2.779  -2.954  1.00  0.00    -0.344 OA
HETATM    9  C7  UNL     1      15.039  -2.954  -3.275  1.00  0.00     0.203 C 
HETATM   10  C8  UNL     1      14.290  -3.050  -1.950  1.00  0.00     0.259 C 
HETATM   11  N1  UNL     1      13.636  -1.805  -1.617  1.00  0.00    -0.072 N 
ATOM     12  H11 UNL     1      13.449  -1.246  -2.450  1.00  0.00     0.277 HD
ATOM     13  H12 UNL     1      14.270  -1.165  -1.139  1.00  0.00     0.277 HD
HETATM   14  C9  UNL     1      12.446  -2.031  -0.858  1.00  0.00     0.259 C 
HETATM   15  C10 UNL     1      11.283  -1.414  -1.623  1.00  0.00     0.259 C 
HETATM   16  N2  UNL     1      11.591  -0.082  -2.083  1.00  0.00    -0.073 N 
ATOM     17  H21 UNL     1      12.410   0.286  -1.601  1.00  0.00     0.277 HD
ATOM     18  H22 UNL     1      10.889   0.584  -1.758  1.00  0.00     0.277 HD
HETATM   19  C11 UNL     1      11.757   0.011  -3.508  1.00  0.00     0.242 C 
HETATM   20  C12 UNL     1      10.674  -0.704  -4.281  1.00  0.00     0.101 C 
HETATM   21  S1  UNL     1      10.348   0.063  -5.884  1.00  0.00    -0.167 SA
HETATM   22  C13 UNL     1      11.923   0.339  -6.780  1.00  0.00     0.075 C 
HETATM   23  C14 UNL     1      11.978  -0.500  -8.016  1.00  0.00     0.020 C 
HETATM   24  C15 UNL     1      13.352  -0.904  -8.430  1.00  0.00     0.075 C 
HETATM   25  S2  UNL     1      14.547  -0.836  -7.080  1.00  0.00    -0.167 SA
HETATM   26  C16 UNL     1      15.502  -2.353  -7.064  1.00  0.00     0.100 C 
HETATM   27  C17 UNL     1      16.724  -2.255  -6.151  1.00  0.00     0.186 C 
HETATM   28  O2  UNL     1      16.957  -3.550  -5.664  1.00  0.00    -0.347 OA
ENDROOT
TORSDOF 0
ENDMDL
MODEL 2
REMARK VINA RESULT: -7.785937373      1.286      1.310
REMARK  0 active torsions:
REMARK  status: ('A' for Active; 'I' for Inactive)
ROOT
HETATM    1  F1  UNL     1      18.542  -2.441  -1.419  1.00  0.00    -0.203 F 
HETATM    2  C1  UNL     1      18.461  -3.137  -2.596  1.00  0.00     0.152 A 
HETATM    3  C2  UNL     1      19.631  -3.861  -2.859  1.00  0.00     0.045 A 
HETATM    4  C3  UNL     1      19.703  -4.596  -4.003  1.00  0.00     0.006 A 
HETATM    5  C4  UNL     1      18.609  -4.589  -4.855  1.00  0.00     0.040 A 
HETATM    6  C5  UNL     1      17.442  -3.883  -4.622  1.00  0.00     0.105 A 
HETATM    7  C6  UNL     1      17.374  -3.130  -3.439  1.00  0.00     0.140 A 
HETATM    8  O1  UNL     1      16.269  -2.389  -3.090  1.00  0.00    -0.344 OA
HETATM    9  C7  UNL     1      14.932  -2.845  -2.977  1.00  0.00     0.203 C 
HETATM   10  C8  UNL     1      14.510  -2.603  -1.532  1.00  0.00     0.259 C 
HETATM   11  N1  UNL     1      13.689  -1.420  -1.409  1.00  0.00    -0.072 N 
ATOM     12  H11 UNL     1      13.220  -1.196  -2.287  1.00  0.00     0.277 HD
ATOM     13  H12 UNL     1      14.258  -0.578  -1.316  1.00  0.00     0.277 HD
HETATM   14  C9  UNL     1      12.757  -1.546  -0.332  1.00  0.00     0.259 C 
HETATM   15  C10 UNL     1      11.357  -1.379  -0.908  1.00  0.00     0.259 C 
HETATM   16  N2  UNL     1      11.273  -0.243  -1.793  1.00  0.00    -0.073 N 
ATOM     17  H21 UNL     1      12.078   0.371  -1.668  1.00  0.00     0.277 HD
ATOM     18  H22 UNL     1      10.528   0.389  -1.498  1.00  0.00     0.277 HD
HETATM   19  C11 UNL     1      11.119  -0.601  -3.176  1.00  0.00     0.242 C 
HETATM   20  C12 UNL     1      10.078  -1.672  -3.401  1.00  0.00     0.101 C 
HETATM   21  S1  UNL     1       9.273  -1.525  -5.012  1.00  0.00    -0.167 SA
HETATM   22  C13 UNL     1      10.534  -1.345  -6.330  1.00  0.00     0.075 C 
HETATM   23  C14 UNL     1      10.510  -2.526  -7.246  1.00  0.00     0.020 C 
HETATM   24  C15 UNL     1      11.824  -2.852  -7.872  1.00  0.00     0.075 C 
HETATM   25  S2  UNL     1      13.229  -2.181  -6.960  1.00  0.00    -0.167 SA
HETATM   26  C16 UNL     1      14.466  -3.462  -6.763  1.00  0.00     0.100 C 
HETATM   27  C17 UNL     1      15.801  -2.903  -6.270  1.00  0.00     0.186 C 
HETATM   28  O2  UNL     1      16.399  -3.922  -5.513  1.00  0.00    -0.347 OA
ENDROOT
TORSDOF 0
ENDMDL
MODEL 3
REMARK VINA RESULT: -7.563101784      1.114      1.231
REMARK  0 active torsions:
REMARK  status: ('A' for Active; 'I' for Inactive)
ROOT
HETATM    1  F1  UNL     1      17.703  -3.967  -1.037  1.00  0.00    -0.203 F 
HETATM    2  C1  UNL     1      18.150  -4.263  -2.298  1.00  0.00     0.152 A 
HETATM    3  C2  UNL     1      19.266  -5.109  -2.274  1.00  0.00     0.045 A 
HETATM    4  C3  UNL     1      19.831  -5.483  -3.455  1.00  0.00     0.006 A 
HETATM    5  C4  UNL     1      19.268  -5.005  -4.629  1.00  0.00     0.040 A 
HETATM    6  C5  UNL     1      18.167  -4.168  -4.683  1.00  0.00     0.105 A 
HETATM    7  C6  UNL     1      17.590  -3.788  -3.461  1.00  0.00     0.140 A 
HETATM    8  O1  UNL     1      16.491  -2.965  -3.380  1.00  0.00    -0.344 OA
HETATM    9  C7  UNL     1      15.237  -3.145  -4.015  1.00  0.00     0.203 C 
HETATM   10  C8  UNL     1      14.198  -3.245  -2.904  1.00  0.00     0.259 C 
HETATM   11  N1  UNL     1      13.478  -2.002  -2.735  1.00  0.00    -0.072 N 
ATOM     12  H11 UNL     1      13.490  -1.444  -3.589  1.00  0.00     0.277 HD
ATOM     13  H12 UNL     1      13.979  -1.360  -2.121  1.00  0.00     0.277 HD
HETATM   14  C9  UNL     1      12.144  -2.234  -2.278  1.00  0.00     0.259 C 
HETATM   15  C10 UNL     1      11.191  -1.621  -3.295  1.00  0.00     0.259 C 
HETATM   16  N2  UNL     1      11.593  -0.287  -3.671  1.00  0.00    -0.073 N 
ATOM     17  H21 UNL     1      12.275   0.083  -3.009  1.00  0.00     0.277 HD
ATOM     18  H22 UNL     1      10.832   0.375  -3.520  1.00  0.00     0.277 HD
HETATM   19  C11 UNL     1      12.090  -0.193  -5.016  1.00  0.00     0.242 C 
HETATM   20  C12 UNL     1      11.223  -0.913  -6.022  1.00  0.00     0.101 C 
HETATM   21  S1  UNL     1      11.281  -0.147  -7.657  1.00  0.00    -0.167 SA
HETATM   22  C13 UNL     1      13.021   0.137  -8.157  1.00  0.00     0.075 C 
HETATM   23  C14 UNL     1      13.369  -0.701  -9.345  1.00  0.00     0.020 C 
HETATM   24  C15 UNL     1      14.805  -1.100  -9.423  1.00  0.00     0.075 C 
HETATM   25  S2  UNL     1      15.647  -1.027  -7.830  1.00  0.00    -0.167 SA
HETATM   26  C16 UNL     1      16.577  -2.540  -7.588  1.00  0.00     0.100 C 
HETATM   27  C17 UNL     1      17.550  -2.437  -6.413  1.00  0.00     0.186 C 
HETATM   28  O2  UNL     1      17.667  -3.731  -5.885  1.00  0.00    -0.347 OA
ENDROOT
TORSDOF 0
ENDMDL
MODEL 4
REMARK VINA RESULT: -7.250072350      1.058      1.157
REMARK  0 active torsions:
REMARK  status: ('A' for Active; 'I' for Inactive)
ROOT
HETATM    1  F1  UNL     1      17.297  -2.456  -0.658  1.00  0.00    -0.203 F 
HETATM    2  C1  UNL     1      17.564  -2.906  -1.925  1.00  0.00     0.152 A 
HETATM    3  C2  UNL     1      18.692  -3.735  -1.959  1.00  0.00     0.045 A 
HETATM    4  C3  UNL     1      19.089  -4.252  -3.155  1.00  0.00     0.006 A 
HETATM    5  C4  UNL     1      18.351  -3.928  -4.284  1.00  0.00     0.040 A 
HETATM    6  C5  UNL     1      17.234  -3.112  -4.280  1.00  0.00     0.105 A 
HETATM    7  C6  UNL     1      16.831  -2.584  -3.043  1.00  0.00     0.140 A 
HETATM    8  O1  UNL     1      15.735  -1.764  -2.905  1.00  0.00    -0.344 OA
HETATM    9  C7  UNL     1      14.407  -2.030  -3.322  1.00  0.00     0.203 C 
HETATM   10  C8  UNL     1      13.542  -1.995  -2.067  1.00  0.00     0.259 C 
HETATM   11  N1  UNL     1      12.825  -0.746  -1.950  1.00  0.00    -0.072 N 
ATOM     12  H11 UNL     1      12.700  -0.299  -2.858  1.00  0.00     0.277 HD
ATOM     13  H12 UNL     1      13.393  -0.028  -1.499  1.00  0.00     0.277 HD
HETATM   14  C9  UNL     1      11.577  -0.926  -1.277  1.00  0.00     0.259 C 
HETATM   15  C10 UNL     1      10.472  -0.452  -2.212  1.00  0.00     0.259 C 
HETATM   16  N2  UNL     1      10.783   0.826  -2.804  1.00  0.00    -0.073 N 
ATOM     17  H21 UNL     1      11.544   1.281  -2.300  1.00  0.00     0.277 HD
ATOM     18  H22 UNL     1      10.035   1.498  -2.627  1.00  0.00     0.277 HD
HETATM   19  C11 UNL     1      11.078   0.753  -4.209  1.00  0.00     0.242 C 
HETATM   20  C12 UNL     1      10.092  -0.092  -4.981  1.00  0.00     0.101 C 
HETATM   21  S1  UNL     1       9.895   0.462  -6.688  1.00  0.00    -0.167 SA
HETATM   22  C13 UNL     1      11.537   0.691  -7.468  1.00  0.00     0.075 C 
HETATM   23  C14 UNL     1      11.730  -0.288  -8.582  1.00  0.00     0.020 C 
HETATM   24  C15 UNL     1      13.148  -0.685  -8.820  1.00  0.00     0.075 C 
HETATM   25  S2  UNL     1      14.210  -0.408  -7.388  1.00  0.00    -0.167 SA
HETATM   26  C16 UNL     1      15.202  -1.872  -7.100  1.00  0.00     0.100 C 
HETATM   27  C17 UNL     1      16.331  -1.616  -6.101  1.00  0.00     0.186 C 
HETATM   28  O2  UNL     1      16.555  -2.833  -5.440  1.00  0.00    -0.347 OA
ENDROOT
TORSDOF 0
ENDMDL
MODEL 5
REMARK VINA RESULT: -7.245361703      2.657      4.710
REMARK  0 active torsions:
REMARK  status: ('A' for Active; 'I' for Inactive)
ROOT
HETATM    1  F1  UNL     1      18.381  -4.403  -5.015  1.00  0.00    -0.203 F 
HETATM    2  C1  UNL     1      17.889  -3.896  -3.842  1.00  0.00     0.152 A 
HETATM    3  C2  UNL     1      18.670  -4.269  -2.741  1.00  0.00     0.045 A 
HETATM    4  C3  UNL     1      18.298  -3.848  -1.500  1.00  0.00     0.006 A 
HETATM    5  C4  UNL     1      17.158  -3.066  -1.390  1.00  0.00     0.040 A 
HETATM    6  C5  UNL     1      16.368  -2.682  -2.459  1.00  0.00     0.105 A 
HETATM    7  C6  UNL     1      16.759  -3.120  -3.735  1.00  0.00     0.140 A 
HETATM    8  O1  UNL     1      16.060  -2.803  -4.877  1.00  0.00    -0.344 OA
HETATM    9  C7  UNL     1      15.707  -1.509  -5.335  1.00  0.00     0.203 C 
HETATM   10  C8  UNL     1      16.369  -1.334  -6.697  1.00  0.00     0.259 C 
HETATM   11  N1  UNL     1      15.427  -1.531  -7.775  1.00  0.00    -0.072 N 
ATOM     12  H11 UNL     1      14.469  -1.357  -7.472  1.00  0.00     0.277 HD
ATOM     13  H12 UNL     1      15.337  -2.518  -8.018  1.00  0.00     0.277 HD
HETATM   14  C9  UNL     1      15.770  -0.740  -8.915  1.00  0.00     0.259 C 
HETATM   15  C10 UNL     1      14.585   0.164  -9.227  1.00  0.00     0.259 C 
HETATM   16  N2  UNL     1      13.339  -0.563  -9.215  1.00  0.00    -0.073 N 
ATOM     17  H21 UNL     1      13.508  -1.568  -9.255  1.00  0.00     0.277 HD
ATOM     18  H22 UNL     1      12.840  -0.439 -10.096  1.00  0.00     0.277 HD
HETATM   19  C11 UNL     1      12.492  -0.235  -8.101  1.00  0.00     0.242 C 
HETATM   20  C12 UNL     1      12.373   1.251  -7.861  1.00  0.00     0.101 C 
HETATM   21  S1  UNL     1      10.781   1.710  -7.142  1.00  0.00    -0.167 SA
HETATM   22  C13 UNL     1      10.406   0.635  -5.706  1.00  0.00     0.075 C 
HETATM   23  C14 UNL     1      10.377   1.435  -4.444  1.00  0.00     0.020 C 
HETATM   24  C15 UNL     1      10.771   0.678  -3.220  1.00  0.00     0.075 C 
HETATM   25  S2  UNL     1      11.755  -0.790  -3.582  1.00  0.00    -0.167 SA
HETATM   26  C16 UNL     1      13.178  -0.826  -2.494  1.00  0.00     0.100 C 
HETATM   27  C17 UNL     1      13.896  -2.176  -2.529  1.00  0.00     0.186 C 
HETATM   28  O2  UNL     1      15.249  -1.908  -2.273  1.00  0.00    -0.347 OA
ENDROOT
TORSDOF 0
ENDMDL
