MODEL 1
REMARK VINA RESULT: -8.201374667      0.000      0.000
REMARK  1 active torsions:
REMARK  status: ('A' for Active; 'I' for Inactive)
REMARK    1  A    between atoms: N2_23  and  N3_25 
ROOT
HETATM    1  C1  UNL     1      17.865  -3.875  -4.933  1.00  0.00     0.039 C 
HETATM    2  C2  UNL     1      17.339  -2.464  -4.793  1.00  0.00     0.120 C 
HETATM    3  C3  UNL     1      16.999  -1.907  -6.137  1.00  0.00     0.032 C 
HETATM    4  C4  UNL     1      16.670  -2.991  -7.140  1.00  0.00     0.002 C 
HETATM    5  C5  UNL     1      15.659  -2.530  -8.171  1.00  0.00     0.000 C 
HETATM    6  C6  UNL     1      14.951  -3.782  -8.687  1.00  0.00     0.000 C 
HETATM    7  C7  UNL     1      13.893  -4.220  -7.695  1.00  0.00     0.000 C 
HETATM    8  C8  UNL     1      12.642  -3.452  -7.982  1.00  0.00     0.000 C 
HETATM    9  C9  UNL     1      11.535  -3.677  -7.015  1.00  0.00     0.003 C 
HETATM   10  C10 UNL     1      11.908  -3.652  -5.585  1.00  0.00     0.040 C 
HETATM   11  C11 UNL     1      11.960  -2.226  -5.025  1.00  0.00     0.206 C 
HETATM   12  F1  UNL     1      13.114  -1.669  -5.521  1.00  0.00    -0.246 F 
HETATM   13  C12 UNL     1      11.940  -2.286  -3.510  1.00  0.00     0.227 C 
HETATM   14  O1  UNL     1      12.073  -3.578  -3.124  1.00  0.00    -0.340 OA
HETATM   15  C13 UNL     1      12.513  -3.839  -1.854  1.00  0.00     0.162 C 
HETATM   16  C14 UNL     1      11.991  -5.269  -1.562  1.00  0.00     0.078 C 
HETATM   17  C15 UNL     1      11.958  -2.994  -0.775  1.00  0.00     0.078 C 
HETATM   18  O2  UNL     1      13.879  -3.986  -1.880  1.00  0.00    -0.308 OA
HETATM   19  C16 UNL     1      14.631  -2.870  -1.619  1.00  0.00     0.376 C 
HETATM   20  N1  UNL     1      14.236  -1.702  -2.357  1.00  0.00    -0.328 N 
ATOM     21  H1  UNL     1      14.953  -0.981  -2.429  1.00  0.00     0.165 HD
HETATM   22  C17 UNL     1      13.010  -1.386  -3.003  1.00  0.00     0.127 C 
HETATM   23  N2  UNL     1      12.738  -0.145  -3.197  1.00  0.00    -0.293 N 
ATOM     24  H2  UNL     1      13.418   0.545  -2.879  1.00  0.00     0.187 HD
HETATM   25  O3  UNL     1      15.954  -3.194  -1.724  1.00  0.00    -0.319 OA
HETATM   26  C18 UNL     1      16.711  -2.499  -2.616  1.00  0.00     0.343 C 
HETATM   27  O4  UNL     1      16.243  -2.478  -3.914  1.00  0.00    -0.362 OA
ENDROOT
BRANCH  23  28
HETATM   28  N3  UNL     1      11.587   0.319  -3.805  1.00  0.00    -0.344 N 
ATOM     29  H32 UNL     1      11.673   0.624  -4.775  1.00  0.00     0.176 HD
ATOM     30  H31 UNL     1      10.675   0.374  -3.352  1.00  0.00     0.176 HD
ENDBRANCH  23  28
TORSDOF 1
ENDMDL
MODEL 2
REMARK VINA RESULT: -7.890614138      2.645      5.379
REMARK  1 active torsions:
REMARK  status: ('A' for Active; 'I' for Inactive)
REMARK    1  A    between atoms: N2_23  and  N3_25 
ROOT
HETATM    1  C1  UNL     1      16.918  -1.755  -2.435  1.00  0.00     0.039 C 
HETATM    2  C2  UNL     1      16.404  -3.177  -2.480  1.00  0.00     0.120 C 
HETATM    3  C3  UNL     1      15.232  -3.330  -1.567  1.00  0.00     0.032 C 
HETATM    4  C4  UNL     1      14.506  -2.020  -1.343  1.00  0.00     0.002 C 
HETATM    5  C5  UNL     1      13.022  -2.222  -1.106  1.00  0.00     0.000 C 
HETATM    6  C6  UNL     1      12.328  -0.926  -1.522  1.00  0.00     0.000 C 
HETATM    7  C7  UNL     1      12.185  -0.879  -3.029  1.00  0.00     0.000 C 
HETATM    8  C8  UNL     1      10.934  -1.612  -3.399  1.00  0.00     0.000 C 
HETATM    9  C9  UNL     1      10.710  -1.765  -4.861  1.00  0.00     0.003 C 
HETATM   10  C10 UNL     1      11.880  -2.189  -5.657  1.00  0.00     0.040 C 
HETATM   11  C11 UNL     1      12.071  -3.710  -5.639  1.00  0.00     0.206 C 
HETATM   12  F1  UNL     1      12.579  -4.011  -4.399  1.00  0.00    -0.246 F 
HETATM   13  C12 UNL     1      13.002  -4.107  -6.769  1.00  0.00     0.227 C 
HETATM   14  O1  UNL     1      13.521  -2.984  -7.319  1.00  0.00    -0.340 OA
HETATM   15  C13 UNL     1      14.685  -3.084  -8.034  1.00  0.00     0.162 C 
HETATM   16  C14 UNL     1      14.659  -1.847  -8.968  1.00  0.00     0.078 C 
HETATM   17  C15 UNL     1      14.808  -4.250  -8.936  1.00  0.00     0.078 C 
HETATM   18  O2  UNL     1      15.744  -2.841  -7.194  1.00  0.00    -0.308 OA
HETATM   19  C16 UNL     1      16.333  -3.929  -6.604  1.00  0.00     0.376 C 
HETATM   20  N1  UNL     1      15.410  -4.847  -5.997  1.00  0.00    -0.328 N 
ATOM     21  H1  UNL     1      15.820  -5.462  -5.294  1.00  0.00     0.165 HD
HETATM   22  C17 UNL     1      14.019  -5.041  -6.214  1.00  0.00     0.127 C 
HETATM   23  N2  UNL     1      13.518  -6.183  -5.905  1.00  0.00    -0.293 N 
ATOM     24  H2  UNL     1      14.145  -6.887  -5.517  1.00  0.00     0.187 HD
HETATM   25  O3  UNL     1      17.336  -3.496  -5.781  1.00  0.00    -0.319 OA
HETATM   26  C18 UNL     1      17.272  -3.838  -4.466  1.00  0.00     0.343 C 
HETATM   27  O4  UNL     1      16.104  -3.503  -3.814  1.00  0.00    -0.362 OA
ENDROOT
BRANCH  23  28
HETATM   28  N3  UNL     1      12.187  -6.523  -6.062  1.00  0.00    -0.344 N 
ATOM     29  H32 UNL     1      11.517  -6.039  -5.465  1.00  0.00     0.176 HD
ATOM     30  H31 UNL     1      11.843  -7.217  -6.726  1.00  0.00     0.176 HD
ENDBRANCH  23  28
TORSDOF 1
ENDMDL
MODEL 3
REMARK VINA RESULT: -7.854553430      2.381      4.733
REMARK  1 active torsions:
REMARK  status: ('A' for Active; 'I' for Inactive)
REMARK    1  A    between atoms: N2_23  and  N3_25 
ROOT
HETATM    1  C1  UNL     1      14.852  -2.285  -8.056  1.00  0.00     0.039 C 
HETATM    2  C2  UNL     1      14.229  -3.553  -7.515  1.00  0.00     0.120 C 
HETATM    3  C3  UNL     1      15.277  -4.415  -6.889  1.00  0.00     0.032 C 
HETATM    4  C4  UNL     1      16.467  -3.611  -6.408  1.00  0.00     0.002 C 
HETATM    5  C5  UNL     1      17.124  -4.235  -5.193  1.00  0.00     0.000 C 
HETATM    6  C6  UNL     1      17.831  -3.106  -4.444  1.00  0.00     0.000 C 
HETATM    7  C7  UNL     1      16.825  -2.322  -3.626  1.00  0.00     0.000 C 
HETATM    8  C8  UNL     1      16.652  -3.020  -2.314  1.00  0.00     0.000 C 
HETATM    9  C9  UNL     1      15.601  -2.442  -1.434  1.00  0.00     0.003 C 
HETATM   10  C10 UNL     1      14.315  -2.119  -2.087  1.00  0.00     0.040 C 
HETATM   11  C11 UNL     1      13.397  -3.343  -2.195  1.00  0.00     0.206 C 
HETATM   12  F1  UNL     1      13.920  -4.116  -3.203  1.00  0.00    -0.246 F 
HETATM   13  C12 UNL     1      11.982  -2.879  -2.482  1.00  0.00     0.227 C 
HETATM   14  O1  UNL     1      12.005  -1.550  -2.740  1.00  0.00    -0.340 OA
HETATM   15  C13 UNL     1      10.962  -1.001  -3.438  1.00  0.00     0.162 C 
HETATM   16  C14 UNL     1      10.991   0.497  -3.041  1.00  0.00     0.078 C 
HETATM   17  C15 UNL     1       9.606  -1.472  -3.079  1.00  0.00     0.078 C 
HETATM   18  O2  UNL     1      11.277  -0.994  -4.775  1.00  0.00    -0.308 OA
HETATM   19  C16 UNL     1      10.856  -2.065  -5.520  1.00  0.00     0.376 C 
HETATM   20  N1  UNL     1      11.152  -3.345  -4.939  1.00  0.00    -0.328 N 
ATOM     21  H1  UNL     1      11.150  -4.123  -5.599  1.00  0.00     0.165 HD
HETATM   22  C17 UNL     1      11.449  -3.707  -3.597  1.00  0.00     0.127 C 
HETATM   23  N2  UNL     1      11.234  -4.924  -3.243  1.00  0.00    -0.293 N 
ATOM     24  H2  UNL     1      10.866  -5.565  -3.946  1.00  0.00     0.187 HD
HETATM   25  O3  UNL     1      11.288  -1.906  -6.807  1.00  0.00    -0.319 OA
HETATM   26  C18 UNL     1      12.073  -2.881  -7.341  1.00  0.00     0.343 C 
HETATM   27  O4  UNL     1      13.204  -3.203  -6.620  1.00  0.00    -0.362 OA
ENDROOT
BRANCH  23  28
HETATM   28  N3  UNL     1      11.467  -5.425  -1.976  1.00  0.00    -0.344 N 
ATOM     29  H32 UNL     1      12.428  -5.687  -1.757  1.00  0.00     0.176 HD
ATOM     30  H31 UNL     1      10.750  -5.544  -1.261  1.00  0.00     0.176 HD
ENDBRANCH  23  28
TORSDOF 1
ENDMDL
MODEL 4
REMARK VINA RESULT: -7.590080563      2.453      5.869
REMARK  1 active torsions:
REMARK  status: ('A' for Active; 'I' for Inactive)
REMARK    1  A    between atoms: N2_23  and  N3_25 
ROOT
HETATM    1  C1  UNL     1      13.100  -3.623  -2.159  1.00  0.00     0.039 C 
HETATM    2  C2  UNL     1      13.387  -2.198  -2.576  1.00  0.00     0.120 C 
HETATM    3  C3  UNL     1      14.625  -1.704  -1.900  1.00  0.00     0.032 C 
HETATM    4  C4  UNL     1      15.559  -2.833  -1.519  1.00  0.00     0.002 C 
HETATM    5  C5  UNL     1      17.013  -2.407  -1.553  1.00  0.00     0.000 C 
HETATM    6  C6  UNL     1      17.838  -3.672  -1.788  1.00  0.00     0.000 C 
HETATM    7  C7  UNL     1      17.805  -4.042  -3.256  1.00  0.00     0.000 C 
HETATM    8  C8  UNL     1      18.880  -3.269  -3.953  1.00  0.00     0.000 C 
HETATM    9  C9  UNL     1      18.903  -3.427  -5.432  1.00  0.00     0.003 C 
HETATM   10  C10 UNL     1      17.596  -3.336  -6.115  1.00  0.00     0.040 C 
HETATM   11  C11 UNL     1      17.186  -1.884  -6.387  1.00  0.00     0.206 C 
HETATM   12  F1  UNL     1      16.790  -1.372  -5.175  1.00  0.00    -0.246 F 
HETATM   13  C12 UNL     1      16.078  -1.867  -7.423  1.00  0.00     0.227 C 
HETATM   14  O1  UNL     1      15.669  -3.139  -7.643  1.00  0.00    -0.340 OA
HETATM   15  C13 UNL     1      14.427  -3.343  -8.182  1.00  0.00     0.162 C 
HETATM   16  C14 UNL     1      14.524  -4.748  -8.830  1.00  0.00     0.078 C 
HETATM   17  C15 UNL     1      14.025  -2.436  -9.279  1.00  0.00     0.078 C 
HETATM   18  O2  UNL     1      13.523  -3.514  -7.162  1.00  0.00    -0.308 OA
HETATM   19  C16 UNL     1      12.853  -2.398  -6.730  1.00  0.00     0.376 C 
HETATM   20  N1  UNL     1      13.696  -1.263  -6.472  1.00  0.00    -0.328 N 
ATOM     21  H1  UNL     1      13.285  -0.558  -5.860  1.00  0.00     0.165 HD
HETATM   22  C17 UNL     1      15.007  -0.960  -6.930  1.00  0.00     0.127 C 
HETATM   23  N2  UNL     1      15.366   0.274  -6.944  1.00  0.00    -0.293 N 
ATOM     24  H2  UNL     1      14.692   0.968  -6.622  1.00  0.00     0.187 HD
HETATM   25  O3  UNL     1      12.032  -2.749  -5.695  1.00  0.00    -0.319 OA
HETATM   26  C18 UNL     1      12.200  -2.112  -4.504  1.00  0.00     0.343 C 
HETATM   27  O4  UNL     1      13.475  -2.150  -3.978  1.00  0.00    -0.362 OA
ENDROOT
BRANCH  23  28
HETATM   28  N3  UNL     1      16.603   0.726  -7.365  1.00  0.00    -0.344 N 
ATOM     29  H32 UNL     1      17.348   0.032  -7.423  1.00  0.00     0.176 HD
ATOM     30  H31 UNL     1      16.810   1.692  -7.615  1.00  0.00     0.176 HD
ENDBRANCH  23  28
TORSDOF 1
ENDMDL
MODEL 5
REMARK VINA RESULT: -7.583811585      0.971      1.099
REMARK  1 active torsions:
REMARK  status: ('A' for Active; 'I' for Inactive)
REMARK    1  A    between atoms: N2_23  and  N3_25 
ROOT
HETATM    1  C1  UNL     1      17.131  -2.857  -5.641  1.00  0.00     0.039 C 
HETATM    2  C2  UNL     1      16.541  -1.535  -5.202  1.00  0.00     0.120 C 
HETATM    3  C3  UNL     1      15.936  -0.827  -6.370  1.00  0.00     0.032 C 
HETATM    4  C4  UNL     1      15.515  -1.785  -7.465  1.00  0.00     0.002 C 
HETATM    5  C5  UNL     1      14.313  -1.280  -8.236  1.00  0.00     0.000 C 
HETATM    6  C6  UNL     1      13.615  -2.507  -8.821  1.00  0.00     0.000 C 
HETATM    7  C7  UNL     1      12.777  -3.180  -7.753  1.00  0.00     0.000 C 
HETATM    8  C8  UNL     1      11.444  -2.500  -7.714  1.00  0.00     0.000 C 
HETATM    9  C9  UNL     1      10.539  -2.963  -6.628  1.00  0.00     0.003 C 
HETATM   10  C10 UNL     1      11.150  -3.107  -5.291  1.00  0.00     0.040 C 
HETATM   11  C11 UNL     1      11.198  -1.776  -4.531  1.00  0.00     0.206 C 
HETATM   12  F1  UNL     1      12.208  -1.048  -5.112  1.00  0.00    -0.246 F 
HETATM   13  C12 UNL     1      11.443  -2.052  -3.060  1.00  0.00     0.227 C 
HETATM   14  O1  UNL     1      11.730  -3.367  -2.907  1.00  0.00    -0.340 OA
HETATM   15  C13 UNL     1      12.400  -3.763  -1.780  1.00  0.00     0.162 C 
HETATM   16  C14 UNL     1      12.037  -5.262  -1.634  1.00  0.00     0.078 C 
HETATM   17  C15 UNL     1      11.981  -3.136  -0.507  1.00  0.00     0.078 C 
HETATM   18  O2  UNL     1      13.748  -3.775  -2.046  1.00  0.00    -0.308 OA
HETATM   19  C16 UNL     1      14.454  -2.641  -1.738  1.00  0.00     0.376 C 
HETATM   20  N1  UNL     1      13.857  -1.423  -2.212  1.00  0.00    -0.328 N 
ATOM     21  H1  UNL     1      14.500  -0.634  -2.285  1.00  0.00     0.165 HD
HETATM   22  C17 UNL     1      12.520  -1.136  -2.598  1.00  0.00     0.127 C 
HETATM   23  N2  UNL     1      12.133   0.089  -2.549  1.00  0.00    -0.293 N 
ATOM     24  H2  UNL     1      12.808   0.788  -2.241  1.00  0.00     0.187 HD
HETATM   25  O3  UNL     1      15.759  -2.820  -2.102  1.00  0.00    -0.319 OA
HETATM   26  C18 UNL     1      16.301  -1.937  -2.985  1.00  0.00     0.343 C 
HETATM   27  O4  UNL     1      15.616  -1.777  -4.172  1.00  0.00    -0.362 OA
ENDROOT
BRANCH  23  28
HETATM   28  N3  UNL     1      10.865   0.524  -2.887  1.00  0.00    -0.344 N 
ATOM     29  H32 UNL     1      10.595   1.450  -2.555  1.00  0.00     0.176 HD
ATOM     30  H31 UNL     1      10.197  -0.015  -3.437  1.00  0.00     0.176 HD
ENDBRANCH  23  28
TORSDOF 1
ENDMDL
