MODEL 1
REMARK VINA RESULT: -8.063560713      0.000      0.000
REMARK  12 active torsions:
REMARK  status: ('A' for Active; 'I' for Inactive)
REMARK    1  A    between atoms: C2_2  and  N2_6 
REMARK       I    between atoms: N2_6  and  C3_8 
REMARK    2  A    between atoms: N4_10  and  C4_12 
REMARK    3  A    between atoms: C4_12  and  C5_13 
REMARK    4  A    between atoms: C5_13  and  C6_14 
REMARK    5  A    between atoms: C6_14  and  C7_15 
REMARK    6  A    between atoms: C7_15  and  N5_16 
REMARK    7  A    between atoms: C7_15  and  C11_24 
REMARK       I    between atoms: N5_16  and  C8_18 
REMARK    8  A    between atoms: C8_18  and  C9_20 
REMARK    9  A    between atoms: C9_20  and  O2_22 
REMARK       I    between atoms: C11_24  and  N6_26 
REMARK   10  A    between atoms: N7_30  and  C15_31 
REMARK   11  A    between atoms: C15_31  and  O4_32 
REMARK   12  A    between atoms: C16_34  and  N8_35 
ROOT
HETATM    1  C7  UNL     1      19.853 -14.460  22.266  1.00  0.00     0.177 C 
ENDROOT
BRANCH   1   2
HETATM    2  C6  UNL     1      20.301 -13.837  20.945  1.00  0.00     0.040 C 
BRANCH   2   3
HETATM    3  C5  UNL     1      19.097 -13.326  20.171  1.00  0.00     0.047 C 
BRANCH   3   4
HETATM    4  C4  UNL     1      18.436 -12.203  20.936  1.00  0.00     0.063 C 
BRANCH   4   5
HETATM    5  N4  UNL     1      17.039 -12.330  21.023  1.00  0.00    -0.344 N 
HETATM    6  C3  UNL     1      16.101 -12.209  20.204  1.00  0.00     0.193 C 
HETATM    7  N2  UNL     1      14.755 -12.429  20.699  1.00  0.00    -0.321 N 
HETATM    8  N3  UNL     1      16.179 -11.878  18.821  1.00  0.00    -0.063 NA
ATOM      9  H2  UNL     1      14.372 -13.373  20.652  1.00  0.00     0.169 HD
ATOM     10  H4  UNL     1      16.719 -12.576  21.960  1.00  0.00     0.167 HD
BRANCH   7  11
HETATM   11  C2  UNL     1      13.953 -11.416  21.238  1.00  0.00     0.072 C 
HETATM   12  C1  UNL     1      13.055 -11.631  22.375  1.00  0.00     0.088 C 
HETATM   13  N1  UNL     1      14.021 -10.249  20.700  1.00  0.00    -0.389 N 
ATOM     14  H12 UNL     1      13.437  -9.511  21.092  1.00  0.00     0.157 HD
ATOM     15  H11 UNL     1      14.647 -10.099  19.908  1.00  0.00     0.157 HD
ENDBRANCH   7  11
ENDBRANCH   4   5
ENDBRANCH   3   4
ENDBRANCH   2   3
ENDBRANCH   1   2
BRANCH   1  16
HETATM   16  N5  UNL     1      20.917 -14.258  23.255  1.00  0.00    -0.346 N 
HETATM   17  C8  UNL     1      20.583 -14.258  24.612  1.00  0.00     0.246 C 
HETATM   18  O1  UNL     1      19.403 -14.424  25.035  1.00  0.00    -0.271 OA
ATOM     19  H5  UNL     1      21.882 -14.119  22.957  1.00  0.00     0.163 HD
BRANCH  17  20
HETATM   20  C9  UNL     1      21.621 -14.058  25.646  1.00  0.00     0.206 C 
HETATM   21  C10 UNL     1      21.019 -13.788  27.007  1.00  0.00     0.049 C 
BRANCH  20  22
HETATM   22  O2  UNL     1      22.431 -15.183  25.685  1.00  0.00    -0.387 OA
ATOM     23  H2  UNL     1      22.942 -15.216  24.885  1.00  0.00     0.210 HD
ENDBRANCH  20  22
ENDBRANCH  17  20
ENDBRANCH   1  16
BRANCH   1  24
HETATM   24  C11 UNL     1      19.748 -15.916  22.062  1.00  0.00     0.242 C 
HETATM   25  O3  UNL     1      20.819 -16.598  22.174  1.00  0.00    -0.271 OA
HETATM   26  N6  UNL     1      18.578 -16.618  21.759  1.00  0.00    -0.349 N 
HETATM   27  C12 UNL     1      18.680 -18.070  21.565  1.00  0.00     0.127 C 
HETATM   28  C21 UNL     1      17.366 -15.865  21.707  1.00  0.00     0.145 C 
HETATM   29  C13 UNL     1      17.603 -18.737  22.400  1.00  0.00     0.040 C 
HETATM   30  C14 UNL     1      16.328 -18.912  21.632  1.00  0.00     0.126 C 
HETATM   31  N7  UNL     1      15.662 -17.570  21.444  1.00  0.00    -0.359 N 
HETATM   32  C20 UNL     1      16.393 -16.547  20.758  1.00  0.00     0.145 C 
BRANCH  31  33
HETATM   33  C15 UNL     1      14.404 -17.498  21.992  1.00  0.00     0.162 C 
HETATM   34  C16 UNL     1      13.040 -17.308  21.624  1.00  0.00     0.256 C 
BRANCH  33  35
HETATM   35  O4  UNL     1      14.466 -17.664  23.345  1.00  0.00    -0.345 OA
ATOM     36  H4  UNL     1      13.970 -18.431  23.607  1.00  0.00     0.219 HD
ENDBRANCH  33  35
BRANCH  34  37
HETATM   37  N8  UNL     1      12.476 -17.131  20.364  1.00  0.00    -0.055 N 
HETATM   38  C17 UNL     1      12.188 -15.820  19.892  1.00  0.00     0.277 C 
HETATM   39  C18 UNL     1      13.026 -17.986  19.303  1.00  0.00     0.277 C 
HETATM   40  C19 UNL     1      11.091 -17.779  20.524  1.00  0.00     0.277 C 
ENDBRANCH  34  37
ENDBRANCH  31  33
ENDBRANCH   1  24
TORSDOF 12
ENDMDL
MODEL 2
REMARK VINA RESULT: -7.845275309      2.967      6.916
REMARK  12 active torsions:
REMARK  status: ('A' for Active; 'I' for Inactive)
REMARK    1  A    between atoms: C2_2  and  N2_6 
REMARK       I    between atoms: N2_6  and  C3_8 
REMARK    2  A    between atoms: N4_10  and  C4_12 
REMARK    3  A    between atoms: C4_12  and  C5_13 
REMARK    4  A    between atoms: C5_13  and  C6_14 
REMARK    5  A    between atoms: C6_14  and  C7_15 
REMARK    6  A    between atoms: C7_15  and  N5_16 
REMARK    7  A    between atoms: C7_15  and  C11_24 
REMARK       I    between atoms: N5_16  and  C8_18 
REMARK    8  A    between atoms: C8_18  and  C9_20 
REMARK    9  A    between atoms: C9_20  and  O2_22 
REMARK       I    between atoms: C11_24  and  N6_26 
REMARK   10  A    between atoms: N7_30  and  C15_31 
REMARK   11  A    between atoms: C15_31  and  O4_32 
REMARK   12  A    between atoms: C16_34  and  N8_35 
ROOT
HETATM    1  C7  UNL     1      19.281 -14.871  24.312  1.00  0.00     0.177 C 
ENDROOT
BRANCH   1   2
HETATM    2  C6  UNL     1      19.993 -14.131  25.443  1.00  0.00     0.040 C 
BRANCH   2   3
HETATM    3  C5  UNL     1      20.334 -15.094  26.567  1.00  0.00     0.047 C 
BRANCH   3   4
HETATM    4  C4  UNL     1      21.819 -15.058  26.841  1.00  0.00     0.063 C 
BRANCH   4   5
HETATM    5  N4  UNL     1      22.599 -15.512  25.762  1.00  0.00    -0.344 N 
HETATM    6  C3  UNL     1      22.770 -16.626  25.220  1.00  0.00     0.193 C 
HETATM    7  N2  UNL     1      23.686 -16.684  24.096  1.00  0.00    -0.321 N 
HETATM    8  N3  UNL     1      22.171 -17.872  25.564  1.00  0.00    -0.063 NA
ATOM      9  H2  UNL     1      23.309 -16.540  23.160  1.00  0.00     0.169 HD
ATOM     10  H4  UNL     1      23.146 -14.769  25.326  1.00  0.00     0.167 HD
BRANCH   7  11
HETATM   11  C2  UNL     1      25.058 -16.928  24.228  1.00  0.00     0.072 C 
HETATM   12  C1  UNL     1      25.962 -17.027  23.080  1.00  0.00     0.088 C 
HETATM   13  N1  UNL     1      25.530 -17.065  25.417  1.00  0.00    -0.389 N 
ATOM     14  H12 UNL     1      26.530 -17.242  25.513  1.00  0.00     0.157 HD
ATOM     15  H11 UNL     1      24.900 -16.996  26.217  1.00  0.00     0.157 HD
ENDBRANCH   7  11
ENDBRANCH   4   5
ENDBRANCH   3   4
ENDBRANCH   2   3
ENDBRANCH   1   2
BRANCH   1  16
HETATM   16  N5  UNL     1      19.436 -16.312  24.537  1.00  0.00    -0.346 N 
HETATM   17  C8  UNL     1      18.454 -17.179  24.049  1.00  0.00     0.246 C 
HETATM   18  O1  UNL     1      17.431 -16.783  23.421  1.00  0.00    -0.271 OA
ATOM     19  H5  UNL     1      20.245 -16.675  25.041  1.00  0.00     0.163 HD
BRANCH  17  20
HETATM   20  C9  UNL     1      18.566 -18.640  24.252  1.00  0.00     0.206 C 
HETATM   21  C10 UNL     1      19.169 -19.334  23.051  1.00  0.00     0.049 C 
BRANCH  20  22
HETATM   22  O2  UNL     1      19.331 -18.872  25.385  1.00  0.00    -0.387 OA
ATOM     23  H2  UNL     1      19.904 -19.611  25.217  1.00  0.00     0.210 HD
ENDBRANCH  20  22
ENDBRANCH  17  20
ENDBRANCH   1  16
BRANCH   1  24
HETATM   24  C11 UNL     1      19.995 -14.569  23.059  1.00  0.00     0.242 C 
HETATM   25  O3  UNL     1      21.194 -14.989  22.956  1.00  0.00    -0.271 OA
HETATM   26  N6  UNL     1      19.475 -13.863  21.970  1.00  0.00    -0.349 N 
HETATM   27  C12 UNL     1      20.354 -13.639  20.816  1.00  0.00     0.127 C 
HETATM   28  C21 UNL     1      18.109 -13.457  22.055  1.00  0.00     0.145 C 
HETATM   29  C13 UNL     1      19.600 -14.039  19.561  1.00  0.00     0.040 C 
HETATM   30  C14 UNL     1      18.842 -12.888  18.972  1.00  0.00     0.126 C 
HETATM   31  N7  UNL     1      17.656 -12.563  19.847  1.00  0.00    -0.359 N 
HETATM   32  C20 UNL     1      17.905 -12.208  21.212  1.00  0.00     0.145 C 
BRANCH  31  33
HETATM   33  C15 UNL     1      16.448 -12.672  19.200  1.00  0.00     0.162 C 
HETATM   34  C16 UNL     1      15.172 -13.295  19.326  1.00  0.00     0.256 C 
BRANCH  33  35
HETATM   35  O4  UNL     1      16.460 -11.941  18.048  1.00  0.00    -0.345 OA
ATOM     36  H4  UNL     1      15.587 -11.902  17.673  1.00  0.00     0.219 HD
ENDBRANCH  33  35
BRANCH  34  37
HETATM   37  N8  UNL     1      14.676 -14.107  20.341  1.00  0.00    -0.055 N 
HETATM   38  C17 UNL     1      15.253 -15.386  20.575  1.00  0.00     0.277 C 
HETATM   39  C18 UNL     1      14.349 -13.416  21.596  1.00  0.00     0.277 C 
HETATM   40  C19 UNL     1      13.255 -14.427  19.848  1.00  0.00     0.277 C 
ENDBRANCH  34  37
ENDBRANCH  31  33
ENDBRANCH   1  24
TORSDOF 12
ENDMDL
MODEL 3
REMARK VINA RESULT: -7.785715659      3.189      6.653
REMARK  12 active torsions:
REMARK  status: ('A' for Active; 'I' for Inactive)
REMARK    1  A    between atoms: C2_2  and  N2_6 
REMARK       I    between atoms: N2_6  and  C3_8 
REMARK    2  A    between atoms: N4_10  and  C4_12 
REMARK    3  A    between atoms: C4_12  and  C5_13 
REMARK    4  A    between atoms: C5_13  and  C6_14 
REMARK    5  A    between atoms: C6_14  and  C7_15 
REMARK    6  A    between atoms: C7_15  and  N5_16 
REMARK    7  A    between atoms: C7_15  and  C11_24 
REMARK       I    between atoms: N5_16  and  C8_18 
REMARK    8  A    between atoms: C8_18  and  C9_20 
REMARK    9  A    between atoms: C9_20  and  O2_22 
REMARK       I    between atoms: C11_24  and  N6_26 
REMARK   10  A    between atoms: N7_30  and  C15_31 
REMARK   11  A    between atoms: C15_31  and  O4_32 
REMARK   12  A    between atoms: C16_34  and  N8_35 
ROOT
HETATM    1  C7  UNL     1      17.600 -13.203  18.827  1.00  0.00     0.177 C 
ENDROOT
BRANCH   1   2
HETATM    2  C6  UNL     1      18.915 -12.813  19.500  1.00  0.00     0.040 C 
BRANCH   2   3
HETATM    3  C5  UNL     1      19.592 -14.044  20.079  1.00  0.00     0.047 C 
BRANCH   3   4
HETATM    4  C4  UNL     1      19.401 -14.077  21.578  1.00  0.00     0.063 C 
BRANCH   4   5
HETATM    5  N4  UNL     1      20.572 -14.402  22.285  1.00  0.00    -0.344 N 
HETATM    6  C3  UNL     1      20.830 -15.178  23.231  1.00  0.00     0.193 C 
HETATM    7  N2  UNL     1      22.204 -15.229  23.693  1.00  0.00    -0.321 N 
HETATM    8  N3  UNL     1      19.936 -16.040  23.931  1.00  0.00    -0.063 NA
ATOM      9  H2  UNL     1      22.832 -15.908  23.263  1.00  0.00     0.169 HD
ATOM     10  H4  UNL     1      21.391 -13.891  21.955  1.00  0.00     0.167 HD
BRANCH   7  11
HETATM   11  C2  UNL     1      22.716 -14.396  24.696  1.00  0.00     0.072 C 
HETATM   12  C1  UNL     1      21.909 -13.919  25.821  1.00  0.00     0.088 C 
HETATM   13  N1  UNL     1      23.952 -14.048  24.612  1.00  0.00    -0.389 N 
ATOM     14  H12 UNL     1      24.323 -13.442  25.343  1.00  0.00     0.157 HD
ATOM     15  H11 UNL     1      24.514 -14.381  23.828  1.00  0.00     0.157 HD
ENDBRANCH   7  11
ENDBRANCH   4   5
ENDBRANCH   3   4
ENDBRANCH   2   3
ENDBRANCH   1   2
BRANCH   1  16
HETATM   16  N5  UNL     1      17.479 -12.443  17.579  1.00  0.00    -0.346 N 
HETATM   17  C8  UNL     1      16.568 -12.877  16.612  1.00  0.00     0.246 C 
HETATM   18  O1  UNL     1      15.839 -13.899  16.757  1.00  0.00    -0.271 OA
ATOM     19  H5  UNL     1      18.049 -11.612  17.420  1.00  0.00     0.163 HD
BRANCH  17  20
HETATM   20  C9  UNL     1      16.412 -12.144  15.337  1.00  0.00     0.206 C 
HETATM   21  C10 UNL     1      14.960 -11.849  15.028  1.00  0.00     0.049 C 
BRANCH  20  22
HETATM   22  O2  UNL     1      17.143 -10.968  15.410  1.00  0.00    -0.387 OA
ATOM     23  H2  UNL     1      16.650 -10.337  15.922  1.00  0.00     0.210 HD
ENDBRANCH  20  22
ENDBRANCH  17  20
ENDBRANCH   1  16
BRANCH   1  24
HETATM   24  C11 UNL     1      16.500 -12.750  19.696  1.00  0.00     0.242 C 
HETATM   25  O3  UNL     1      16.229 -11.505  19.691  1.00  0.00    -0.271 OA
HETATM   26  N6  UNL     1      15.722 -13.565  20.526  1.00  0.00    -0.349 N 
HETATM   27  C12 UNL     1      14.684 -12.921  21.341  1.00  0.00     0.127 C 
HETATM   28  C21 UNL     1      15.976 -14.968  20.476  1.00  0.00     0.145 C 
HETATM   29  C13 UNL     1      13.390 -13.689  21.153  1.00  0.00     0.040 C 
HETATM   30  C14 UNL     1      13.239 -14.788  22.162  1.00  0.00     0.126 C 
HETATM   31  N7  UNL     1      14.206 -15.903  21.843  1.00  0.00    -0.359 N 
HETATM   32  C20 UNL     1      15.603 -15.592  21.811  1.00  0.00     0.145 C 
BRANCH  31  33
HETATM   33  C15 UNL     1      13.593 -17.109  21.600  1.00  0.00     0.162 C 
HETATM   34  C16 UNL     1      12.849 -17.795  20.596  1.00  0.00     0.256 C 
BRANCH  33  35
HETATM   35  O4  UNL     1      13.741 -17.941  22.671  1.00  0.00    -0.345 OA
ATOM     36  H4  UNL     1      12.891 -18.183  23.020  1.00  0.00     0.219 HD
ENDBRANCH  33  35
BRANCH  34  37
HETATM   37  N8  UNL     1      12.475 -17.374  19.324  1.00  0.00    -0.055 N 
HETATM   38  C17 UNL     1      11.311 -16.574  19.153  1.00  0.00     0.277 C 
HETATM   39  C18 UNL     1      13.576 -16.929  18.460  1.00  0.00     0.277 C 
HETATM   40  C19 UNL     1      12.120 -18.697  18.625  1.00  0.00     0.277 C 
ENDBRANCH  34  37
ENDBRANCH  31  33
ENDBRANCH   1  24
TORSDOF 12
ENDMDL
MODEL 4
REMARK VINA RESULT: -7.776323548      3.124      6.998
REMARK  12 active torsions:
REMARK  status: ('A' for Active; 'I' for Inactive)
REMARK    1  A    between atoms: C2_2  and  N2_6 
REMARK       I    between atoms: N2_6  and  C3_8 
REMARK    2  A    between atoms: N4_10  and  C4_12 
REMARK    3  A    between atoms: C4_12  and  C5_13 
REMARK    4  A    between atoms: C5_13  and  C6_14 
REMARK    5  A    between atoms: C6_14  and  C7_15 
REMARK    6  A    between atoms: C7_15  and  N5_16 
REMARK    7  A    between atoms: C7_15  and  C11_24 
REMARK       I    between atoms: N5_16  and  C8_18 
REMARK    8  A    between atoms: C8_18  and  C9_20 
REMARK    9  A    between atoms: C9_20  and  O2_22 
REMARK       I    between atoms: C11_24  and  N6_26 
REMARK   10  A    between atoms: N7_30  and  C15_31 
REMARK   11  A    between atoms: C15_31  and  O4_32 
REMARK   12  A    between atoms: C16_34  and  N8_35 
ROOT
HETATM    1  C7  UNL     1      15.183 -14.336  19.596  1.00  0.00     0.177 C 
ENDROOT
BRANCH   1   2
HETATM    2  C6  UNL     1      13.676 -14.499  19.409  1.00  0.00     0.040 C 
BRANCH   2   3
HETATM    3  C5  UNL     1      12.989 -14.610  20.760  1.00  0.00     0.047 C 
BRANCH   3   4
HETATM    4  C4  UNL     1      13.573 -13.595  21.716  1.00  0.00     0.063 C 
BRANCH   4   5
HETATM    5  N4  UNL     1      12.614 -12.722  22.261  1.00  0.00    -0.344 N 
HETATM    6  C3  UNL     1      12.470 -11.479  22.262  1.00  0.00     0.193 C 
HETATM    7  N2  UNL     1      11.314 -10.946  22.957  1.00  0.00    -0.321 N 
HETATM    8  N3  UNL     1      13.307 -10.496  21.659  1.00  0.00    -0.063 NA
ATOM      9  H2  UNL     1      10.451 -10.818  22.429  1.00  0.00     0.169 HD
ATOM     10  H4  UNL     1      11.874 -13.209  22.766  1.00  0.00     0.167 HD
BRANCH   7  11
HETATM   11  C2  UNL     1      11.318 -10.598  24.314  1.00  0.00     0.072 C 
HETATM   12  C1  UNL     1      11.724  -9.275  24.794  1.00  0.00     0.088 C 
HETATM   13  N1  UNL     1      10.943 -11.490  25.162  1.00  0.00    -0.389 N 
ATOM     14  H12 UNL     1      10.946 -11.236  26.149  1.00  0.00     0.157 HD
ATOM     15  H11 UNL     1      10.660 -12.411  24.827  1.00  0.00     0.157 HD
ENDBRANCH   7  11
ENDBRANCH   4   5
ENDBRANCH   3   4
ENDBRANCH   2   3
ENDBRANCH   1   2
BRANCH   1  16
HETATM   16  N5  UNL     1      15.785 -14.077  18.284  1.00  0.00    -0.346 N 
HETATM   17  C8  UNL     1      16.322 -12.812  18.027  1.00  0.00     0.246 C 
HETATM   18  O1  UNL     1      16.315 -11.873  18.873  1.00  0.00    -0.271 OA
ATOM     19  H5  UNL     1      15.810 -14.806  17.572  1.00  0.00     0.163 HD
BRANCH  17  20
HETATM   20  C9  UNL     1      16.937 -12.504  16.718  1.00  0.00     0.206 C 
HETATM   21  C10 UNL     1      16.212 -13.183  15.577  1.00  0.00     0.049 C 
BRANCH  20  22
HETATM   22  O2  UNL     1      16.940 -11.128  16.544  1.00  0.00    -0.387 OA
ATOM     23  H2  UNL     1      17.808 -10.799  16.746  1.00  0.00     0.210 HD
ENDBRANCH  20  22
ENDBRANCH  17  20
ENDBRANCH   1  16
BRANCH   1  24
HETATM   24  C11 UNL     1      15.722 -15.630  20.050  1.00  0.00     0.242 C 
HETATM   25  O3  UNL     1      15.288 -16.678  19.468  1.00  0.00    -0.271 OA
HETATM   26  N6  UNL     1      16.670 -15.814  21.062  1.00  0.00    -0.349 N 
HETATM   27  C12 UNL     1      17.064 -17.189  21.391  1.00  0.00     0.127 C 
HETATM   28  C21 UNL     1      17.210 -14.638  21.663  1.00  0.00     0.145 C 
HETATM   29  C13 UNL     1      18.579 -17.254  21.419  1.00  0.00     0.040 C 
HETATM   30  C14 UNL     1      19.127 -16.969  22.785  1.00  0.00     0.126 C 
HETATM   31  N7  UNL     1      18.963 -15.501  23.098  1.00  0.00    -0.359 N 
HETATM   32  C20 UNL     1      17.640 -14.955  23.087  1.00  0.00     0.145 C 
BRANCH  31  33
HETATM   33  C15 UNL     1      20.151 -14.855  23.344  1.00  0.00     0.162 C 
HETATM   34  C16 UNL     1      21.021 -14.496  24.416  1.00  0.00     0.256 C 
BRANCH  33  35
HETATM   35  O4  UNL     1      20.693 -14.398  22.178  1.00  0.00    -0.345 OA
ATOM     36  H4  UNL     1      21.327 -15.022  21.842  1.00  0.00     0.219 HD
ENDBRANCH  33  35
BRANCH  34  37
HETATM   37  N8  UNL     1      20.912 -14.767  25.776  1.00  0.00    -0.055 N 
HETATM   38  C17 UNL     1      19.684 -15.248  26.309  1.00  0.00     0.277 C 
HETATM   39  C18 UNL     1      22.071 -15.439  26.378  1.00  0.00     0.277 C 
HETATM   40  C19 UNL     1      21.068 -13.374  26.407  1.00  0.00     0.277 C 
ENDBRANCH  34  37
ENDBRANCH  31  33
ENDBRANCH   1  24
TORSDOF 12
ENDMDL
MODEL 5
REMARK VINA RESULT: -7.713994813      3.276      6.783
REMARK  12 active torsions:
REMARK  status: ('A' for Active; 'I' for Inactive)
REMARK    1  A    between atoms: C2_2  and  N2_6 
REMARK       I    between atoms: N2_6  and  C3_8 
REMARK    2  A    between atoms: N4_10  and  C4_12 
REMARK    3  A    between atoms: C4_12  and  C5_13 
REMARK    4  A    between atoms: C5_13  and  C6_14 
REMARK    5  A    between atoms: C6_14  and  C7_15 
REMARK    6  A    between atoms: C7_15  and  N5_16 
REMARK    7  A    between atoms: C7_15  and  C11_24 
REMARK       I    between atoms: N5_16  and  C8_18 
REMARK    8  A    between atoms: C8_18  and  C9_20 
REMARK    9  A    between atoms: C9_20  and  O2_22 
REMARK       I    between atoms: C11_24  and  N6_26 
REMARK   10  A    between atoms: N7_30  and  C15_31 
REMARK   11  A    between atoms: C15_31  and  O4_32 
REMARK   12  A    between atoms: C16_34  and  N8_35 
ROOT
HETATM    1  C7  UNL     1      17.648 -13.232  18.792  1.00  0.00     0.177 C 
ENDROOT
BRANCH   1   2
HETATM    2  C6  UNL     1      19.003 -12.912  19.421  1.00  0.00     0.040 C 
BRANCH   2   3
HETATM    3  C5  UNL     1      19.588 -14.157  20.067  1.00  0.00     0.047 C 
BRANCH   3   4
HETATM    4  C4  UNL     1      19.411 -14.088  21.566  1.00  0.00     0.063 C 
BRANCH   4   5
HETATM    5  N4  UNL     1      20.575 -14.416  22.284  1.00  0.00    -0.344 N 
HETATM    6  C3  UNL     1      20.820 -15.182  23.242  1.00  0.00     0.193 C 
HETATM    7  N2  UNL     1      22.191 -15.242  23.710  1.00  0.00    -0.321 N 
HETATM    8  N3  UNL     1      19.912 -16.022  23.950  1.00  0.00    -0.063 NA
ATOM      9  H2  UNL     1      22.813 -15.934  23.293  1.00  0.00     0.169 HD
ATOM     10  H4  UNL     1      21.401 -13.920  21.950  1.00  0.00     0.167 HD
BRANCH   7  11
HETATM   11  C2  UNL     1      22.708 -14.400  24.703  1.00  0.00     0.072 C 
HETATM   12  C1  UNL     1      21.904 -13.901  25.820  1.00  0.00     0.088 C 
HETATM   13  N1  UNL     1      23.947 -14.064  24.617  1.00  0.00    -0.389 N 
ATOM     14  H12 UNL     1      24.323 -13.451  25.340  1.00  0.00     0.157 HD
ATOM     15  H11 UNL     1      24.507 -14.412  23.839  1.00  0.00     0.157 HD
ENDBRANCH   7  11
ENDBRANCH   4   5
ENDBRANCH   3   4
ENDBRANCH   2   3
ENDBRANCH   1   2
BRANCH   1  16
HETATM   16  N5  UNL     1      17.523 -12.461  17.551  1.00  0.00    -0.346 N 
HETATM   17  C8  UNL     1      16.579 -12.862  16.601  1.00  0.00     0.246 C 
HETATM   18  O1  UNL     1      15.823 -13.863  16.758  1.00  0.00    -0.271 OA
ATOM     19  H5  UNL     1      18.115 -11.647  17.384  1.00  0.00     0.163 HD
BRANCH  17  20
HETATM   20  C9  UNL     1      16.418 -12.117  15.334  1.00  0.00     0.206 C 
HETATM   21  C10 UNL     1      14.965 -11.815  15.036  1.00  0.00     0.049 C 
BRANCH  20  22
HETATM   22  O2  UNL     1      17.152 -10.944  15.414  1.00  0.00    -0.387 OA
ATOM     23  H2  UNL     1      17.883 -11.002  14.809  1.00  0.00     0.210 HD
ENDBRANCH  20  22
ENDBRANCH  17  20
ENDBRANCH   1  16
BRANCH   1  24
HETATM   24  C11 UNL     1      16.602 -12.727  19.700  1.00  0.00     0.242 C 
HETATM   25  O3  UNL     1      16.431 -11.465  19.747  1.00  0.00    -0.271 OA
HETATM   26  N6  UNL     1      15.778 -13.509  20.515  1.00  0.00    -0.349 N 
HETATM   27  C12 UNL     1      14.808 -12.818  21.374  1.00  0.00     0.127 C 
HETATM   28  C21 UNL     1      15.918 -14.925  20.408  1.00  0.00     0.145 C 
HETATM   29  C13 UNL     1      13.454 -13.474  21.184  1.00  0.00     0.040 C 
HETATM   30  C14 UNL     1      13.234 -14.595  22.155  1.00  0.00     0.126 C 
HETATM   31  N7  UNL     1      14.103 -15.770  21.776  1.00  0.00    -0.359 N 
HETATM   32  C20 UNL     1      15.520 -15.569  21.726  1.00  0.00     0.145 C 
BRANCH  31  33
HETATM   33  C15 UNL     1      13.393 -16.914  21.501  1.00  0.00     0.162 C 
HETATM   34  C16 UNL     1      13.571 -18.246  21.025  1.00  0.00     0.256 C 
BRANCH  33  35
HETATM   35  O4  UNL     1      12.068 -16.726  21.769  1.00  0.00    -0.345 OA
ATOM     36  H4  UNL     1      11.555 -16.807  20.974  1.00  0.00     0.219 HD
ENDBRANCH  33  35
BRANCH  34  37
HETATM   37  N8  UNL     1      14.738 -18.908  20.655  1.00  0.00    -0.055 N 
HETATM   38  C17 UNL     1      15.436 -18.514  19.480  1.00  0.00     0.277 C 
HETATM   39  C18 UNL     1      15.656 -19.228  21.756  1.00  0.00     0.277 C 
HETATM   40  C19 UNL     1      14.229 -20.321  20.326  1.00  0.00     0.277 C 
ENDBRANCH  34  37
ENDBRANCH  31  33
ENDBRANCH   1  24
TORSDOF 12
ENDMDL
