MODEL 1
REMARK VINA RESULT: -8.745381274      0.000      0.000
REMARK  10 active torsions:
REMARK  status: ('A' for Active; 'I' for Inactive)
REMARK       I    between atoms: N1_2  and  C2_4 
REMARK    1  A    between atoms: C2_4  and  C3_6 
REMARK    2  A    between atoms: C3_6  and  N2_7 
REMARK       I    between atoms: N2_7  and  C4_9 
REMARK    3  A    between atoms: C4_9  and  C5_11 
REMARK    4  A    between atoms: C5_11  and  N3_13 
REMARK       I    between atoms: N3_13  and  C7_15 
REMARK    5  A    between atoms: C7_15  and  C8_17 
REMARK    6  A    between atoms: C8_17  and  C9_18 
REMARK    7  A    between atoms: C9_18  and  N4_19 
REMARK    8  A    between atoms: C9_18  and  C12_24 
REMARK       I    between atoms: N4_19  and  C10_21 
REMARK    9  A    between atoms: C12_24  and  C13_25 
REMARK   10  A    between atoms: C12_24  and  N8_37 
REMARK       I    between atoms: C13_25  and  N5_27 
ROOT
HETATM    1  C9  UNL     1      16.911 -14.278  19.703  1.00  0.00     0.030 C 
ENDROOT
BRANCH   1   2
HETATM    2  C8  UNL     1      16.567 -15.283  20.733  1.00  0.00     0.158 C 
BRANCH   2   3
HETATM    3  C7  UNL     1      16.869 -14.796  22.087  1.00  0.00     0.223 C 
HETATM    4  N3  UNL     1      17.883 -15.473  22.875  1.00  0.00    -0.348 N 
ATOM      5  H3  UNL     1      18.360 -16.302  22.520  1.00  0.00     0.163 HD
HETATM    6  O3  UNL     1      16.288 -13.818  22.601  1.00  0.00    -0.273 OA
BRANCH   4   7
HETATM    7  C5  UNL     1      18.196 -14.930  24.188  1.00  0.00     0.172 C 
HETATM    8  C6  UNL     1      18.096 -16.287  25.049  1.00  0.00     0.042 C 
BRANCH   7   9
HETATM    9  C4  UNL     1      19.612 -14.574  24.229  1.00  0.00     0.240 C 
HETATM   10  N2  UNL     1      20.337 -14.574  25.442  1.00  0.00    -0.351 N 
ATOM     11  H2  UNL     1      19.873 -14.827  26.314  1.00  0.00     0.163 HD
HETATM   12  O2  UNL     1      20.200 -14.239  23.146  1.00  0.00    -0.271 OA
BRANCH  10  13
HETATM   13  C3  UNL     1      21.759 -14.210  25.443  1.00  0.00     0.225 C 
BRANCH  13  14
HETATM   14  C2  UNL     1      22.554 -15.459  25.221  1.00  0.00     0.234 C 
HETATM   15  N1  UNL     1      22.608 -16.439  26.224  1.00  0.00    -0.364 N 
HETATM   16  C1  UNL     1      23.390 -17.656  25.940  1.00  0.00     0.149 C 
ATOM     17  H1  UNL     1      22.126 -16.314  27.115  1.00  0.00     0.161 HD
HETATM   18  O1  UNL     1      23.165 -15.618  24.141  1.00  0.00    -0.272 OA
ENDBRANCH  13  14
ENDBRANCH  10  13
ENDBRANCH   7   9
ENDBRANCH   4   7
ENDBRANCH   2   3
ENDBRANCH   1   2
BRANCH   1  19
HETATM   19  N4  UNL     1      18.036 -13.447  19.886  1.00  0.00    -0.332 N 
HETATM   20  C10 UNL     1      19.402 -13.731  19.943  1.00  0.00     0.217 C 
HETATM   21  C11 UNL     1      20.377 -12.578  20.135  1.00  0.00     0.117 C 
HETATM   22  O4  UNL     1      19.967 -14.843  19.850  1.00  0.00    -0.274 OA
ATOM     23  H4  UNL     1      17.812 -12.458  19.997  1.00  0.00     0.168 HD
ENDBRANCH   1  19
BRANCH   1  24
HETATM   24  C12 UNL     1      15.741 -13.685  18.968  1.00  0.00     0.225 C 
BRANCH  24  25
HETATM   25  C13 UNL     1      15.157 -12.496  19.839  1.00  0.00     0.252 C 
HETATM   26  O5  UNL     1      15.802 -11.452  19.848  1.00  0.00    -0.270 OA
HETATM   27  N5  UNL     1      14.006 -12.763  20.466  1.00  0.00    -0.310 N 
HETATM   28  C14 UNL     1      13.176 -12.526  21.324  1.00  0.00     0.124 A 
ATOM     29  H5  UNL     1      13.636 -13.578  19.977  1.00  0.00     0.170 HD
HETATM   30  C15 UNL     1      13.132 -11.528  22.295  1.00  0.00     0.076 A 
HETATM   31  N7  UNL     1      12.065 -13.316  21.581  1.00  0.00    -0.285 N 
HETATM   32  C16 UNL     1      12.025 -11.735  23.093  1.00  0.00     0.025 A 
HETATM   33  C17 UNL     1      11.621 -10.950  24.257  1.00  0.00     0.070 C 
HETATM   34  N6  UNL     1      11.405 -12.858  22.601  1.00  0.00    -0.304 N 
ATOM     35  H6  UNL     1      10.552 -13.270  22.980  1.00  0.00     0.186 HD
ATOM     36  H7  UNL     1      11.803 -14.142  21.043  1.00  0.00     0.188 HD
ENDBRANCH  24  25
BRANCH  24  37
HETATM   37  N8  UNL     1      16.090 -13.004  17.750  1.00  0.00    -0.333 N 
HETATM   38  C18 UNL     1      17.286 -12.569  17.028  1.00  0.00     0.136 C 
HETATM   39  C19 UNL     1      16.483 -13.011  15.811  1.00  0.00     0.123 C 
HETATM   40  C20 UNL     1      15.353 -12.465  16.620  1.00  0.00     0.222 C 
HETATM   41  O6  UNL     1      14.282 -11.860  16.554  1.00  0.00    -0.273 OA
ENDBRANCH  24  37
ENDBRANCH   1  24
TORSDOF 10
ENDMDL
MODEL 2
REMARK VINA RESULT: -8.615035966      2.060      3.371
REMARK  10 active torsions:
REMARK  status: ('A' for Active; 'I' for Inactive)
REMARK       I    between atoms: N1_2  and  C2_4 
REMARK    1  A    between atoms: C2_4  and  C3_6 
REMARK    2  A    between atoms: C3_6  and  N2_7 
REMARK       I    between atoms: N2_7  and  C4_9 
REMARK    3  A    between atoms: C4_9  and  C5_11 
REMARK    4  A    between atoms: C5_11  and  N3_13 
REMARK       I    between atoms: N3_13  and  C7_15 
REMARK    5  A    between atoms: C7_15  and  C8_17 
REMARK    6  A    between atoms: C8_17  and  C9_18 
REMARK    7  A    between atoms: C9_18  and  N4_19 
REMARK    8  A    between atoms: C9_18  and  C12_24 
REMARK       I    between atoms: N4_19  and  C10_21 
REMARK    9  A    between atoms: C12_24  and  C13_25 
REMARK   10  A    between atoms: C12_24  and  N8_37 
REMARK       I    between atoms: C13_25  and  N5_27 
ROOT
HETATM    1  C9  UNL     1      14.500 -14.391  21.122  1.00  0.00     0.030 C 
ENDROOT
BRANCH   1   2
HETATM    2  C8  UNL     1      15.560 -13.808  21.974  1.00  0.00     0.158 C 
BRANCH   2   3
HETATM    3  C7  UNL     1      16.806 -14.585  21.895  1.00  0.00     0.223 C 
HETATM    4  N3  UNL     1      17.980 -13.984  21.287  1.00  0.00    -0.348 N 
ATOM      5  H3  UNL     1      17.943 -13.050  20.881  1.00  0.00     0.163 HD
HETATM    6  O3  UNL     1      16.906 -15.751  22.328  1.00  0.00    -0.273 OA
BRANCH   4   7
HETATM    7  C5  UNL     1      19.211 -14.761  21.277  1.00  0.00     0.172 C 
HETATM    8  C6  UNL     1      19.945 -14.048  20.035  1.00  0.00     0.042 C 
BRANCH   7   9
HETATM    9  C4  UNL     1      20.014 -14.392  22.439  1.00  0.00     0.240 C 
HETATM   10  N2  UNL     1      19.474 -14.409  23.744  1.00  0.00    -0.351 N 
ATOM     11  H2  UNL     1      18.502 -14.683  23.891  1.00  0.00     0.163 HD
HETATM   12  O2  UNL     1      21.228 -14.031  22.267  1.00  0.00    -0.271 OA
BRANCH  10  13
HETATM   13  C3  UNL     1      20.313 -14.031  24.889  1.00  0.00     0.225 C 
BRANCH  13  14
HETATM   14  C2  UNL     1      19.875 -14.844  26.068  1.00  0.00     0.234 C 
HETATM   15  N1  UNL     1      18.950 -15.884  25.892  1.00  0.00    -0.364 N 
HETATM   16  C1  UNL     1      18.573 -16.662  27.086  1.00  0.00     0.149 C 
ATOM     17  H1  UNL     1      18.553 -16.093  24.975  1.00  0.00     0.161 HD
HETATM   18  O1  UNL     1      20.339 -14.588  27.200  1.00  0.00    -0.272 OA
ENDBRANCH  13  14
ENDBRANCH  10  13
ENDBRANCH   7   9
ENDBRANCH   4   7
ENDBRANCH   2   3
ENDBRANCH   1   2
BRANCH   1  19
HETATM   19  N4  UNL     1      14.507 -15.775  20.848  1.00  0.00    -0.332 N 
HETATM   20  C10 UNL     1      13.896 -16.853  21.491  1.00  0.00     0.217 C 
HETATM   21  C11 UNL     1      14.092 -18.248  20.915  1.00  0.00     0.117 C 
HETATM   22  O4  UNL     1      13.176 -16.839  22.514  1.00  0.00    -0.274 OA
ATOM     23  H4  UNL     1      15.058 -16.036  20.030  1.00  0.00     0.168 HD
ENDBRANCH   1  19
BRANCH   1  24
HETATM   24  C12 UNL     1      13.972 -13.487  20.044  1.00  0.00     0.225 C 
BRANCH  24  25
HETATM   25  C13 UNL     1      13.835 -12.025  20.644  1.00  0.00     0.252 C 
HETATM   26  O5  UNL     1      14.613 -11.179  20.215  1.00  0.00    -0.270 OA
HETATM   27  N5  UNL     1      12.866 -11.873  21.554  1.00  0.00    -0.310 N 
HETATM   28  C14 UNL     1      12.343 -11.260  22.466  1.00  0.00     0.124 A 
ATOM     29  H5  UNL     1      12.257 -12.678  21.409  1.00  0.00     0.170 HD
HETATM   30  C15 UNL     1      12.716 -10.076  23.097  1.00  0.00     0.076 A 
HETATM   31  N7  UNL     1      11.232 -11.700  23.171  1.00  0.00    -0.285 N 
HETATM   32  C16 UNL     1      11.845  -9.836  24.141  1.00  0.00     0.025 A 
HETATM   33  C17 UNL     1      11.894  -8.727  25.090  1.00  0.00     0.070 C 
HETATM   34  N6  UNL     1      10.949 -10.877  24.135  1.00  0.00    -0.304 N 
ATOM     35  H6  UNL     1      10.175 -10.987  24.790  1.00  0.00     0.186 HD
ATOM     36  H7  UNL     1      10.710 -12.550  22.961  1.00  0.00     0.188 HD
ENDBRANCH  24  25
BRANCH  24  37
HETATM   37  N8  UNL     1      14.886 -13.265  18.955  1.00  0.00    -0.333 N 
HETATM   38  C18 UNL     1      16.309 -13.424  18.655  1.00  0.00     0.136 C 
HETATM   39  C19 UNL     1      15.780 -13.860  17.294  1.00  0.00     0.123 C 
HETATM   40  C20 UNL     1      14.767 -12.804  17.584  1.00  0.00     0.222 C 
HETATM   41  O6  UNL     1      14.076 -11.920  17.074  1.00  0.00    -0.273 OA
ENDBRANCH  24  37
ENDBRANCH   1  24
TORSDOF 10
ENDMDL
MODEL 3
REMARK VINA RESULT: -8.526302596      2.046      3.142
REMARK  10 active torsions:
REMARK  status: ('A' for Active; 'I' for Inactive)
REMARK       I    between atoms: N1_2  and  C2_4 
REMARK    1  A    between atoms: C2_4  and  C3_6 
REMARK    2  A    between atoms: C3_6  and  N2_7 
REMARK       I    between atoms: N2_7  and  C4_9 
REMARK    3  A    between atoms: C4_9  and  C5_11 
REMARK    4  A    between atoms: C5_11  and  N3_13 
REMARK       I    between atoms: N3_13  and  C7_15 
REMARK    5  A    between atoms: C7_15  and  C8_17 
REMARK    6  A    between atoms: C8_17  and  C9_18 
REMARK    7  A    between atoms: C9_18  and  N4_19 
REMARK    8  A    between atoms: C9_18  and  C12_24 
REMARK       I    between atoms: N4_19  and  C10_21 
REMARK    9  A    between atoms: C12_24  and  C13_25 
REMARK   10  A    between atoms: C12_24  and  N8_37 
REMARK       I    between atoms: C13_25  and  N5_27 
ROOT
HETATM    1  C9  UNL     1      14.593 -14.499  21.182  1.00  0.00     0.030 C 
ENDROOT
BRANCH   1   2
HETATM    2  C8  UNL     1      15.639 -13.894  22.034  1.00  0.00     0.158 C 
BRANCH   2   3
HETATM    3  C7  UNL     1      16.915 -14.617  21.921  1.00  0.00     0.223 C 
HETATM    4  N3  UNL     1      18.146 -13.863  21.768  1.00  0.00    -0.348 N 
ATOM      5  H3  UNL     1      18.136 -12.845  21.699  1.00  0.00     0.163 HD
HETATM    6  O3  UNL     1      16.992 -15.862  21.947  1.00  0.00    -0.273 OA
BRANCH   4   7
HETATM    7  C5  UNL     1      19.395 -14.608  21.715  1.00  0.00     0.172 C 
HETATM    8  C6  UNL     1      20.207 -13.661  20.698  1.00  0.00     0.042 C 
BRANCH   7   9
HETATM    9  C4  UNL     1      20.091 -14.458  22.991  1.00  0.00     0.240 C 
HETATM   10  N2  UNL     1      21.501 -14.400  23.059  1.00  0.00    -0.351 N 
ATOM     11  H2  UNL     1      22.056 -14.464  22.206  1.00  0.00     0.163 HD
HETATM   12  O2  UNL     1      19.407 -14.394  24.068  1.00  0.00    -0.271 OA
BRANCH  10  13
HETATM   13  C3  UNL     1      22.164 -14.249  24.360  1.00  0.00     0.225 C 
BRANCH  13  14
HETATM   14  C2  UNL     1      23.062 -15.432  24.558  1.00  0.00     0.234 C 
HETATM   15  N1  UNL     1      24.366 -15.411  24.040  1.00  0.00    -0.364 N 
HETATM   16  C1  UNL     1      25.208 -16.596  24.285  1.00  0.00     0.149 C 
ATOM     17  H1  UNL     1      24.717 -14.610  23.515  1.00  0.00     0.161 HD
HETATM   18  O1  UNL     1      22.639 -16.428  25.185  1.00  0.00    -0.272 OA
ENDBRANCH  13  14
ENDBRANCH  10  13
ENDBRANCH   7   9
ENDBRANCH   4   7
ENDBRANCH   2   3
ENDBRANCH   1   2
BRANCH   1  19
HETATM   19  N4  UNL     1      14.630 -15.882  20.905  1.00  0.00    -0.332 N 
HETATM   20  C10 UNL     1      13.827 -16.939  21.339  1.00  0.00     0.217 C 
HETATM   21  C11 UNL     1      14.130 -18.340  20.827  1.00  0.00     0.117 C 
HETATM   22  O4  UNL     1      12.849 -16.900  22.117  1.00  0.00    -0.274 OA
ATOM     23  H4  UNL     1      15.381 -16.162  20.274  1.00  0.00     0.168 HD
ENDBRANCH   1  19
BRANCH   1  24
HETATM   24  C12 UNL     1      14.045 -13.606  20.104  1.00  0.00     0.225 C 
BRANCH  24  25
HETATM   25  C13 UNL     1      13.904 -12.142  20.696  1.00  0.00     0.252 C 
HETATM   26  O5  UNL     1      14.711 -11.307  20.297  1.00  0.00    -0.270 OA
HETATM   27  N5  UNL     1      12.903 -11.974  21.567  1.00  0.00    -0.310 N 
HETATM   28  C14 UNL     1      12.354 -11.353  22.458  1.00  0.00     0.124 A 
ATOM     29  H5  UNL     1      12.289 -12.771  21.400  1.00  0.00     0.170 HD
HETATM   30  C15 UNL     1      12.718 -10.173  23.101  1.00  0.00     0.076 A 
HETATM   31  N7  UNL     1      11.210 -11.775  23.120  1.00  0.00    -0.285 N 
HETATM   32  C16 UNL     1      11.811  -9.919  24.110  1.00  0.00     0.025 A 
HETATM   33  C17 UNL     1      11.838  -8.808  25.059  1.00  0.00     0.070 C 
HETATM   34  N6  UNL     1      10.901 -10.947  24.071  1.00  0.00    -0.304 N 
ATOM     35  H6  UNL     1      10.101 -11.045  24.696  1.00  0.00     0.186 HD
ATOM     36  H7  UNL     1      10.685 -12.619  22.891  1.00  0.00     0.188 HD
ENDBRANCH  24  25
BRANCH  24  37
HETATM   37  N8  UNL     1      14.944 -13.385  19.002  1.00  0.00    -0.333 N 
HETATM   38  C18 UNL     1      16.359 -13.564  18.676  1.00  0.00     0.136 C 
HETATM   39  C19 UNL     1      15.799 -13.973  17.319  1.00  0.00     0.123 C 
HETATM   40  C20 UNL     1      14.809 -12.903  17.639  1.00  0.00     0.222 C 
HETATM   41  O6  UNL     1      14.124 -12.002  17.153  1.00  0.00    -0.273 OA
ENDBRANCH  24  37
ENDBRANCH   1  24
TORSDOF 10
ENDMDL
MODEL 4
REMARK VINA RESULT: -8.462917874      1.684      2.933
REMARK  10 active torsions:
REMARK  status: ('A' for Active; 'I' for Inactive)
REMARK       I    between atoms: N1_2  and  C2_4 
REMARK    1  A    between atoms: C2_4  and  C3_6 
REMARK    2  A    between atoms: C3_6  and  N2_7 
REMARK       I    between atoms: N2_7  and  C4_9 
REMARK    3  A    between atoms: C4_9  and  C5_11 
REMARK    4  A    between atoms: C5_11  and  N3_13 
REMARK       I    between atoms: N3_13  and  C7_15 
REMARK    5  A    between atoms: C7_15  and  C8_17 
REMARK    6  A    between atoms: C8_17  and  C9_18 
REMARK    7  A    between atoms: C9_18  and  N4_19 
REMARK    8  A    between atoms: C9_18  and  C12_24 
REMARK       I    between atoms: N4_19  and  C10_21 
REMARK    9  A    between atoms: C12_24  and  C13_25 
REMARK   10  A    between atoms: C12_24  and  N8_37 
REMARK       I    between atoms: C13_25  and  N5_27 
ROOT
HETATM    1  C9  UNL     1      16.674 -14.972  20.368  1.00  0.00     0.030 C 
ENDROOT
BRANCH   1   2
HETATM    2  C8  UNL     1      17.844 -15.356  21.188  1.00  0.00     0.158 C 
BRANCH   2   3
HETATM    3  C7  UNL     1      17.642 -15.026  22.607  1.00  0.00     0.223 C 
HETATM    4  N3  UNL     1      18.514 -15.620  23.605  1.00  0.00    -0.348 N 
ATOM      5  H3  UNL     1      19.237 -16.290  23.341  1.00  0.00     0.163 HD
HETATM    6  O3  UNL     1      16.746 -14.254  23.002  1.00  0.00    -0.273 OA
BRANCH   4   7
HETATM    7  C5  UNL     1      18.322 -15.229  24.993  1.00  0.00     0.172 C 
HETATM    8  C6  UNL     1      17.970 -16.672  25.613  1.00  0.00     0.042 C 
BRANCH   7   9
HETATM    9  C4  UNL     1      19.618 -14.887  25.573  1.00  0.00     0.240 C 
HETATM   10  N2  UNL     1      20.613 -14.227  24.817  1.00  0.00    -0.351 N 
ATOM     11  H2  UNL     1      20.434 -13.979  23.844  1.00  0.00     0.163 HD
HETATM   12  O2  UNL     1      19.860 -15.207  26.786  1.00  0.00    -0.271 OA
BRANCH  10  13
HETATM   13  C3  UNL     1      21.904 -13.900  25.435  1.00  0.00     0.225 C 
BRANCH  13  14
HETATM   14  C2  UNL     1      22.958 -14.725  24.762  1.00  0.00     0.234 C 
HETATM   15  N1  UNL     1      23.303 -15.978  25.289  1.00  0.00    -0.364 N 
HETATM   16  C1  UNL     1      24.332 -16.752  24.571  1.00  0.00     0.149 C 
ATOM     17  H1  UNL     1      22.861 -16.340  26.134  1.00  0.00     0.161 HD
HETATM   18  O1  UNL     1      23.521 -14.287  23.735  1.00  0.00    -0.272 OA
ENDBRANCH  13  14
ENDBRANCH  10  13
ENDBRANCH   7   9
ENDBRANCH   4   7
ENDBRANCH   2   3
ENDBRANCH   1   2
BRANCH   1  19
HETATM   19  N4  UNL     1      15.772 -15.965  19.931  1.00  0.00    -0.332 N 
HETATM   20  C10 UNL     1      14.770 -16.670  20.601  1.00  0.00     0.217 C 
HETATM   21  C11 UNL     1      13.944 -17.680  19.816  1.00  0.00     0.117 C 
HETATM   22  O4  UNL     1      14.433 -16.586  21.802  1.00  0.00    -0.274 OA
ATOM     23  H4  UNL     1      15.869 -16.213  18.946  1.00  0.00     0.168 HD
ENDBRANCH   1  19
BRANCH   1  24
HETATM   24  C12 UNL     1      16.886 -13.797  19.456  1.00  0.00     0.225 C 
BRANCH  24  25
HETATM   25  C13 UNL     1      15.860 -12.660  19.863  1.00  0.00     0.252 C 
HETATM   26  O5  UNL     1      16.072 -11.539  19.411  1.00  0.00    -0.270 OA
HETATM   27  N5  UNL     1      14.857 -13.056  20.655  1.00  0.00    -0.310 N 
HETATM   28  C14 UNL     1      13.954 -12.819  21.436  1.00  0.00     0.124 A 
ATOM     29  H5  UNL     1      14.841 -14.070  20.551  1.00  0.00     0.170 HD
HETATM   30  C15 UNL     1      13.495 -11.611  21.955  1.00  0.00     0.076 A 
HETATM   31  N7  UNL     1      13.202 -13.789  22.083  1.00  0.00    -0.285 N 
HETATM   32  C16 UNL     1      12.502 -11.874  22.878  1.00  0.00     0.025 A 
HETATM   33  C17 UNL     1      11.777 -10.900  23.690  1.00  0.00     0.070 C 
HETATM   34  N6  UNL     1      12.367 -13.240  22.913  1.00  0.00    -0.304 N 
ATOM     35  H6  UNL     1      11.708 -13.749  23.502  1.00  0.00     0.186 HD
ATOM     36  H7  UNL     1      13.291 -14.793  21.928  1.00  0.00     0.188 HD
ENDBRANCH  24  25
BRANCH  24  37
HETATM   37  N8  UNL     1      18.146 -13.125  19.637  1.00  0.00    -0.333 N 
HETATM   38  C18 UNL     1      18.843 -12.337  20.653  1.00  0.00     0.136 C 
HETATM   39  C19 UNL     1      20.052 -13.128  20.166  1.00  0.00     0.123 C 
HETATM   40  C20 UNL     1      19.359 -12.975  18.853  1.00  0.00     0.222 C 
HETATM   41  O6  UNL     1      19.539 -12.810  17.646  1.00  0.00    -0.273 OA
ENDBRANCH  24  37
ENDBRANCH   1  24
TORSDOF 10
ENDMDL
MODEL 5
REMARK VINA RESULT: -8.313161064      2.049      3.172
REMARK  10 active torsions:
REMARK  status: ('A' for Active; 'I' for Inactive)
REMARK       I    between atoms: N1_2  and  C2_4 
REMARK    1  A    between atoms: C2_4  and  C3_6 
REMARK    2  A    between atoms: C3_6  and  N2_7 
REMARK       I    between atoms: N2_7  and  C4_9 
REMARK    3  A    between atoms: C4_9  and  C5_11 
REMARK    4  A    between atoms: C5_11  and  N3_13 
REMARK       I    between atoms: N3_13  and  C7_15 
REMARK    5  A    between atoms: C7_15  and  C8_17 
REMARK    6  A    between atoms: C8_17  and  C9_18 
REMARK    7  A    between atoms: C9_18  and  N4_19 
REMARK    8  A    between atoms: C9_18  and  C12_24 
REMARK       I    between atoms: N4_19  and  C10_21 
REMARK    9  A    between atoms: C12_24  and  C13_25 
REMARK   10  A    between atoms: C12_24  and  N8_37 
REMARK       I    between atoms: C13_25  and  N5_27 
ROOT
HETATM    1  C9  UNL     1      14.522 -14.916  19.441  1.00  0.00     0.030 C 
ENDROOT
BRANCH   1   2
HETATM    2  C8  UNL     1      15.794 -15.561  19.833  1.00  0.00     0.158 C 
BRANCH   2   3
HETATM    3  C7  UNL     1      16.003 -15.505  21.288  1.00  0.00     0.223 C 
HETATM    4  N3  UNL     1      17.269 -15.953  21.840  1.00  0.00    -0.348 N 
ATOM      5  H3  UNL     1      17.998 -16.340  21.242  1.00  0.00     0.163 HD
HETATM    6  O3  UNL     1      15.134 -15.090  22.081  1.00  0.00    -0.273 OA
BRANCH   4   7
HETATM    7  C5  UNL     1      17.462 -15.831  23.278  1.00  0.00     0.172 C 
HETATM    8  C6  UNL     1      18.083 -17.287  23.570  1.00  0.00     0.042 C 
BRANCH   7   9
HETATM    9  C4  UNL     1      18.562 -14.905  23.532  1.00  0.00     0.240 C 
HETATM   10  N2  UNL     1      19.328 -14.979  24.716  1.00  0.00    -0.351 N 
ATOM     11  H2  UNL     1      19.119 -15.689  25.417  1.00  0.00     0.163 HD
HETATM   12  O2  UNL     1      18.824 -14.000  22.669  1.00  0.00    -0.271 OA
BRANCH  10  13
HETATM   13  C3  UNL     1      20.427 -14.030  24.936  1.00  0.00     0.225 C 
BRANCH  13  14
HETATM   14  C2  UNL     1      21.691 -14.668  24.447  1.00  0.00     0.234 C 
HETATM   15  N1  UNL     1      22.386 -15.562  25.275  1.00  0.00    -0.364 N 
HETATM   16  C1  UNL     1      23.611 -16.174  24.731  1.00  0.00     0.149 C 
ATOM     17  H1  UNL     1      22.057 -15.780  26.216  1.00  0.00     0.161 HD
HETATM   18  O1  UNL     1      22.115 -14.397  23.302  1.00  0.00    -0.272 OA
ENDBRANCH  13  14
ENDBRANCH  10  13
ENDBRANCH   7   9
ENDBRANCH   4   7
ENDBRANCH   2   3
ENDBRANCH   1   2
BRANCH   1  19
HETATM   19  N4  UNL     1      13.418 -15.714  19.073  1.00  0.00    -0.332 N 
HETATM   20  C10 UNL     1      12.373 -16.256  19.823  1.00  0.00     0.217 C 
HETATM   21  C11 UNL     1      11.308 -17.071  19.102  1.00  0.00     0.117 C 
HETATM   22  O4  UNL     1      12.170 -16.161  21.053  1.00  0.00    -0.274 OA
ATOM     23  H4  UNL     1      13.376 -15.937  18.078  1.00  0.00     0.168 HD
ENDBRANCH   1  19
BRANCH   1  24
HETATM   24  C12 UNL     1      14.661 -13.589  18.749  1.00  0.00     0.225 C 
BRANCH  24  25
HETATM   25  C13 UNL     1      13.693 -12.554  19.461  1.00  0.00     0.252 C 
HETATM   26  O5  UNL     1      13.529 -11.477  18.897  1.00  0.00    -0.270 OA
HETATM   27  N5  UNL     1      13.148 -12.980  20.606  1.00  0.00    -0.310 N 
HETATM   28  C14 UNL     1      12.585 -12.772  21.664  1.00  0.00     0.124 A 
ATOM     29  H5  UNL     1      13.262 -13.993  20.576  1.00  0.00     0.170 HD
HETATM   30  C15 UNL     1      12.163 -11.581  22.250  1.00  0.00     0.076 A 
HETATM   31  N7  UNL     1      12.307 -13.747  22.611  1.00  0.00    -0.285 N 
HETATM   32  C16 UNL     1      11.655 -11.858  23.503  1.00  0.00     0.025 A 
HETATM   33  C17 UNL     1      11.142 -10.898  24.477  1.00  0.00     0.070 C 
HETATM   34  N6  UNL     1      11.772 -13.217  23.668  1.00  0.00    -0.304 N 
ATOM     35  H6  UNL     1      11.481 -13.733  24.499  1.00  0.00     0.186 HD
ATOM     36  H7  UNL     1      12.496 -14.742  22.492  1.00  0.00     0.188 HD
ENDBRANCH  24  25
BRANCH  24  37
HETATM   37  N8  UNL     1      15.940 -12.956  18.931  1.00  0.00    -0.333 N 
HETATM   38  C18 UNL     1      16.733 -12.349  20.000  1.00  0.00     0.136 C 
HETATM   39  C19 UNL     1      17.884 -13.047  19.286  1.00  0.00     0.123 C 
HETATM   40  C20 UNL     1      17.085 -12.677  18.082  1.00  0.00     0.222 C 
HETATM   41  O6  UNL     1      17.164 -12.311  16.908  1.00  0.00    -0.273 OA
ENDBRANCH  24  37
ENDBRANCH   1  24
TORSDOF 10
ENDMDL
