MODEL 1
REMARK VINA RESULT: -8.664820222      0.000      0.000
REMARK  10 active torsions:
REMARK  status: ('A' for Active; 'I' for Inactive)
REMARK       I    between atoms: N1_4  and  C4_6 
REMARK    1  A    between atoms: C4_6  and  C5_8 
REMARK    2  A    between atoms: C5_8  and  N2_9 
REMARK    3  A    between atoms: C5_8  and  C15_23 
REMARK       I    between atoms: N2_9  and  C6_11 
REMARK    4  A    between atoms: C6_11  and  C7_13 
REMARK    5  A    between atoms: C7_13  and  N3_14 
REMARK    6  A    between atoms: N3_14  and  C8_15 
REMARK    7  A    between atoms: C8_15  and  C9_16 
REMARK       I    between atoms: C15_23  and  N4_25 
REMARK    8  A    between atoms: N4_25  and  C16_27 
REMARK    9  A    between atoms: C17_32  and  N7_33 
REMARK       I    between atoms: N7_33  and  C18_35 
REMARK       I    between atoms: C18_35  and  N8_37 
REMARK   10  A    between atoms: N8_37  and  C19_38 
ROOT
HETATM    1  C1  UNL     1      16.352 -11.913  15.535  1.00  0.00     0.018 C 
HETATM    2  C2  UNL     1      16.681 -12.379  16.605  1.00  0.00    -0.072 C 
HETATM    3  C3  UNL     1      17.076 -12.971  17.885  1.00  0.00     0.155 C 
HETATM    4  N1  UNL     1      18.327 -12.932  18.164  1.00  0.00    -0.328 N 
ATOM      5  H1  UNL     1      18.959 -12.496  17.492  1.00  0.00     0.168 HD
HETATM    6  C4  UNL     1      18.871 -13.459  19.346  1.00  0.00     0.254 C 
HETATM    7  O1  UNL     1      20.130 -13.624  19.368  1.00  0.00    -0.270 OA
ENDROOT
BRANCH   6   8
HETATM    8  C5  UNL     1      18.093 -13.829  20.529  1.00  0.00     0.270 C 
BRANCH   8   9
HETATM    9  N2  UNL     1      19.002 -14.100  21.654  1.00  0.00    -0.339 N 
HETATM   10  C6  UNL     1      19.191 -15.494  22.033  1.00  0.00     0.244 C 
HETATM   11  O2  UNL     1      18.568 -16.262  21.328  1.00  0.00    -0.272 OA
ATOM     12  H2  UNL     1      19.479 -13.345  22.147  1.00  0.00     0.163 HD
BRANCH  10  13
HETATM   13  C7  UNL     1      20.058 -15.754  23.174  1.00  0.00     0.339 C 
BRANCH  13  14
HETATM   14  N3  UNL     1      19.517 -15.995  24.454  1.00  0.00    -0.055 N 
HETATM   15  C11 UNL     1      18.125 -16.456  24.301  1.00  0.00     0.264 C 
HETATM   16  C12 UNL     1      17.659 -17.311  25.414  1.00  0.00     0.195 C 
HETATM   17  O3  UNL     1      18.304 -17.050  26.623  1.00  0.00    -0.388 OA
HETATM   18  C13 UNL     1      19.651 -17.381  26.514  1.00  0.00     0.195 C 
HETATM   19  C14 UNL     1      20.213 -17.089  25.123  1.00  0.00     0.264 C 
BRANCH  14  20
HETATM   20  C8  UNL     1      19.475 -14.869  25.320  1.00  0.00     0.237 C 
BRANCH  20  21
HETATM   21  C9  UNL     1      20.623 -13.941  25.350  1.00  0.00     0.023 C 
HETATM   22  C10 UNL     1      20.995 -13.724  26.829  1.00  0.00     0.007 C 
ENDBRANCH  20  21
ENDBRANCH  14  20
ENDBRANCH  13  14
ENDBRANCH  10  13
ENDBRANCH   8   9
BRANCH   8  23
HETATM   23  C15 UNL     1      17.242 -12.701  21.044  1.00  0.00     0.268 C 
HETATM   24  O4  UNL     1      17.805 -11.568  21.218  1.00  0.00    -0.270 OA
HETATM   25  N4  UNL     1      15.915 -12.833  21.335  1.00  0.00    -0.155 N 
ATOM     26  H4  UNL     1      15.680 -13.758  21.694  1.00  0.00     0.187 HD
BRANCH  25  27
HETATM   27  C16 UNL     1      14.936 -12.088  21.263  1.00  0.00     0.714 A 
HETATM   28  N5  UNL     1      14.824 -10.903  20.572  1.00  0.00    -0.117 N 
HETATM   29  N6  UNL     1      13.619 -10.462  20.801  1.00  0.00    -0.117 N 
ATOM     30  H5  UNL     1      15.540 -10.459  19.996  1.00  0.00     0.206 HD
HETATM   31  C17 UNL     1      12.921 -11.294  21.612  1.00  0.00     0.716 A 
ATOM     32  H6  UNL     1      13.245  -9.595  20.416  1.00  0.00     0.206 HD
HETATM   33  N9  UNL     1      13.747 -12.296  21.893  1.00  0.00    -0.019 N 
ATOM     34  H9  UNL     1      13.526 -13.094  22.488  1.00  0.00     0.203 HD
BRANCH  31  35
HETATM   35  N7  UNL     1      11.707 -11.163  22.026  1.00  0.00    -0.128 N 
HETATM   36  C18 UNL     1      11.542 -11.357  23.488  1.00  0.00     0.406 C 
HETATM   37  O5  UNL     1      11.525 -12.620  23.741  1.00  0.00    -0.230 OA
HETATM   38  N8  UNL     1      11.449 -10.315  24.231  1.00  0.00    -0.397 NA
ATOM     39  H7  UNL     1      10.928 -10.946  21.403  1.00  0.00     0.190 HD
BRANCH  38  40
HETATM   40  C19 UNL     1      11.342  -9.138  25.087  1.00  0.00     0.219 C 
HETATM   41  C20 UNL     1      12.567  -8.221  24.786  1.00  0.00     0.041 C 
ENDBRANCH  38  40
ENDBRANCH  31  35
ENDBRANCH  25  27
ENDBRANCH   8  23
ENDBRANCH   6   8
TORSDOF 10
ENDMDL
MODEL 2
REMARK VINA RESULT: -8.364230929      3.297      5.730
REMARK  10 active torsions:
REMARK  status: ('A' for Active; 'I' for Inactive)
REMARK       I    between atoms: N1_4  and  C4_6 
REMARK    1  A    between atoms: C4_6  and  C5_8 
REMARK    2  A    between atoms: C5_8  and  N2_9 
REMARK    3  A    between atoms: C5_8  and  C15_23 
REMARK       I    between atoms: N2_9  and  C6_11 
REMARK    4  A    between atoms: C6_11  and  C7_13 
REMARK    5  A    between atoms: C7_13  and  N3_14 
REMARK    6  A    between atoms: N3_14  and  C8_15 
REMARK    7  A    between atoms: C8_15  and  C9_16 
REMARK       I    between atoms: C15_23  and  N4_25 
REMARK    8  A    between atoms: N4_25  and  C16_27 
REMARK    9  A    between atoms: C17_32  and  N7_33 
REMARK       I    between atoms: N7_33  and  C18_35 
REMARK       I    between atoms: C18_35  and  N8_37 
REMARK   10  A    between atoms: N8_37  and  C19_38 
ROOT
HETATM    1  C1  UNL     1      23.432 -14.136  24.480  1.00  0.00     0.018 C 
HETATM    2  C2  UNL     1      22.352 -14.518  24.079  1.00  0.00    -0.072 C 
HETATM    3  C3  UNL     1      21.057 -15.007  23.601  1.00  0.00     0.155 C 
HETATM    4  N1  UNL     1      20.058 -14.813  24.381  1.00  0.00    -0.328 N 
ATOM      5  H1  UNL     1      20.221 -14.335  25.267  1.00  0.00     0.168 HD
HETATM    6  C4  UNL     1      18.750 -15.225  24.076  1.00  0.00     0.254 C 
HETATM    7  O1  UNL     1      17.921 -15.243  25.038  1.00  0.00    -0.270 OA
ENDROOT
BRANCH   6   8
HETATM    8  C5  UNL     1      18.294 -15.633  22.747  1.00  0.00     0.270 C 
BRANCH   8   9
HETATM    9  N2  UNL     1      17.021 -16.363  22.864  1.00  0.00    -0.339 N 
HETATM   10  C6  UNL     1      16.806 -17.472  21.944  1.00  0.00     0.244 C 
HETATM   11  O2  UNL     1      17.749 -17.657  21.201  1.00  0.00    -0.272 OA
ATOM     12  H2  UNL     1      16.321 -16.104  23.559  1.00  0.00     0.163 HD
BRANCH  10  13
HETATM   13  C7  UNL     1      15.528 -18.164  22.035  1.00  0.00     0.339 C 
BRANCH  13  14
HETATM   14  N3  UNL     1      14.439 -17.785  21.223  1.00  0.00    -0.055 N 
HETATM   15  C11 UNL     1      14.431 -18.630  20.016  1.00  0.00     0.264 C 
HETATM   16  C12 UNL     1      13.089 -18.799  19.419  1.00  0.00     0.195 C 
HETATM   17  O3  UNL     1      12.231 -17.727  19.670  1.00  0.00    -0.388 OA
HETATM   18  C13 UNL     1      11.963 -17.654  21.033  1.00  0.00     0.195 C 
HETATM   19  C14 UNL     1      13.167 -18.051  21.887  1.00  0.00     0.264 C 
BRANCH  14  20
HETATM   20  C8  UNL     1      14.456 -16.438  20.770  1.00  0.00     0.237 C 
BRANCH  20  21
HETATM   21  C9  UNL     1      15.232 -16.096  19.561  1.00  0.00     0.023 C 
HETATM   22  C10 UNL     1      14.380 -15.112  18.737  1.00  0.00     0.007 C 
ENDBRANCH  20  21
ENDBRANCH  14  20
ENDBRANCH  13  14
ENDBRANCH  10  13
ENDBRANCH   8   9
BRANCH   8  23
HETATM   23  C15 UNL     1      17.936 -14.467  21.868  1.00  0.00     0.268 C 
HETATM   24  O4  UNL     1      18.544 -14.362  20.750  1.00  0.00    -0.270 OA
HETATM   25  N4  UNL     1      17.007 -13.526  22.208  1.00  0.00    -0.155 N 
ATOM     26  H4  UNL     1      16.982 -13.343  23.211  1.00  0.00     0.187 HD
BRANCH  25  27
HETATM   27  C16 UNL     1      16.194 -12.848  21.579  1.00  0.00     0.714 A 
HETATM   28  N5  UNL     1      16.447 -11.940  20.575  1.00  0.00    -0.117 N 
HETATM   29  N6  UNL     1      15.287 -11.456  20.224  1.00  0.00    -0.117 N 
ATOM     30  H5  UNL     1      17.356 -11.695  20.184  1.00  0.00     0.206 HD
HETATM   31  C17 UNL     1      14.274 -11.995  20.945  1.00  0.00     0.716 A 
ATOM     32  H6  UNL     1      15.159 -10.756  19.494  1.00  0.00     0.206 HD
HETATM   33  N9  UNL     1      14.848 -12.853  21.782  1.00  0.00    -0.019 N 
ATOM     34  H9  UNL     1      14.357 -13.425  22.469  1.00  0.00     0.203 HD
BRANCH  31  35
HETATM   35  N7  UNL     1      13.013 -11.748  20.847  1.00  0.00    -0.128 N 
HETATM   36  C18 UNL     1      12.152 -12.687  21.608  1.00  0.00     0.406 C 
HETATM   37  O5  UNL     1      12.022 -13.774  20.930  1.00  0.00    -0.230 OA
HETATM   38  N8  UNL     1      11.696 -12.305  22.745  1.00  0.00    -0.397 NA
ATOM     39  H7  UNL     1      12.640 -10.975  20.295  1.00  0.00     0.190 HD
BRANCH  38  40
HETATM   40  C19 UNL     1      11.172 -11.884  24.040  1.00  0.00     0.219 C 
HETATM   41  C20 UNL     1      11.530 -10.378  24.229  1.00  0.00     0.041 C 
ENDBRANCH  38  40
ENDBRANCH  31  35
ENDBRANCH  25  27
ENDBRANCH   8  23
ENDBRANCH   6   8
TORSDOF 10
ENDMDL
MODEL 3
REMARK VINA RESULT: -8.336069694      3.390      7.885
REMARK  10 active torsions:
REMARK  status: ('A' for Active; 'I' for Inactive)
REMARK       I    between atoms: N1_4  and  C4_6 
REMARK    1  A    between atoms: C4_6  and  C5_8 
REMARK    2  A    between atoms: C5_8  and  N2_9 
REMARK    3  A    between atoms: C5_8  and  C15_23 
REMARK       I    between atoms: N2_9  and  C6_11 
REMARK    4  A    between atoms: C6_11  and  C7_13 
REMARK    5  A    between atoms: C7_13  and  N3_14 
REMARK    6  A    between atoms: N3_14  and  C8_15 
REMARK    7  A    between atoms: C8_15  and  C9_16 
REMARK       I    between atoms: C15_23  and  N4_25 
REMARK    8  A    between atoms: N4_25  and  C16_27 
REMARK    9  A    between atoms: C17_32  and  N7_33 
REMARK       I    between atoms: N7_33  and  C18_35 
REMARK       I    between atoms: C18_35  and  N8_37 
REMARK   10  A    between atoms: N8_37  and  C19_38 
ROOT
HETATM    1  C1  UNL     1      12.051  -8.496  24.999  1.00  0.00     0.018 C 
HETATM    2  C2  UNL     1      12.385  -9.355  24.211  1.00  0.00    -0.072 C 
HETATM    3  C3  UNL     1      12.760 -10.403  23.258  1.00  0.00     0.155 C 
HETATM    4  N1  UNL     1      12.942 -10.025  22.046  1.00  0.00    -0.328 N 
ATOM      5  H1  UNL     1      12.821  -9.036  21.824  1.00  0.00     0.168 HD
HETATM    6  C4  UNL     1      13.299 -10.903  21.010  1.00  0.00     0.254 C 
HETATM    7  O1  UNL     1      13.159 -10.469  19.824  1.00  0.00    -0.270 OA
ENDROOT
BRANCH   6   8
HETATM    8  C5  UNL     1      13.805 -12.261  21.206  1.00  0.00     0.270 C 
BRANCH   8   9
HETATM    9  N2  UNL     1      13.082 -13.191  20.324  1.00  0.00    -0.339 N 
HETATM   10  C6  UNL     1      12.687 -14.473  20.892  1.00  0.00     0.244 C 
HETATM   11  O2  UNL     1      13.001 -14.586  22.060  1.00  0.00    -0.272 OA
ATOM     12  H2  UNL     1      12.866 -12.948  19.357  1.00  0.00     0.163 HD
BRANCH  10  13
HETATM   13  C7  UNL     1      12.009 -15.406  20.004  1.00  0.00     0.339 C 
BRANCH  13  14
HETATM   14  N3  UNL     1      12.651 -16.580  19.560  1.00  0.00    -0.055 N 
HETATM   15  C11 UNL     1      13.461 -17.124  20.666  1.00  0.00     0.264 C 
HETATM   16  C12 UNL     1      13.664 -18.587  20.589  1.00  0.00     0.195 C 
HETATM   17  O3  UNL     1      13.622 -19.085  19.286  1.00  0.00    -0.388 OA
HETATM   18  C13 UNL     1      12.345 -18.915  18.762  1.00  0.00     0.195 C 
HETATM   19  C14 UNL     1      11.683 -17.625  19.244  1.00  0.00     0.264 C 
BRANCH  14  20
HETATM   20  C8  UNL     1      13.535 -16.414  18.460  1.00  0.00     0.237 C 
BRANCH  20  21
HETATM   21  C9  UNL     1      14.895 -15.891  18.702  1.00  0.00     0.023 C 
HETATM   22  C10 UNL     1      15.107 -14.710  17.736  1.00  0.00     0.007 C 
ENDBRANCH  20  21
ENDBRANCH  14  20
ENDBRANCH  13  14
ENDBRANCH  10  13
ENDBRANCH   8   9
BRANCH   8  23
HETATM   23  C15 UNL     1      15.235 -12.421  20.768  1.00  0.00     0.268 C 
HETATM   24  O4  UNL     1      15.744 -11.487  20.060  1.00  0.00    -0.270 OA
HETATM   25  N4  UNL     1      16.002 -13.505  21.083  1.00  0.00    -0.155 N 
ATOM     26  H4  UNL     1      15.460 -14.368  21.135  1.00  0.00     0.187 HD
BRANCH  25  27
HETATM   27  C16 UNL     1      17.198 -13.679  21.319  1.00  0.00     0.714 A 
HETATM   28  N5  UNL     1      18.260 -12.900  20.918  1.00  0.00    -0.117 N 
HETATM   29  N6  UNL     1      19.331 -13.481  21.384  1.00  0.00    -0.117 N 
ATOM     30  H5  UNL     1      18.219 -12.042  20.368  1.00  0.00     0.206 HD
HETATM   31  C17 UNL     1      19.036 -14.608  22.075  1.00  0.00     0.716 A 
ATOM     32  H6  UNL     1      20.278 -13.127  21.246  1.00  0.00     0.206 HD
HETATM   33  N9  UNL     1      17.713 -14.722  22.025  1.00  0.00    -0.019 N 
ATOM     34  H9  UNL     1      17.168 -15.473  22.449  1.00  0.00     0.203 HD
BRANCH  31  35
HETATM   35  N7  UNL     1      19.852 -15.409  22.670  1.00  0.00    -0.128 N 
HETATM   36  C18 UNL     1      20.761 -14.741  23.634  1.00  0.00     0.406 C 
HETATM   37  O5  UNL     1      21.728 -14.192  22.982  1.00  0.00    -0.230 OA
HETATM   38  N8  UNL     1      20.473 -14.802  24.882  1.00  0.00    -0.397 NA
ATOM     39  H7  UNL     1      19.871 -16.414  22.494  1.00  0.00     0.190 HD
BRANCH  38  40
HETATM   40  C19 UNL     1      20.156 -14.864  26.306  1.00  0.00     0.219 C 
HETATM   41  C20 UNL     1      20.997 -13.765  27.026  1.00  0.00     0.041 C 
ENDBRANCH  38  40
ENDBRANCH  31  35
ENDBRANCH  25  27
ENDBRANCH   8  23
ENDBRANCH   6   8
TORSDOF 10
ENDMDL
MODEL 4
REMARK VINA RESULT: -8.284469492      3.607      8.036
REMARK  10 active torsions:
REMARK  status: ('A' for Active; 'I' for Inactive)
REMARK       I    between atoms: N1_4  and  C4_6 
REMARK    1  A    between atoms: C4_6  and  C5_8 
REMARK    2  A    between atoms: C5_8  and  N2_9 
REMARK    3  A    between atoms: C5_8  and  C15_23 
REMARK       I    between atoms: N2_9  and  C6_11 
REMARK    4  A    between atoms: C6_11  and  C7_13 
REMARK    5  A    between atoms: C7_13  and  N3_14 
REMARK    6  A    between atoms: N3_14  and  C8_15 
REMARK    7  A    between atoms: C8_15  and  C9_16 
REMARK       I    between atoms: C15_23  and  N4_25 
REMARK    8  A    between atoms: N4_25  and  C16_27 
REMARK    9  A    between atoms: C17_32  and  N7_33 
REMARK       I    between atoms: N7_33  and  C18_35 
REMARK       I    between atoms: C18_35  and  N8_37 
REMARK   10  A    between atoms: N8_37  and  C19_38 
ROOT
HETATM    1  C1  UNL     1      12.067  -8.437  24.945  1.00  0.00     0.018 C 
HETATM    2  C2  UNL     1      12.421  -9.315  24.187  1.00  0.00    -0.072 C 
HETATM    3  C3  UNL     1      12.821 -10.386  23.272  1.00  0.00     0.155 C 
HETATM    4  N1  UNL     1      13.002 -10.045  22.049  1.00  0.00    -0.328 N 
ATOM      5  H1  UNL     1      12.864  -9.067  21.793  1.00  0.00     0.168 HD
HETATM    6  C4  UNL     1      13.381 -10.950  21.044  1.00  0.00     0.254 C 
HETATM    7  O1  UNL     1      13.239 -10.558  19.844  1.00  0.00    -0.270 OA
ENDROOT
BRANCH   6   8
HETATM    8  C5  UNL     1      13.911 -12.291  21.288  1.00  0.00     0.270 C 
BRANCH   8   9
HETATM    9  N2  UNL     1      13.157 -13.274  20.493  1.00  0.00    -0.339 N 
HETATM   10  C6  UNL     1      12.786 -14.518  21.154  1.00  0.00     0.244 C 
HETATM   11  O2  UNL     1      13.144 -14.559  22.314  1.00  0.00    -0.272 OA
ATOM     12  H2  UNL     1      12.904 -13.091  19.521  1.00  0.00     0.163 HD
BRANCH  10  13
HETATM   13  C7  UNL     1      12.076 -15.504  20.351  1.00  0.00     0.339 C 
BRANCH  13  14
HETATM   14  N3  UNL     1      12.654 -16.758  20.067  1.00  0.00    -0.055 N 
HETATM   15  C11 UNL     1      14.001 -16.542  19.507  1.00  0.00     0.264 C 
HETATM   16  C12 UNL     1      14.929 -17.669  19.744  1.00  0.00     0.195 C 
HETATM   17  O3  UNL     1      14.286 -18.901  19.872  1.00  0.00    -0.388 OA
HETATM   18  C13 UNL     1      13.494 -18.897  21.015  1.00  0.00     0.195 C 
HETATM   19  C14 UNL     1      12.865 -17.531  21.286  1.00  0.00     0.264 C 
BRANCH  14  20
HETATM   20  C8  UNL     1      11.950 -17.555  19.124  1.00  0.00     0.237 C 
BRANCH  20  21
HETATM   21  C9  UNL     1      10.511 -17.812  19.331  1.00  0.00     0.023 C 
HETATM   22  C10 UNL     1       9.791 -17.457  18.017  1.00  0.00     0.007 C 
ENDBRANCH  20  21
ENDBRANCH  14  20
ENDBRANCH  13  14
ENDBRANCH  10  13
ENDBRANCH   8   9
BRANCH   8  23
HETATM   23  C15 UNL     1      15.320 -12.463  20.789  1.00  0.00     0.268 C 
HETATM   24  O4  UNL     1      15.819 -11.516  20.092  1.00  0.00    -0.270 OA
HETATM   25  N4  UNL     1      16.077 -13.570  21.040  1.00  0.00    -0.155 N 
ATOM     26  H4  UNL     1      15.522 -14.424  21.086  1.00  0.00     0.187 HD
BRANCH  25  27
HETATM   27  C16 UNL     1      17.278 -13.773  21.223  1.00  0.00     0.714 A 
HETATM   28  N5  UNL     1      18.344 -13.110  20.656  1.00  0.00    -0.117 N 
HETATM   29  N6  UNL     1      19.417 -13.678  21.131  1.00  0.00    -0.117 N 
ATOM     30  H5  UNL     1      18.302 -12.332  19.998  1.00  0.00     0.206 HD
HETATM   31  C17 UNL     1      19.121 -14.687  21.985  1.00  0.00     0.716 A 
ATOM     32  H6  UNL     1      20.367 -13.396  20.888  1.00  0.00     0.206 HD
HETATM   33  N9  UNL     1      17.794 -14.738  22.032  1.00  0.00    -0.019 N 
ATOM     34  H9  UNL     1      17.248 -15.397  22.587  1.00  0.00     0.203 HD
BRANCH  31  35
HETATM   35  N7  UNL     1      19.940 -15.443  22.632  1.00  0.00    -0.128 N 
HETATM   36  C18 UNL     1      20.787 -14.718  23.613  1.00  0.00     0.406 C 
HETATM   37  O5  UNL     1      21.758 -14.152  22.985  1.00  0.00    -0.230 OA
HETATM   38  N8  UNL     1      20.451 -14.759  24.850  1.00  0.00    -0.397 NA
ATOM     39  H7  UNL     1      20.001 -16.451  22.484  1.00  0.00     0.190 HD
BRANCH  38  40
HETATM   40  C19 UNL     1      20.080 -14.796  26.261  1.00  0.00     0.219 C 
HETATM   41  C20 UNL     1      21.018 -13.810  27.023  1.00  0.00     0.041 C 
ENDBRANCH  38  40
ENDBRANCH  31  35
ENDBRANCH  25  27
ENDBRANCH   8  23
ENDBRANCH   6   8
TORSDOF 10
ENDMDL
MODEL 5
REMARK VINA RESULT: -8.227887191      3.647      7.883
REMARK  10 active torsions:
REMARK  status: ('A' for Active; 'I' for Inactive)
REMARK       I    between atoms: N1_4  and  C4_6 
REMARK    1  A    between atoms: C4_6  and  C5_8 
REMARK    2  A    between atoms: C5_8  and  N2_9 
REMARK    3  A    between atoms: C5_8  and  C15_23 
REMARK       I    between atoms: N2_9  and  C6_11 
REMARK    4  A    between atoms: C6_11  and  C7_13 
REMARK    5  A    between atoms: C7_13  and  N3_14 
REMARK    6  A    between atoms: N3_14  and  C8_15 
REMARK    7  A    between atoms: C8_15  and  C9_16 
REMARK       I    between atoms: C15_23  and  N4_25 
REMARK    8  A    between atoms: N4_25  and  C16_27 
REMARK    9  A    between atoms: C17_32  and  N7_33 
REMARK       I    between atoms: N7_33  and  C18_35 
REMARK       I    between atoms: C18_35  and  N8_37 
REMARK   10  A    between atoms: N8_37  and  C19_38 
ROOT
HETATM    1  C1  UNL     1      11.823  -9.172  24.616  1.00  0.00     0.018 C 
HETATM    2  C2  UNL     1      12.282  -9.981  23.838  1.00  0.00    -0.072 C 
HETATM    3  C3  UNL     1      12.809 -10.972  22.897  1.00  0.00     0.155 C 
HETATM    4  N1  UNL     1      12.940 -10.583  21.682  1.00  0.00    -0.328 N 
ATOM      5  H1  UNL     1      12.679  -9.624  21.449  1.00  0.00     0.168 HD
HETATM    6  C4  UNL     1      13.425 -11.410  20.655  1.00  0.00     0.254 C 
HETATM    7  O1  UNL     1      13.230 -11.012  19.465  1.00  0.00    -0.270 OA
ENDROOT
BRANCH   6   8
HETATM    8  C5  UNL     1      14.122 -12.678  20.867  1.00  0.00     0.270 C 
BRANCH   8   9
HETATM    9  N2  UNL     1      13.491 -13.731  20.053  1.00  0.00    -0.339 N 
HETATM   10  C6  UNL     1      12.570 -14.631  20.733  1.00  0.00     0.244 C 
HETATM   11  O2  UNL     1      12.431 -14.363  21.909  1.00  0.00    -0.272 OA
ATOM     12  H2  UNL     1      13.690 -13.825  19.057  1.00  0.00     0.163 HD
BRANCH  10  13
HETATM   13  C7  UNL     1      11.981 -15.696  19.933  1.00  0.00     0.339 C 
BRANCH  13  14
HETATM   14  N3  UNL     1      12.384 -17.037  20.103  1.00  0.00    -0.055 N 
HETATM   15  C11 UNL     1      13.525 -17.074  21.036  1.00  0.00     0.264 C 
HETATM   16  C12 UNL     1      13.644 -18.348  21.777  1.00  0.00     0.195 C 
HETATM   17  O3  UNL     1      13.117 -19.442  21.088  1.00  0.00    -0.388 OA
HETATM   18  C13 UNL     1      11.742 -19.286  20.946  1.00  0.00     0.195 C 
HETATM   19  C14 UNL     1      11.338 -17.826  20.744  1.00  0.00     0.264 C 
BRANCH  14  20
HETATM   20  C8  UNL     1      12.811 -17.700  18.921  1.00  0.00     0.237 C 
BRANCH  20  21
HETATM   21  C9  UNL     1      13.932 -17.133  18.143  1.00  0.00     0.023 C 
HETATM   22  C10 UNL     1      14.798 -18.314  17.666  1.00  0.00     0.007 C 
ENDBRANCH  20  21
ENDBRANCH  14  20
ENDBRANCH  13  14
ENDBRANCH  10  13
ENDBRANCH   8   9
BRANCH   8  23
HETATM   23  C15 UNL     1      15.537 -12.660  20.359  1.00  0.00     0.268 C 
HETATM   24  O4  UNL     1      16.013 -11.538  19.975  1.00  0.00    -0.270 OA
HETATM   25  N4  UNL     1      16.324 -13.773  20.285  1.00  0.00    -0.155 N 
ATOM     26  H4  UNL     1      15.793 -14.617  20.072  1.00  0.00     0.187 HD
BRANCH  25  27
HETATM   27  C16 UNL     1      17.530 -13.989  20.417  1.00  0.00     0.714 A 
HETATM   28  N5  UNL     1      18.576 -13.366  19.774  1.00  0.00    -0.117 N 
HETATM   29  N6  UNL     1      19.663 -13.935  20.217  1.00  0.00    -0.117 N 
ATOM     30  H5  UNL     1      18.514 -12.612  19.090  1.00  0.00     0.206 HD
HETATM   31  C17 UNL     1      19.394 -14.907  21.121  1.00  0.00     0.716 A 
ATOM     32  H6  UNL     1      20.603 -13.678  19.918  1.00  0.00     0.206 HD
HETATM   33  N9  UNL     1      18.070 -14.934  21.235  1.00  0.00    -0.019 N 
ATOM     34  H9  UNL     1      17.542 -15.562  21.840  1.00  0.00     0.203 HD
BRANCH  31  35
HETATM   35  N7  UNL     1      20.232 -15.653  21.756  1.00  0.00    -0.128 N 
HETATM   36  C18 UNL     1      20.632 -15.121  23.082  1.00  0.00     0.406 C 
HETATM   37  O5  UNL     1      21.526 -14.209  22.912  1.00  0.00    -0.230 OA
HETATM   38  N8  UNL     1      20.071 -15.611  24.126  1.00  0.00    -0.397 NA
ATOM     39  H7  UNL     1      20.589 -16.532  21.379  1.00  0.00     0.190 HD
BRANCH  38  40
HETATM   40  C19 UNL     1      19.439 -16.159  25.323  1.00  0.00     0.219 C 
HETATM   41  C20 UNL     1      19.929 -15.319  26.543  1.00  0.00     0.041 C 
ENDBRANCH  38  40
ENDBRANCH  31  35
ENDBRANCH  25  27
ENDBRANCH   8  23
ENDBRANCH   6   8
TORSDOF 10
ENDMDL
