MODEL 1
REMARK VINA RESULT: -8.939277975      0.000      0.000
REMARK  12 active torsions:
REMARK  status: ('A' for Active; 'I' for Inactive)
REMARK    1  A    between atoms: C2_2  and  N1_3 
REMARK    2  A    between atoms: N1_3  and  C3_4 
REMARK    3  A    between atoms: C3_4  and  C4_5 
REMARK    4  A    between atoms: C4_5  and  N2_6 
REMARK    5  A    between atoms: N2_6  and  C5_8 
REMARK    6  A    between atoms: C5_8  and  O1_9 
REMARK    7  A    between atoms: C6_11  and  N3_12 
REMARK    8  A    between atoms: N4_15  and  C9_16 
REMARK    9  A    between atoms: C9_16  and  C10_17 
REMARK   10  A    between atoms: C10_17  and  C11_18 
REMARK   11  A    between atoms: C13_22  and  N6_23 
REMARK   12  A    between atoms: C15_29  and  N9_30 
ROOT
HETATM    1  N6  UNL     1      10.977 -10.225  24.664  1.00  0.00    -0.126 N 
ATOM      2  H6  UNL     1      10.141 -10.459  25.200  1.00  0.00     0.197 HD
HETATM    3  C14 UNL     1      11.687  -9.072  24.977  1.00  0.00     0.196 C 
HETATM    4  N7  UNL     1      12.274  -8.131  25.247  1.00  0.00    -0.171 NA
ENDROOT
BRANCH   1   5
HETATM    5  C13 UNL     1      11.360 -11.015  23.695  1.00  0.00     0.692 A 
HETATM    6  N5  UNL     1      11.144 -12.333  23.842  1.00  0.00    -0.200 N 
HETATM    7  C12 UNL     1      11.493 -13.219  22.920  1.00  0.00     0.117 A 
ATOM      8  H5  UNL     1      10.695 -12.664  24.695  1.00  0.00     0.183 HD
HETATM    9  C11 UNL     1      12.102 -12.786  21.757  1.00  0.00     0.004 A 
HETATM   10  C15 UNL     1      12.319 -11.434  21.620  1.00  0.00     0.122 A 
HETATM   11  N8  UNL     1      11.944 -10.553  22.593  1.00  0.00    -0.176 N 
ATOM     12  H8  UNL     1      12.110  -9.553  22.476  1.00  0.00     0.186 HD
BRANCH   9  13
HETATM   13  C10 UNL     1      12.468 -13.784  20.713  1.00  0.00     0.074 C 
BRANCH  13  14
HETATM   14  C9  UNL     1      13.556 -14.675  21.211  1.00  0.00     0.270 C 
BRANCH  14  15
HETATM   15  N4  UNL     1      14.868 -14.215  20.946  1.00  0.00     0.019 N 
HETATM   16  C8  UNL     1      15.845 -15.315  20.880  1.00  0.00     0.294 C 
HETATM   17  C7  UNL     1      17.046 -14.829  20.074  1.00  0.00     0.285 C 
HETATM   18  N3  UNL     1      17.292 -13.458  20.437  1.00  0.00     0.043 N 
HETATM   19  C17 UNL     1      16.916 -13.231  21.796  1.00  0.00     0.285 C 
HETATM   20  C18 UNL     1      16.209 -12.749  19.681  1.00  0.00     0.444 C 
HETATM   21  C16 UNL     1      15.386 -13.292  21.949  1.00  0.00     0.294 C 
HETATM   22  N10 UNL     1      14.989 -13.479  19.730  1.00  0.00    -0.160 N 
HETATM   23  O2  UNL     1      16.419 -11.681  19.115  1.00  0.00    -0.237 OA
ATOM     24  H10 UNL     1      14.289 -13.477  18.989  1.00  0.00     0.199 HD
BRANCH  18  25
HETATM   25  C6  UNL     1      18.472 -12.867  19.966  1.00  0.00     0.269 C 
HETATM   26  C5  UNL     1      19.751 -13.338  20.427  1.00  0.00     0.160 C 
BRANCH  26  27
HETATM   27  N2  UNL     1      20.097 -14.350  21.328  1.00  0.00    -0.368 N 
ATOM     28  H2  UNL     1      20.331 -15.268  20.948  1.00  0.00     0.161 HD
BRANCH  27  29
HETATM   29  C4  UNL     1      20.144 -14.178  22.780  1.00  0.00     0.150 C 
BRANCH  29  30
HETATM   30  C3  UNL     1      21.445 -14.496  23.407  1.00  0.00     0.257 C 
BRANCH  30  31
HETATM   31  N1  UNL     1      21.328 -14.958  24.776  1.00  0.00    -0.066 N 
HETATM   32  C19 UNL     1      19.984 -15.237  25.165  1.00  0.00     0.237 C 
HETATM   33  C20 UNL     1      19.934 -15.036  26.665  1.00  0.00     0.029 C 
HETATM   34  C21 UNL     1      20.963 -13.955  26.912  1.00  0.00     0.029 C 
HETATM   35  C22 UNL     1      21.752 -13.875  25.639  1.00  0.00     0.237 C 
BRANCH  31  36
HETATM   36  C2  UNL     1      22.124 -16.143  25.018  1.00  0.00     0.233 C 
HETATM   37  C1  UNL     1      21.715 -17.328  24.212  1.00  0.00     0.035 C 
ENDBRANCH  31  36
ENDBRANCH  30  31
ENDBRANCH  29  30
ENDBRANCH  27  29
ENDBRANCH  26  27
BRANCH  26  38
HETATM   38  O1  UNL     1      20.797 -12.715  19.920  1.00  0.00    -0.345 OA
ATOM     39  H1  UNL     1      21.001 -12.988  19.033  1.00  0.00     0.219 HD
ENDBRANCH  26  38
ENDBRANCH  18  25
ENDBRANCH  14  15
ENDBRANCH  13  14
ENDBRANCH   9  13
BRANCH  10  40
HETATM   40  N9  UNL     1      12.900 -10.957  20.579  1.00  0.00    -0.385 N 
ATOM     41  H92 UNL     1      13.334 -11.619  19.936  1.00  0.00     0.157 HD
ATOM     42  H91 UNL     1      12.913  -9.954  20.395  1.00  0.00     0.157 HD
ENDBRANCH  10  40
ENDBRANCH   1   5
TORSDOF 12
ENDMDL
MODEL 2
REMARK VINA RESULT: -8.712136271      0.672      1.242
REMARK  12 active torsions:
REMARK  status: ('A' for Active; 'I' for Inactive)
REMARK    1  A    between atoms: C2_2  and  N1_3 
REMARK    2  A    between atoms: N1_3  and  C3_4 
REMARK    3  A    between atoms: C3_4  and  C4_5 
REMARK    4  A    between atoms: C4_5  and  N2_6 
REMARK    5  A    between atoms: N2_6  and  C5_8 
REMARK    6  A    between atoms: C5_8  and  O1_9 
REMARK    7  A    between atoms: C6_11  and  N3_12 
REMARK    8  A    between atoms: N4_15  and  C9_16 
REMARK    9  A    between atoms: C9_16  and  C10_17 
REMARK   10  A    between atoms: C10_17  and  C11_18 
REMARK   11  A    between atoms: C13_22  and  N6_23 
REMARK   12  A    between atoms: C15_29  and  N9_30 
ROOT
HETATM    1  N6  UNL     1      11.008 -10.285  24.725  1.00  0.00    -0.126 N 
ATOM      2  H6  UNL     1      10.218 -10.561  25.309  1.00  0.00     0.197 HD
HETATM    3  C14 UNL     1      11.665  -9.090  24.987  1.00  0.00     0.196 C 
HETATM    4  N7  UNL     1      12.210  -8.112  25.215  1.00  0.00    -0.171 NA
ENDROOT
BRANCH   1   5
HETATM    5  C13 UNL     1      11.381 -11.062  23.742  1.00  0.00     0.692 A 
HETATM    6  N5  UNL     1      11.148 -12.380  23.864  1.00  0.00    -0.200 N 
HETATM    7  C12 UNL     1      11.485 -13.254  22.928  1.00  0.00     0.117 A 
ATOM      8  H5  UNL     1      10.693 -12.720  24.711  1.00  0.00     0.183 HD
HETATM    9  C11 UNL     1      12.102 -12.809  21.773  1.00  0.00     0.004 A 
HETATM   10  C15 UNL     1      12.338 -11.458  21.661  1.00  0.00     0.122 A 
HETATM   11  N8  UNL     1      11.974 -10.589  22.649  1.00  0.00    -0.176 N 
ATOM     12  H8  UNL     1      12.153  -9.590  22.550  1.00  0.00     0.186 HD
BRANCH   9  13
HETATM   13  C10 UNL     1      12.456 -13.793  20.712  1.00  0.00     0.074 C 
BRANCH  13  14
HETATM   14  C9  UNL     1      13.530 -14.708  21.196  1.00  0.00     0.270 C 
BRANCH  14  15
HETATM   15  N4  UNL     1      14.849 -14.256  20.952  1.00  0.00     0.019 N 
HETATM   16  C8  UNL     1      15.814 -15.366  20.862  1.00  0.00     0.294 C 
HETATM   17  C7  UNL     1      17.027 -14.870  20.078  1.00  0.00     0.285 C 
HETATM   18  N3  UNL     1      17.285 -13.514  20.482  1.00  0.00     0.043 N 
HETATM   19  C17 UNL     1      16.903 -13.321  21.844  1.00  0.00     0.285 C 
HETATM   20  C18 UNL     1      16.216 -12.771  19.739  1.00  0.00     0.444 C 
HETATM   21  C16 UNL     1      15.371 -13.367  21.984  1.00  0.00     0.294 C 
HETATM   22  N10 UNL     1      14.987 -13.488  19.759  1.00  0.00    -0.160 N 
HETATM   23  O2  UNL     1      16.442 -11.689  19.204  1.00  0.00    -0.237 OA
ATOM     24  H10 UNL     1      14.292 -13.456  19.013  1.00  0.00     0.199 HD
BRANCH  18  25
HETATM   25  C6  UNL     1      18.475 -12.923  20.035  1.00  0.00     0.269 C 
HETATM   26  C5  UNL     1      19.743 -13.377  20.542  1.00  0.00     0.160 C 
BRANCH  26  27
HETATM   27  N2  UNL     1      20.067 -14.372  21.471  1.00  0.00    -0.368 N 
ATOM     28  H2  UNL     1      20.318 -15.294  21.115  1.00  0.00     0.161 HD
BRANCH  27  29
HETATM   29  C4  UNL     1      20.070 -14.174  22.920  1.00  0.00     0.150 C 
BRANCH  29  30
HETATM   30  C3  UNL     1      21.030 -15.017  23.667  1.00  0.00     0.257 C 
BRANCH  30  31
HETATM   31  N1  UNL     1      20.527 -15.467  24.949  1.00  0.00    -0.066 N 
HETATM   32  C19 UNL     1      20.439 -16.888  25.052  1.00  0.00     0.237 C 
HETATM   33  C20 UNL     1      19.341 -17.164  26.058  1.00  0.00     0.029 C 
HETATM   34  C21 UNL     1      18.393 -15.999  25.877  1.00  0.00     0.029 C 
HETATM   35  C22 UNL     1      19.164 -14.996  25.074  1.00  0.00     0.237 C 
BRANCH  31  36
HETATM   36  C2  UNL     1      21.336 -14.984  26.048  1.00  0.00     0.233 C 
HETATM   37  C1  UNL     1      21.053 -13.575  26.441  1.00  0.00     0.035 C 
ENDBRANCH  31  36
ENDBRANCH  30  31
ENDBRANCH  29  30
ENDBRANCH  27  29
ENDBRANCH  26  27
BRANCH  26  38
HETATM   38  O1  UNL     1      20.800 -12.757  20.056  1.00  0.00    -0.345 OA
ATOM     39  H1  UNL     1      21.512 -13.347  19.838  1.00  0.00     0.219 HD
ENDBRANCH  26  38
ENDBRANCH  18  25
ENDBRANCH  14  15
ENDBRANCH  13  14
ENDBRANCH   9  13
BRANCH  10  40
HETATM   40  N9  UNL     1      12.927 -10.970  20.629  1.00  0.00    -0.385 N 
ATOM     41  H92 UNL     1      13.034  -9.957  20.582  1.00  0.00     0.157 HD
ATOM     42  H91 UNL     1      13.289 -11.576  19.893  1.00  0.00     0.157 HD
ENDBRANCH  10  40
ENDBRANCH   1   5
TORSDOF 12
ENDMDL
MODEL 3
REMARK VINA RESULT: -8.463005372      1.752      2.684
REMARK  12 active torsions:
REMARK  status: ('A' for Active; 'I' for Inactive)
REMARK    1  A    between atoms: C2_2  and  N1_3 
REMARK    2  A    between atoms: N1_3  and  C3_4 
REMARK    3  A    between atoms: C3_4  and  C4_5 
REMARK    4  A    between atoms: C4_5  and  N2_6 
REMARK    5  A    between atoms: N2_6  and  C5_8 
REMARK    6  A    between atoms: C5_8  and  O1_9 
REMARK    7  A    between atoms: C6_11  and  N3_12 
REMARK    8  A    between atoms: N4_15  and  C9_16 
REMARK    9  A    between atoms: C9_16  and  C10_17 
REMARK   10  A    between atoms: C10_17  and  C11_18 
REMARK   11  A    between atoms: C13_22  and  N6_23 
REMARK   12  A    between atoms: C15_29  and  N9_30 
ROOT
HETATM    1  N6  UNL     1      11.000 -10.607  24.462  1.00  0.00    -0.126 N 
ATOM      2  H6  UNL     1      10.279 -11.084  25.004  1.00  0.00     0.197 HD
HETATM    3  C14 UNL     1      11.368  -9.313  24.809  1.00  0.00     0.196 C 
HETATM    4  N7  UNL     1      11.676  -8.254  25.106  1.00  0.00    -0.171 NA
ENDROOT
BRANCH   1   5
HETATM    5  C13 UNL     1      11.561 -11.224  23.455  1.00  0.00     0.692 A 
HETATM    6  N5  UNL     1      12.168 -10.473  22.521  1.00  0.00    -0.200 N 
HETATM    7  C12 UNL     1      12.766 -10.997  21.461  1.00  0.00     0.117 A 
ATOM      8  H5  UNL     1      12.167  -9.459  22.632  1.00  0.00     0.183 HD
HETATM    9  C11 UNL     1      12.775 -12.370  21.297  1.00  0.00     0.004 A 
HETATM   10  C15 UNL     1      12.149 -13.128  22.260  1.00  0.00     0.122 A 
HETATM   11  N8  UNL     1      11.544 -12.549  23.337  1.00  0.00    -0.176 N 
ATOM     12  H8  UNL     1      11.085 -13.125  24.044  1.00  0.00     0.186 HD
BRANCH   9  13
HETATM   13  C10 UNL     1      13.473 -12.956  20.118  1.00  0.00     0.074 C 
BRANCH  13  14
HETATM   14  C9  UNL     1      14.862 -12.421  20.024  1.00  0.00     0.270 C 
BRANCH  14  15
HETATM   15  N4  UNL     1      15.879 -13.349  20.353  1.00  0.00     0.019 N 
HETATM   16  C8  UNL     1      16.652 -12.935  21.537  1.00  0.00     0.294 C 
HETATM   17  C7  UNL     1      17.303 -14.182  22.131  1.00  0.00     0.285 C 
HETATM   18  N3  UNL     1      17.746 -15.008  21.039  1.00  0.00     0.043 N 
HETATM   19  C17 UNL     1      18.110 -14.198  19.922  1.00  0.00     0.285 C 
HETATM   20  C18 UNL     1      16.455 -15.620  20.586  1.00  0.00     0.444 C 
HETATM   21  C16 UNL     1      16.862 -13.551  19.295  1.00  0.00     0.294 C 
HETATM   22  N10 UNL     1      15.400 -14.667  20.611  1.00  0.00    -0.160 N 
HETATM   23  O2  UNL     1      16.389 -16.800  20.252  1.00  0.00    -0.237 OA
ATOM     24  H10 UNL     1      14.422 -14.897  20.791  1.00  0.00     0.199 HD
BRANCH  18  25
HETATM   25  C6  UNL     1      18.550 -16.113  21.351  1.00  0.00     0.269 C 
HETATM   26  C5  UNL     1      19.867 -15.918  21.895  1.00  0.00     0.160 C 
BRANCH  26  27
HETATM   27  N2  UNL     1      20.580 -14.755  22.205  1.00  0.00    -0.368 N 
ATOM     28  H2  UNL     1      20.684 -14.050  21.474  1.00  0.00     0.161 HD
BRANCH  27  29
HETATM   29  C4  UNL     1      21.186 -14.484  23.508  1.00  0.00     0.150 C 
BRANCH  29  30
HETATM   30  C3  UNL     1      20.229 -14.193  24.597  1.00  0.00     0.257 C 
BRANCH  30  31
HETATM   31  N1  UNL     1      20.093 -15.275  25.551  1.00  0.00    -0.066 N 
HETATM   32  C19 UNL     1      21.007 -16.347  25.322  1.00  0.00     0.237 C 
HETATM   33  C20 UNL     1      20.342 -17.587  25.882  1.00  0.00     0.029 C 
HETATM   34  C21 UNL     1      18.867 -17.319  25.682  1.00  0.00     0.029 C 
HETATM   35  C22 UNL     1      18.780 -15.856  25.369  1.00  0.00     0.237 C 
BRANCH  31  36
HETATM   36  C2  UNL     1      20.264 -14.820  26.915  1.00  0.00     0.233 C 
HETATM   37  C1  UNL     1      21.033 -13.550  27.043  1.00  0.00     0.035 C 
ENDBRANCH  31  36
ENDBRANCH  30  31
ENDBRANCH  29  30
ENDBRANCH  27  29
ENDBRANCH  26  27
BRANCH  26  38
HETATM   38  O1  UNL     1      20.539 -17.022  22.154  1.00  0.00    -0.345 OA
ATOM     39  H1  UNL     1      21.387 -17.053  21.726  1.00  0.00     0.219 HD
ENDBRANCH  26  38
ENDBRANCH  18  25
ENDBRANCH  14  15
ENDBRANCH  13  14
ENDBRANCH   9  13
BRANCH  10  40
HETATM   40  N9  UNL     1      12.095 -14.409  22.165  1.00  0.00    -0.385 N 
ATOM     41  H92 UNL     1      12.454 -14.834  21.311  1.00  0.00     0.157 HD
ATOM     42  H91 UNL     1      11.721 -14.978  22.925  1.00  0.00     0.157 HD
ENDBRANCH  10  40
ENDBRANCH   1   5
TORSDOF 12
ENDMDL
MODEL 4
REMARK VINA RESULT: -8.404329175      1.729      2.318
REMARK  12 active torsions:
REMARK  status: ('A' for Active; 'I' for Inactive)
REMARK    1  A    between atoms: C2_2  and  N1_3 
REMARK    2  A    between atoms: N1_3  and  C3_4 
REMARK    3  A    between atoms: C3_4  and  C4_5 
REMARK    4  A    between atoms: C4_5  and  N2_6 
REMARK    5  A    between atoms: N2_6  and  C5_8 
REMARK    6  A    between atoms: C5_8  and  O1_9 
REMARK    7  A    between atoms: C6_11  and  N3_12 
REMARK    8  A    between atoms: N4_15  and  C9_16 
REMARK    9  A    between atoms: C9_16  and  C10_17 
REMARK   10  A    between atoms: C10_17  and  C11_18 
REMARK   11  A    between atoms: C13_22  and  N6_23 
REMARK   12  A    between atoms: C15_29  and  N9_30 
ROOT
HETATM    1  N6  UNL     1      11.188 -10.558  24.579  1.00  0.00    -0.126 N 
ATOM      2  H6  UNL     1      10.549 -11.061  25.195  1.00  0.00     0.197 HD
HETATM    3  C14 UNL     1      11.518  -9.240  24.868  1.00  0.00     0.196 C 
HETATM    4  N7  UNL     1      11.796  -8.161  25.117  1.00  0.00    -0.171 NA
ENDROOT
BRANCH   1   5
HETATM    5  C13 UNL     1      11.681 -11.166  23.531  1.00  0.00     0.692 A 
HETATM    6  N5  UNL     1      12.259 -10.408  22.583  1.00  0.00    -0.200 N 
HETATM    7  C12 UNL     1      12.789 -10.923  21.484  1.00  0.00     0.117 A 
ATOM      8  H5  UNL     1      12.290  -9.398  22.716  1.00  0.00     0.183 HD
HETATM    9  C11 UNL     1      12.754 -12.292  21.290  1.00  0.00     0.004 A 
HETATM   10  C15 UNL     1      12.158 -13.056  22.267  1.00  0.00     0.122 A 
HETATM   11  N8  UNL     1      11.624 -12.487  23.386  1.00  0.00    -0.176 N 
ATOM     12  H8  UNL     1      11.187 -13.067  24.102  1.00  0.00     0.186 HD
BRANCH   9  13
HETATM   13  C10 UNL     1      13.376 -12.868  20.064  1.00  0.00     0.074 C 
BRANCH  13  14
HETATM   14  C9  UNL     1      14.821 -12.502  19.999  1.00  0.00     0.270 C 
BRANCH  14  15
HETATM   15  N4  UNL     1      15.712 -13.532  20.386  1.00  0.00     0.019 N 
HETATM   16  C8  UNL     1      16.356 -13.257  21.682  1.00  0.00     0.294 C 
HETATM   17  C7  UNL     1      16.827 -14.588  22.264  1.00  0.00     0.285 C 
HETATM   18  N3  UNL     1      17.341 -15.382  21.179  1.00  0.00     0.043 N 
HETATM   19  C17 UNL     1      17.908 -14.541  20.175  1.00  0.00     0.285 C 
HETATM   20  C18 UNL     1      16.076 -15.854  20.528  1.00  0.00     0.444 C 
HETATM   21  C16 UNL     1      16.805 -13.754  19.446  1.00  0.00     0.294 C 
HETATM   22  N10 UNL     1      15.103 -14.817  20.489  1.00  0.00    -0.160 N 
HETATM   23  O2  UNL     1      15.963 -17.001  20.106  1.00  0.00    -0.237 OA
ATOM     24  H10 UNL     1      14.096 -14.973  20.530  1.00  0.00     0.199 HD
BRANCH  18  25
HETATM   25  C6  UNL     1      18.010 -16.569  21.509  1.00  0.00     0.269 C 
HETATM   26  C5  UNL     1      19.422 -16.550  21.785  1.00  0.00     0.160 C 
BRANCH  26  27
HETATM   27  N2  UNL     1      20.352 -15.505  21.793  1.00  0.00    -0.368 N 
ATOM     28  H2  UNL     1      21.002 -15.438  21.010  1.00  0.00     0.161 HD
BRANCH  27  29
HETATM   29  C4  UNL     1      20.452 -14.501  22.852  1.00  0.00     0.150 C 
BRANCH  29  30
HETATM   30  C3  UNL     1      21.705 -14.539  23.637  1.00  0.00     0.257 C 
BRANCH  30  31
HETATM   31  N1  UNL     1      21.512 -14.952  25.013  1.00  0.00    -0.066 N 
HETATM   32  C19 UNL     1      20.171 -15.346  25.301  1.00  0.00     0.237 C 
HETATM   33  C20 UNL     1      19.970 -15.087  26.779  1.00  0.00     0.029 C 
HETATM   34  C21 UNL     1      20.866 -13.901  27.056  1.00  0.00     0.029 C 
HETATM   35  C22 UNL     1      21.753 -13.797  25.852  1.00  0.00     0.237 C 
BRANCH  31  36
HETATM   36  C2  UNL     1      22.392 -16.041  25.380  1.00  0.00     0.233 C 
HETATM   37  C1  UNL     1      22.256 -17.252  24.522  1.00  0.00     0.035 C 
ENDBRANCH  31  36
ENDBRANCH  30  31
ENDBRANCH  29  30
ENDBRANCH  27  29
ENDBRANCH  26  27
BRANCH  26  38
HETATM   38  O1  UNL     1      19.953 -17.718  22.087  1.00  0.00    -0.345 OA
ATOM     39  H1  UNL     1      19.949 -17.902  23.019  1.00  0.00     0.219 HD
ENDBRANCH  26  38
ENDBRANCH  18  25
ENDBRANCH  14  15
ENDBRANCH  13  14
ENDBRANCH   9  13
BRANCH  10  40
HETATM   40  N9  UNL     1      12.067 -14.332  22.148  1.00  0.00    -0.385 N 
ATOM     41  H92 UNL     1      12.908 -14.883  22.319  1.00  0.00     0.157 HD
ATOM     42  H91 UNL     1      11.181 -14.777  21.907  1.00  0.00     0.157 HD
ENDBRANCH  10  40
ENDBRANCH   1   5
TORSDOF 12
ENDMDL
MODEL 5
REMARK VINA RESULT: -8.376250531      1.490      1.964
REMARK  12 active torsions:
REMARK  status: ('A' for Active; 'I' for Inactive)
REMARK    1  A    between atoms: C2_2  and  N1_3 
REMARK    2  A    between atoms: N1_3  and  C3_4 
REMARK    3  A    between atoms: C3_4  and  C4_5 
REMARK    4  A    between atoms: C4_5  and  N2_6 
REMARK    5  A    between atoms: N2_6  and  C5_8 
REMARK    6  A    between atoms: C5_8  and  O1_9 
REMARK    7  A    between atoms: C6_11  and  N3_12 
REMARK    8  A    between atoms: N4_15  and  C9_16 
REMARK    9  A    between atoms: C9_16  and  C10_17 
REMARK   10  A    between atoms: C10_17  and  C11_18 
REMARK   11  A    between atoms: C13_22  and  N6_23 
REMARK   12  A    between atoms: C15_29  and  N9_30 
ROOT
HETATM    1  N6  UNL     1      11.121 -10.763  24.313  1.00  0.00    -0.126 N 
ATOM      2  H6  UNL     1      10.480 -11.375  24.818  1.00  0.00     0.197 HD
HETATM    3  C14 UNL     1      11.336  -9.471  24.776  1.00  0.00     0.196 C 
HETATM    4  N7  UNL     1      11.519  -8.414  25.167  1.00  0.00    -0.171 NA
ENDROOT
BRANCH   1   5
HETATM    5  C13 UNL     1      11.725 -11.209  23.243  1.00  0.00     0.692 A 
HETATM    6  N5  UNL     1      11.491 -12.481  22.877  1.00  0.00    -0.200 N 
HETATM    7  C12 UNL     1      12.051 -13.031  21.810  1.00  0.00     0.117 A 
ATOM      8  H5  UNL     1      10.857 -13.044  23.444  1.00  0.00     0.183 HD
HETATM    9  C11 UNL     1      12.911 -12.279  21.031  1.00  0.00     0.004 A 
HETATM   10  C15 UNL     1      13.144 -10.979  21.417  1.00  0.00     0.122 A 
HETATM   11  N8  UNL     1      12.547 -10.449  22.524  1.00  0.00    -0.176 N 
ATOM     12  H8  UNL     1      12.728  -9.483  22.796  1.00  0.00     0.186 HD
BRANCH   9  13
HETATM   13  C10 UNL     1      13.517 -12.895  19.816  1.00  0.00     0.074 C 
BRANCH  13  14
HETATM   14  C9  UNL     1      14.170 -14.189  20.167  1.00  0.00     0.270 C 
BRANCH  14  15
HETATM   15  N4  UNL     1      15.492 -14.072  20.662  1.00  0.00     0.019 N 
HETATM   16  C8  UNL     1      16.313 -15.255  20.353  1.00  0.00     0.294 C 
HETATM   17  C7  UNL     1      17.780 -14.836  20.409  1.00  0.00     0.285 C 
HETATM   18  N3  UNL     1      17.934 -13.926  21.513  1.00  0.00     0.043 N 
HETATM   19  C17 UNL     1      17.006 -14.244  22.550  1.00  0.00     0.285 C 
HETATM   20  C18 UNL     1      17.359 -12.664  20.943  1.00  0.00     0.444 C 
HETATM   21  C16 UNL     1      15.570 -13.909  22.110  1.00  0.00     0.294 C 
HETATM   22  N10 UNL     1      16.198 -12.936  20.167  1.00  0.00    -0.160 N 
HETATM   23  O2  UNL     1      17.876 -11.572  21.157  1.00  0.00    -0.237 OA
ATOM     24  H10 UNL     1      15.906 -12.387  19.358  1.00  0.00     0.199 HD
BRANCH  18  25
HETATM   25  C6  UNL     1      19.239 -13.565  21.875  1.00  0.00     0.269 C 
HETATM   26  C5  UNL     1      20.239 -14.579  22.079  1.00  0.00     0.160 C 
BRANCH  26  27
HETATM   27  N2  UNL     1      20.178 -15.974  21.986  1.00  0.00    -0.368 N 
ATOM     28  H2  UNL     1      20.311 -16.397  21.067  1.00  0.00     0.161 HD
BRANCH  27  29
HETATM   29  C4  UNL     1      19.935 -16.864  23.120  1.00  0.00     0.150 C 
BRANCH  29  30
HETATM   30  C3  UNL     1      20.825 -16.655  24.283  1.00  0.00     0.257 C 
BRANCH  30  31
HETATM   31  N1  UNL     1      20.110 -16.427  25.524  1.00  0.00    -0.066 N 
HETATM   32  C19 UNL     1      19.907 -17.617  26.284  1.00  0.00     0.237 C 
HETATM   33  C20 UNL     1      18.658 -17.377  27.106  1.00  0.00     0.029 C 
HETATM   34  C21 UNL     1      17.832 -16.456  26.234  1.00  0.00     0.029 C 
HETATM   35  C22 UNL     1      18.781 -15.966  25.183  1.00  0.00     0.237 C 
BRANCH  31  36
HETATM   36  C2  UNL     1      20.784 -15.462  26.367  1.00  0.00     0.233 C 
HETATM   37  C1  UNL     1      20.653 -14.051  25.906  1.00  0.00     0.035 C 
ENDBRANCH  31  36
ENDBRANCH  30  31
ENDBRANCH  29  30
ENDBRANCH  27  29
ENDBRANCH  26  27
BRANCH  26  38
HETATM   38  O1  UNL     1      21.433 -14.134  22.415  1.00  0.00    -0.345 OA
ATOM     39  H1  UNL     1      21.412 -13.272  22.814  1.00  0.00     0.219 HD
ENDBRANCH  26  38
ENDBRANCH  18  25
ENDBRANCH  14  15
ENDBRANCH  13  14
ENDBRANCH   9  13
BRANCH  10  40
HETATM   40  N9  UNL     1      13.949 -10.225  20.758  1.00  0.00    -0.385 N 
ATOM     41  H92 UNL     1      14.268 -10.558  19.848  1.00  0.00     0.157 HD
ATOM     42  H91 UNL     1      14.244  -9.321  21.125  1.00  0.00     0.157 HD
ENDBRANCH  10  40
ENDBRANCH   1   5
TORSDOF 12
ENDMDL
