MODEL 1
REMARK VINA RESULT: -6.948502208      0.000      0.000
REMARK  11 active torsions:
REMARK  status: ('A' for Active; 'I' for Inactive)
REMARK    1  A    between atoms: C2_2  and  N1_3 
REMARK    2  A    between atoms: N1_3  and  C4_5 
REMARK    3  A    between atoms: N1_3  and  C6_7 
REMARK    4  A    between atoms: C6_7  and  C7_8 
REMARK    5  A    between atoms: N3_14  and  C10_15 
REMARK    6  A    between atoms: C10_15  and  C11_16 
REMARK    7  A    between atoms: C11_16  and  C12_17 
REMARK    8  A    between atoms: C12_17  and  N4_18 
REMARK    9  A    between atoms: N4_18  and  C13_19 
REMARK   10  A    between atoms: C14_20  and  C15_21 
REMARK   11  A    between atoms: N5_22  and  N6_24 
ROOT
HETATM    1  C13 UNL     1      14.213 -14.739  20.158  1.00  0.00     0.124 A 
HETATM    2  C14 UNL     1      14.516 -14.739  18.792  1.00  0.00     0.037 A 
HETATM    3  C17 UNL     1      14.700 -13.563  18.123  1.00  0.00     0.106 A 
HETATM    4  N9  UNL     1      14.589 -12.397  18.788  1.00  0.00    -0.351 N 
ATOM      5  H9  UNL     1      14.728 -11.520  18.286  1.00  0.00     0.166 HD
HETATM    6  C18 UNL     1      14.297 -12.364  20.104  1.00  0.00     0.120 A 
HETATM    7  C19 UNL     1      14.101 -13.508  20.824  1.00  0.00     0.045 A 
HETATM    8  C20 UNL     1      13.758 -13.482  22.280  1.00  0.00     0.173 C 
HETATM    9  N10 UNL     1      12.970 -12.281  22.478  1.00  0.00    -0.334 N 
HETATM   10  C21 UNL     1      11.772 -12.294  23.286  1.00  0.00     0.154 C 
HETATM   11  C22 UNL     1      13.390 -11.069  21.860  1.00  0.00     0.323 C 
HETATM   12  O1  UNL     1      12.994  -9.998  22.380  1.00  0.00    -0.247 OA
HETATM   13  N11 UNL     1      14.220 -11.060  20.707  1.00  0.00    -0.294 N 
ATOM     14  H11 UNL     1      14.701 -10.234  20.352  1.00  0.00     0.172 HD
ENDROOT
BRANCH   1  15
HETATM   15  N4  UNL     1      14.077 -15.767  20.731  1.00  0.00    -0.446 NA
BRANCH  15  16
HETATM   16  C12 UNL     1      13.916 -16.917  21.377  1.00  0.00     0.223 C 
BRANCH  16  17
HETATM   17  C11 UNL     1      15.109 -17.892  21.255  1.00  0.00     0.078 C 
BRANCH  17  18
HETATM   18  C10 UNL     1      16.399 -17.337  21.667  1.00  0.00     0.068 C 
BRANCH  18  19
HETATM   19  N3  UNL     1      17.011 -17.711  22.859  1.00  0.00    -0.343 N 
HETATM   20  C7  UNL     1      17.705 -16.626  23.516  1.00  0.00     0.316 C 
HETATM   21  N2  UNL     1      17.565 -16.814  24.912  1.00  0.00    -0.048 N 
HETATM   22  C8  UNL     1      16.885 -18.065  25.165  1.00  0.00     0.279 C 
ATOM     23  H22 UNL     1      18.458 -16.755  25.401  1.00  0.00     0.280 HD
ATOM     24  H21 UNL     1      17.100 -16.026  25.362  1.00  0.00     0.280 HD
HETATM   25  C9  UNL     1      16.387 -18.519  23.809  1.00  0.00     0.092 C 
BRANCH  20  26
HETATM   26  C6  UNL     1      19.061 -16.454  22.975  1.00  0.00     0.291 C 
BRANCH  26  27
HETATM   27  N1  UNL     1      19.361 -15.173  22.404  1.00  0.00    -0.068 N 
HETATM   28  C3  UNL     1      19.689 -15.402  21.007  1.00  0.00     0.272 C 
BRANCH  27  29
HETATM   29  C2  UNL     1      20.492 -14.545  23.017  1.00  0.00     0.232 C 
HETATM   30  C1  UNL     1      20.219 -14.099  24.459  1.00  0.00     0.035 C 
ENDBRANCH  27  29
BRANCH  27  31
HETATM   31  C4  UNL     1      18.245 -14.258  22.400  1.00  0.00     0.232 C 
HETATM   32  C5  UNL     1      17.803 -13.871  21.002  1.00  0.00     0.035 C 
ENDBRANCH  27  31
ENDBRANCH  26  27
ENDBRANCH  20  26
ENDBRANCH  18  19
ENDBRANCH  17  18
ENDBRANCH  16  17
ENDBRANCH  15  16
ENDBRANCH   1  15
BRANCH   2  33
HETATM   33  C15 UNL     1      14.650 -16.040  18.080  1.00  0.00     0.123 C 
HETATM   34  N5  UNL     1      13.603 -16.801  18.034  1.00  0.00    -0.309 N 
ATOM     35  H5  UNL     1      12.761 -16.452  18.491  1.00  0.00     0.186 HD
BRANCH  34  36
HETATM   36  N6  UNL     1      13.518 -18.012  17.440  1.00  0.00    -0.276 N 
HETATM   37  C16 UNL     1      12.923 -19.063  17.848  1.00  0.00     0.215 C 
HETATM   38  N7  UNL     1      12.977 -20.232  17.033  1.00  0.00    -0.065 NA
HETATM   39  N8  UNL     1      12.219 -19.116  19.066  1.00  0.00    -0.065 NA
ATOM     40  H6  UNL     1      13.995 -18.097  16.542  1.00  0.00     0.189 HD
ENDBRANCH  34  36
ENDBRANCH   2  33
TORSDOF 11
ENDMDL
MODEL 2
REMARK VINA RESULT: -6.922644312      0.576      1.244
REMARK  11 active torsions:
REMARK  status: ('A' for Active; 'I' for Inactive)
REMARK    1  A    between atoms: C2_2  and  N1_3 
REMARK    2  A    between atoms: N1_3  and  C4_5 
REMARK    3  A    between atoms: N1_3  and  C6_7 
REMARK    4  A    between atoms: C6_7  and  C7_8 
REMARK    5  A    between atoms: N3_14  and  C10_15 
REMARK    6  A    between atoms: C10_15  and  C11_16 
REMARK    7  A    between atoms: C11_16  and  C12_17 
REMARK    8  A    between atoms: C12_17  and  N4_18 
REMARK    9  A    between atoms: N4_18  and  C13_19 
REMARK   10  A    between atoms: C14_20  and  C15_21 
REMARK   11  A    between atoms: N5_22  and  N6_24 
ROOT
HETATM    1  C13 UNL     1      14.130 -14.924  20.153  1.00  0.00     0.124 A 
HETATM    2  C14 UNL     1      14.445 -14.960  18.791  1.00  0.00     0.037 A 
HETATM    3  C17 UNL     1      14.690 -13.805  18.105  1.00  0.00     0.106 A 
HETATM    4  N9  UNL     1      14.627 -12.624  18.750  1.00  0.00    -0.351 N 
ATOM      5  H9  UNL     1      14.811 -11.764  18.236  1.00  0.00     0.166 HD
HETATM    6  C18 UNL     1      14.325 -12.556  20.062  1.00  0.00     0.120 A 
HETATM    7  C19 UNL     1      14.069 -13.678  20.798  1.00  0.00     0.045 A 
HETATM    8  C20 UNL     1      13.712 -13.612  22.250  1.00  0.00     0.173 C 
HETATM    9  N10 UNL     1      12.980 -12.373  22.421  1.00  0.00    -0.334 N 
HETATM   10  C21 UNL     1      11.774 -12.317  23.216  1.00  0.00     0.154 C 
HETATM   11  C22 UNL     1      13.461 -11.193  21.788  1.00  0.00     0.323 C 
HETATM   12  O1  UNL     1      13.111 -10.095  22.286  1.00  0.00    -0.247 OA
HETATM   13  N11 UNL     1      14.303 -11.241  20.644  1.00  0.00    -0.294 N 
ATOM     14  H11 UNL     1      14.825 -10.444  20.281  1.00  0.00     0.172 HD
ENDROOT
BRANCH   1  15
HETATM   15  N4  UNL     1      13.941 -15.935  20.741  1.00  0.00    -0.446 NA
BRANCH  15  16
HETATM   16  C12 UNL     1      13.728 -17.064  21.409  1.00  0.00     0.223 C 
BRANCH  16  17
HETATM   17  C11 UNL     1      14.806 -18.149  21.190  1.00  0.00     0.078 C 
BRANCH  17  18
HETATM   18  C10 UNL     1      16.186 -17.671  21.281  1.00  0.00     0.068 C 
BRANCH  18  19
HETATM   19  N3  UNL     1      16.934 -17.809  22.446  1.00  0.00    -0.343 N 
HETATM   20  C7  UNL     1      17.517 -16.569  22.908  1.00  0.00     0.316 C 
HETATM   21  N2  UNL     1      17.512 -16.598  24.323  1.00  0.00    -0.048 N 
HETATM   22  C8  UNL     1      17.038 -17.886  24.778  1.00  0.00     0.279 C 
ATOM     23  H22 UNL     1      18.423 -16.362  24.717  1.00  0.00     0.280 HD
ATOM     24  H21 UNL     1      16.976 -15.828  24.723  1.00  0.00     0.280 HD
HETATM   25  C9  UNL     1      16.506 -18.567  23.535  1.00  0.00     0.092 C 
BRANCH  20  26
HETATM   26  C6  UNL     1      18.790 -16.290  22.227  1.00  0.00     0.291 C 
BRANCH  26  27
HETATM   27  N1  UNL     1      19.003 -14.934  21.809  1.00  0.00    -0.068 N 
HETATM   28  C3  UNL     1      17.692 -14.367  21.538  1.00  0.00     0.272 C 
BRANCH  27  29
HETATM   29  C2  UNL     1      19.771 -14.842  20.605  1.00  0.00     0.232 C 
HETATM   30  C1  UNL     1      20.021 -13.394  20.165  1.00  0.00     0.035 C 
ENDBRANCH  27  29
BRANCH  27  31
HETATM   31  C4  UNL     1      19.591 -14.093  22.823  1.00  0.00     0.232 C 
HETATM   32  C5  UNL     1      20.766 -14.746  23.524  1.00  0.00     0.035 C 
ENDBRANCH  27  31
ENDBRANCH  26  27
ENDBRANCH  20  26
ENDBRANCH  18  19
ENDBRANCH  17  18
ENDBRANCH  16  17
ENDBRANCH  15  16
ENDBRANCH   1  15
BRANCH   2  33
HETATM   33  C15 UNL     1      14.526 -16.277  18.100  1.00  0.00     0.123 C 
HETATM   34  N5  UNL     1      13.435 -16.971  18.019  1.00  0.00    -0.309 N 
ATOM     35  H5  UNL     1      12.598 -16.562  18.435  1.00  0.00     0.186 HD
BRANCH  34  36
HETATM   36  N6  UNL     1      13.297 -18.182  17.436  1.00  0.00    -0.276 N 
HETATM   37  C16 UNL     1      12.664 -19.205  17.858  1.00  0.00     0.215 C 
HETATM   38  N7  UNL     1      12.665 -20.383  17.053  1.00  0.00    -0.065 NA
HETATM   39  N8  UNL     1      11.965 -19.220  19.081  1.00  0.00    -0.065 NA
ATOM     40  H6  UNL     1      13.765 -18.294  16.536  1.00  0.00     0.189 HD
ENDBRANCH  34  36
ENDBRANCH   2  33
TORSDOF 11
ENDMDL
MODEL 3
REMARK VINA RESULT: -6.852912157      2.961      6.910
REMARK  11 active torsions:
REMARK  status: ('A' for Active; 'I' for Inactive)
REMARK    1  A    between atoms: C2_2  and  N1_3 
REMARK    2  A    between atoms: N1_3  and  C4_5 
REMARK    3  A    between atoms: N1_3  and  C6_7 
REMARK    4  A    between atoms: C6_7  and  C7_8 
REMARK    5  A    between atoms: N3_14  and  C10_15 
REMARK    6  A    between atoms: C10_15  and  C11_16 
REMARK    7  A    between atoms: C11_16  and  C12_17 
REMARK    8  A    between atoms: C12_17  and  N4_18 
REMARK    9  A    between atoms: N4_18  and  C13_19 
REMARK   10  A    between atoms: C14_20  and  C15_21 
REMARK   11  A    between atoms: N5_22  and  N6_24 
ROOT
HETATM    1  C13 UNL     1      17.809 -13.977  21.182  1.00  0.00     0.124 A 
HETATM    2  C14 UNL     1      18.330 -13.542  19.959  1.00  0.00     0.037 A 
HETATM    3  C17 UNL     1      19.561 -13.961  19.542  1.00  0.00     0.106 A 
HETATM    4  N9  UNL     1      20.274 -14.800  20.317  1.00  0.00    -0.351 N 
ATOM      5  H9  UNL     1      21.192 -15.112  20.002  1.00  0.00     0.166 HD
HETATM    6  C18 UNL     1      19.799 -15.237  21.501  1.00  0.00     0.120 A 
HETATM    7  C19 UNL     1      18.576 -14.850  21.969  1.00  0.00     0.045 A 
HETATM    8  C20 UNL     1      18.049 -15.313  23.291  1.00  0.00     0.173 C 
HETATM    9  N10 UNL     1      19.208 -15.467  24.147  1.00  0.00    -0.334 N 
HETATM   10  C21 UNL     1      19.202 -14.992  25.512  1.00  0.00     0.154 C 
HETATM   11  C22 UNL     1      20.374 -16.096  23.626  1.00  0.00     0.323 C 
HETATM   12  O1  UNL     1      21.160 -16.615  24.454  1.00  0.00    -0.247 OA
HETATM   13  N11 UNL     1      20.645 -16.143  22.231  1.00  0.00    -0.294 N 
ATOM     14  H11 UNL     1      21.350 -16.742  21.803  1.00  0.00     0.172 HD
ENDROOT
BRANCH   1  15
HETATM   15  N4  UNL     1      16.730 -13.623  21.522  1.00  0.00    -0.446 NA
BRANCH  15  16
HETATM   16  C12 UNL     1      15.525 -13.220  21.910  1.00  0.00     0.223 C 
BRANCH  16  17
HETATM   17  C11 UNL     1      15.047 -11.907  21.250  1.00  0.00     0.078 C 
BRANCH  17  18
HETATM   18  C10 UNL     1      13.756 -11.997  20.567  1.00  0.00     0.068 C 
BRANCH  18  19
HETATM   19  N3  UNL     1      12.567 -12.173  21.268  1.00  0.00    -0.343 N 
HETATM   20  C7  UNL     1      12.398 -13.511  21.791  1.00  0.00     0.316 C 
HETATM   21  N2  UNL     1      11.727 -13.400  23.033  1.00  0.00    -0.048 N 
HETATM   22  C8  UNL     1      11.362 -12.021  23.263  1.00  0.00     0.279 C 
ATOM     23  H22 UNL     1      10.924 -14.027  23.093  1.00  0.00     0.280 HD
ATOM     24  H21 UNL     1      12.273 -13.787  23.802  1.00  0.00     0.280 HD
HETATM   25  C9  UNL     1      12.084 -11.241  22.185  1.00  0.00     0.092 C 
BRANCH  20  26
HETATM   26  C6  UNL     1      11.834 -14.413  20.778  1.00  0.00     0.291 C 
BRANCH  26  27
HETATM   27  N1  UNL     1      12.625 -15.560  20.436  1.00  0.00    -0.068 N 
HETATM   28  C3  UNL     1      13.262 -16.012  21.662  1.00  0.00     0.272 C 
BRANCH  27  29
HETATM   29  C2  UNL     1      13.661 -15.256  19.496  1.00  0.00     0.232 C 
HETATM   30  C1  UNL     1      14.895 -16.152  19.657  1.00  0.00     0.035 C 
ENDBRANCH  27  29
BRANCH  27  31
HETATM   31  C4  UNL     1      11.854 -16.683  19.959  1.00  0.00     0.232 C 
HETATM   32  C5  UNL     1      11.727 -17.791  20.985  1.00  0.00     0.035 C 
ENDBRANCH  27  31
ENDBRANCH  26  27
ENDBRANCH  20  26
ENDBRANCH  18  19
ENDBRANCH  17  18
ENDBRANCH  16  17
ENDBRANCH  15  16
ENDBRANCH   1  15
BRANCH   2  33
HETATM   33  C15 UNL     1      17.518 -12.626  19.109  1.00  0.00     0.123 C 
HETATM   34  N5  UNL     1      16.589 -13.162  18.383  1.00  0.00    -0.309 N 
ATOM     35  H5  UNL     1      16.482 -14.174  18.446  1.00  0.00     0.186 HD
BRANCH  34  36
HETATM   36  N6  UNL     1      15.749 -12.509  17.549  1.00  0.00    -0.276 N 
HETATM   37  C16 UNL     1      15.906 -12.225  16.317  1.00  0.00     0.215 C 
HETATM   38  N7  UNL     1      14.863 -11.521  15.644  1.00  0.00    -0.065 NA
HETATM   39  N8  UNL     1      17.064 -12.574  15.595  1.00  0.00    -0.065 NA
ATOM     40  H6  UNL     1      14.868 -12.203  17.963  1.00  0.00     0.189 HD
ENDBRANCH  34  36
ENDBRANCH   2  33
TORSDOF 11
ENDMDL
MODEL 4
REMARK VINA RESULT: -6.834278660      3.374      5.278
REMARK  11 active torsions:
REMARK  status: ('A' for Active; 'I' for Inactive)
REMARK    1  A    between atoms: C2_2  and  N1_3 
REMARK    2  A    between atoms: N1_3  and  C4_5 
REMARK    3  A    between atoms: N1_3  and  C6_7 
REMARK    4  A    between atoms: C6_7  and  C7_8 
REMARK    5  A    between atoms: N3_14  and  C10_15 
REMARK    6  A    between atoms: C10_15  and  C11_16 
REMARK    7  A    between atoms: C11_16  and  C12_17 
REMARK    8  A    between atoms: C12_17  and  N4_18 
REMARK    9  A    between atoms: N4_18  and  C13_19 
REMARK   10  A    between atoms: C14_20  and  C15_21 
REMARK   11  A    between atoms: N5_22  and  N6_24 
ROOT
HETATM    1  C13 UNL     1      16.171 -13.812  20.431  1.00  0.00     0.124 A 
HETATM    2  C14 UNL     1      14.909 -13.348  20.045  1.00  0.00     0.037 A 
HETATM    3  C17 UNL     1      14.736 -12.736  18.836  1.00  0.00     0.106 A 
HETATM    4  N9  UNL     1      15.792 -12.581  18.014  1.00  0.00    -0.351 N 
ATOM      5  H9  UNL     1      15.658 -12.124  17.111  1.00  0.00     0.166 HD
HETATM    6  C18 UNL     1      17.020 -13.016  18.357  1.00  0.00     0.120 A 
HETATM    7  C19 UNL     1      17.253 -13.633  19.554  1.00  0.00     0.045 A 
HETATM    8  C20 UNL     1      18.616 -14.102  19.954  1.00  0.00     0.173 C 
HETATM    9  N10 UNL     1      19.547 -13.166  19.355  1.00  0.00    -0.334 N 
HETATM   10  C21 UNL     1      20.672 -12.646  20.100  1.00  0.00     0.154 C 
HETATM   11  C22 UNL     1      19.342 -12.752  18.009  1.00  0.00     0.323 C 
HETATM   12  O1  UNL     1      20.345 -12.332  17.383  1.00  0.00    -0.247 OA
HETATM   13  N11 UNL     1      18.064 -12.808  17.390  1.00  0.00    -0.294 N 
ATOM     14  H11 UNL     1      17.907 -12.712  16.388  1.00  0.00     0.172 HD
ENDROOT
BRANCH   1  15
HETATM   15  N4  UNL     1      16.304 -14.360  21.473  1.00  0.00    -0.446 NA
BRANCH  15  16
HETATM   16  C12 UNL     1      16.447 -14.983  22.638  1.00  0.00     0.223 C 
BRANCH  16  17
HETATM   17  C11 UNL     1      16.930 -16.446  22.526  1.00  0.00     0.078 C 
BRANCH  17  18
HETATM   18  C10 UNL     1      18.338 -16.655  22.870  1.00  0.00     0.068 C 
BRANCH  18  19
HETATM   19  N3  UNL     1      18.717 -17.317  24.032  1.00  0.00    -0.343 N 
HETATM   20  C7  UNL     1      19.325 -16.451  25.018  1.00  0.00     0.316 C 
HETATM   21  N2  UNL     1      18.935 -16.921  26.295  1.00  0.00    -0.048 N 
HETATM   22  C8  UNL     1      18.178 -18.144  26.150  1.00  0.00     0.279 C 
ATOM     23  H22 UNL     1      19.731 -17.032  26.924  1.00  0.00     0.280 HD
ATOM     24  H21 UNL     1      18.427 -16.215  26.827  1.00  0.00     0.280 HD
HETATM   25  C9  UNL     1      17.909 -18.262  24.664  1.00  0.00     0.092 C 
BRANCH  20  26
HETATM   26  C6  UNL     1      20.759 -16.267  24.757  1.00  0.00     0.291 C 
BRANCH  26  27
HETATM   27  N1  UNL     1      21.267 -14.934  24.905  1.00  0.00    -0.068 N 
HETATM   28  C3  UNL     1      20.136 -14.034  24.747  1.00  0.00     0.272 C 
BRANCH  27  29
HETATM   29  C2  UNL     1      22.232 -14.596  23.904  1.00  0.00     0.232 C 
HETATM   30  C1  UNL     1      23.598 -14.223  24.493  1.00  0.00     0.035 C 
ENDBRANCH  27  29
BRANCH  27  31
HETATM   31  C4  UNL     1      21.810 -14.654  26.212  1.00  0.00     0.232 C 
HETATM   32  C5  UNL     1      20.947 -13.707  27.021  1.00  0.00     0.035 C 
ENDBRANCH  27  31
ENDBRANCH  26  27
ENDBRANCH  20  26
ENDBRANCH  18  19
ENDBRANCH  17  18
ENDBRANCH  16  17
ENDBRANCH  15  16
ENDBRANCH   1  15
BRANCH   2  33
HETATM   33  C15 UNL     1      13.753 -13.544  20.962  1.00  0.00     0.123 C 
HETATM   34  N5  UNL     1      13.616 -12.697  21.932  1.00  0.00    -0.309 N 
ATOM     35  H5  UNL     1      14.313 -11.955  21.996  1.00  0.00     0.186 HD
BRANCH  34  36
HETATM   36  N6  UNL     1      12.640 -12.700  22.867  1.00  0.00    -0.276 N 
HETATM   37  C16 UNL     1      11.890 -11.741  23.243  1.00  0.00     0.215 C 
HETATM   38  N7  UNL     1      10.922 -11.995  24.259  1.00  0.00    -0.065 NA
HETATM   39  N8  UNL     1      11.977 -10.445  22.698  1.00  0.00    -0.065 NA
ATOM     40  H6  UNL     1      12.483 -13.592  23.337  1.00  0.00     0.189 HD
ENDBRANCH  34  36
ENDBRANCH   2  33
TORSDOF 11
ENDMDL
MODEL 5
REMARK VINA RESULT: -6.797733401      1.658      2.981
REMARK  11 active torsions:
REMARK  status: ('A' for Active; 'I' for Inactive)
REMARK    1  A    between atoms: C2_2  and  N1_3 
REMARK    2  A    between atoms: N1_3  and  C4_5 
REMARK    3  A    between atoms: N1_3  and  C6_7 
REMARK    4  A    between atoms: C6_7  and  C7_8 
REMARK    5  A    between atoms: N3_14  and  C10_15 
REMARK    6  A    between atoms: C10_15  and  C11_16 
REMARK    7  A    between atoms: C11_16  and  C12_17 
REMARK    8  A    between atoms: C12_17  and  N4_18 
REMARK    9  A    between atoms: N4_18  and  C13_19 
REMARK   10  A    between atoms: C14_20  and  C15_21 
REMARK   11  A    between atoms: N5_22  and  N6_24 
ROOT
HETATM    1  C13 UNL     1      14.622 -14.267  20.218  1.00  0.00     0.124 A 
HETATM    2  C14 UNL     1      14.851 -14.366  18.841  1.00  0.00     0.037 A 
HETATM    3  C17 UNL     1      14.514 -13.338  18.007  1.00  0.00     0.106 A 
HETATM    4  N9  UNL     1      13.957 -12.224  18.518  1.00  0.00    -0.351 N 
ATOM      5  H9  UNL     1      13.707 -11.458  17.893  1.00  0.00     0.166 HD
HETATM    6  C18 UNL     1      13.723 -12.098  19.840  1.00  0.00     0.120 A 
HETATM    7  C19 UNL     1      14.038 -13.093  20.721  1.00  0.00     0.045 A 
HETATM    8  C20 UNL     1      13.763 -12.973  22.187  1.00  0.00     0.173 C 
HETATM    9  N10 UNL     1      12.560 -12.172  22.299  1.00  0.00    -0.334 N 
HETATM   10  C21 UNL     1      11.500 -12.533  23.214  1.00  0.00     0.154 C 
HETATM   11  C22 UNL     1      12.424 -11.011  21.488  1.00  0.00     0.323 C 
HETATM   12  O1  UNL     1      11.642 -10.118  21.896  1.00  0.00    -0.247 OA
HETATM   13  N11 UNL     1      13.139 -10.856  20.268  1.00  0.00    -0.294 N 
ATOM     14  H11 UNL     1      13.226  -9.976  19.762  1.00  0.00     0.172 HD
ENDROOT
BRANCH   1  15
HETATM   15  N4  UNL     1      14.939 -15.156  20.934  1.00  0.00    -0.446 NA
BRANCH  15  16
HETATM   16  C12 UNL     1      15.304 -16.149  21.738  1.00  0.00     0.223 C 
BRANCH  16  17
HETATM   17  C11 UNL     1      16.790 -16.118  22.158  1.00  0.00     0.078 C 
BRANCH  17  18
HETATM   18  C10 UNL     1      17.212 -14.890  22.833  1.00  0.00     0.068 C 
BRANCH  18  19
HETATM   19  N3  UNL     1      18.332 -14.175  22.421  1.00  0.00    -0.343 N 
HETATM   20  C7  UNL     1      19.581 -14.747  22.873  1.00  0.00     0.316 C 
HETATM   21  N2  UNL     1      20.541 -14.532  21.855  1.00  0.00    -0.048 N 
HETATM   22  C8  UNL     1      19.957 -13.731  20.803  1.00  0.00     0.279 C 
ATOM     23  H22 UNL     1      21.402 -14.123  22.219  1.00  0.00     0.280 HD
ATOM     24  H21 UNL     1      20.931 -15.405  21.503  1.00  0.00     0.280 HD
HETATM   25  C9  UNL     1      18.479 -13.679  21.126  1.00  0.00     0.092 C 
BRANCH  20  26
HETATM   26  C6  UNL     1      19.908 -14.306  24.236  1.00  0.00     0.291 C 
BRANCH  26  27
HETATM   27  N1  UNL     1      20.249 -15.337  25.174  1.00  0.00    -0.068 N 
HETATM   28  C3  UNL     1      21.659 -15.631  24.981  1.00  0.00     0.272 C 
BRANCH  27  29
HETATM   29  C2  UNL     1      19.519 -16.548  24.953  1.00  0.00     0.232 C 
HETATM   30  C1  UNL     1      18.331 -16.712  25.908  1.00  0.00     0.035 C 
ENDBRANCH  27  29
BRANCH  27  31
HETATM   31  C4  UNL     1      20.117 -14.940  26.555  1.00  0.00     0.232 C 
HETATM   32  C5  UNL     1      20.999 -13.762  26.918  1.00  0.00     0.035 C 
ENDBRANCH  27  31
ENDBRANCH  26  27
ENDBRANCH  20  26
ENDBRANCH  18  19
ENDBRANCH  17  18
ENDBRANCH  16  17
ENDBRANCH  15  16
ENDBRANCH   1  15
BRANCH   2  33
HETATM   33  C15 UNL     1      15.483 -15.601  18.299  1.00  0.00     0.123 C 
HETATM   34  N5  UNL     1      14.700 -16.597  18.030  1.00  0.00    -0.309 N 
ATOM     35  H5  UNL     1      13.705 -16.462  18.211  1.00  0.00     0.186 HD
BRANCH  34  36
HETATM   36  N6  UNL     1      15.073 -17.797  17.534  1.00  0.00    -0.276 N 
HETATM   37  C16 UNL     1      15.257 -18.896  18.153  1.00  0.00     0.215 C 
HETATM   38  N7  UNL     1      15.654 -20.041  17.400  1.00  0.00    -0.065 NA
HETATM   39  N8  UNL     1      15.087 -19.025  19.546  1.00  0.00    -0.065 NA
ATOM     40  H6  UNL     1      15.229 -17.829  16.526  1.00  0.00     0.189 HD
ENDBRANCH  34  36
ENDBRANCH   2  33
TORSDOF 11
ENDMDL
