MODEL 1
REMARK VINA RESULT: -5.609637238      0.000      0.000
REMARK  4 active torsions:
REMARK  status: ('A' for Active; 'I' for Inactive)
REMARK    1  A    between atoms: C3_5  and  O1_6 
REMARK    2  A    between atoms: C6_10  and  C7_11 
REMARK    3  A    between atoms: C7_11  and  C8_12 
REMARK    4  A    between atoms: C9_17  and  C10_18 
ROOT
HETATM    1  C1  UNL     1      -0.660  19.007  17.390  1.00  0.00     0.044 C 
HETATM    2  C2  UNL     1      -0.933  17.723  17.523  1.00  0.00     0.036 A 
HETATM    3  N1  UNL     1      -1.738  17.079  16.627  1.00  0.00    -0.336 N 
ATOM      4  H1  UNL     1      -2.180  17.506  15.813  1.00  0.00     0.168 HD
HETATM    5  C3  UNL     1      -1.852  15.791  16.994  1.00  0.00     0.161 A 
HETATM    6  C5  UNL     1      -1.117  15.615  18.128  1.00  0.00     0.074 A 
HETATM    7 BR1  UNL     1      -0.941  13.973  19.058  1.00  0.00    -0.045 Br
HETATM    8  C6  UNL     1      -0.521  16.844  18.479  1.00  0.00     0.014 A 
ENDROOT
BRANCH   8   9
HETATM    9  C7  UNL     1       0.240  16.988  19.515  1.00  0.00     0.048 C 
BRANCH   9  10
HETATM   10  C8  UNL     1       0.117  17.849  20.665  1.00  0.00     0.072 A 
HETATM   11  N2  UNL     1      -0.595  17.785  21.817  1.00  0.00    -0.299 N 
HETATM   12  N3  UNL     1      -0.143  18.941  22.239  1.00  0.00    -0.302 N 
ATOM     13  H2  UNL     1      -1.239  17.098  22.207  1.00  0.00     0.187 HD
HETATM   14  C9  UNL     1       0.591  19.077  21.126  1.00  0.00     0.053 A 
ATOM     15  H3  UNL     1      -0.291  19.507  23.075  1.00  0.00     0.186 HD
BRANCH  14  16
HETATM   16  C10 UNL     1       1.527  20.047  20.528  1.00  0.00     0.056 C 
HETATM   17  C11 UNL     1       2.954  19.644  20.716  1.00  0.00     0.011 C 
ENDBRANCH  14  16
ENDBRANCH   9  10
ENDBRANCH   8   9
BRANCH   5  18
HETATM   18  O1  UNL     1      -2.612  14.886  16.269  1.00  0.00    -0.340 OA
HETATM   19  C4  UNL     1      -2.100  13.901  15.433  1.00  0.00     0.211 C 
ENDBRANCH   5  18
TORSDOF 4
ENDMDL
MODEL 2
REMARK VINA RESULT: -5.582954842      2.917      6.109
REMARK  4 active torsions:
REMARK  status: ('A' for Active; 'I' for Inactive)
REMARK    1  A    between atoms: C3_5  and  O1_6 
REMARK    2  A    between atoms: C6_10  and  C7_11 
REMARK    3  A    between atoms: C7_11  and  C8_12 
REMARK    4  A    between atoms: C9_17  and  C10_18 
ROOT
HETATM    1  C1  UNL     1      -1.202  14.323  19.920  1.00  0.00     0.044 C 
HETATM    2  C2  UNL     1      -0.852  15.506  19.453  1.00  0.00     0.036 A 
HETATM    3  N1  UNL     1       0.013  16.307  20.143  1.00  0.00    -0.336 N 
ATOM      4  H1  UNL     1       0.448  16.079  21.037  1.00  0.00     0.168 HD
HETATM    5  C3  UNL     1       0.197  17.445  19.451  1.00  0.00     0.161 A 
HETATM    6  C5  UNL     1      -0.554  17.367  18.317  1.00  0.00     0.074 A 
HETATM    7 BR1  UNL     1      -0.651  18.717  16.990  1.00  0.00    -0.045 Br
HETATM    8  C6  UNL     1      -1.231  16.130  18.303  1.00  0.00     0.014 A 
ENDROOT
BRANCH   8   9
HETATM    9  C7  UNL     1      -2.023  15.770  17.344  1.00  0.00     0.048 C 
BRANCH   9  10
HETATM   10  C8  UNL     1      -2.110  14.535  16.605  1.00  0.00     0.072 A 
HETATM   11  N2  UNL     1      -2.937  14.076  15.634  1.00  0.00    -0.299 N 
HETATM   12  N3  UNL     1      -2.335  12.913  15.578  1.00  0.00    -0.302 N 
ATOM     13  H2  UNL     1      -3.728  14.482  15.136  1.00  0.00     0.187 HD
HETATM   14  C9  UNL     1      -1.478  13.294  16.536  1.00  0.00     0.053 A 
ATOM     15  H3  UNL     1      -2.465  12.063  15.029  1.00  0.00     0.186 HD
BRANCH  14  16
HETATM   16  C10 UNL     1      -0.329  12.743  17.278  1.00  0.00     0.056 C 
HETATM   17  C11 UNL     1       0.343  11.634  16.535  1.00  0.00     0.011 C 
ENDBRANCH  14  16
ENDBRANCH   9  10
ENDBRANCH   8   9
BRANCH   5  18
HETATM   18  O1  UNL     1       1.029  18.454  19.908  1.00  0.00    -0.340 OA
HETATM   19  C4  UNL     1       2.357  18.625  19.537  1.00  0.00     0.211 C 
ENDBRANCH   5  18
TORSDOF 4
ENDMDL
MODEL 3
REMARK VINA RESULT: -5.480993598      1.243      1.962
REMARK  4 active torsions:
REMARK  status: ('A' for Active; 'I' for Inactive)
REMARK    1  A    between atoms: C3_5  and  O1_6 
REMARK    2  A    between atoms: C6_10  and  C7_11 
REMARK    3  A    between atoms: C7_11  and  C8_12 
REMARK    4  A    between atoms: C9_17  and  C10_18 
ROOT
HETATM    1  C1  UNL     1      -0.619  19.062  17.377  1.00  0.00     0.044 C 
HETATM    2  C2  UNL     1      -0.898  17.783  17.546  1.00  0.00     0.036 A 
HETATM    3  N1  UNL     1      -1.701  17.116  16.665  1.00  0.00    -0.336 N 
ATOM      4  H1  UNL     1      -2.137  17.520  15.837  1.00  0.00     0.168 HD
HETATM    5  C3  UNL     1      -1.822  15.839  17.069  1.00  0.00     0.161 A 
HETATM    6  C5  UNL     1      -1.092  15.695  18.211  1.00  0.00     0.074 A 
HETATM    7 BR1  UNL     1      -0.927  14.080  19.190  1.00  0.00    -0.045 Br
HETATM    8  C6  UNL     1      -0.494  16.931  18.529  1.00  0.00     0.014 A 
ENDROOT
BRANCH   8   9
HETATM    9  C7  UNL     1       0.262  17.102  19.565  1.00  0.00     0.048 C 
BRANCH   9  10
HETATM   10  C8  UNL     1       0.206  18.077  20.625  1.00  0.00     0.072 A 
HETATM   11  N2  UNL     1       0.915  19.196  20.914  1.00  0.00    -0.299 N 
HETATM   12  N3  UNL     1       0.236  19.424  22.012  1.00  0.00    -0.302 N 
ATOM     13  H2  UNL     1       1.685  19.678  20.451  1.00  0.00     0.187 HD
HETATM   14  C9  UNL     1      -0.509  18.331  21.796  1.00  0.00     0.053 A 
ATOM     15  H3  UNL     1       0.264  20.142  22.736  1.00  0.00     0.186 HD
BRANCH  14  16
HETATM   16  C10 UNL     1      -1.623  17.606  22.434  1.00  0.00     0.056 C 
HETATM   17  C11 UNL     1      -1.428  17.456  23.908  1.00  0.00     0.011 C 
ENDBRANCH  14  16
ENDBRANCH   9  10
ENDBRANCH   8   9
BRANCH   5  18
HETATM   18  O1  UNL     1      -2.582  14.917  16.367  1.00  0.00    -0.340 OA
HETATM   19  C4  UNL     1      -2.076  13.977  15.476  1.00  0.00     0.211 C 
ENDBRANCH   5  18
TORSDOF 4
ENDMDL
MODEL 4
REMARK VINA RESULT: -5.478647485      1.464      1.664
REMARK  4 active torsions:
REMARK  status: ('A' for Active; 'I' for Inactive)
REMARK    1  A    between atoms: C3_5  and  O1_6 
REMARK    2  A    between atoms: C6_10  and  C7_11 
REMARK    3  A    between atoms: C7_11  and  C8_12 
REMARK    4  A    between atoms: C9_17  and  C10_18 
ROOT
HETATM    1  C1  UNL     1      -0.688  19.100  17.410  1.00  0.00     0.044 C 
HETATM    2  C2  UNL     1      -0.945  17.814  17.552  1.00  0.00     0.036 A 
HETATM    3  N1  UNL     1      -1.695  17.141  16.630  1.00  0.00    -0.336 N 
ATOM      4  H1  UNL     1      -2.105  17.546  15.789  1.00  0.00     0.168 HD
HETATM    5  C3  UNL     1      -1.803  15.857  17.013  1.00  0.00     0.161 A 
HETATM    6  C5  UNL     1      -1.119  15.713  18.183  1.00  0.00     0.074 A 
HETATM    7 BR1  UNL     1      -0.959  14.090  19.149  1.00  0.00    -0.045 Br
HETATM    8  C6  UNL     1      -0.563  16.959  18.541  1.00  0.00     0.014 A 
ENDROOT
BRANCH   8   9
HETATM    9  C7  UNL     1       0.146  17.133  19.610  1.00  0.00     0.048 C 
BRANCH   9  10
HETATM   10  C8  UNL     1       1.165  18.105  19.919  1.00  0.00     0.072 A 
HETATM   11  N2  UNL     1       2.466  18.247  19.569  1.00  0.00    -0.299 N 
HETATM   12  N3  UNL     1       2.611  19.333  20.290  1.00  0.00    -0.302 N 
ATOM     13  H2  UNL     1       3.096  17.712  18.972  1.00  0.00     0.187 HD
HETATM   14  C9  UNL     1       1.331  19.260  20.682  1.00  0.00     0.053 A 
ATOM     15  H3  UNL     1       3.384  19.972  20.477  1.00  0.00     0.186 HD
BRANCH  14  16
HETATM   16  C10 UNL     1       0.391  20.007  21.537  1.00  0.00     0.056 C 
HETATM   17  C11 UNL     1      -0.406  21.006  20.763  1.00  0.00     0.011 C 
ENDBRANCH  14  16
ENDBRANCH   9  10
ENDBRANCH   8   9
BRANCH   5  18
HETATM   18  O1  UNL     1      -2.512  14.927  16.269  1.00  0.00    -0.340 OA
HETATM   19  C4  UNL     1      -1.944  13.918  15.499  1.00  0.00     0.211 C 
ENDBRANCH   5  18
TORSDOF 4
ENDMDL
MODEL 5
REMARK VINA RESULT: -5.400024675      2.978      5.913
REMARK  4 active torsions:
REMARK  status: ('A' for Active; 'I' for Inactive)
REMARK    1  A    between atoms: C3_5  and  O1_6 
REMARK    2  A    between atoms: C6_10  and  C7_11 
REMARK    3  A    between atoms: C7_11  and  C8_12 
REMARK    4  A    between atoms: C9_17  and  C10_18 
ROOT
HETATM    1  C1  UNL     1      -1.699  17.409  22.805  1.00  0.00     0.044 C 
HETATM    2  C2  UNL     1      -0.937  17.921  21.858  1.00  0.00     0.036 A 
HETATM    3  N1  UNL     1      -0.050  18.922  22.133  1.00  0.00    -0.336 N 
ATOM      4  H1  UNL     1       0.102  19.346  23.048  1.00  0.00     0.168 HD
HETATM    5  C3  UNL     1       0.592  19.257  21.000  1.00  0.00     0.161 A 
HETATM    6  C5  UNL     1       0.109  18.466  20.000  1.00  0.00     0.074 A 
HETATM    7 BR1  UNL     1       0.684  18.535  18.195  1.00  0.00    -0.045 Br
HETATM    8  C6  UNL     1      -0.870  17.604  20.535  1.00  0.00     0.014 A 
ENDROOT
BRANCH   8   9
HETATM    9  C7  UNL     1      -1.507  16.733  19.821  1.00  0.00     0.048 C 
BRANCH   9  10
HETATM   10  C8  UNL     1      -1.056  15.515  19.194  1.00  0.00     0.072 A 
HETATM   11  N2  UNL     1      -0.199  14.530  19.559  1.00  0.00    -0.299 N 
HETATM   12  N3  UNL     1      -0.365  13.877  18.433  1.00  0.00    -0.302 N 
ATOM     13  H2  UNL     1       0.362  14.362  20.392  1.00  0.00     0.187 HD
HETATM   14  C9  UNL     1      -1.224  14.811  18.001  1.00  0.00     0.053 A 
ATOM     15  H3  UNL     1       0.008  13.011  18.046  1.00  0.00     0.186 HD
BRANCH  14  16
HETATM   16  C10 UNL     1      -2.051  15.090  16.813  1.00  0.00     0.056 C 
HETATM   17  C11 UNL     1      -2.075  13.941  15.859  1.00  0.00     0.011 C 
ENDBRANCH  14  16
ENDBRANCH   9  10
ENDBRANCH   8   9
BRANCH   5  18
HETATM   18  O1  UNL     1       1.558  20.250  20.970  1.00  0.00    -0.340 OA
HETATM   19  C4  UNL     1       2.929  20.035  21.051  1.00  0.00     0.211 C 
ENDBRANCH   5  18
TORSDOF 4
ENDMDL
