MODEL 1
REMARK VINA RESULT: -5.841784244      0.000      0.000
REMARK  2 active torsions:
REMARK  status: ('A' for Active; 'I' for Inactive)
REMARK       I    between atoms: N1_2  and  C2_4 
REMARK       I    between atoms: C2_4  and  N3_8 
REMARK       I    between atoms: C3_10  and  N4_11 
REMARK       I    between atoms: C3_10  and  N5_14 
REMARK    1  A    between atoms: N5_14  and  C4_16 
REMARK    2  A    between atoms: C4_16  and  C5_17 
ROOT
HETATM    1  C1  UNL     1       3.367  19.645  20.655  1.00  0.00     0.165 C 
HETATM    2  N1  UNL     1       1.980  19.516  20.255  1.00  0.00    -0.230 N 
ATOM      3  H1  UNL     1       1.246  19.711  20.935  1.00  0.00     0.177 HD
HETATM    4  C2  UNL     1       1.620  19.128  18.944  1.00  0.00     0.685 C 
HETATM    5  N2  UNL     1       2.166  19.721  17.955  1.00  0.00    -0.234 N 
ATOM      6  H21 UNL     1       1.906  19.440  17.009  1.00  0.00     0.174 HD
ATOM      7  H22 UNL     1       2.848  20.460  18.118  1.00  0.00     0.174 HD
HETATM    8  N3  UNL     1       0.672  18.100  18.718  1.00  0.00    -0.023 N 
ATOM      9  H3  UNL     1       0.663  17.300  19.350  1.00  0.00     0.203 HD
HETATM   10  C3  UNL     1      -0.181  18.130  17.748  1.00  0.00     0.698 C 
HETATM   11  N4  UNL     1      -0.146  19.244  16.890  1.00  0.00    -0.156 N 
ATOM     12  H4  UNL     1       0.332  19.192  15.990  1.00  0.00     0.192 HD
HETATM   13 BR1  UNL     1      -0.995  20.825  17.429  1.00  0.00     0.063 Br
HETATM   14  N5  UNL     1      -1.120  17.104  17.530  1.00  0.00    -0.225 N 
ATOM     15  H5  UNL     1      -1.921  17.268  16.918  1.00  0.00     0.177 HD
ENDROOT
BRANCH  14  16
HETATM   16  C4  UNL     1      -0.953  15.812  18.175  1.00  0.00     0.142 C 
BRANCH  16  17
HETATM   17  C5  UNL     1      -2.006  14.841  17.687  1.00  0.00     0.004 C 
HETATM   18  C6  UNL     1      -1.615  13.465  18.096  1.00  0.00     0.006 C 
HETATM   19  C7  UNL     1      -0.968  12.895  16.837  1.00  0.00     0.000 C 
HETATM   20  C8  UNL     1      -1.891  13.454  15.766  1.00  0.00     0.000 C 
HETATM   21  C9  UNL     1      -2.116  14.871  16.184  1.00  0.00     0.006 C 
ENDBRANCH  16  17
ENDBRANCH  14  16
TORSDOF 2
ENDMDL
MODEL 2
REMARK VINA RESULT: -5.745449141      2.138      2.738
REMARK  2 active torsions:
REMARK  status: ('A' for Active; 'I' for Inactive)
REMARK       I    between atoms: N1_2  and  C2_4 
REMARK       I    between atoms: C2_4  and  N3_8 
REMARK       I    between atoms: C3_10  and  N4_11 
REMARK       I    between atoms: C3_10  and  N5_14 
REMARK    1  A    between atoms: N5_14  and  C4_16 
REMARK    2  A    between atoms: C4_16  and  C5_17 
ROOT
HETATM    1  C1  UNL     1       2.350  21.134  14.690  1.00  0.00     0.165 C 
HETATM    2  N1  UNL     1       2.309  20.014  15.609  1.00  0.00    -0.230 N 
ATOM      3  H1  UNL     1       2.951  19.234  15.471  1.00  0.00     0.177 HD
HETATM    4  C2  UNL     1       1.402  19.978  16.692  1.00  0.00     0.685 C 
HETATM    5  N2  UNL     1       1.313  20.997  17.455  1.00  0.00    -0.234 N 
ATOM      6  H21 UNL     1       0.658  20.970  18.237  1.00  0.00     0.174 HD
ATOM      7  H22 UNL     1       1.890  21.818  17.277  1.00  0.00     0.174 HD
HETATM    8  N3  UNL     1       0.601  18.837  16.939  1.00  0.00    -0.023 N 
ATOM      9  H3  UNL     1       0.236  18.317  16.142  1.00  0.00     0.203 HD
HETATM   10  C3  UNL     1       0.311  18.424  18.129  1.00  0.00     0.698 C 
HETATM   11  N4  UNL     1       0.826  19.158  19.213  1.00  0.00    -0.156 N 
ATOM     12  H4  UNL     1       0.247  19.843  19.699  1.00  0.00     0.192 HD
HETATM   13 BR1  UNL     1       2.597  18.856  19.747  1.00  0.00     0.063 Br
HETATM   14  N5  UNL     1      -0.486  17.288  18.367  1.00  0.00    -0.225 N 
ATOM     15  H5  UNL     1      -0.496  16.856  19.292  1.00  0.00     0.177 HD
ENDROOT
BRANCH  14  16
HETATM   16  C4  UNL     1      -1.297  16.729  17.297  1.00  0.00     0.142 C 
BRANCH  16  17
HETATM   17  C5  UNL     1      -2.057  15.518  17.792  1.00  0.00     0.004 C 
HETATM   18  C6  UNL     1      -1.242  14.830  18.829  1.00  0.00     0.006 C 
HETATM   19  C7  UNL     1      -0.577  13.695  18.057  1.00  0.00     0.000 C 
HETATM   20  C8  UNL     1      -1.720  13.258  17.155  1.00  0.00     0.000 C 
HETATM   21  C9  UNL     1      -2.312  14.542  16.672  1.00  0.00     0.006 C 
ENDBRANCH  16  17
ENDBRANCH  14  16
TORSDOF 2
ENDMDL
MODEL 3
REMARK VINA RESULT: -5.744142688      2.366      3.299
REMARK  2 active torsions:
REMARK  status: ('A' for Active; 'I' for Inactive)
REMARK       I    between atoms: N1_2  and  C2_4 
REMARK       I    between atoms: C2_4  and  N3_8 
REMARK       I    between atoms: C3_10  and  N4_11 
REMARK       I    between atoms: C3_10  and  N5_14 
REMARK    1  A    between atoms: N5_14  and  C4_16 
REMARK    2  A    between atoms: C4_16  and  C5_17 
ROOT
HETATM    1  C1  UNL     1      -2.660  21.434  18.263  1.00  0.00     0.165 C 
HETATM    2  N1  UNL     1      -1.598  20.449  18.238  1.00  0.00    -0.230 N 
ATOM      3  H1  UNL     1      -1.069  20.310  17.377  1.00  0.00     0.177 HD
HETATM    4  C2  UNL     1      -1.276  19.677  19.377  1.00  0.00     0.685 C 
HETATM    5  N2  UNL     1      -1.112  20.269  20.496  1.00  0.00    -0.234 N 
ATOM      6  H21 UNL     1      -0.880  19.712  21.318  1.00  0.00     0.174 HD
ATOM      7  H22 UNL     1      -1.213  21.282  20.556  1.00  0.00     0.174 HD
HETATM    8  N3  UNL     1      -1.136  18.271  19.294  1.00  0.00    -0.023 N 
ATOM      9  H3  UNL     1      -1.756  17.756  18.669  1.00  0.00     0.203 HD
HETATM   10  C3  UNL     1      -0.258  17.609  19.973  1.00  0.00     0.698 C 
HETATM   11  N4  UNL     1       0.586  18.342  20.828  1.00  0.00    -0.156 N 
ATOM     12  H4  UNL     1       0.387  18.402  21.827  1.00  0.00     0.192 HD
HETATM   13 BR1  UNL     1       2.081  19.204  20.099  1.00  0.00     0.063 Br
HETATM   14  N5  UNL     1      -0.123  16.210  19.885  1.00  0.00    -0.225 N 
ATOM     15  H5  UNL     1       0.718  15.756  20.239  1.00  0.00     0.177 HD
ENDROOT
BRANCH  14  16
HETATM   16  C4  UNL     1      -1.182  15.412  19.288  1.00  0.00     0.142 C 
BRANCH  16  17
HETATM   17  C5  UNL     1      -0.792  14.982  17.891  1.00  0.00     0.004 C 
HETATM   18  C6  UNL     1      -1.669  15.679  16.912  1.00  0.00     0.006 C 
HETATM   19  C7  UNL     1      -2.733  14.636  16.588  1.00  0.00     0.000 C 
HETATM   20  C8  UNL     1      -1.887  13.374  16.532  1.00  0.00     0.000 C 
HETATM   21  C9  UNL     1      -0.976  13.496  17.711  1.00  0.00     0.006 C 
ENDBRANCH  16  17
ENDBRANCH  14  16
TORSDOF 2
ENDMDL
MODEL 4
REMARK VINA RESULT: -5.737483863      2.871      3.151
REMARK  2 active torsions:
REMARK  status: ('A' for Active; 'I' for Inactive)
REMARK       I    between atoms: N1_2  and  C2_4 
REMARK       I    between atoms: C2_4  and  N3_8 
REMARK       I    between atoms: C3_10  and  N4_11 
REMARK       I    between atoms: C3_10  and  N5_14 
REMARK    1  A    between atoms: N5_14  and  C4_16 
REMARK    2  A    between atoms: C4_16  and  C5_17 
ROOT
HETATM    1  C1  UNL     1      -1.848  17.675  24.461  1.00  0.00     0.165 C 
HETATM    2  N1  UNL     1      -2.098  17.783  23.038  1.00  0.00    -0.230 N 
ATOM      3  H1  UNL     1      -3.060  17.761  22.699  1.00  0.00     0.177 HD
HETATM    4  C2  UNL     1      -1.042  17.918  22.108  1.00  0.00     0.685 C 
HETATM    5  N2  UNL     1      -0.141  18.796  22.323  1.00  0.00    -0.234 N 
ATOM      6  H21 UNL     1       0.621  18.893  21.652  1.00  0.00     0.174 HD
ATOM      7  H22 UNL     1      -0.191  19.384  23.154  1.00  0.00     0.174 HD
HETATM    8  N3  UNL     1      -0.973  17.101  20.954  1.00  0.00    -0.023 N 
ATOM      9  H3  UNL     1      -1.270  16.128  21.028  1.00  0.00     0.203 HD
HETATM   10  C3  UNL     1      -0.550  17.530  19.811  1.00  0.00     0.698 C 
HETATM   11  N4  UNL     1      -0.146  18.875  19.734  1.00  0.00    -0.156 N 
ATOM     12  H4  UNL     1       0.842  19.125  19.787  1.00  0.00     0.192 HD
HETATM   13 BR1  UNL     1      -1.454  20.201  19.533  1.00  0.00     0.063 Br
HETATM   14  N5  UNL     1      -0.484  16.712  18.667  1.00  0.00    -0.225 N 
ATOM     15  H5  UNL     1      -0.380  17.134  17.744  1.00  0.00     0.177 HD
ENDROOT
BRANCH  14  16
HETATM   16  C4  UNL     1      -0.565  15.266  18.799  1.00  0.00     0.142 C 
BRANCH  16  17
HETATM   17  C5  UNL     1      -1.846  14.753  18.177  1.00  0.00     0.004 C 
HETATM   18  C6  UNL     1      -1.685  13.306  17.872  1.00  0.00     0.006 C 
HETATM   19  C7  UNL     1      -1.339  13.296  16.387  1.00  0.00     0.000 C 
HETATM   20  C8  UNL     1      -2.268  14.384  15.872  1.00  0.00     0.000 C 
HETATM   21  C9  UNL     1      -2.149  15.473  16.888  1.00  0.00     0.006 C 
ENDBRANCH  16  17
ENDBRANCH  14  16
TORSDOF 2
ENDMDL
MODEL 5
REMARK VINA RESULT: -5.632462721      3.827      4.363
REMARK  2 active torsions:
REMARK  status: ('A' for Active; 'I' for Inactive)
REMARK       I    between atoms: N1_2  and  C2_4 
REMARK       I    between atoms: C2_4  and  N3_8 
REMARK       I    between atoms: C3_10  and  N4_11 
REMARK       I    between atoms: C3_10  and  N5_14 
REMARK    1  A    between atoms: N5_14  and  C4_16 
REMARK    2  A    between atoms: C4_16  and  C5_17 
ROOT
HETATM    1  C1  UNL     1      -2.747  17.510  25.650  1.00  0.00     0.165 C 
HETATM    2  N1  UNL     1      -2.727  17.955  24.272  1.00  0.00    -0.230 N 
ATOM      3  H1  UNL     1      -3.581  18.330  23.858  1.00  0.00     0.177 HD
HETATM    4  C2  UNL     1      -1.555  17.882  23.486  1.00  0.00     0.685 C 
HETATM    5  N2  UNL     1      -0.463  18.339  23.966  1.00  0.00    -0.234 N 
ATOM      6  H21 UNL     1       0.383  18.286  23.399  1.00  0.00     0.174 HD
ATOM      7  H22 UNL     1      -0.449  18.746  24.900  1.00  0.00     0.174 HD
HETATM    8  N3  UNL     1      -1.575  17.317  22.188  1.00  0.00    -0.023 N 
ATOM      9  H3  UNL     1      -2.176  16.511  22.019  1.00  0.00     0.203 HD
HETATM   10  C3  UNL     1      -0.866  17.774  21.209  1.00  0.00     0.698 C 
HETATM   11  N4  UNL     1      -0.044  18.885  21.469  1.00  0.00    -0.156 N 
ATOM     12  H4  UNL     1       0.951  18.762  21.658  1.00  0.00     0.192 HD
HETATM   13 BR1  UNL     1      -0.810  20.595  21.461  1.00  0.00     0.063 Br
HETATM   14  N5  UNL     1      -0.892  17.205  19.921  1.00  0.00    -0.225 N 
ATOM     15  H5  UNL     1      -0.517  17.725  19.127  1.00  0.00     0.177 HD
ENDROOT
BRANCH  14  16
HETATM   16  C4  UNL     1      -1.453  15.879  19.720  1.00  0.00     0.142 C 
BRANCH  16  17
HETATM   17  C5  UNL     1      -0.875  15.248  18.472  1.00  0.00     0.004 C 
HETATM   18  C6  UNL     1      -1.404  15.967  17.282  1.00  0.00     0.006 C 
HETATM   19  C7  UNL     1      -2.549  15.075  16.813  1.00  0.00     0.000 C 
HETATM   20  C8  UNL     1      -1.942  13.698  17.028  1.00  0.00     0.000 C 
HETATM   21  C9  UNL     1      -1.276  13.799  18.362  1.00  0.00     0.006 C 
ENDBRANCH  16  17
ENDBRANCH  14  16
TORSDOF 2
ENDMDL
