MODEL 1
REMARK VINA RESULT: -6.642623969      0.000      0.000
REMARK  4 active torsions:
REMARK  status: ('A' for Active; 'I' for Inactive)
REMARK    1  A    between atoms: C2_2  and  C3_3 
REMARK    2  A    between atoms: C3_3  and  N1_4 
REMARK       I    between atoms: N1_4  and  C4_6 
REMARK       I    between atoms: C4_6  and  N3_10 
REMARK    3  A    between atoms: N3_10  and  C5_12 
REMARK    4  A    between atoms: C7_16  and  N5_17 
ROOT
HETATM    1  C5  UNL     1      -0.946  17.404  18.662  1.00  0.00     0.698 A 
HETATM    2  N4  UNL     1      -0.941  17.898  17.409  1.00  0.00    -0.198 N 
ATOM      3  H4  UNL     1      -1.612  17.647  16.682  1.00  0.00     0.183 HD
HETATM    4  C6  UNL     1       0.071  18.769  17.247  1.00  0.00     0.163 A 
HETATM    5  C7  UNL     1       0.741  18.824  18.469  1.00  0.00     0.240 A 
HETATM    6  N6  UNL     1       0.101  17.988  19.301  1.00  0.00    -0.167 N 
ATOM      7  H6  UNL     1       0.362  17.816  20.272  1.00  0.00     0.186 HD
ENDROOT
BRANCH   1   8
HETATM    8  N3  UNL     1      -1.751  16.541  19.202  1.00  0.00    -0.023 N 
HETATM    9  C4  UNL     1      -1.492  15.140  18.938  1.00  0.00     0.686 C 
HETATM   10  N1  UNL     1      -1.594  14.620  17.632  1.00  0.00    -0.226 N 
HETATM   11  N2  UNL     1      -1.159  14.348  19.896  1.00  0.00    -0.234 N 
ATOM     12  H1  UNL     1      -1.863  15.245  16.871  1.00  0.00     0.177 HD
ATOM     13  H22 UNL     1      -0.977  13.362  19.710  1.00  0.00     0.174 HD
ATOM     14  H21 UNL     1      -1.084  14.724  20.842  1.00  0.00     0.174 HD
ATOM     15  H3  UNL     1      -2.533  16.837  19.788  1.00  0.00     0.203 HD
BRANCH  10  16
HETATM   16  C3  UNL     1      -1.333  13.244  17.339  1.00  0.00     0.137 C 
BRANCH  16  17
HETATM   17  C2  UNL     1      -1.538  12.856  15.907  1.00  0.00     0.016 C 
HETATM   18  C1  UNL     1      -2.306  13.990  15.216  1.00  0.00     0.006 C 
ENDBRANCH  16  17
ENDBRANCH  10  16
ENDBRANCH   1   8
BRANCH   5  19
HETATM   19  N5  UNL     1       1.884  19.611  18.773  1.00  0.00     0.006 N 
HETATM   20  C8  UNL     1       2.469  20.097  17.526  1.00  0.00     0.285 C 
HETATM   21  C9  UNL     1       2.839  18.829  19.515  1.00  0.00     0.249 C 
HETATM   22  C10 UNL     1       3.444  19.535  20.681  1.00  0.00     0.029 C 
HETATM   23  C11 UNL     1       3.787  20.963  20.421  1.00  0.00     0.006 C 
HETATM   24  C12 UNL     1       2.602  21.696  19.882  1.00  0.00     0.068 C 
HETATM   25  C13 UNL     1       1.459  20.759  19.513  1.00  0.00     0.379 C 
HETATM   26  F1  UNL     1       0.540  21.505  18.808  1.00  0.00    -0.218 F 
ENDBRANCH   5  19
TORSDOF 4
ENDMDL
MODEL 2
REMARK VINA RESULT: -6.379619033      1.412      2.183
REMARK  4 active torsions:
REMARK  status: ('A' for Active; 'I' for Inactive)
REMARK    1  A    between atoms: C2_2  and  C3_3 
REMARK    2  A    between atoms: C3_3  and  N1_4 
REMARK       I    between atoms: N1_4  and  C4_6 
REMARK       I    between atoms: C4_6  and  N3_10 
REMARK    3  A    between atoms: N3_10  and  C5_12 
REMARK    4  A    between atoms: C7_16  and  N5_17 
ROOT
HETATM    1  C5  UNL     1      -0.630  17.229  19.214  1.00  0.00     0.698 A 
HETATM    2  N4  UNL     1       0.627  17.300  19.694  1.00  0.00    -0.198 N 
ATOM      3  H4  UNL     1       1.022  16.664  20.387  1.00  0.00     0.183 HD
HETATM    4  C6  UNL     1       1.290  18.327  19.134  1.00  0.00     0.163 A 
HETATM    5  C7  UNL     1       0.399  18.937  18.252  1.00  0.00     0.240 A 
HETATM    6  N6  UNL     1      -0.751  18.249  18.325  1.00  0.00    -0.167 N 
ATOM      7  H6  UNL     1      -1.594  18.460  17.790  1.00  0.00     0.186 HD
ENDROOT
BRANCH   1   8
HETATM    8  N3  UNL     1      -1.576  16.390  19.507  1.00  0.00    -0.023 N 
HETATM    9  C4  UNL     1      -1.372  15.006  19.125  1.00  0.00     0.686 C 
HETATM   10  N1  UNL     1      -1.280  14.638  17.767  1.00  0.00    -0.226 N 
HETATM   11  N2  UNL     1      -1.268  14.091  20.024  1.00  0.00    -0.234 N 
ATOM     12  H1  UNL     1      -1.368  15.361  17.053  1.00  0.00     0.177 HD
ATOM     13  H22 UNL     1      -1.126  13.118  19.755  1.00  0.00     0.174 HD
ATOM     14  H21 UNL     1      -1.334  14.358  21.007  1.00  0.00     0.174 HD
ATOM     15  H3  UNL     1      -2.425  16.691  19.985  1.00  0.00     0.203 HD
BRANCH  10  16
HETATM   16  C3  UNL     1      -1.069  13.282  17.361  1.00  0.00     0.137 C 
BRANCH  16  17
HETATM   17  C2  UNL     1      -1.552  12.958  15.981  1.00  0.00     0.016 C 
HETATM   18  C1  UNL     1      -2.448  14.111  15.510  1.00  0.00     0.006 C 
ENDBRANCH  16  17
ENDBRANCH  10  16
ENDBRANCH   1   8
BRANCH   5  19
HETATM   19  N5  UNL     1       0.657  20.071  17.437  1.00  0.00     0.006 N 
HETATM   20  C8  UNL     1      -0.604  20.543  16.869  1.00  0.00     0.285 C 
HETATM   21  C9  UNL     1       1.590  19.728  16.395  1.00  0.00     0.249 C 
HETATM   22  C10 UNL     1       2.668  20.735  16.173  1.00  0.00     0.029 C 
HETATM   23  C11 UNL     1       2.204  22.151  16.234  1.00  0.00     0.006 C 
HETATM   24  C12 UNL     1       1.460  22.404  17.505  1.00  0.00     0.068 C 
HETATM   25  C13 UNL     1       1.162  21.120  18.268  1.00  0.00     0.379 C 
HETATM   26  F1  UNL     1       0.274  21.446  19.270  1.00  0.00    -0.218 F 
ENDBRANCH   5  19
TORSDOF 4
ENDMDL
MODEL 3
REMARK VINA RESULT: -6.328284838      1.739      2.713
REMARK  4 active torsions:
REMARK  status: ('A' for Active; 'I' for Inactive)
REMARK    1  A    between atoms: C2_2  and  C3_3 
REMARK    2  A    between atoms: C3_3  and  N1_4 
REMARK       I    between atoms: N1_4  and  C4_6 
REMARK       I    between atoms: C4_6  and  N3_10 
REMARK    3  A    between atoms: N3_10  and  C5_12 
REMARK    4  A    between atoms: C7_16  and  N5_17 
ROOT
HETATM    1  C5  UNL     1      -0.720  17.102  19.552  1.00  0.00     0.698 A 
HETATM    2  N4  UNL     1       0.555  17.092  19.988  1.00  0.00    -0.198 N 
ATOM      3  H4  UNL     1       0.979  16.336  20.526  1.00  0.00     0.183 HD
HETATM    4  C6  UNL     1       1.192  18.216  19.615  1.00  0.00     0.163 A 
HETATM    5  C7  UNL     1       0.264  18.977  18.905  1.00  0.00     0.240 A 
HETATM    6  N6  UNL     1      -0.880  18.275  18.885  1.00  0.00    -0.167 N 
ATOM      7  H6  UNL     1      -1.743  18.578  18.436  1.00  0.00     0.186 HD
ENDROOT
BRANCH   1   8
HETATM    8  N3  UNL     1      -1.650  16.212  19.710  1.00  0.00    -0.023 N 
HETATM    9  C4  UNL     1      -1.363  14.867  19.252  1.00  0.00     0.686 C 
HETATM   10  N1  UNL     1      -1.152  14.600  17.884  1.00  0.00    -0.226 N 
HETATM   11  N2  UNL     1      -1.291  13.895  20.092  1.00  0.00    -0.234 N 
ATOM     12  H1  UNL     1      -1.213  15.368  17.216  1.00  0.00     0.177 HD
ATOM     13  H22 UNL     1      -1.089  12.948  19.770  1.00  0.00     0.174 HD
ATOM     14  H21 UNL     1      -1.443  14.088  21.082  1.00  0.00     0.174 HD
ATOM     15  H3  UNL     1      -2.546  16.448  20.139  1.00  0.00     0.203 HD
BRANCH  10  16
HETATM   16  C3  UNL     1      -0.854  13.285  17.404  1.00  0.00     0.137 C 
BRANCH  16  17
HETATM   17  C2  UNL     1      -1.526  12.919  16.117  1.00  0.00     0.016 C 
HETATM   18  C1  UNL     1      -2.303  14.147  15.624  1.00  0.00     0.006 C 
ENDBRANCH  16  17
ENDBRANCH  10  16
ENDBRANCH   1   8
BRANCH   5  19
HETATM   19  N5  UNL     1       0.486  20.252  18.319  1.00  0.00     0.006 N 
HETATM   20  C8  UNL     1       1.825  20.712  18.681  1.00  0.00     0.285 C 
HETATM   21  C9  UNL     1      -0.514  21.184  18.771  1.00  0.00     0.249 C 
HETATM   22  C10 UNL     1      -1.086  22.046  17.696  1.00  0.00     0.029 C 
HETATM   23  C11 UNL     1      -0.082  22.546  16.714  1.00  0.00     0.006 C 
HETATM   24  C12 UNL     1       0.711  21.411  16.152  1.00  0.00     0.068 C 
HETATM   25  C13 UNL     1       0.463  20.105  16.896  1.00  0.00     0.379 C 
HETATM   26  F1  UNL     1       1.415  19.209  16.462  1.00  0.00    -0.218 F 
ENDBRANCH   5  19
TORSDOF 4
ENDMDL
MODEL 4
REMARK VINA RESULT: -6.271162549      1.196      1.765
REMARK  4 active torsions:
REMARK  status: ('A' for Active; 'I' for Inactive)
REMARK    1  A    between atoms: C2_2  and  C3_3 
REMARK    2  A    between atoms: C3_3  and  N1_4 
REMARK       I    between atoms: N1_4  and  C4_6 
REMARK       I    between atoms: C4_6  and  N3_10 
REMARK    3  A    between atoms: N3_10  and  C5_12 
REMARK    4  A    between atoms: C7_16  and  N5_17 
ROOT
HETATM    1  C5  UNL     1      -0.873  17.482  18.874  1.00  0.00     0.698 A 
HETATM    2  N4  UNL     1      -0.386  17.723  17.641  1.00  0.00    -0.198 N 
ATOM      3  H4  UNL     1      -0.659  17.215  16.799  1.00  0.00     0.183 HD
HETATM    4  C6  UNL     1       0.509  18.725  17.673  1.00  0.00     0.163 A 
HETATM    5  C7  UNL     1       0.590  19.139  19.002  1.00  0.00     0.240 A 
HETATM    6  N6  UNL     1      -0.258  18.367  19.701  1.00  0.00    -0.167 N 
ATOM      7  H6  UNL     1      -0.416  18.435  20.705  1.00  0.00     0.186 HD
ENDROOT
BRANCH   1   8
HETATM    8  N3  UNL     1      -1.744  16.598  19.256  1.00  0.00    -0.023 N 
HETATM    9  C4  UNL     1      -1.434  15.208  18.989  1.00  0.00     0.686 C 
HETATM   10  N1  UNL     1      -1.331  14.733  17.666  1.00  0.00    -0.226 N 
HETATM   11  N2  UNL     1      -1.244  14.385  19.960  1.00  0.00    -0.234 N 
ATOM     12  H1  UNL     1      -1.487  15.381  16.894  1.00  0.00     0.177 HD
ATOM     13  H22 UNL     1      -1.026  13.407  19.772  1.00  0.00     0.174 HD
ATOM     14  H21 UNL     1      -1.318  14.729  20.918  1.00  0.00     0.174 HD
ATOM     15  H3  UNL     1      -2.608  16.871  19.725  1.00  0.00     0.203 HD
BRANCH  10  16
HETATM   16  C3  UNL     1      -1.016  13.368  17.372  1.00  0.00     0.137 C 
BRANCH  16  17
HETATM   17  C2  UNL     1      -1.496  12.886  16.037  1.00  0.00     0.016 C 
HETATM   18  C1  UNL     1      -2.266  14.033  15.370  1.00  0.00     0.006 C 
ENDBRANCH  16  17
ENDBRANCH  10  16
ENDBRANCH   1   8
BRANCH   5  19
HETATM   19  N5  UNL     1       1.414  20.174  19.518  1.00  0.00     0.006 N 
HETATM   20  C8  UNL     1       1.049  20.420  20.911  1.00  0.00     0.285 C 
HETATM   21  C9  UNL     1       1.256  21.369  18.730  1.00  0.00     0.249 C 
HETATM   22  C10 UNL     1       2.533  22.064  18.398  1.00  0.00     0.029 C 
HETATM   23  C11 UNL     1       3.513  22.112  19.521  1.00  0.00     0.006 C 
HETATM   24  C12 UNL     1       3.752  20.742  20.066  1.00  0.00     0.068 C 
HETATM   25  C13 UNL     1       2.770  19.717  19.512  1.00  0.00     0.379 C 
HETATM   26  F1  UNL     1       2.922  18.570  20.260  1.00  0.00    -0.218 F 
ENDBRANCH   5  19
TORSDOF 4
ENDMDL
MODEL 5
REMARK VINA RESULT: -6.155197920      1.178      1.861
REMARK  4 active torsions:
REMARK  status: ('A' for Active; 'I' for Inactive)
REMARK    1  A    between atoms: C2_2  and  C3_3 
REMARK    2  A    between atoms: C3_3  and  N1_4 
REMARK       I    between atoms: N1_4  and  C4_6 
REMARK       I    between atoms: C4_6  and  N3_10 
REMARK    3  A    between atoms: N3_10  and  C5_12 
REMARK    4  A    between atoms: C7_16  and  N5_17 
ROOT
HETATM    1  C5  UNL     1      -0.940  17.872  17.499  1.00  0.00     0.698 A 
HETATM    2  N4  UNL     1      -1.195  17.881  18.822  1.00  0.00    -0.198 N 
ATOM      3  H4  UNL     1      -2.015  17.458  19.258  1.00  0.00     0.183 HD
HETATM    4  C6  UNL     1      -0.221  18.525  19.488  1.00  0.00     0.163 A 
HETATM    5  C7  UNL     1       0.700  18.945  18.529  1.00  0.00     0.240 A 
HETATM    6  N6  UNL     1       0.235  18.534  17.339  1.00  0.00    -0.167 N 
ATOM      7  H6  UNL     1       0.697  18.695  16.444  1.00  0.00     0.186 HD
ENDROOT
BRANCH   1   8
HETATM    8  N3  UNL     1      -1.636  17.360  16.531  1.00  0.00    -0.023 N 
HETATM    9  C4  UNL     1      -2.096  15.996  16.696  1.00  0.00     0.686 C 
HETATM   10  N1  UNL     1      -1.177  14.930  16.780  1.00  0.00    -0.226 N 
HETATM   11  N2  UNL     1      -3.354  15.738  16.774  1.00  0.00    -0.234 N 
ATOM     12  H1  UNL     1      -0.180  15.131  16.714  1.00  0.00     0.177 HD
ATOM     13  H22 UNL     1      -3.678  14.778  16.891  1.00  0.00     0.174 HD
ATOM     14  H21 UNL     1      -4.019  16.509  16.714  1.00  0.00     0.174 HD
ATOM     15  H3  UNL     1      -1.851  17.896  15.689  1.00  0.00     0.203 HD
BRANCH  10  16
HETATM   16  C3  UNL     1      -1.602  13.574  16.956  1.00  0.00     0.137 C 
BRANCH  16  17
HETATM   17  C2  UNL     1      -1.494  13.059  18.358  1.00  0.00     0.016 C 
HETATM   18  C1  UNL     1      -0.761  14.116  19.195  1.00  0.00     0.006 C 
ENDBRANCH  16  17
ENDBRANCH  10  16
ENDBRANCH   1   8
BRANCH   5  19
HETATM   19  N5  UNL     1       1.897  19.671  18.766  1.00  0.00     0.006 N 
HETATM   20  C8  UNL     1       2.496  20.030  17.483  1.00  0.00     0.285 C 
HETATM   21  C9  UNL     1       2.808  18.879  19.551  1.00  0.00     0.249 C 
HETATM   22  C10 UNL     1       3.476  19.620  20.660  1.00  0.00     0.029 C 
HETATM   23  C11 UNL     1       3.910  21.000  20.298  1.00  0.00     0.006 C 
HETATM   24  C12 UNL     1       2.769  21.773  19.721  1.00  0.00     0.068 C 
HETATM   25  C13 UNL     1       1.560  20.893  19.429  1.00  0.00     0.379 C 
HETATM   26  F1  UNL     1       0.683  21.651  18.683  1.00  0.00    -0.218 F 
ENDBRANCH   5  19
TORSDOF 4
ENDMDL
