MODEL 1
REMARK VINA RESULT: -6.407650592      0.000      0.000
REMARK  5 active torsions:
REMARK  status: ('A' for Active; 'I' for Inactive)
REMARK    1  A    between atoms: C3_7  and  C4_8 
REMARK    2  A    between atoms: C4_8  and  C5_9 
REMARK    3  A    between atoms: C6_10  and  O1_11 
REMARK    4  A    between atoms: C7_15  and  C8_16 
REMARK    5  A    between atoms: C9_18  and  C10_19 
ROOT
HETATM    1  C5  UNL     1      -1.025  16.507  18.646  1.00  0.00     0.025 A 
HETATM    2  C6  UNL     1      -1.094  16.066  19.960  1.00  0.00     0.151 A 
HETATM    3  N3  UNL     1      -0.415  16.959  20.702  1.00  0.00    -0.339 N 
ATOM      4  H3  UNL     1      -0.290  16.900  21.713  1.00  0.00     0.168 HD
HETATM    5  C7  UNL     1       0.077  17.939  19.924  1.00  0.00     0.028 A 
HETATM    6  C9  UNL     1      -0.297  17.676  18.616  1.00  0.00    -0.021 A 
ENDROOT
BRANCH   1   7
HETATM    7  C4  UNL     1      -1.636  15.798  17.533  1.00  0.00     0.049 C 
BRANCH   7   8
HETATM    8  C3  UNL     1      -1.292  14.565  17.240  1.00  0.00     0.076 A 
HETATM    9  C2  UNL     1      -1.618  13.674  16.209  1.00  0.00     0.066 A 
HETATM   10  C1  UNL     1      -2.397  13.753  15.146  1.00  0.00     0.047 C 
HETATM   11  N1  UNL     1      -0.809  12.770  16.789  1.00  0.00    -0.299 N 
HETATM   12  N2  UNL     1      -0.504  13.613  17.760  1.00  0.00    -0.298 N 
ATOM     13  H1  UNL     1      -0.539  11.812  16.568  1.00  0.00     0.187 HD
ATOM     14  H2  UNL     1       0.096  13.560  18.584  1.00  0.00     0.187 HD
ENDBRANCH   7   8
ENDBRANCH   1   7
BRANCH   2  15
HETATM   15  O1  UNL     1      -1.716  14.948  20.464  1.00  0.00    -0.345 OA
ATOM     16  H1  UNL     1      -1.838  14.690  21.371  1.00  0.00     0.219 HD
ENDBRANCH   2  15
BRANCH   6  17
HETATM   17  C10 UNL     1       0.017  18.490  17.431  1.00  0.00     0.037 C 
HETATM   18  C11 UNL     1      -0.928  19.664  17.251  1.00  0.00     0.010 C 
ENDBRANCH   6  17
BRANCH   5  19
HETATM   19  C8  UNL     1       0.869  19.084  20.399  1.00  0.00     0.142 C 
HETATM   20 BR1  UNL     1       2.741  18.940  19.989  1.00  0.00    -0.090 Br
ENDBRANCH   5  19
TORSDOF 5
ENDMDL
MODEL 2
REMARK VINA RESULT: -6.092811916      2.000      2.527
REMARK  5 active torsions:
REMARK  status: ('A' for Active; 'I' for Inactive)
REMARK    1  A    between atoms: C3_7  and  C4_8 
REMARK    2  A    between atoms: C4_8  and  C5_9 
REMARK    3  A    between atoms: C6_10  and  O1_11 
REMARK    4  A    between atoms: C7_15  and  C8_16 
REMARK    5  A    between atoms: C9_18  and  C10_19 
ROOT
HETATM    1  C5  UNL     1      -1.248  16.688  18.113  1.00  0.00     0.025 A 
HETATM    2  C6  UNL     1      -1.606  17.338  16.940  1.00  0.00     0.151 A 
HETATM    3  N3  UNL     1      -0.999  18.538  16.964  1.00  0.00    -0.339 N 
ATOM      4  H3  UNL     1      -1.076  19.243  16.230  1.00  0.00     0.168 HD
HETATM    5  C7  UNL     1      -0.277  18.677  18.089  1.00  0.00     0.028 A 
HETATM    6  C9  UNL     1      -0.418  17.517  18.835  1.00  0.00    -0.021 A 
ENDROOT
BRANCH   1   7
HETATM    7  C4  UNL     1      -1.715  15.356  18.463  1.00  0.00     0.049 C 
BRANCH   7   8
HETATM    8  C3  UNL     1      -1.178  14.284  17.928  1.00  0.00     0.076 A 
HETATM    9  C2  UNL     1      -1.434  13.529  16.776  1.00  0.00     0.066 A 
HETATM   10  C1  UNL     1      -2.318  13.624  15.799  1.00  0.00     0.047 C 
HETATM   11  N1  UNL     1      -0.417  12.723  17.127  1.00  0.00    -0.299 N 
HETATM   12  N2  UNL     1      -0.178  13.437  18.212  1.00  0.00    -0.298 N 
ATOM     13  H1  UNL     1       0.004  11.890  16.717  1.00  0.00     0.187 HD
ATOM     14  H2  UNL     1       0.502  13.371  18.971  1.00  0.00     0.187 HD
ENDBRANCH   7   8
ENDBRANCH   1   7
BRANCH   2  15
HETATM   15  O1  UNL     1      -2.416  16.896  15.921  1.00  0.00    -0.345 OA
ATOM     16  H1  UNL     1      -3.052  16.189  15.926  1.00  0.00     0.219 HD
ENDBRANCH   2  15
BRANCH   6  17
HETATM   17  C10 UNL     1       0.204  17.228  20.137  1.00  0.00     0.037 C 
HETATM   18  C11 UNL     1      -0.542  17.854  21.301  1.00  0.00     0.010 C 
ENDBRANCH   6  17
BRANCH   5  19
HETATM   19  C8  UNL     1       0.520  19.861  18.447  1.00  0.00     0.142 C 
HETATM   20 BR1  UNL     1       2.102  20.068  17.375  1.00  0.00    -0.090 Br
ENDBRANCH   5  19
TORSDOF 5
ENDMDL
MODEL 3
REMARK VINA RESULT: -6.035801678      1.299      1.472
REMARK  5 active torsions:
REMARK  status: ('A' for Active; 'I' for Inactive)
REMARK    1  A    between atoms: C3_7  and  C4_8 
REMARK    2  A    between atoms: C4_8  and  C5_9 
REMARK    3  A    between atoms: C6_10  and  O1_11 
REMARK    4  A    between atoms: C7_15  and  C8_16 
REMARK    5  A    between atoms: C9_18  and  C10_19 
ROOT
HETATM    1  C5  UNL     1      -1.293  16.206  18.499  1.00  0.00     0.025 A 
HETATM    2  C6  UNL     1      -0.890  15.610  19.686  1.00  0.00     0.151 A 
HETATM    3  N3  UNL     1       0.130  16.348  20.160  1.00  0.00    -0.339 N 
ATOM      4  H3  UNL     1       0.635  16.154  21.025  1.00  0.00     0.168 HD
HETATM    5  C7  UNL     1       0.389  17.377  19.334  1.00  0.00     0.028 A 
HETATM    6  C9  UNL     1      -0.501  17.309  18.273  1.00  0.00    -0.021 A 
ENDROOT
BRANCH   1   7
HETATM    7  C4  UNL     1      -2.375  15.692  17.674  1.00  0.00     0.049 C 
BRANCH   7   8
HETATM    8  C3  UNL     1      -2.138  14.880  16.668  1.00  0.00     0.076 A 
HETATM    9  C2  UNL     1      -1.440  13.675  16.525  1.00  0.00     0.066 A 
HETATM   10  C1  UNL     1      -0.761  12.907  17.357  1.00  0.00     0.047 C 
HETATM   11  N1  UNL     1      -1.776  13.683  15.223  1.00  0.00    -0.299 N 
HETATM   12  N2  UNL     1      -2.434  14.820  15.362  1.00  0.00    -0.298 N 
ATOM     13  H1  UNL     1      -1.594  13.058  14.438  1.00  0.00     0.187 HD
ATOM     14  H2  UNL     1      -2.960  15.419  14.725  1.00  0.00     0.187 HD
ENDBRANCH   7   8
ENDBRANCH   1   7
BRANCH   2  15
HETATM   15  O1  UNL     1      -1.393  14.490  20.304  1.00  0.00    -0.345 OA
ATOM     16  H1  UNL     1      -0.993  13.946  20.973  1.00  0.00     0.219 HD
ENDBRANCH   2  15
BRANCH   6  17
HETATM   17  C10 UNL     1      -0.584  18.238  17.135  1.00  0.00     0.037 C 
HETATM   18  C11 UNL     1      -1.068  19.621  17.533  1.00  0.00     0.010 C 
ENDBRANCH   6  17
BRANCH   5  19
HETATM   19  C8  UNL     1       1.436  18.389  19.540  1.00  0.00     0.142 C 
HETATM   20 BR1  UNL     1       1.010  19.659  20.918  1.00  0.00    -0.090 Br
ENDBRANCH   5  19
TORSDOF 5
ENDMDL
MODEL 4
REMARK VINA RESULT: -5.994380161      2.325      3.059
REMARK  5 active torsions:
REMARK  status: ('A' for Active; 'I' for Inactive)
REMARK    1  A    between atoms: C3_7  and  C4_8 
REMARK    2  A    between atoms: C4_8  and  C5_9 
REMARK    3  A    between atoms: C6_10  and  O1_11 
REMARK    4  A    between atoms: C7_15  and  C8_16 
REMARK    5  A    between atoms: C9_18  and  C10_19 
ROOT
HETATM    1  C5  UNL     1      -1.817  16.426  17.385  1.00  0.00     0.025 A 
HETATM    2  C6  UNL     1      -1.833  17.597  16.641  1.00  0.00     0.151 A 
HETATM    3  N3  UNL     1      -0.824  18.359  17.101  1.00  0.00    -0.339 N 
ATOM      4  H3  UNL     1      -0.586  19.285  16.746  1.00  0.00     0.168 HD
HETATM    5  C7  UNL     1      -0.174  17.728  18.095  1.00  0.00     0.028 A 
HETATM    6  C9  UNL     1      -0.784  16.499  18.293  1.00  0.00    -0.021 A 
ENDROOT
BRANCH   1   7
HETATM    7  C4  UNL     1      -2.769  15.344  17.191  1.00  0.00     0.049 C 
BRANCH   7   8
HETATM    8  C3  UNL     1      -2.540  14.383  16.325  1.00  0.00     0.076 A 
HETATM    9  C2  UNL     1      -1.658  13.296  16.277  1.00  0.00     0.066 A 
HETATM   10  C1  UNL     1      -0.728  12.837  17.093  1.00  0.00     0.047 C 
HETATM   11  N1  UNL     1      -2.184  12.974  15.082  1.00  0.00    -0.299 N 
HETATM   12  N2  UNL     1      -3.015  14.001  15.131  1.00  0.00    -0.298 N 
ATOM     13  H1  UNL     1      -2.010  12.232  14.405  1.00  0.00     0.187 HD
ATOM     14  H2  UNL     1      -3.736  14.362  14.504  1.00  0.00     0.187 HD
ENDBRANCH   7   8
ENDBRANCH   1   7
BRANCH   2  15
HETATM   15  O1  UNL     1      -2.684  17.964  15.625  1.00  0.00    -0.345 OA
ATOM     16  H1  UNL     1      -3.552  17.635  15.426  1.00  0.00     0.219 HD
ENDBRANCH   2  15
BRANCH   6  17
HETATM   17  C10 UNL     1      -0.399  15.475  19.277  1.00  0.00     0.037 C 
HETATM   18  C11 UNL     1      -1.407  15.325  20.402  1.00  0.00     0.010 C 
ENDBRANCH   6  17
BRANCH   5  19
HETATM   19  C8  UNL     1       0.983  18.263  18.828  1.00  0.00     0.142 C 
HETATM   20 BR1  UNL     1       0.533  18.950  20.566  1.00  0.00    -0.090 Br
ENDBRANCH   5  19
TORSDOF 5
ENDMDL
MODEL 5
REMARK VINA RESULT: -5.854878014      2.237      2.819
REMARK  5 active torsions:
REMARK  status: ('A' for Active; 'I' for Inactive)
REMARK    1  A    between atoms: C3_7  and  C4_8 
REMARK    2  A    between atoms: C4_8  and  C5_9 
REMARK    3  A    between atoms: C6_10  and  O1_11 
REMARK    4  A    between atoms: C7_15  and  C8_16 
REMARK    5  A    between atoms: C9_18  and  C10_19 
ROOT
HETATM    1  C5  UNL     1      -1.252  16.706  18.094  1.00  0.00     0.025 A 
HETATM    2  C6  UNL     1      -1.580  17.358  16.913  1.00  0.00     0.151 A 
HETATM    3  N3  UNL     1      -0.904  18.521  16.916  1.00  0.00    -0.339 N 
ATOM      4  H3  UNL     1      -0.945  19.219  16.174  1.00  0.00     0.168 HD
HETATM    5  C7  UNL     1      -0.169  18.635  18.036  1.00  0.00     0.028 A 
HETATM    6  C9  UNL     1      -0.372  17.495  18.799  1.00  0.00    -0.021 A 
ENDROOT
BRANCH   1   7
HETATM    7  C4  UNL     1      -1.794  15.408  18.466  1.00  0.00     0.049 C 
BRANCH   7   8
HETATM    8  C3  UNL     1      -1.894  14.435  17.588  1.00  0.00     0.076 A 
HETATM    9  C2  UNL     1      -1.128  13.301  17.291  1.00  0.00     0.066 A 
HETATM   10  C1  UNL     1      -0.018  12.790  17.791  1.00  0.00     0.047 C 
HETATM   11  N1  UNL     1      -2.013  13.009  16.320  1.00  0.00    -0.299 N 
HETATM   12  N2  UNL     1      -2.732  14.080  16.604  1.00  0.00    -0.298 N 
ATOM     13  H1  UNL     1      -2.095  12.257  15.636  1.00  0.00     0.187 HD
ATOM     14  H2  UNL     1      -3.590  14.481  16.223  1.00  0.00     0.187 HD
ENDBRANCH   7   8
ENDBRANCH   1   7
BRANCH   2  15
HETATM   15  O1  UNL     1      -2.420  16.949  15.905  1.00  0.00    -0.345 OA
ATOM     16  H1  UNL     1      -2.204  16.681  15.019  1.00  0.00     0.219 HD
ENDBRANCH   2  15
BRANCH   6  17
HETATM   17  C10 UNL     1       0.240  17.189  20.102  1.00  0.00     0.037 C 
HETATM   18  C11 UNL     1      -0.509  17.809  21.268  1.00  0.00     0.010 C 
ENDBRANCH   6  17
BRANCH   5  19
HETATM   19  C8  UNL     1       0.696  19.776  18.373  1.00  0.00     0.142 C 
HETATM   20 BR1  UNL     1       1.994  20.176  17.013  1.00  0.00    -0.090 Br
ENDBRANCH   5  19
TORSDOF 5
ENDMDL
