MODEL 1
REMARK VINA RESULT: -6.349538876      0.000      0.000
REMARK  7 active torsions:
REMARK  status: ('A' for Active; 'I' for Inactive)
REMARK    1  A    between atoms: C2_2  and  C3_3 
REMARK    2  A    between atoms: C3_3  and  C4_4 
REMARK    3  A    between atoms: C4_4  and  N1_5 
REMARK       I    between atoms: C5_7  and  N2_8 
REMARK       I    between atoms: C5_7  and  N3_11 
REMARK    4  A    between atoms: N3_11  and  C7_13 
REMARK    5  A    between atoms: C7_13  and  C8_14 
REMARK    6  A    between atoms: C15_21  and  N4_22 
REMARK    7  A    between atoms: N4_22  and  C16_24 
ROOT
HETATM    1  C8  UNL     1       0.803  19.115  17.246  1.00  0.00    -0.021 C 
HETATM    2  C9  UNL     1      -0.077  20.133  17.983  1.00  0.00     0.016 C 
HETATM    3  C10 UNL     1       0.653  21.420  18.182  1.00  0.00    -0.011 C 
HETATM    4  C11 UNL     1       1.868  21.138  19.047  1.00  0.00     0.009 C 
HETATM    5  C12 UNL     1       2.741  20.171  18.314  1.00  0.00    -0.011 C 
HETATM    6  C13 UNL     1       1.994  18.862  18.147  1.00  0.00     0.016 C 
HETATM    7  C14 UNL     1       3.162  20.711  16.998  1.00  0.00     0.035 C 
HETATM    8  C15 UNL     1       1.935  20.987  16.108  1.00  0.00     0.033 C 
HETATM    9  C17 UNL     1       1.125  22.002  16.880  1.00  0.00     0.035 C 
HETATM   10  C18 UNL     1       1.224  19.674  15.923  1.00  0.00     0.042 C 
ENDROOT
BRANCH   1  11
HETATM   11  C7  UNL     1      -0.020  17.864  17.096  1.00  0.00     0.147 C 
BRANCH  11  12
HETATM   12  N3  UNL     1       0.245  16.891  18.114  1.00  0.00    -0.226 N 
HETATM   13  C5  UNL     1      -0.751  16.406  18.995  1.00  0.00     0.669 C 
HETATM   14  N1  UNL     1      -1.066  15.168  19.107  1.00  0.00    -0.227 N 
HETATM   15  N2  UNL     1      -1.470  17.319  19.826  1.00  0.00    -0.231 N 
ATOM     16  H1  UNL     1      -1.796  14.907  19.770  1.00  0.00     0.177 HD
HETATM   17  C6  UNL     1      -0.876  17.649  21.106  1.00  0.00     0.165 C 
ATOM     18  H2  UNL     1      -2.360  17.720  19.532  1.00  0.00     0.177 HD
ATOM     19  H3  UNL     1       1.195  16.532  18.209  1.00  0.00     0.177 HD
BRANCH  14  20
HETATM   20  C4  UNL     1      -0.423  14.118  18.328  1.00  0.00     0.138 C 
BRANCH  20  21
HETATM   21  C3  UNL     1      -1.447  13.365  17.494  1.00  0.00     0.020 C 
BRANCH  21  22
HETATM   22  C2  UNL     1      -1.739  14.163  16.242  1.00  0.00    -0.003 C 
HETATM   23  C1  UNL     1      -1.917  13.300  15.036  1.00  0.00     0.005 C 
ENDBRANCH  21  22
ENDBRANCH  20  21
ENDBRANCH  14  20
ENDBRANCH  11  12
ENDBRANCH   1  11
BRANCH   8  24
HETATM   24  N4  UNL     1       2.410  21.586  14.907  1.00  0.00    -0.360 N 
ATOM     25  H4  UNL     1       2.451  22.605  14.905  1.00  0.00     0.162 HD
BRANCH  24  26
HETATM   26  C16 UNL     1       2.828  20.957  13.723  1.00  0.00     0.181 C 
HETATM   27  N5  UNL     1       4.169  20.652  13.468  1.00  0.00    -0.070 NA
HETATM   28  S1  UNL     1       1.759  20.528  12.535  1.00  0.00    -0.044 SA
ENDBRANCH  24  26
ENDBRANCH   8  24
TORSDOF 7
ENDMDL
MODEL 2
REMARK VINA RESULT: -6.241838969      3.059      6.978
REMARK  7 active torsions:
REMARK  status: ('A' for Active; 'I' for Inactive)
REMARK    1  A    between atoms: C2_2  and  C3_3 
REMARK    2  A    between atoms: C3_3  and  C4_4 
REMARK    3  A    between atoms: C4_4  and  N1_5 
REMARK       I    between atoms: C5_7  and  N2_8 
REMARK       I    between atoms: C5_7  and  N3_11 
REMARK    4  A    between atoms: N3_11  and  C7_13 
REMARK    5  A    between atoms: C7_13  and  C8_14 
REMARK    6  A    between atoms: C15_21  and  N4_22 
REMARK    7  A    between atoms: N4_22  and  C16_24 
ROOT
HETATM    1  C8  UNL     1       2.004  20.830  17.954  1.00  0.00    -0.021 C 
HETATM    2  C9  UNL     1       1.180  21.904  17.233  1.00  0.00     0.016 C 
HETATM    3  C10 UNL     1       0.072  21.284  16.447  1.00  0.00    -0.011 C 
HETATM    4  C11 UNL     1       0.694  20.384  15.394  1.00  0.00     0.009 C 
HETATM    5  C12 UNL     1       1.471  19.320  16.099  1.00  0.00    -0.011 C 
HETATM    6  C13 UNL     1       2.607  19.965  16.868  1.00  0.00     0.016 C 
HETATM    7  C14 UNL     1       0.604  18.526  17.004  1.00  0.00     0.035 C 
HETATM    8  C15 UNL     1      -0.021  19.429  18.084  1.00  0.00     0.033 C 
HETATM    9  C17 UNL     1      -0.827  20.447  17.312  1.00  0.00     0.035 C 
HETATM   10  C18 UNL     1       1.117  20.035  18.861  1.00  0.00     0.042 C 
ENDROOT
BRANCH   1  11
HETATM   11  C7  UNL     1       3.085  21.554  18.713  1.00  0.00     0.147 C 
BRANCH  11  12
HETATM   12  N3  UNL     1       3.816  22.480  17.901  1.00  0.00    -0.226 N 
HETATM   13  C5  UNL     1       5.203  22.716  18.060  1.00  0.00     0.669 C 
HETATM   14  N1  UNL     1       6.068  22.549  17.128  1.00  0.00    -0.227 N 
HETATM   15  N2  UNL     1       5.706  23.172  19.317  1.00  0.00    -0.231 N 
ATOM     16  H1  UNL     1       7.048  22.746  17.331  1.00  0.00     0.177 HD
HETATM   17  C6  UNL     1       5.707  24.602  19.545  1.00  0.00     0.165 C 
ATOM     18  H2  UNL     1       6.049  22.518  20.021  1.00  0.00     0.177 HD
ATOM     19  H3  UNL     1       3.315  22.993  17.175  1.00  0.00     0.177 HD
BRANCH  14  20
HETATM   20  C4  UNL     1       5.711  22.090  15.793  1.00  0.00     0.138 C 
BRANCH  20  21
HETATM   21  C3  UNL     1       6.439  20.800  15.455  1.00  0.00     0.020 C 
BRANCH  21  22
HETATM   22  C2  UNL     1       5.579  19.985  14.514  1.00  0.00    -0.003 C 
HETATM   23  C1  UNL     1       4.474  20.783  13.903  1.00  0.00     0.005 C 
ENDBRANCH  21  22
ENDBRANCH  20  21
ENDBRANCH  14  20
ENDBRANCH  11  12
ENDBRANCH   1  11
BRANCH   8  24
HETATM   24  N4  UNL     1      -0.906  18.621  18.853  1.00  0.00    -0.360 N 
ATOM     25  H4  UNL     1      -1.821  19.028  19.050  1.00  0.00     0.162 HD
BRANCH  24  26
HETATM   26  C16 UNL     1      -0.686  17.337  19.376  1.00  0.00     0.181 C 
HETATM   27  N5  UNL     1       0.199  17.097  20.433  1.00  0.00    -0.070 NA
HETATM   28  S1  UNL     1      -1.461  16.003  18.777  1.00  0.00    -0.044 SA
ENDBRANCH  24  26
ENDBRANCH   8  24
TORSDOF 7
ENDMDL
MODEL 3
REMARK VINA RESULT: -6.235817191      3.015      3.762
REMARK  7 active torsions:
REMARK  status: ('A' for Active; 'I' for Inactive)
REMARK    1  A    between atoms: C2_2  and  C3_3 
REMARK    2  A    between atoms: C3_3  and  C4_4 
REMARK    3  A    between atoms: C4_4  and  N1_5 
REMARK       I    between atoms: C5_7  and  N2_8 
REMARK       I    between atoms: C5_7  and  N3_11 
REMARK    4  A    between atoms: N3_11  and  C7_13 
REMARK    5  A    between atoms: C7_13  and  C8_14 
REMARK    6  A    between atoms: C15_21  and  N4_22 
REMARK    7  A    between atoms: N4_22  and  C16_24 
ROOT
HETATM    1  C8  UNL     1       1.128  19.201  17.947  1.00  0.00    -0.021 C 
HETATM    2  C9  UNL     1       1.903  19.755  16.744  1.00  0.00     0.016 C 
HETATM    3  C10 UNL     1       2.625  21.010  17.111  1.00  0.00    -0.011 C 
HETATM    4  C11 UNL     1       1.589  22.042  17.518  1.00  0.00     0.009 C 
HETATM    5  C12 UNL     1       0.856  21.515  18.709  1.00  0.00    -0.011 C 
HETATM    6  C13 UNL     1       0.108  20.258  18.311  1.00  0.00     0.016 C 
HETATM    7  C14 UNL     1       1.781  21.244  19.837  1.00  0.00     0.035 C 
HETATM    8  C15 UNL     1       2.828  20.187  19.437  1.00  0.00     0.033 C 
HETATM    9  C17 UNL     1       3.561  20.799  18.267  1.00  0.00     0.035 C 
HETATM   10  C18 UNL     1       2.073  18.936  19.078  1.00  0.00     0.042 C 
ENDROOT
BRANCH   1  11
HETATM   11  C7  UNL     1       0.444  17.946  17.475  1.00  0.00     0.147 C 
BRANCH  11  12
HETATM   12  N3  UNL     1       0.459  16.897  18.452  1.00  0.00    -0.226 N 
HETATM   13  C5  UNL     1      -0.708  16.443  19.111  1.00  0.00     0.669 C 
HETATM   14  N1  UNL     1      -1.121  15.228  19.079  1.00  0.00    -0.227 N 
HETATM   15  N2  UNL     1      -1.499  17.359  19.870  1.00  0.00    -0.231 N 
ATOM     16  H1  UNL     1      -1.972  14.988  19.586  1.00  0.00     0.177 HD
HETATM   17  C6  UNL     1      -1.120  17.565  21.253  1.00  0.00     0.165 C 
ATOM     18  H2  UNL     1      -2.294  17.846  19.456  1.00  0.00     0.177 HD
ATOM     19  H3  UNL     1       1.350  16.459  18.682  1.00  0.00     0.177 HD
BRANCH  14  20
HETATM   20  C4  UNL     1      -0.423  14.178  18.349  1.00  0.00     0.138 C 
BRANCH  20  21
HETATM   21  C3  UNL     1      -1.390  13.402  17.471  1.00  0.00     0.020 C 
BRANCH  21  22
HETATM   22  C2  UNL     1      -1.739  14.246  16.264  1.00  0.00    -0.003 C 
HETATM   23  C1  UNL     1      -1.975  13.428  15.036  1.00  0.00     0.005 C 
ENDBRANCH  21  22
ENDBRANCH  20  21
ENDBRANCH  14  20
ENDBRANCH  11  12
ENDBRANCH   1  11
BRANCH   8  24
HETATM   24  N4  UNL     1       3.729  20.048  20.530  1.00  0.00    -0.360 N 
ATOM     25  H4  UNL     1       4.098  19.110  20.685  1.00  0.00     0.162 HD
BRANCH  24  26
HETATM   26  C16 UNL     1       4.178  21.033  21.424  1.00  0.00     0.181 C 
HETATM   27  N5  UNL     1       5.149  21.978  21.076  1.00  0.00    -0.070 NA
HETATM   28  S1  UNL     1       3.585  21.152  22.965  1.00  0.00    -0.044 SA
ENDBRANCH  24  26
ENDBRANCH   8  24
TORSDOF 7
ENDMDL
MODEL 4
REMARK VINA RESULT: -6.235614935      1.094      1.097
REMARK  7 active torsions:
REMARK  status: ('A' for Active; 'I' for Inactive)
REMARK    1  A    between atoms: C2_2  and  C3_3 
REMARK    2  A    between atoms: C3_3  and  C4_4 
REMARK    3  A    between atoms: C4_4  and  N1_5 
REMARK       I    between atoms: C5_7  and  N2_8 
REMARK       I    between atoms: C5_7  and  N3_11 
REMARK    4  A    between atoms: N3_11  and  C7_13 
REMARK    5  A    between atoms: C7_13  and  C8_14 
REMARK    6  A    between atoms: C15_21  and  N4_22 
REMARK    7  A    between atoms: N4_22  and  C16_24 
ROOT
HETATM    1  C8  UNL     1       0.830  19.074  17.260  1.00  0.00    -0.021 C 
HETATM    2  C9  UNL     1      -0.119  20.190  17.714  1.00  0.00     0.016 C 
HETATM    3  C10 UNL     1       0.622  21.473  17.904  1.00  0.00    -0.011 C 
HETATM    4  C11 UNL     1       1.651  21.258  18.999  1.00  0.00     0.009 C 
HETATM    5  C12 UNL     1       2.594  20.192  18.543  1.00  0.00    -0.011 C 
HETATM    6  C13 UNL     1       1.830  18.893  18.383  1.00  0.00     0.016 C 
HETATM    7  C14 UNL     1       3.266  20.570  17.275  1.00  0.00     0.035 C 
HETATM    8  C15 UNL     1       2.230  20.776  16.154  1.00  0.00     0.033 C 
HETATM    9  C17 UNL     1       1.343  21.892  16.654  1.00  0.00     0.035 C 
HETATM   10  C18 UNL     1       1.503  19.470  15.983  1.00  0.00     0.042 C 
ENDROOT
BRANCH   1  11
HETATM   11  C7  UNL     1      -0.010  17.835  17.097  1.00  0.00     0.147 C 
BRANCH  11  12
HETATM   12  N3  UNL     1       0.235  16.852  18.110  1.00  0.00    -0.226 N 
HETATM   13  C5  UNL     1      -0.775  16.371  18.976  1.00  0.00     0.669 C 
HETATM   14  N1  UNL     1      -1.102  15.135  19.076  1.00  0.00    -0.227 N 
HETATM   15  N2  UNL     1      -1.493  17.283  19.808  1.00  0.00    -0.231 N 
ATOM     16  H1  UNL     1      -1.842  14.876  19.729  1.00  0.00     0.177 HD
HETATM   17  C6  UNL     1      -0.910  17.598  21.096  1.00  0.00     0.165 C 
ATOM     18  H2  UNL     1      -2.377  17.695  19.507  1.00  0.00     0.177 HD
ATOM     19  H3  UNL     1       1.180  16.484  18.212  1.00  0.00     0.177 HD
BRANCH  14  20
HETATM   20  C4  UNL     1      -0.462  14.084  18.295  1.00  0.00     0.138 C 
BRANCH  20  21
HETATM   21  C3  UNL     1      -1.481  13.360  17.432  1.00  0.00     0.020 C 
BRANCH  21  22
HETATM   22  C2  UNL     1      -1.755  14.190  16.197  1.00  0.00    -0.003 C 
HETATM   23  C1  UNL     1      -1.958  13.358  14.974  1.00  0.00     0.005 C 
ENDBRANCH  21  22
ENDBRANCH  20  21
ENDBRANCH  14  20
ENDBRANCH  11  12
ENDBRANCH   1  11
BRANCH   8  24
HETATM   24  N4  UNL     1       2.936  21.223  15.001  1.00  0.00    -0.360 N 
ATOM     25  H4  UNL     1       2.369  21.385  14.169  1.00  0.00     0.162 HD
BRANCH  24  26
HETATM   26  C16 UNL     1       4.310  21.471  14.859  1.00  0.00     0.181 C 
HETATM   27  N5  UNL     1       4.885  22.712  15.155  1.00  0.00    -0.070 NA
HETATM   28  S1  UNL     1       5.359  20.305  14.329  1.00  0.00    -0.044 SA
ENDBRANCH  24  26
ENDBRANCH   8  24
TORSDOF 7
ENDMDL
MODEL 5
REMARK VINA RESULT: -6.185369612      2.433      6.808
REMARK  7 active torsions:
REMARK  status: ('A' for Active; 'I' for Inactive)
REMARK    1  A    between atoms: C2_2  and  C3_3 
REMARK    2  A    between atoms: C3_3  and  C4_4 
REMARK    3  A    between atoms: C4_4  and  N1_5 
REMARK       I    between atoms: C5_7  and  N2_8 
REMARK       I    between atoms: C5_7  and  N3_11 
REMARK    4  A    between atoms: N3_11  and  C7_13 
REMARK    5  A    between atoms: C7_13  and  C8_14 
REMARK    6  A    between atoms: C15_21  and  N4_22 
REMARK    7  A    between atoms: N4_22  and  C16_24 
ROOT
HETATM    1  C8  UNL     1       0.252  19.709  17.408  1.00  0.00    -0.021 C 
HETATM    2  C9  UNL     1       1.677  19.198  17.659  1.00  0.00     0.016 C 
HETATM    3  C10 UNL     1       1.757  18.468  18.959  1.00  0.00    -0.011 C 
HETATM    4  C11 UNL     1       1.408  19.446  20.066  1.00  0.00     0.009 C 
HETATM    5  C12 UNL     1       0.009  19.919  19.838  1.00  0.00    -0.011 C 
HETATM    6  C13 UNL     1      -0.047  20.682  18.529  1.00  0.00     0.016 C 
HETATM    7  C14 UNL     1      -0.952  18.788  19.832  1.00  0.00     0.035 C 
HETATM    8  C15 UNL     1      -0.612  17.797  18.703  1.00  0.00     0.033 C 
HETATM    9  C17 UNL     1       0.787  17.323  19.018  1.00  0.00     0.035 C 
HETATM   10  C18 UNL     1      -0.705  18.559  17.408  1.00  0.00     0.042 C 
ENDROOT
BRANCH   1  11
HETATM   11  C7  UNL     1       0.279  20.423  16.083  1.00  0.00     0.147 C 
BRANCH  11  12
HETATM   12  N3  UNL     1       1.277  19.912  15.190  1.00  0.00    -0.226 N 
HETATM   13  C5  UNL     1       2.003  20.734  14.296  1.00  0.00     0.669 C 
HETATM   14  N1  UNL     1       3.283  20.827  14.289  1.00  0.00    -0.227 N 
HETATM   15  N2  UNL     1       1.307  21.519  13.327  1.00  0.00    -0.231 N 
ATOM     16  H1  UNL     1       3.724  21.443  13.606  1.00  0.00     0.177 HD
HETATM   17  C6  UNL     1       0.993  20.880  12.065  1.00  0.00     0.165 C 
ATOM     18  H2  UNL     1       1.043  22.486  13.516  1.00  0.00     0.177 HD
ATOM     19  H3  UNL     1       1.472  18.911  15.199  1.00  0.00     0.177 HD
BRANCH  14  20
HETATM   20  C4  UNL     1       4.132  20.088  15.214  1.00  0.00     0.138 C 
BRANCH  20  21
HETATM   21  C3  UNL     1       5.119  21.019  15.896  1.00  0.00     0.020 C 
BRANCH  21  22
HETATM   22  C2  UNL     1       6.485  20.824  15.275  1.00  0.00    -0.003 C 
HETATM   23  C1  UNL     1       6.542  19.641  14.365  1.00  0.00     0.005 C 
ENDBRANCH  21  22
ENDBRANCH  20  21
ENDBRANCH  14  20
ENDBRANCH  11  12
ENDBRANCH   1  11
BRANCH   8  24
HETATM   24  N4  UNL     1      -1.513  16.700  18.817  1.00  0.00    -0.360 N 
ATOM     25  H4  UNL     1      -2.374  16.885  19.332  1.00  0.00     0.162 HD
BRANCH  24  26
HETATM   26  C16 UNL     1      -1.372  15.397  18.315  1.00  0.00     0.181 C 
HETATM   27  N5  UNL     1      -0.862  14.346  19.086  1.00  0.00    -0.070 NA
HETATM   28  S1  UNL     1      -1.802  15.004  16.766  1.00  0.00    -0.044 SA
ENDBRANCH  24  26
ENDBRANCH   8  24
TORSDOF 7
ENDMDL
