MODEL 1
REMARK VINA RESULT: -7.007046419      0.000      0.000
REMARK  5 active torsions:
REMARK  status: ('A' for Active; 'I' for Inactive)
REMARK    1  A    between atoms: C2_2  and  C3_3 
REMARK    2  A    between atoms: C3_3  and  N1_4 
REMARK       I    between atoms: N1_4  and  C4_6 
REMARK       I    between atoms: C4_6  and  N3_10 
REMARK    3  A    between atoms: N3_10  and  C5_12 
REMARK    4  A    between atoms: C5_12  and  C6_13 
REMARK    5  A    between atoms: C10_22  and  C11_23 
ROOT
HETATM    1  C6  UNL     1      -0.481  17.235  19.671  1.00  0.00     0.112 C 
HETATM    2  N4  UNL     1      -1.399  16.608  18.723  1.00  0.00    -0.360 N 
ATOM      3  H4  UNL     1      -2.240  16.151  19.075  1.00  0.00     0.162 HD
HETATM    4  C7  UNL     1      -1.155  16.617  17.333  1.00  0.00     0.172 C 
HETATM    5  S1  UNL     1      -1.959  15.608  16.333  1.00  0.00    -0.041 SA
HETATM    6  N5  UNL     1      -0.190  17.535  16.846  1.00  0.00    -0.336 N 
ATOM      7  H5  UNL     1       0.005  17.561  15.844  1.00  0.00     0.168 HD
HETATM    8  C8  UNL     1       0.445  18.330  17.619  1.00  0.00     0.024 C 
HETATM    9  C9  UNL     1       1.441  19.252  16.988  1.00  0.00    -0.038 C 
HETATM   10  C10 UNL     1       1.233  19.551  15.738  1.00  0.00    -0.009 C 
HETATM   11  C15 UNL     1       2.570  19.755  17.772  1.00  0.00     0.040 C 
HETATM   12  C16 UNL     1       2.269  19.757  19.268  1.00  0.00     0.005 C 
HETATM   13  C17 UNL     1       1.618  18.493  19.731  1.00  0.00     0.013 C 
HETATM   14  C18 UNL     1       0.250  18.383  19.068  1.00  0.00     0.060 C 
ENDROOT
BRANCH   1  15
HETATM   15  C5  UNL     1      -1.376  17.801  20.771  1.00  0.00     0.164 C 
BRANCH  15  16
HETATM   16  N3  UNL     1      -1.425  16.992  21.944  1.00  0.00    -0.225 N 
HETATM   17  C4  UNL     1      -1.406  17.556  23.228  1.00  0.00     0.667 C 
HETATM   18  N1  UNL     1      -2.642  17.894  23.865  1.00  0.00    -0.227 N 
HETATM   19  N2  UNL     1      -0.299  17.761  23.824  1.00  0.00    -0.235 N 
ATOM     20  H1  UNL     1      -3.282  18.559  23.432  1.00  0.00     0.177 HD
ATOM     21  H22 UNL     1      -0.285  18.171  24.758  1.00  0.00     0.174 HD
ATOM     22  H21 UNL     1       0.582  17.520  23.369  1.00  0.00     0.174 HD
ATOM     23  H3  UNL     1      -1.474  15.978  21.847  1.00  0.00     0.177 HD
BRANCH  18  24
HETATM   24  C3  UNL     1      -2.966  17.286  25.117  1.00  0.00     0.137 C 
BRANCH  24  25
HETATM   25  C2  UNL     1      -4.379  17.645  25.565  1.00  0.00     0.016 C 
HETATM   26  C1  UNL     1      -4.689  16.896  26.830  1.00  0.00     0.006 C 
ENDBRANCH  24  25
ENDBRANCH  18  24
ENDBRANCH  15  16
ENDBRANCH   1  15
BRANCH  10  27
HETATM   27  C11 UNL     1       2.112  20.440  14.969  1.00  0.00    -0.033 C 
HETATM   28  C12 UNL     1       3.549  20.019  15.105  1.00  0.00     0.018 C 
HETATM   29  C13 UNL     1       1.774  20.302  13.461  1.00  0.00     0.018 C 
HETATM   30  C14 UNL     1       1.859  21.878  15.309  1.00  0.00     0.018 C 
ENDBRANCH  10  27
TORSDOF 5
ENDMDL
MODEL 2
REMARK VINA RESULT: -6.960838238      3.937      5.885
REMARK  5 active torsions:
REMARK  status: ('A' for Active; 'I' for Inactive)
REMARK    1  A    between atoms: C2_2  and  C3_3 
REMARK    2  A    between atoms: C3_3  and  N1_4 
REMARK       I    between atoms: N1_4  and  C4_6 
REMARK       I    between atoms: C4_6  and  N3_10 
REMARK    3  A    between atoms: N3_10  and  C5_12 
REMARK    4  A    between atoms: C5_12  and  C6_13 
REMARK    5  A    between atoms: C10_22  and  C11_23 
ROOT
HETATM    1  C6  UNL     1       0.385  18.568  19.001  1.00  0.00     0.112 C 
HETATM    2  N4  UNL     1       0.767  19.003  20.342  1.00  0.00    -0.360 N 
ATOM      3  H4  UNL     1       0.456  18.460  21.147  1.00  0.00     0.162 HD
HETATM    4  C7  UNL     1       1.556  20.153  20.555  1.00  0.00     0.172 C 
HETATM    5  S1  UNL     1       1.656  20.840  22.033  1.00  0.00    -0.041 SA
HETATM    6  N5  UNL     1       2.253  20.682  19.439  1.00  0.00    -0.336 N 
ATOM      7  H5  UNL     1       2.831  21.513  19.567  1.00  0.00     0.168 HD
HETATM    8  C8  UNL     1       2.183  20.152  18.278  1.00  0.00     0.024 C 
HETATM    9  C9  UNL     1       2.963  20.802  17.179  1.00  0.00    -0.038 C 
HETATM   10  C10 UNL     1       4.009  21.485  17.544  1.00  0.00    -0.009 C 
HETATM   11  C15 UNL     1       2.529  20.653  15.788  1.00  0.00     0.040 C 
HETATM   12  C16 UNL     1       1.700  19.388  15.583  1.00  0.00     0.005 C 
HETATM   13  C17 UNL     1       0.672  19.188  16.650  1.00  0.00     0.013 C 
HETATM   14  C18 UNL     1       1.389  18.960  17.976  1.00  0.00     0.060 C 
ENDROOT
BRANCH   1  15
HETATM   15  C5  UNL     1       0.383  17.042  19.066  1.00  0.00     0.164 C 
BRANCH  15  16
HETATM   16  N3  UNL     1      -0.873  16.454  18.733  1.00  0.00    -0.225 N 
HETATM   17  C4  UNL     1      -1.107  15.883  17.475  1.00  0.00     0.667 C 
HETATM   18  N1  UNL     1      -0.828  14.494  17.271  1.00  0.00    -0.227 N 
HETATM   19  N2  UNL     1      -1.569  16.592  16.523  1.00  0.00    -0.235 N 
ATOM     20  H1  UNL     1       0.113  14.128  17.414  1.00  0.00     0.177 HD
ATOM     21  H22 UNL     1      -1.739  16.176  15.607  1.00  0.00     0.174 HD
ATOM     22  H21 UNL     1      -1.767  17.582  16.669  1.00  0.00     0.174 HD
ATOM     23  H3  UNL     1      -1.619  16.450  19.428  1.00  0.00     0.177 HD
BRANCH  18  24
HETATM   24  C3  UNL     1      -1.888  13.626  16.862  1.00  0.00     0.137 C 
BRANCH  24  25
HETATM   25  C2  UNL     1      -1.570  12.937  15.540  1.00  0.00     0.016 C 
HETATM   26  C1  UNL     1      -2.254  13.683  14.431  1.00  0.00     0.006 C 
ENDBRANCH  24  25
ENDBRANCH  18  24
ENDBRANCH  15  16
ENDBRANCH   1  15
BRANCH  10  27
HETATM   27  C11 UNL     1       4.884  22.184  16.594  1.00  0.00    -0.033 C 
HETATM   28  C12 UNL     1       4.087  23.115  15.722  1.00  0.00     0.018 C 
HETATM   29  C13 UNL     1       5.867  23.086  17.385  1.00  0.00     0.018 C 
HETATM   30  C14 UNL     1       5.742  21.217  15.837  1.00  0.00     0.018 C 
ENDBRANCH  10  27
TORSDOF 5
ENDMDL
MODEL 3
REMARK VINA RESULT: -6.866751494      4.053      5.509
REMARK  5 active torsions:
REMARK  status: ('A' for Active; 'I' for Inactive)
REMARK    1  A    between atoms: C2_2  and  C3_3 
REMARK    2  A    between atoms: C3_3  and  N1_4 
REMARK       I    between atoms: N1_4  and  C4_6 
REMARK       I    between atoms: C4_6  and  N3_10 
REMARK    3  A    between atoms: N3_10  and  C5_12 
REMARK    4  A    between atoms: C5_12  and  C6_13 
REMARK    5  A    between atoms: C10_22  and  C11_23 
ROOT
HETATM    1  C6  UNL     1       0.404  20.325  18.767  1.00  0.00     0.112 C 
HETATM    2  N4  UNL     1       1.392  20.058  19.809  1.00  0.00    -0.360 N 
ATOM      3  H4  UNL     1       1.088  19.634  20.685  1.00  0.00     0.162 HD
HETATM    4  C7  UNL     1       2.757  20.373  19.638  1.00  0.00     0.172 C 
HETATM    5  S1  UNL     1       3.771  20.431  20.916  1.00  0.00    -0.041 SA
HETATM    6  N5  UNL     1       3.207  20.632  18.318  1.00  0.00    -0.336 N 
ATOM      7  H5  UNL     1       4.190  20.861  18.168  1.00  0.00     0.168 HD
HETATM    8  C8  UNL     1       2.422  20.588  17.311  1.00  0.00     0.024 C 
HETATM    9  C9  UNL     1       3.012  20.882  15.968  1.00  0.00    -0.038 C 
HETATM   10  C10 UNL     1       4.288  20.651  15.839  1.00  0.00    -0.009 C 
HETATM   11  C15 UNL     1       2.164  21.406  14.895  1.00  0.00     0.040 C 
HETATM   12  C16 UNL     1       0.698  21.029  15.093  1.00  0.00     0.005 C 
HETATM   13  C17 UNL     1       0.232  21.230  16.499  1.00  0.00     0.013 C 
HETATM   14  C18 UNL     1       0.997  20.270  17.404  1.00  0.00     0.060 C 
ENDROOT
BRANCH   1  15
HETATM   15  C5  UNL     1      -0.596  19.174  18.868  1.00  0.00     0.164 C 
BRANCH  15  16
HETATM   16  N3  UNL     1      -0.209  18.013  18.136  1.00  0.00    -0.225 N 
HETATM   17  C4  UNL     1      -0.528  16.723  18.582  1.00  0.00     0.667 C 
HETATM   18  N1  UNL     1      -1.756  16.117  18.164  1.00  0.00    -0.227 N 
HETATM   19  N2  UNL     1       0.270  16.092  19.348  1.00  0.00    -0.235 N 
ATOM     20  H1  UNL     1      -2.650  16.561  18.376  1.00  0.00     0.177 HD
ATOM     21  H22 UNL     1       0.038  15.153  19.673  1.00  0.00     0.174 HD
ATOM     22  H21 UNL     1       1.145  16.523  19.646  1.00  0.00     0.174 HD
ATOM     23  H3  UNL     1       0.312  18.124  17.267  1.00  0.00     0.177 HD
BRANCH  18  24
HETATM   24  C3  UNL     1      -1.713  14.883  17.445  1.00  0.00     0.137 C 
BRANCH  24  25
HETATM   25  C2  UNL     1      -2.050  15.081  15.971  1.00  0.00     0.016 C 
HETATM   26  C1  UNL     1      -2.009  13.746  15.284  1.00  0.00     0.006 C 
ENDBRANCH  24  25
ENDBRANCH  18  24
ENDBRANCH  15  16
ENDBRANCH   1  15
BRANCH  10  27
HETATM   27  C11 UNL     1       5.023  20.884  14.590  1.00  0.00    -0.033 C 
HETATM   28  C12 UNL     1       5.697  22.229  14.611  1.00  0.00     0.018 C 
HETATM   29  C13 UNL     1       6.167  19.842  14.477  1.00  0.00     0.018 C 
HETATM   30  C14 UNL     1       4.148  20.654  13.395  1.00  0.00     0.018 C 
ENDBRANCH  10  27
TORSDOF 5
ENDMDL
MODEL 4
REMARK VINA RESULT: -6.865068082      4.005      5.562
REMARK  5 active torsions:
REMARK  status: ('A' for Active; 'I' for Inactive)
REMARK    1  A    between atoms: C2_2  and  C3_3 
REMARK    2  A    between atoms: C3_3  and  N1_4 
REMARK       I    between atoms: N1_4  and  C4_6 
REMARK       I    between atoms: C4_6  and  N3_10 
REMARK    3  A    between atoms: N3_10  and  C5_12 
REMARK    4  A    between atoms: C5_12  and  C6_13 
REMARK    5  A    between atoms: C10_22  and  C11_23 
ROOT
HETATM    1  C6  UNL     1       1.077  19.518  19.651  1.00  0.00     0.112 C 
HETATM    2  N4  UNL     1       2.128  19.723  20.644  1.00  0.00    -0.360 N 
ATOM      3  H4  UNL     1       2.027  19.303  21.568  1.00  0.00     0.162 HD
HETATM    4  C7  UNL     1       3.281  20.485  20.361  1.00  0.00     0.172 C 
HETATM    5  S1  UNL     1       4.247  21.024  21.562  1.00  0.00    -0.041 SA
HETATM    6  N5  UNL     1       3.563  20.761  18.999  1.00  0.00    -0.336 N 
ATOM      7  H5  UNL     1       4.391  21.310  18.768  1.00  0.00     0.168 HD
HETATM    8  C8  UNL     1       2.815  20.343  18.051  1.00  0.00     0.024 C 
HETATM    9  C9  UNL     1       3.215  20.699  16.654  1.00  0.00    -0.038 C 
HETATM   10  C10 UNL     1       4.483  20.927  16.460  1.00  0.00    -0.009 C 
HETATM   11  C15 UNL     1       2.201  20.780  15.601  1.00  0.00     0.040 C 
HETATM   12  C16 UNL     1       0.977  19.926  15.922  1.00  0.00     0.005 C 
HETATM   13  C17 UNL     1       0.516  20.081  17.336  1.00  0.00     0.013 C 
HETATM   14  C18 UNL     1       1.605  19.548  18.261  1.00  0.00     0.060 C 
ENDROOT
BRANCH   1  15
HETATM   15  C5  UNL     1       0.565  18.101  19.906  1.00  0.00     0.164 C 
BRANCH  15  16
HETATM   16  N3  UNL     1       0.696  17.233  18.782  1.00  0.00    -0.225 N 
HETATM   17  C4  UNL     1      -0.274  16.268  18.481  1.00  0.00     0.667 C 
HETATM   18  N1  UNL     1      -1.361  16.610  17.613  1.00  0.00    -0.227 N 
HETATM   19  N2  UNL     1      -0.189  15.095  18.970  1.00  0.00    -0.235 N 
ATOM     20  H1  UNL     1      -1.994  17.372  17.854  1.00  0.00     0.177 HD
ATOM     21  H22 UNL     1      -0.895  14.392  18.751  1.00  0.00     0.174 HD
ATOM     22  H21 UNL     1       0.585  14.852  19.588  1.00  0.00     0.174 HD
ATOM     23  H3  UNL     1       1.517  17.316  18.183  1.00  0.00     0.177 HD
BRANCH  18  24
HETATM   24  C3  UNL     1      -1.545  15.869  16.406  1.00  0.00     0.137 C 
BRANCH  24  25
HETATM   25  C2  UNL     1      -2.489  14.689  16.610  1.00  0.00     0.016 C 
HETATM   26  C1  UNL     1      -1.812  13.439  16.124  1.00  0.00     0.006 C 
ENDBRANCH  24  25
ENDBRANCH  18  24
ENDBRANCH  15  16
ENDBRANCH   1  15
BRANCH  10  27
HETATM   27  C11 UNL     1       5.043  21.287  15.152  1.00  0.00    -0.033 C 
HETATM   28  C12 UNL     1       4.925  22.767  14.910  1.00  0.00     0.018 C 
HETATM   29  C13 UNL     1       6.564  20.980  15.155  1.00  0.00     0.018 C 
HETATM   30  C14 UNL     1       4.462  20.438  14.062  1.00  0.00     0.018 C 
ENDBRANCH  10  27
TORSDOF 5
ENDMDL
MODEL 5
REMARK VINA RESULT: -6.607209404      1.394      1.502
REMARK  5 active torsions:
REMARK  status: ('A' for Active; 'I' for Inactive)
REMARK    1  A    between atoms: C2_2  and  C3_3 
REMARK    2  A    between atoms: C3_3  and  N1_4 
REMARK       I    between atoms: N1_4  and  C4_6 
REMARK       I    between atoms: C4_6  and  N3_10 
REMARK    3  A    between atoms: N3_10  and  C5_12 
REMARK    4  A    between atoms: C5_12  and  C6_13 
REMARK    5  A    between atoms: C10_22  and  C11_23 
ROOT
HETATM    1  C6  UNL     1      -0.460  17.106  19.617  1.00  0.00     0.112 C 
HETATM    2  N4  UNL     1      -1.404  16.515  18.672  1.00  0.00    -0.360 N 
ATOM      3  H4  UNL     1      -2.235  16.045  19.030  1.00  0.00     0.162 HD
HETATM    4  C7  UNL     1      -1.199  16.576  17.277  1.00  0.00     0.172 C 
HETATM    5  S1  UNL     1      -2.032  15.605  16.263  1.00  0.00    -0.041 SA
HETATM    6  N5  UNL     1      -0.246  17.512  16.798  1.00  0.00    -0.336 N 
ATOM      7  H5  UNL     1      -0.080  17.575  15.793  1.00  0.00     0.168 HD
HETATM    8  C8  UNL     1       0.410  18.277  17.583  1.00  0.00     0.024 C 
HETATM    9  C9  UNL     1       1.390  19.221  16.959  1.00  0.00    -0.038 C 
HETATM   10  C10 UNL     1       1.148  19.567  15.727  1.00  0.00    -0.009 C 
HETATM   11  C15 UNL     1       2.541  19.694  17.730  1.00  0.00     0.040 C 
HETATM   12  C16 UNL     1       2.281  19.641  19.233  1.00  0.00     0.005 C 
HETATM   13  C17 UNL     1       1.642  18.360  19.666  1.00  0.00     0.013 C 
HETATM   14  C18 UNL     1       0.256  18.275  19.038  1.00  0.00     0.060 C 
ENDROOT
BRANCH   1  15
HETATM   15  C5  UNL     1      -1.323  17.630  20.762  1.00  0.00     0.164 C 
BRANCH  15  16
HETATM   16  N3  UNL     1      -0.651  17.662  22.019  1.00  0.00    -0.225 N 
HETATM   17  C4  UNL     1      -0.580  18.833  22.786  1.00  0.00     0.667 C 
HETATM   18  N1  UNL     1      -1.602  19.106  23.750  1.00  0.00    -0.227 N 
HETATM   19  N2  UNL     1       0.388  19.646  22.629  1.00  0.00    -0.235 N 
ATOM     20  H1  UNL     1      -2.577  19.190  23.461  1.00  0.00     0.177 HD
ATOM     21  H22 UNL     1       0.440  20.499  23.187  1.00  0.00     0.174 HD
ATOM     22  H21 UNL     1       1.116  19.452  21.942  1.00  0.00     0.174 HD
ATOM     23  H3  UNL     1      -0.211  16.811  22.369  1.00  0.00     0.177 HD
BRANCH  18  24
HETATM   24  C3  UNL     1      -1.238  19.259  25.123  1.00  0.00     0.137 C 
BRANCH  24  25
HETATM   25  C2  UNL     1      -0.702  17.958  25.710  1.00  0.00     0.016 C 
HETATM   26  C1  UNL     1      -0.220  18.221  27.108  1.00  0.00     0.006 C 
ENDBRANCH  24  25
ENDBRANCH  18  24
ENDBRANCH  15  16
ENDBRANCH   1  15
BRANCH  10  27
HETATM   27  C11 UNL     1       2.007  20.485  14.968  1.00  0.00    -0.033 C 
HETATM   28  C12 UNL     1       3.448  20.068  15.063  1.00  0.00     0.018 C 
HETATM   29  C13 UNL     1       1.638  20.390  13.465  1.00  0.00     0.018 C 
HETATM   30  C14 UNL     1       1.753  21.910  15.357  1.00  0.00     0.018 C 
ENDBRANCH  10  27
TORSDOF 5
ENDMDL
