MODEL 1
REMARK VINA RESULT: -6.626296487      0.000      0.000
REMARK  9 active torsions:
REMARK  status: ('A' for Active; 'I' for Inactive)
REMARK    1  A    between atoms: C2_2  and  C3_3 
REMARK    2  A    between atoms: C3_3  and  C4_4 
REMARK    3  A    between atoms: C4_4  and  C5_5 
REMARK    4  A    between atoms: C5_5  and  C6_6 
REMARK    5  A    between atoms: C6_6  and  C7_7 
REMARK    6  A    between atoms: C7_7  and  O1_8 
REMARK    7  A    between atoms: N1_10  and  C8_12 
REMARK    8  A    between atoms: C9_17  and  N4_18 
REMARK       I    between atoms: N4_18  and  C10_20 
REMARK       I    between atoms: C10_20  and  N5_22 
REMARK    9  A    between atoms: N5_22  and  C11_24 
ROOT
HETATM    1  C8  UNL     1       2.106  20.779  18.503  1.00  0.00     0.713 A 
HETATM    2  N2  UNL     1       3.139  20.464  19.272  1.00  0.00    -0.117 N 
ATOM      3  H2  UNL     1       4.075  20.865  19.220  1.00  0.00     0.206 HD
HETATM    4  N3  UNL     1       2.726  19.519  20.133  1.00  0.00    -0.117 N 
ATOM      5  H3  UNL     1       3.317  19.090  20.845  1.00  0.00     0.206 HD
HETATM    6  C9  UNL     1       1.454  19.219  19.937  1.00  0.00     0.715 A 
HETATM    7  N6  UNL     1       1.036  19.989  18.925  1.00  0.00    -0.019 N 
ATOM      8  H6  UNL     1       0.096  19.996  18.529  1.00  0.00     0.203 HD
ENDROOT
BRANCH   6   9
HETATM    9  N4  UNL     1       0.713  18.350  20.560  1.00  0.00    -0.139 N 
HETATM   10  C10 UNL     1      -0.186  17.574  19.805  1.00  0.00     0.334 C 
HETATM   11  O2  UNL     1      -1.353  17.962  19.669  1.00  0.00    -0.246 OA
HETATM   12  N5  UNL     1       0.256  16.372  19.218  1.00  0.00    -0.338 N 
ATOM     13  H5  UNL     1       1.229  16.091  19.340  1.00  0.00     0.164 HD
ATOM     14  H4  UNL     1       0.782  18.233  21.571  1.00  0.00     0.189 HD
BRANCH  12  15
HETATM   15  C11 UNL     1      -0.623  15.529  18.454  1.00  0.00     0.086 C 
HETATM   16  C12 UNL     1      -0.796  16.134  17.072  1.00  0.00     0.025 C 
HETATM   17  C13 UNL     1      -2.219  15.916  16.564  1.00  0.00     0.002 C 
HETATM   18  C14 UNL     1      -2.172  14.578  15.829  1.00  0.00     0.000 C 
HETATM   19  C15 UNL     1      -2.015  13.507  16.901  1.00  0.00     0.000 C 
HETATM   20  C16 UNL     1      -0.561  13.365  17.206  1.00  0.00     0.002 C 
HETATM   21  C17 UNL     1      -0.135  14.138  18.433  1.00  0.00     0.025 C 
ENDBRANCH  12  15
ENDBRANCH   6   9
BRANCH   1  22
HETATM   22  N1  UNL     1       2.029  21.599  17.564  1.00  0.00    -0.173 N 
HETATM   23  C7  UNL     1       2.077  21.454  16.212  1.00  0.00     0.131 C 
ATOM     24  H1  UNL     1       1.907  22.564  17.870  1.00  0.00     0.186 HD
BRANCH  23  25
HETATM   25  C6  UNL     1       2.497  20.251  15.469  1.00  0.00     0.084 C 
BRANCH  25  26
HETATM   26  C5  UNL     1       2.869  20.612  14.021  1.00  0.00     0.008 C 
BRANCH  26  27
HETATM   27  C4  UNL     1       4.365  20.627  13.914  1.00  0.00     0.000 C 
BRANCH  27  28
HETATM   28  C3  UNL     1       5.096  19.886  14.978  1.00  0.00    -0.000 C 
BRANCH  28  29
HETATM   29  C2  UNL     1       6.508  19.647  14.426  1.00  0.00    -0.005 C 
HETATM   30  C1  UNL     1       7.018  20.981  13.929  1.00  0.00     0.005 C 
ENDBRANCH  28  29
ENDBRANCH  27  28
ENDBRANCH  26  27
ENDBRANCH  25  26
ENDBRANCH  23  25
BRANCH  23  31
HETATM   31  O1  UNL     1       1.704  22.503  15.528  1.00  0.00    -0.349 OA
ATOM     32  H1  UNL     1       0.958  23.001  15.840  1.00  0.00     0.219 HD
ENDBRANCH  23  31
ENDBRANCH   1  22
TORSDOF 9
ENDMDL
MODEL 2
REMARK VINA RESULT: -6.595334195      4.729      8.407
REMARK  9 active torsions:
REMARK  status: ('A' for Active; 'I' for Inactive)
REMARK    1  A    between atoms: C2_2  and  C3_3 
REMARK    2  A    between atoms: C3_3  and  C4_4 
REMARK    3  A    between atoms: C4_4  and  C5_5 
REMARK    4  A    between atoms: C5_5  and  C6_6 
REMARK    5  A    between atoms: C6_6  and  C7_7 
REMARK    6  A    between atoms: C7_7  and  O1_8 
REMARK    7  A    between atoms: N1_10  and  C8_12 
REMARK    8  A    between atoms: C9_17  and  N4_18 
REMARK       I    between atoms: N4_18  and  C10_20 
REMARK       I    between atoms: C10_20  and  N5_22 
REMARK    9  A    between atoms: N5_22  and  C11_24 
ROOT
HETATM    1  C8  UNL     1      -2.208  18.464  23.045  1.00  0.00     0.713 A 
HETATM    2  N2  UNL     1      -2.380  19.762  22.840  1.00  0.00    -0.117 N 
ATOM      3  H2  UNL     1      -2.947  20.393  23.407  1.00  0.00     0.206 HD
HETATM    4  N3  UNL     1      -1.671  20.095  21.749  1.00  0.00    -0.117 N 
ATOM      5  H3  UNL     1      -1.621  21.035  21.358  1.00  0.00     0.206 HD
HETATM    6  C9  UNL     1      -1.047  19.042  21.248  1.00  0.00     0.715 A 
HETATM    7  N6  UNL     1      -1.362  18.006  22.035  1.00  0.00    -0.019 N 
ATOM      8  H6  UNL     1      -1.038  17.046  21.916  1.00  0.00     0.203 HD
ENDROOT
BRANCH   6   9
HETATM    9  N4  UNL     1      -0.284  18.968  20.197  1.00  0.00    -0.139 N 
HETATM   10  C10 UNL     1      -0.207  17.742  19.512  1.00  0.00     0.334 C 
HETATM   11  O2  UNL     1       0.693  16.943  19.800  1.00  0.00    -0.246 OA
HETATM   12  N5  UNL     1      -1.152  17.445  18.511  1.00  0.00    -0.338 N 
ATOM     13  H5  UNL     1      -1.889  18.122  18.309  1.00  0.00     0.164 HD
ATOM     14  H4  UNL     1       0.246  19.779  19.877  1.00  0.00     0.189 HD
BRANCH  12  15
HETATM   15  C11 UNL     1      -1.111  16.216  17.764  1.00  0.00     0.086 C 
HETATM   16  C12 UNL     1      -1.399  15.063  18.708  1.00  0.00     0.025 C 
HETATM   17  C13 UNL     1      -0.572  13.838  18.329  1.00  0.00     0.002 C 
HETATM   18  C14 UNL     1      -1.443  13.070  17.336  1.00  0.00     0.000 C 
HETATM   19  C15 UNL     1      -1.457  13.893  16.054  1.00  0.00     0.000 C 
HETATM   20  C16 UNL     1      -2.535  14.918  16.172  1.00  0.00     0.002 C 
HETATM   21  C17 UNL     1      -2.021  16.273  16.605  1.00  0.00     0.025 C 
ENDBRANCH  12  15
ENDBRANCH   6   9
BRANCH   1  22
HETATM   22  N1  UNL     1      -2.680  17.725  23.935  1.00  0.00    -0.173 N 
HETATM   23  C7  UNL     1      -2.384  17.570  25.254  1.00  0.00     0.131 C 
ATOM     24  H1  UNL     1      -3.436  17.122  23.610  1.00  0.00     0.186 HD
BRANCH  23  25
HETATM   25  C6  UNL     1      -1.196  18.090  25.956  1.00  0.00     0.084 C 
BRANCH  25  26
HETATM   26  C5  UNL     1      -1.597  18.731  27.296  1.00  0.00     0.008 C 
BRANCH  26  27
HETATM   27  C4  UNL     1      -0.342  19.072  28.043  1.00  0.00     0.000 C 
BRANCH  27  28
HETATM   28  C3  UNL     1       0.924  18.569  27.442  1.00  0.00    -0.000 C 
BRANCH  28  29
HETATM   29  C2  UNL     1       2.044  19.018  28.391  1.00  0.00    -0.005 C 
HETATM   30  C1  UNL     1       1.384  19.763  29.529  1.00  0.00     0.005 C 
ENDBRANCH  28  29
ENDBRANCH  27  28
ENDBRANCH  26  27
ENDBRANCH  25  26
ENDBRANCH  23  25
BRANCH  23  31
HETATM   31  O1  UNL     1      -3.259  16.887  25.943  1.00  0.00    -0.349 OA
ATOM     32  H1  UNL     1      -3.457  16.001  25.664  1.00  0.00     0.219 HD
ENDBRANCH  23  31
ENDBRANCH   1  22
TORSDOF 9
ENDMDL
MODEL 3
REMARK VINA RESULT: -6.578077790      3.813      5.883
REMARK  9 active torsions:
REMARK  status: ('A' for Active; 'I' for Inactive)
REMARK    1  A    between atoms: C2_2  and  C3_3 
REMARK    2  A    between atoms: C3_3  and  C4_4 
REMARK    3  A    between atoms: C4_4  and  C5_5 
REMARK    4  A    between atoms: C5_5  and  C6_6 
REMARK    5  A    between atoms: C6_6  and  C7_7 
REMARK    6  A    between atoms: C7_7  and  O1_8 
REMARK    7  A    between atoms: N1_10  and  C8_12 
REMARK    8  A    between atoms: C9_17  and  N4_18 
REMARK       I    between atoms: N4_18  and  C10_20 
REMARK       I    between atoms: C10_20  and  N5_22 
REMARK    9  A    between atoms: N5_22  and  C11_24 
ROOT
HETATM    1  C8  UNL     1       0.219  17.883  18.152  1.00  0.00     0.713 A 
HETATM    2  N2  UNL     1       0.973  17.228  19.024  1.00  0.00    -0.117 N 
ATOM      3  H2  UNL     1       1.917  16.878  18.862  1.00  0.00     0.206 HD
HETATM    4  N3  UNL     1       0.265  17.110  20.159  1.00  0.00    -0.117 N 
ATOM      5  H3  UNL     1       0.601  16.647  21.003  1.00  0.00     0.206 HD
HETATM    6  C9  UNL     1      -0.925  17.674  20.038  1.00  0.00     0.715 A 
HETATM    7  N6  UNL     1      -0.986  18.166  18.795  1.00  0.00    -0.019 N 
ATOM      8  H6  UNL     1      -1.778  18.663  18.388  1.00  0.00     0.203 HD
ENDROOT
BRANCH   6   9
HETATM    9  N4  UNL     1      -1.887  17.749  20.912  1.00  0.00    -0.139 N 
HETATM   10  C10 UNL     1      -1.584  17.500  22.263  1.00  0.00     0.334 C 
HETATM   11  O2  UNL     1      -1.726  16.356  22.713  1.00  0.00    -0.246 OA
HETATM   12  N5  UNL     1      -1.128  18.553  23.078  1.00  0.00    -0.338 N 
ATOM     13  H5  UNL     1      -1.011  19.480  22.669  1.00  0.00     0.164 HD
ATOM     14  H4  UNL     1      -2.837  17.983  20.623  1.00  0.00     0.189 HD
BRANCH  12  15
HETATM   15  C11 UNL     1      -0.824  18.362  24.471  1.00  0.00     0.086 C 
HETATM   16  C12 UNL     1       0.452  19.117  24.798  1.00  0.00     0.025 C 
HETATM   17  C13 UNL     1       1.285  18.348  25.819  1.00  0.00     0.002 C 
HETATM   18  C14 UNL     1       0.798  18.846  27.178  1.00  0.00     0.000 C 
HETATM   19  C15 UNL     1      -0.602  18.274  27.366  1.00  0.00     0.000 C 
HETATM   20  C16 UNL     1      -1.572  19.195  26.705  1.00  0.00     0.002 C 
HETATM   21  C17 UNL     1      -1.969  18.742  25.318  1.00  0.00     0.025 C 
ENDBRANCH  12  15
ENDBRANCH   6   9
BRANCH   1  22
HETATM   22  N1  UNL     1       0.463  18.210  16.971  1.00  0.00    -0.173 N 
HETATM   23  C7  UNL     1       1.346  19.090  16.425  1.00  0.00     0.131 C 
ATOM     24  H1  UNL     1      -0.111  17.723  16.283  1.00  0.00     0.186 HD
BRANCH  23  25
HETATM   25  C6  UNL     1       2.119  20.120  17.142  1.00  0.00     0.084 C 
BRANCH  25  26
HETATM   26  C5  UNL     1       2.892  21.006  16.149  1.00  0.00     0.008 C 
BRANCH  26  27
HETATM   27  C4  UNL     1       4.245  21.286  16.731  1.00  0.00     0.000 C 
BRANCH  27  28
HETATM   28  C3  UNL     1       5.374  21.312  15.760  1.00  0.00    -0.000 C 
BRANCH  28  29
HETATM   29  C2  UNL     1       5.130  20.135  14.805  1.00  0.00    -0.005 C 
HETATM   30  C1  UNL     1       6.488  19.633  14.370  1.00  0.00     0.005 C 
ENDBRANCH  28  29
ENDBRANCH  27  28
ENDBRANCH  26  27
ENDBRANCH  25  26
ENDBRANCH  23  25
BRANCH  23  31
HETATM   31  O1  UNL     1       1.505  18.986  15.132  1.00  0.00    -0.349 OA
ATOM     32  H1  UNL     1       1.993  18.243  14.799  1.00  0.00     0.219 HD
ENDBRANCH  23  31
ENDBRANCH   1  22
TORSDOF 9
ENDMDL
MODEL 4
REMARK VINA RESULT: -6.542397091      2.763      6.982
REMARK  9 active torsions:
REMARK  status: ('A' for Active; 'I' for Inactive)
REMARK    1  A    between atoms: C2_2  and  C3_3 
REMARK    2  A    between atoms: C3_3  and  C4_4 
REMARK    3  A    between atoms: C4_4  and  C5_5 
REMARK    4  A    between atoms: C5_5  and  C6_6 
REMARK    5  A    between atoms: C6_6  and  C7_7 
REMARK    6  A    between atoms: C7_7  and  O1_8 
REMARK    7  A    between atoms: N1_10  and  C8_12 
REMARK    8  A    between atoms: C9_17  and  N4_18 
REMARK       I    between atoms: N4_18  and  C10_20 
REMARK       I    between atoms: C10_20  and  N5_22 
REMARK    9  A    between atoms: N5_22  and  C11_24 
ROOT
HETATM    1  C8  UNL     1      -0.876  16.853  19.999  1.00  0.00     0.713 A 
HETATM    2  N2  UNL     1       0.290  16.389  19.571  1.00  0.00    -0.117 N 
ATOM      3  H2  UNL     1       0.944  15.816  20.104  1.00  0.00     0.206 HD
HETATM    4  N3  UNL     1       0.450  16.811  18.306  1.00  0.00    -0.117 N 
ATOM      5  H3  UNL     1       1.262  16.602  17.727  1.00  0.00     0.206 HD
HETATM    6  C9  UNL     1      -0.583  17.535  17.911  1.00  0.00     0.715 A 
HETATM    7  N6  UNL     1      -1.431  17.581  18.946  1.00  0.00    -0.019 N 
ATOM      8  H6  UNL     1      -2.328  18.065  18.962  1.00  0.00     0.203 HD
ENDROOT
BRANCH   6   9
HETATM    9  N4  UNL     1      -0.782  18.121  16.767  1.00  0.00    -0.139 N 
HETATM   10  C10 UNL     1      -0.007  19.252  16.452  1.00  0.00     0.334 C 
HETATM   11  O2  UNL     1      -0.446  20.379  16.718  1.00  0.00    -0.246 OA
HETATM   12  N5  UNL     1       1.250  19.086  15.840  1.00  0.00    -0.338 N 
ATOM     13  H5  UNL     1       1.585  18.142  15.648  1.00  0.00     0.164 HD
ATOM     14  H4  UNL     1      -1.482  17.769  16.113  1.00  0.00     0.189 HD
BRANCH  12  15
HETATM   15  C11 UNL     1       2.076  20.206  15.477  1.00  0.00     0.086 C 
HETATM   16  C12 UNL     1       3.389  20.108  16.234  1.00  0.00     0.025 C 
HETATM   17  C13 UNL     1       3.886  21.496  16.628  1.00  0.00     0.002 C 
HETATM   18  C14 UNL     1       4.749  21.951  15.453  1.00  0.00     0.000 C 
HETATM   19  C15 UNL     1       3.790  22.237  14.304  1.00  0.00     0.000 C 
HETATM   20  C16 UNL     1       3.529  20.954  13.587  1.00  0.00     0.002 C 
HETATM   21  C17 UNL     1       2.241  20.287  14.014  1.00  0.00     0.025 C 
ENDBRANCH  12  15
ENDBRANCH   6   9
BRANCH   1  22
HETATM   22  N1  UNL     1      -1.431  16.718  21.111  1.00  0.00    -0.173 N 
HETATM   23  C7  UNL     1      -1.323  17.404  22.281  1.00  0.00     0.131 C 
ATOM     24  H1  UNL     1      -2.093  15.944  21.148  1.00  0.00     0.186 HD
BRANCH  23  25
HETATM   25  C6  UNL     1      -0.284  18.391  22.630  1.00  0.00     0.084 C 
BRANCH  25  26
HETATM   26  C5  UNL     1      -0.383  19.627  21.720  1.00  0.00     0.008 C 
BRANCH  26  27
HETATM   27  C4  UNL     1       1.008  20.044  21.347  1.00  0.00     0.000 C 
BRANCH  27  28
HETATM   28  C3  UNL     1       1.328  20.002  19.894  1.00  0.00    -0.000 C 
BRANCH  28  29
HETATM   29  C2  UNL     1       2.646  19.223  19.779  1.00  0.00    -0.005 C 
HETATM   30  C1  UNL     1       3.708  20.051  20.465  1.00  0.00     0.005 C 
ENDBRANCH  28  29
ENDBRANCH  27  28
ENDBRANCH  26  27
ENDBRANCH  25  26
ENDBRANCH  23  25
BRANCH  23  31
HETATM   31  O1  UNL     1      -2.248  17.142  23.165  1.00  0.00    -0.349 OA
ATOM     32  H1  UNL     1      -3.099  16.859  22.853  1.00  0.00     0.219 HD
ENDBRANCH  23  31
ENDBRANCH   1  22
TORSDOF 9
ENDMDL
MODEL 5
REMARK VINA RESULT: -6.520972543      1.133      1.507
REMARK  9 active torsions:
REMARK  status: ('A' for Active; 'I' for Inactive)
REMARK    1  A    between atoms: C2_2  and  C3_3 
REMARK    2  A    between atoms: C3_3  and  C4_4 
REMARK    3  A    between atoms: C4_4  and  C5_5 
REMARK    4  A    between atoms: C5_5  and  C6_6 
REMARK    5  A    between atoms: C6_6  and  C7_7 
REMARK    6  A    between atoms: C7_7  and  O1_8 
REMARK    7  A    between atoms: N1_10  and  C8_12 
REMARK    8  A    between atoms: C9_17  and  N4_18 
REMARK       I    between atoms: N4_18  and  C10_20 
REMARK       I    between atoms: C10_20  and  N5_22 
REMARK    9  A    between atoms: N5_22  and  C11_24 
ROOT
HETATM    1  C8  UNL     1       2.406  20.633  19.433  1.00  0.00     0.713 A 
HETATM    2  N2  UNL     1       1.277  21.306  19.614  1.00  0.00    -0.117 N 
ATOM      3  H2  UNL     1       1.108  22.280  19.365  1.00  0.00     0.206 HD
HETATM    4  N3  UNL     1       0.397  20.468  20.186  1.00  0.00    -0.117 N 
ATOM      5  H3  UNL     1      -0.558  20.719  20.440  1.00  0.00     0.206 HD
HETATM    6  C9  UNL     1       0.931  19.274  20.376  1.00  0.00     0.715 A 
HETATM    7  N6  UNL     1       2.187  19.344  19.916  1.00  0.00    -0.019 N 
ATOM      8  H6  UNL     1       2.867  18.583  19.919  1.00  0.00     0.203 HD
ENDROOT
BRANCH   6   9
HETATM    9  N4  UNL     1       0.398  18.215  20.911  1.00  0.00    -0.139 N 
HETATM   10  C10 UNL     1      -0.446  17.417  20.118  1.00  0.00     0.334 C 
HETATM   11  O2  UNL     1      -1.667  17.623  20.137  1.00  0.00    -0.246 OA
HETATM   12  N5  UNL     1       0.109  16.400  19.318  1.00  0.00    -0.338 N 
ATOM     13  H5  UNL     1       1.121  16.268  19.317  1.00  0.00     0.164 HD
ATOM     14  H4  UNL     1       0.587  17.969  21.883  1.00  0.00     0.189 HD
BRANCH  12  15
HETATM   15  C11 UNL     1      -0.707  15.540  18.503  1.00  0.00     0.086 C 
HETATM   16  C12 UNL     1      -0.830  16.156  17.120  1.00  0.00     0.025 C 
HETATM   17  C13 UNL     1      -2.219  15.902  16.541  1.00  0.00     0.002 C 
HETATM   18  C14 UNL     1      -2.097  14.575  15.795  1.00  0.00     0.000 C 
HETATM   19  C15 UNL     1      -1.961  13.496  16.863  1.00  0.00     0.000 C 
HETATM   20  C16 UNL     1      -0.520  13.393  17.238  1.00  0.00     0.002 C 
HETATM   21  C17 UNL     1      -0.177  14.164  18.492  1.00  0.00     0.025 C 
ENDBRANCH  12  15
ENDBRANCH   6   9
BRANCH   1  22
HETATM   22  N1  UNL     1       3.492  21.011  18.944  1.00  0.00    -0.173 N 
HETATM   23  C7  UNL     1       3.824  21.522  17.728  1.00  0.00     0.131 C 
ATOM     24  H1  UNL     1       4.283  20.919  19.581  1.00  0.00     0.186 HD
BRANCH  23  25
HETATM   25  C6  UNL     1       2.979  21.537  16.519  1.00  0.00     0.084 C 
BRANCH  25  26
HETATM   26  C5  UNL     1       2.885  20.129  15.906  1.00  0.00     0.008 C 
BRANCH  26  27
HETATM   27  C4  UNL     1       4.103  19.907  15.060  1.00  0.00     0.000 C 
BRANCH  27  28
HETATM   28  C3  UNL     1       4.495  21.044  14.181  1.00  0.00    -0.000 C 
BRANCH  28  29
HETATM   29  C2  UNL     1       6.028  21.099  14.229  1.00  0.00    -0.005 C 
HETATM   30  C1  UNL     1       6.513  19.685  14.456  1.00  0.00     0.005 C 
ENDBRANCH  28  29
ENDBRANCH  27  28
ENDBRANCH  26  27
ENDBRANCH  25  26
ENDBRANCH  23  25
BRANCH  23  31
HETATM   31  O1  UNL     1       5.017  22.048  17.654  1.00  0.00    -0.349 OA
ATOM     32  H1  UNL     1       5.766  21.484  17.804  1.00  0.00     0.219 HD
ENDBRANCH  23  31
ENDBRANCH   1  22
TORSDOF 9
ENDMDL
