MODEL 1
REMARK VINA RESULT: -8.849677304      0.000      0.000
REMARK  13 active torsions:
REMARK  status: ('A' for Active; 'I' for Inactive)
REMARK       I    between atoms: C1_2  and  N1_3 
REMARK    1  A    between atoms: C1_2  and  O3_14 
REMARK    2  A    between atoms: N1_3  and  C2_5 
REMARK    3  A    between atoms: C2_5  and  C3_6 
REMARK    4  A    between atoms: C8_11  and  O2_12 
REMARK    5  A    between atoms: O3_14  and  C9_15 
REMARK    6  A    between atoms: C9_15  and  C10_16 
REMARK    7  A    between atoms: C14_20  and  O4_21 
REMARK    8  A    between atoms: O4_21  and  C15_22 
REMARK    9  A    between atoms: C16_24  and  C17_25 
REMARK   10  A    between atoms: C17_25  and  O6_26 
REMARK   11  A    between atoms: C18_28  and  O7_29 
REMARK   12  A    between atoms: C19_31  and  O8_32 
REMARK   13  A    between atoms: C20_34  and  O9_35 
ROOT
HETATM    1  C10 UNL     1      -4.713  -1.311  11.064  1.00  0.00     0.149 C 
HETATM    2  C11 UNL     1      -4.257  -0.055  11.744  1.00  0.00     0.034 C 
HETATM    3  C12 UNL     1      -2.936   0.411  11.174  1.00  0.00     0.007 C 
HETATM    4  C13 UNL     1      -2.681  -0.398   9.904  1.00  0.00     0.061 C 
HETATM    5  C14 UNL     1      -3.975  -0.340   9.102  1.00  0.00     0.263 C 
HETATM    6  O10 UNL     1      -4.899  -1.170   9.705  1.00  0.00    -0.354 OA
ENDROOT
BRANCH   5   7
HETATM    7  O4  UNL     1      -3.808  -0.728   7.794  1.00  0.00    -0.329 OA
BRANCH   7   8
HETATM    8  C15 UNL     1      -3.095  -1.914   7.664  1.00  0.00     0.294 C 
HETATM    9  O5  UNL     1      -1.822  -1.717   7.134  1.00  0.00    -0.348 OA
HETATM   10  C16 UNL     1      -1.134  -2.915   7.258  1.00  0.00     0.179 C 
HETATM   11  C18 UNL     1      -1.744  -4.031   6.459  1.00  0.00     0.180 C 
HETATM   12  C19 UNL     1      -3.216  -4.173   6.719  1.00  0.00     0.183 C 
HETATM   13  C20 UNL     1      -3.856  -2.794   6.681  1.00  0.00     0.204 C 
BRANCH  10  14
HETATM   14  C17 UNL     1       0.311  -2.759   6.836  1.00  0.00     0.198 C 
BRANCH  14  15
HETATM   15  O6  UNL     1       0.371  -1.612   6.012  1.00  0.00    -0.398 OA
ATOM     16  H6  UNL     1       1.257  -1.276   6.077  1.00  0.00     0.209 HD
ENDBRANCH  14  15
ENDBRANCH  10  14
BRANCH  11  17
HETATM   17  O7  UNL     1      -1.564  -3.804   5.091  1.00  0.00    -0.390 OA
ATOM     18  H7  UNL     1      -2.196  -4.302   4.588  1.00  0.00     0.210 HD
ENDBRANCH  11  17
BRANCH  12  19
HETATM   19  O8  UNL     1      -3.754  -4.927   5.661  1.00  0.00    -0.390 OA
ATOM     20  H8  UNL     1      -4.650  -4.635   5.536  1.00  0.00     0.210 HD
ENDBRANCH  12  19
BRANCH  13  21
HETATM   21  O9  UNL     1      -3.646  -2.280   5.410  1.00  0.00    -0.388 OA
ATOM     22  H9  UNL     1      -4.061  -2.868   4.791  1.00  0.00     0.210 HD
ENDBRANCH  13  21
ENDBRANCH   7   8
ENDBRANCH   5   7
BRANCH   1  23
HETATM   23  C9  UNL     1      -6.044  -1.717  11.697  1.00  0.00     0.212 C 
BRANCH  23  24
HETATM   24  O3  UNL     1      -5.884  -1.894  13.088  1.00  0.00    -0.302 OA
BRANCH  24  25
HETATM   25  C1  UNL     1      -6.389  -3.036  13.675  1.00  0.00     0.360 C 
HETATM   26  O1  UNL     1      -5.781  -3.514  14.665  1.00  0.00    -0.239 OA
HETATM   27  N1  UNL     1      -7.562  -3.692  13.214  1.00  0.00    -0.336 N 
ATOM     28  H1  UNL     1      -8.064  -3.312  12.411  1.00  0.00     0.164 HD
BRANCH  27  29
HETATM   29  C2  UNL     1      -8.059  -4.885  13.857  1.00  0.00     0.132 C 
BRANCH  29  30
HETATM   30  C3  UNL     1      -9.254  -4.561  14.707  1.00  0.00     0.032 C 
HETATM   31  C4  UNL     1      -8.929  -4.676  16.192  1.00  0.00     0.009 C 
HETATM   32  C5  UNL     1     -10.180  -4.214  16.937  1.00  0.00     0.001 C 
HETATM   33  C6  UNL     1     -11.336  -5.155  16.669  1.00  0.00     0.002 C 
HETATM   34  C7  UNL     1     -11.007  -6.152  15.586  1.00  0.00     0.032 C 
HETATM   35  C8  UNL     1     -10.366  -5.500  14.384  1.00  0.00     0.123 C 
BRANCH  35  36
HETATM   36  O2  UNL     1     -11.309  -4.840  13.593  1.00  0.00    -0.395 OA
ATOM     37  H2  UNL     1     -12.182  -5.055  13.902  1.00  0.00     0.210 HD
ENDBRANCH  35  36
ENDBRANCH  29  30
ENDBRANCH  27  29
ENDBRANCH  24  25
ENDBRANCH  23  24
ENDBRANCH   1  23
TORSDOF 13
ENDMDL
MODEL 2
REMARK VINA RESULT: -8.783419529      2.527      9.712
REMARK  13 active torsions:
REMARK  status: ('A' for Active; 'I' for Inactive)
REMARK       I    between atoms: C1_2  and  N1_3 
REMARK    1  A    between atoms: C1_2  and  O3_14 
REMARK    2  A    between atoms: N1_3  and  C2_5 
REMARK    3  A    between atoms: C2_5  and  C3_6 
REMARK    4  A    between atoms: C8_11  and  O2_12 
REMARK    5  A    between atoms: O3_14  and  C9_15 
REMARK    6  A    between atoms: C9_15  and  C10_16 
REMARK    7  A    between atoms: C14_20  and  O4_21 
REMARK    8  A    between atoms: O4_21  and  C15_22 
REMARK    9  A    between atoms: C16_24  and  C17_25 
REMARK   10  A    between atoms: C17_25  and  O6_26 
REMARK   11  A    between atoms: C18_28  and  O7_29 
REMARK   12  A    between atoms: C19_31  and  O8_32 
REMARK   13  A    between atoms: C20_34  and  O9_35 
ROOT
HETATM    1  C10 UNL     1      -4.706  -2.467   9.702  1.00  0.00     0.149 C 
HETATM    2  C11 UNL     1      -3.988  -1.372  10.434  1.00  0.00     0.034 C 
HETATM    3  C12 UNL     1      -4.975  -0.403  11.046  1.00  0.00     0.007 C 
HETATM    4  C13 UNL     1      -6.357  -1.048  10.955  1.00  0.00     0.061 C 
HETATM    5  C14 UNL     1      -6.192  -2.471  11.471  1.00  0.00     0.263 C 
HETATM    6  O10 UNL     1      -5.544  -3.213  10.504  1.00  0.00    -0.354 OA
ENDROOT
BRANCH   5   7
HETATM    7  O4  UNL     1      -7.393  -3.071  11.769  1.00  0.00    -0.329 OA
BRANCH   7   8
HETATM    8  C15 UNL     1      -7.336  -3.867  12.907  1.00  0.00     0.294 C 
HETATM    9  O5  UNL     1      -8.577  -4.000  13.528  1.00  0.00    -0.348 OA
HETATM   10  C16 UNL     1      -8.447  -4.978  14.502  1.00  0.00     0.179 C 
HETATM   11  C18 UNL     1      -7.482  -4.604  15.588  1.00  0.00     0.180 C 
HETATM   12  C19 UNL     1      -6.160  -4.149  15.038  1.00  0.00     0.183 C 
HETATM   13  C20 UNL     1      -6.414  -3.174  13.899  1.00  0.00     0.204 C 
BRANCH  10  14
HETATM   14  C17 UNL     1      -9.784  -5.294  15.138  1.00  0.00     0.198 C 
BRANCH  14  15
HETATM   15  O6  UNL     1     -10.457  -4.061  15.298  1.00  0.00    -0.398 OA
ATOM     16  H6  UNL     1     -10.470  -3.878  16.230  1.00  0.00     0.209 HD
ENDBRANCH  14  15
ENDBRANCH  10  14
BRANCH  11  17
HETATM   17  O7  UNL     1      -8.006  -3.571  16.371  1.00  0.00    -0.390 OA
ATOM     18  H7  UNL     1      -7.305  -3.075  16.776  1.00  0.00     0.210 HD
ENDBRANCH  11  17
BRANCH  12  19
HETATM   19  O8  UNL     1      -5.501  -3.450  16.065  1.00  0.00    -0.390 OA
ATOM     20  H8  UNL     1      -4.822  -4.022  16.403  1.00  0.00     0.210 HD
ENDBRANCH  12  19
BRANCH  13  21
HETATM   21  O9  UNL     1      -7.104  -2.094  14.430  1.00  0.00    -0.388 OA
ATOM     22  H9  UNL     1      -7.495  -1.620  13.706  1.00  0.00     0.210 HD
ENDBRANCH  13  21
ENDBRANCH   7   8
ENDBRANCH   5   7
BRANCH   1  23
HETATM   23  C9  UNL     1      -3.645  -3.395   9.111  1.00  0.00     0.212 C 
BRANCH  23  24
HETATM   24  O3  UNL     1      -3.487  -3.134   7.734  1.00  0.00    -0.302 OA
BRANCH  24  25
HETATM   25  C1  UNL     1      -2.440  -2.333   7.326  1.00  0.00     0.360 C 
HETATM   26  O1  UNL     1      -2.154  -2.308   6.102  1.00  0.00    -0.239 OA
HETATM   27  N1  UNL     1      -1.675  -1.539   8.221  1.00  0.00    -0.336 N 
ATOM     28  H1  UNL     1      -1.899  -1.552   9.216  1.00  0.00     0.164 HD
BRANCH  27  29
HETATM   29  C2  UNL     1      -0.587  -0.713   7.752  1.00  0.00     0.132 C 
BRANCH  29  30
HETATM   30  C3  UNL     1      -0.881   0.736   8.012  1.00  0.00     0.032 C 
HETATM   31  C4  UNL     1       0.292   1.428   8.698  1.00  0.00     0.009 C 
HETATM   32  C5  UNL     1      -0.086   2.904   8.799  1.00  0.00     0.001 C 
HETATM   33  C6  UNL     1      -1.289   3.084   9.703  1.00  0.00     0.002 C 
HETATM   34  C7  UNL     1      -1.910   1.762  10.077  1.00  0.00     0.032 C 
HETATM   35  C8  UNL     1      -2.084   0.853   8.884  1.00  0.00     0.123 C 
BRANCH  35  36
HETATM   36  O2  UNL     1      -3.180   1.232   8.105  1.00  0.00    -0.395 OA
ATOM     37  H2  UNL     1      -3.568   2.018   8.471  1.00  0.00     0.210 HD
ENDBRANCH  35  36
ENDBRANCH  29  30
ENDBRANCH  27  29
ENDBRANCH  24  25
ENDBRANCH  23  24
ENDBRANCH   1  23
TORSDOF 13
ENDMDL
MODEL 3
REMARK VINA RESULT: -8.764228016      2.287      3.424
REMARK  13 active torsions:
REMARK  status: ('A' for Active; 'I' for Inactive)
REMARK       I    between atoms: C1_2  and  N1_3 
REMARK    1  A    between atoms: C1_2  and  O3_14 
REMARK    2  A    between atoms: N1_3  and  C2_5 
REMARK    3  A    between atoms: C2_5  and  C3_6 
REMARK    4  A    between atoms: C8_11  and  O2_12 
REMARK    5  A    between atoms: O3_14  and  C9_15 
REMARK    6  A    between atoms: C9_15  and  C10_16 
REMARK    7  A    between atoms: C14_20  and  O4_21 
REMARK    8  A    between atoms: O4_21  and  C15_22 
REMARK    9  A    between atoms: C16_24  and  C17_25 
REMARK   10  A    between atoms: C17_25  and  O6_26 
REMARK   11  A    between atoms: C18_28  and  O7_29 
REMARK   12  A    between atoms: C19_31  and  O8_32 
REMARK   13  A    between atoms: C20_34  and  O9_35 
ROOT
HETATM    1  C10 UNL     1      -3.650  -0.740  10.524  1.00  0.00     0.149 C 
HETATM    2  C11 UNL     1      -2.932   0.570  10.392  1.00  0.00     0.034 C 
HETATM    3  C12 UNL     1      -1.958   0.530   9.235  1.00  0.00     0.007 C 
HETATM    4  C13 UNL     1      -2.268  -0.729   8.427  1.00  0.00     0.061 C 
HETATM    5  C14 UNL     1      -3.776  -0.733   8.217  1.00  0.00     0.263 C 
HETATM    6  O10 UNL     1      -4.381  -1.087   9.408  1.00  0.00    -0.354 OA
ENDROOT
BRANCH   5   7
HETATM    7  O4  UNL     1      -4.174  -1.607   7.234  1.00  0.00    -0.329 OA
BRANCH   7   8
HETATM    8  C15 UNL     1      -4.946  -2.657   7.717  1.00  0.00     0.294 C 
HETATM    9  O5  UNL     1      -4.263  -3.872   7.705  1.00  0.00    -0.348 OA
HETATM   10  C16 UNL     1      -5.037  -4.786   8.405  1.00  0.00     0.179 C 
HETATM   11  C18 UNL     1      -6.364  -5.054   7.757  1.00  0.00     0.180 C 
HETATM   12  C19 UNL     1      -7.103  -3.786   7.438  1.00  0.00     0.183 C 
HETATM   13  C20 UNL     1      -6.139  -2.808   6.784  1.00  0.00     0.204 C 
BRANCH  10  14
HETATM   14  C17 UNL     1      -4.309  -6.103   8.569  1.00  0.00     0.198 C 
BRANCH  14  15
HETATM   15  O6  UNL     1      -3.219  -6.077   7.668  1.00  0.00    -0.398 OA
ATOM     16  H6  UNL     1      -3.391  -6.744   7.014  1.00  0.00     0.209 HD
ENDBRANCH  14  15
ENDBRANCH  10  14
BRANCH  11  17
HETATM   17  O7  UNL     1      -6.189  -5.767   6.567  1.00  0.00    -0.390 OA
ATOM     18  H7  UNL     1      -5.996  -5.173   5.852  1.00  0.00     0.210 HD
ENDBRANCH  11  17
BRANCH  12  19
HETATM   19  O8  UNL     1      -8.094  -4.110   6.494  1.00  0.00    -0.390 OA
ATOM     20  H8  UNL     1      -7.873  -3.659   5.688  1.00  0.00     0.210 HD
ENDBRANCH  12  19
BRANCH  13  21
HETATM   21  O9  UNL     1      -5.685  -3.400   5.615  1.00  0.00    -0.388 OA
ATOM     22  H9  UNL     1      -6.446  -3.690   5.126  1.00  0.00     0.210 HD
ENDBRANCH  13  21
ENDBRANCH   7   8
ENDBRANCH   5   7
BRANCH   1  23
HETATM   23  C9  UNL     1      -4.604  -0.621  11.712  1.00  0.00     0.212 C 
BRANCH  23  24
HETATM   24  O3  UNL     1      -5.909  -0.988  11.323  1.00  0.00    -0.302 OA
BRANCH  24  25
HETATM   25  C1  UNL     1      -6.350  -2.267  11.596  1.00  0.00     0.360 C 
HETATM   26  O1  UNL     1      -7.374  -2.683  10.999  1.00  0.00    -0.239 OA
HETATM   27  N1  UNL     1      -5.700  -3.131  12.518  1.00  0.00    -0.336 N 
ATOM     28  H1  UNL     1      -4.867  -2.803  13.008  1.00  0.00     0.164 HD
BRANCH  27  29
HETATM   29  C2  UNL     1      -6.192  -4.464  12.775  1.00  0.00     0.132 C 
BRANCH  29  30
HETATM   30  C3  UNL     1      -6.897  -4.514  14.100  1.00  0.00     0.032 C 
HETATM   31  C4  UNL     1      -8.404  -4.657  13.924  1.00  0.00     0.009 C 
HETATM   32  C5  UNL     1      -8.983  -4.811  15.329  1.00  0.00     0.001 C 
HETATM   33  C6  UNL     1      -8.755  -3.551  16.139  1.00  0.00     0.002 C 
HETATM   34  C7  UNL     1      -7.843  -2.585  15.426  1.00  0.00     0.032 C 
HETATM   35  C8  UNL     1      -6.618  -3.263  14.862  1.00  0.00     0.123 C 
BRANCH  35  36
HETATM   36  O2  UNL     1      -5.676  -3.533  15.858  1.00  0.00    -0.395 OA
ATOM     37  H2  UNL     1      -5.302  -2.715  16.164  1.00  0.00     0.210 HD
ENDBRANCH  35  36
ENDBRANCH  29  30
ENDBRANCH  27  29
ENDBRANCH  24  25
ENDBRANCH  23  24
ENDBRANCH   1  23
TORSDOF 13
ENDMDL
MODEL 4
REMARK VINA RESULT: -8.681518918      1.780      2.615
REMARK  13 active torsions:
REMARK  status: ('A' for Active; 'I' for Inactive)
REMARK       I    between atoms: C1_2  and  N1_3 
REMARK    1  A    between atoms: C1_2  and  O3_14 
REMARK    2  A    between atoms: N1_3  and  C2_5 
REMARK    3  A    between atoms: C2_5  and  C3_6 
REMARK    4  A    between atoms: C8_11  and  O2_12 
REMARK    5  A    between atoms: O3_14  and  C9_15 
REMARK    6  A    between atoms: C9_15  and  C10_16 
REMARK    7  A    between atoms: C14_20  and  O4_21 
REMARK    8  A    between atoms: O4_21  and  C15_22 
REMARK    9  A    between atoms: C16_24  and  C17_25 
REMARK   10  A    between atoms: C17_25  and  O6_26 
REMARK   11  A    between atoms: C18_28  and  O7_29 
REMARK   12  A    between atoms: C19_31  and  O8_32 
REMARK   13  A    between atoms: C20_34  and  O9_35 
ROOT
HETATM    1  C10 UNL     1      -5.516  -2.481  12.269  1.00  0.00     0.149 C 
HETATM    2  C11 UNL     1      -6.329  -1.275  11.906  1.00  0.00     0.034 C 
HETATM    3  C12 UNL     1      -5.493  -0.282  11.128  1.00  0.00     0.007 C 
HETATM    4  C13 UNL     1      -4.201  -0.993  10.731  1.00  0.00     0.061 C 
HETATM    5  C14 UNL     1      -4.622  -2.334  10.144  1.00  0.00     0.263 C 
HETATM    6  O10 UNL     1      -5.013  -3.160  11.179  1.00  0.00    -0.354 OA
ENDROOT
BRANCH   5   7
HETATM    7  O4  UNL     1      -3.613  -2.945   9.438  1.00  0.00    -0.329 OA
BRANCH   7   8
HETATM    8  C15 UNL     1      -4.027  -3.423   8.200  1.00  0.00     0.294 C 
HETATM    9  O5  UNL     1      -3.007  -3.403   7.251  1.00  0.00    -0.348 OA
HETATM   10  C16 UNL     1      -3.463  -4.099   6.141  1.00  0.00     0.179 C 
HETATM   11  C18 UNL     1      -4.647  -3.451   5.485  1.00  0.00     0.180 C 
HETATM   12  C19 UNL     1      -5.739  -3.140   6.469  1.00  0.00     0.183 C 
HETATM   13  C20 UNL     1      -5.121  -2.491   7.697  1.00  0.00     0.204 C 
BRANCH  10  14
HETATM   14  C17 UNL     1      -2.368  -4.254   5.108  1.00  0.00     0.198 C 
BRANCH  14  15
HETATM   15  O6  UNL     1      -1.512  -3.138   5.255  1.00  0.00    -0.398 OA
ATOM     16  H6  UNL     1      -1.705  -2.550   4.534  1.00  0.00     0.209 HD
ENDBRANCH  14  15
ENDBRANCH  10  14
BRANCH  11  17
HETATM   17  O7  UNL     1      -4.267  -2.257   4.865  1.00  0.00    -0.390 OA
ATOM     18  H7  UNL     1      -3.436  -2.367   4.418  1.00  0.00     0.210 HD
ENDBRANCH  11  17
BRANCH  12  19
HETATM   19  O8  UNL     1      -6.587  -2.196   5.863  1.00  0.00    -0.390 OA
ATOM     20  H8  UNL     1      -7.260  -1.976   6.496  1.00  0.00     0.210 HD
ENDBRANCH  12  19
BRANCH  13  21
HETATM   21  O9  UNL     1      -4.511  -1.318   7.278  1.00  0.00    -0.388 OA
ATOM     22  H9  UNL     1      -5.156  -0.623   7.336  1.00  0.00     0.210 HD
ENDBRANCH  13  21
ENDBRANCH   7   8
ENDBRANCH   5   7
BRANCH   1  23
HETATM   23  C9  UNL     1      -6.425  -3.427  13.053  1.00  0.00     0.212 C 
BRANCH  23  24
HETATM   24  O3  UNL     1      -6.331  -3.155  14.434  1.00  0.00    -0.302 OA
BRANCH  24  25
HETATM   25  C1  UNL     1      -7.272  -3.700  15.284  1.00  0.00     0.360 C 
HETATM   26  O1  UNL     1      -6.878  -4.498  16.172  1.00  0.00    -0.239 OA
HETATM   27  N1  UNL     1      -8.658  -3.400  15.203  1.00  0.00    -0.336 N 
ATOM     28  H1  UNL     1      -8.987  -2.754  14.486  1.00  0.00     0.164 HD
BRANCH  27  29
HETATM   29  C2  UNL     1      -9.610  -3.991  16.113  1.00  0.00     0.132 C 
BRANCH  29  30
HETATM   30  C3  UNL     1     -10.193  -5.241  15.522  1.00  0.00     0.032 C 
HETATM   31  C4  UNL     1     -10.139  -5.214  13.999  1.00  0.00     0.009 C 
HETATM   32  C5  UNL     1     -10.649  -6.575  13.531  1.00  0.00     0.001 C 
HETATM   33  C6  UNL     1     -12.103  -6.759  13.914  1.00  0.00     0.002 C 
HETATM   34  C7  UNL     1     -12.584  -5.659  14.828  1.00  0.00     0.032 C 
HETATM   35  C8  UNL     1     -11.613  -5.383  15.951  1.00  0.00     0.123 C 
BRANCH  35  36
HETATM   36  O2  UNL     1     -11.696  -6.353  16.953  1.00  0.00    -0.395 OA
ATOM     37  H2  UNL     1     -11.698  -5.927  17.802  1.00  0.00     0.210 HD
ENDBRANCH  35  36
ENDBRANCH  29  30
ENDBRANCH  27  29
ENDBRANCH  24  25
ENDBRANCH  23  24
ENDBRANCH   1  23
TORSDOF 13
ENDMDL
MODEL 5
REMARK VINA RESULT: -8.672536052      2.775      8.605
REMARK  13 active torsions:
REMARK  status: ('A' for Active; 'I' for Inactive)
REMARK       I    between atoms: C1_2  and  N1_3 
REMARK    1  A    between atoms: C1_2  and  O3_14 
REMARK    2  A    between atoms: N1_3  and  C2_5 
REMARK    3  A    between atoms: C2_5  and  C3_6 
REMARK    4  A    between atoms: C8_11  and  O2_12 
REMARK    5  A    between atoms: O3_14  and  C9_15 
REMARK    6  A    between atoms: C9_15  and  C10_16 
REMARK    7  A    between atoms: C14_20  and  O4_21 
REMARK    8  A    between atoms: O4_21  and  C15_22 
REMARK    9  A    between atoms: C16_24  and  C17_25 
REMARK   10  A    between atoms: C17_25  and  O6_26 
REMARK   11  A    between atoms: C18_28  and  O7_29 
REMARK   12  A    between atoms: C19_31  and  O8_32 
REMARK   13  A    between atoms: C20_34  and  O9_35 
ROOT
HETATM    1  C10 UNL     1      -3.860  -5.425   7.240  1.00  0.00     0.149 C 
HETATM    2  C11 UNL     1      -5.009  -4.840   6.473  1.00  0.00     0.034 C 
HETATM    3  C12 UNL     1      -6.316  -5.463   6.913  1.00  0.00     0.007 C 
HETATM    4  C13 UNL     1      -6.033  -6.252   8.189  1.00  0.00     0.061 C 
HETATM    5  C14 UNL     1      -5.236  -5.320   9.092  1.00  0.00     0.263 C 
HETATM    6  O10 UNL     1      -3.947  -5.234   8.602  1.00  0.00    -0.354 OA
ENDROOT
BRANCH   5   7
HETATM    7  O4  UNL     1      -5.193  -5.751  10.397  1.00  0.00    -0.329 OA
BRANCH   7   8
HETATM    8  C15 UNL     1      -5.952  -4.965  11.256  1.00  0.00     0.294 C 
HETATM    9  O5  UNL     1      -5.452  -3.670  11.378  1.00  0.00    -0.348 OA
HETATM   10  C16 UNL     1      -6.398  -2.927  12.068  1.00  0.00     0.179 C 
HETATM   11  C18 UNL     1      -6.625  -3.414  13.469  1.00  0.00     0.180 C 
HETATM   12  C19 UNL     1      -6.894  -4.891  13.517  1.00  0.00     0.183 C 
HETATM   13  C20 UNL     1      -5.880  -5.603  12.636  1.00  0.00     0.204 C 
BRANCH  10  14
HETATM   14  C17 UNL     1      -6.005  -1.466  12.126  1.00  0.00     0.198 C 
BRANCH  14  15
HETATM   15  O6  UNL     1      -7.075  -0.736  11.559  1.00  0.00    -0.398 OA
ATOM     16  H6  UNL     1      -7.583  -0.392  12.284  1.00  0.00     0.209 HD
ENDBRANCH  14  15
ENDBRANCH  10  14
BRANCH  11  17
HETATM   17  O7  UNL     1      -5.504  -3.150  14.263  1.00  0.00    -0.390 OA
ATOM     18  H7  UNL     1      -5.618  -2.335  14.735  1.00  0.00     0.210 HD
ENDBRANCH  11  17
BRANCH  12  19
HETATM   19  O8  UNL     1      -6.682  -5.308  14.843  1.00  0.00    -0.390 OA
ATOM     20  H8  UNL     1      -5.762  -5.531  14.923  1.00  0.00     0.210 HD
ENDBRANCH  12  19
BRANCH  13  21
HETATM   21  O9  UNL     1      -4.623  -5.333  13.157  1.00  0.00    -0.388 OA
ATOM     22  H9  UNL     1      -4.190  -6.164  13.305  1.00  0.00     0.210 HD
ENDBRANCH  13  21
ENDBRANCH   7   8
ENDBRANCH   5   7
BRANCH   1  23
HETATM   23  C9  UNL     1      -2.584  -4.751   6.736  1.00  0.00     0.212 C 
BRANCH  23  24
HETATM   24  O3  UNL     1      -2.033  -3.939   7.749  1.00  0.00    -0.302 OA
BRANCH  24  25
HETATM   25  C1  UNL     1      -2.497  -2.647   7.892  1.00  0.00     0.360 C 
HETATM   26  O1  UNL     1      -2.266  -1.828   6.968  1.00  0.00    -0.239 OA
HETATM   27  N1  UNL     1      -3.223  -2.204   9.030  1.00  0.00    -0.336 N 
ATOM     28  H1  UNL     1      -3.416  -2.862   9.785  1.00  0.00     0.164 HD
BRANCH  27  29
HETATM   29  C2  UNL     1      -3.693  -0.843   9.140  1.00  0.00     0.132 C 
BRANCH  29  30
HETATM   30  C3  UNL     1      -2.671   0.007   9.838  1.00  0.00     0.032 C 
HETATM   31  C4  UNL     1      -3.291   0.787  10.992  1.00  0.00     0.009 C 
HETATM   32  C5  UNL     1      -2.138   1.513  11.682  1.00  0.00     0.001 C 
HETATM   33  C6  UNL     1      -1.517   2.532  10.749  1.00  0.00     0.002 C 
HETATM   34  C7  UNL     1      -2.054   2.405   9.345  1.00  0.00     0.032 C 
HETATM   35  C8  UNL     1      -2.078   0.972   8.869  1.00  0.00     0.123 C 
BRANCH  35  36
HETATM   36  O2  UNL     1      -0.805   0.530   8.502  1.00  0.00    -0.395 OA
ATOM     37  H2  UNL     1      -0.194   0.720   9.205  1.00  0.00     0.210 HD
ENDBRANCH  35  36
ENDBRANCH  29  30
ENDBRANCH  27  29
ENDBRANCH  24  25
ENDBRANCH  23  24
ENDBRANCH   1  23
TORSDOF 13
ENDMDL
