MODEL 1
REMARK VINA RESULT: -6.471479907      0.000      0.000
REMARK  3 active torsions:
REMARK  status: ('A' for Active; 'I' for Inactive)
REMARK    1  A    between atoms: C2_2  and  N1_3 
REMARK    2  A    between atoms: C2_2  and  C10_19 
REMARK       I    between atoms: N2_5  and  C3_7 
REMARK       I    between atoms: C3_7  and  N4_11 
REMARK    3  A    between atoms: N4_11  and  C4_13 
ROOT
HETATM    1  N1  UNL     1      20.831  40.971   4.521  1.00  0.00    -0.312 N 
ATOM      2  H1  UNL     1      20.590  40.064   4.920  1.00  0.00     0.181 HD
HETATM    3  N2  UNL     1      21.294  41.867   5.292  1.00  0.00    -0.137 N 
ATOM      4  H2  UNL     1      21.530  42.770   4.883  1.00  0.00     0.205 HD
HETATM    5  C3  UNL     1      21.502  41.699   6.665  1.00  0.00     0.686 C 
HETATM    6  N3  UNL     1      22.351  40.876   7.182  1.00  0.00    -0.234 N 
ATOM      7  H31 UNL     1      22.504  40.754   8.183  1.00  0.00     0.174 HD
ATOM      8  H32 UNL     1      22.903  40.315   6.533  1.00  0.00     0.174 HD
HETATM    9  N4  UNL     1      20.734  42.479   7.568  1.00  0.00    -0.221 N 
ATOM     10  H4  UNL     1      19.718  42.496   7.488  1.00  0.00     0.178 HD
ENDROOT
BRANCH   9  11
HETATM   11  C4  UNL     1      21.378  43.238   8.583  1.00  0.00     0.099 C 
HETATM   12  C5  UNL     1      21.003  44.715   8.548  1.00  0.00     0.026 C 
HETATM   13  C6  UNL     1      22.158  45.404   9.283  1.00  0.00     0.002 C 
HETATM   14  C7  UNL     1      22.080  44.961  10.716  1.00  0.00     0.000 C 
HETATM   15  C8  UNL     1      22.012  43.499  10.921  1.00  0.00     0.002 C 
HETATM   16  C9  UNL     1      21.082  42.774   9.987  1.00  0.00     0.026 C 
ENDBRANCH   9  11
BRANCH   1  17
HETATM   17  C2  UNL     1      20.628  41.174   3.110  1.00  0.00     0.167 C 
HETATM   18  C1  UNL     1      21.237  42.445   2.594  1.00  0.00     0.040 C 
BRANCH  17  19
HETATM   19  C10 UNL     1      19.135  41.216   2.867  1.00  0.00     0.276 C 
HETATM   20  F1  UNL     1      18.663  42.507   3.056  1.00  0.00    -0.205 F 
HETATM   21 CL1  UNL     1      18.283  40.164   4.011  1.00  0.00    -0.064 Cl
HETATM   22 CL2  UNL     1      18.742  40.636   1.222  1.00  0.00    -0.064 Cl
ENDBRANCH  17  19
ENDBRANCH   1  17
TORSDOF 3
ENDMDL
MODEL 2
REMARK VINA RESULT: -6.469362836      3.528      4.297
REMARK  3 active torsions:
REMARK  status: ('A' for Active; 'I' for Inactive)
REMARK    1  A    between atoms: C2_2  and  N1_3 
REMARK    2  A    between atoms: C2_2  and  C10_19 
REMARK       I    between atoms: N2_5  and  C3_7 
REMARK       I    between atoms: C3_7  and  N4_11 
REMARK    3  A    between atoms: N4_11  and  C4_13 
ROOT
HETATM    1  N1  UNL     1      22.352  44.349   4.518  1.00  0.00    -0.312 N 
ATOM      2  H1  UNL     1      22.593  45.255   4.917  1.00  0.00     0.181 HD
HETATM    3  N2  UNL     1      21.887  43.453   5.288  1.00  0.00    -0.137 N 
ATOM      4  H2  UNL     1      21.650  42.550   4.877  1.00  0.00     0.205 HD
HETATM    5  C3  UNL     1      21.679  43.619   6.661  1.00  0.00     0.686 C 
HETATM    6  N3  UNL     1      20.830  44.442   7.178  1.00  0.00    -0.234 N 
ATOM      7  H31 UNL     1      20.677  44.564   8.179  1.00  0.00     0.174 HD
ATOM      8  H32 UNL     1      20.279  45.005   6.529  1.00  0.00     0.174 HD
HETATM    9  N4  UNL     1      22.445  42.837   7.563  1.00  0.00    -0.221 N 
ATOM     10  H4  UNL     1      23.462  42.820   7.484  1.00  0.00     0.178 HD
ENDROOT
BRANCH   9  11
HETATM   11  C4  UNL     1      21.800  42.078   8.577  1.00  0.00     0.099 C 
HETATM   12  C5  UNL     1      22.174  40.601   8.541  1.00  0.00     0.026 C 
HETATM   13  C6  UNL     1      21.018  39.912   9.275  1.00  0.00     0.002 C 
HETATM   14  C7  UNL     1      21.095  40.354  10.708  1.00  0.00     0.000 C 
HETATM   15  C8  UNL     1      21.165  41.815  10.914  1.00  0.00     0.002 C 
HETATM   16  C9  UNL     1      22.096  42.541   9.981  1.00  0.00     0.026 C 
ENDBRANCH   9  11
BRANCH   1  17
HETATM   17  C2  UNL     1      22.555  44.147   3.106  1.00  0.00     0.167 C 
HETATM   18  C1  UNL     1      21.937  42.881   2.587  1.00  0.00     0.040 C 
BRANCH  17  19
HETATM   19  C10 UNL     1      24.048  44.093   2.865  1.00  0.00     0.276 C 
HETATM   20  F1  UNL     1      24.512  42.801   3.063  1.00  0.00    -0.205 F 
HETATM   21 CL1  UNL     1      24.905  45.148   4.004  1.00  0.00    -0.064 Cl
HETATM   22 CL2  UNL     1      24.446  44.661   1.218  1.00  0.00    -0.064 Cl
ENDBRANCH  17  19
ENDBRANCH   1  17
TORSDOF 3
ENDMDL
MODEL 3
REMARK VINA RESULT: -6.314355691      3.664      7.001
REMARK  3 active torsions:
REMARK  status: ('A' for Active; 'I' for Inactive)
REMARK    1  A    between atoms: C2_2  and  N1_3 
REMARK    2  A    between atoms: C2_2  and  C10_19 
REMARK       I    between atoms: N2_5  and  C3_7 
REMARK       I    between atoms: C3_7  and  N4_11 
REMARK    3  A    between atoms: N4_11  and  C4_13 
ROOT
HETATM    1  N1  UNL     1      21.633  42.282   6.990  1.00  0.00    -0.312 N 
ATOM      2  H1  UNL     1      21.258  43.215   7.157  1.00  0.00     0.181 HD
HETATM    3  N2  UNL     1      21.429  41.741   5.860  1.00  0.00    -0.137 N 
ATOM      4  H2  UNL     1      21.808  40.807   5.704  1.00  0.00     0.205 HD
HETATM    5  C3  UNL     1      20.720  42.339   4.813  1.00  0.00     0.686 C 
HETATM    6  N3  UNL     1      21.096  43.404   4.188  1.00  0.00    -0.234 N 
ATOM      7  H31 UNL     1      20.579  43.840   3.424  1.00  0.00     0.174 HD
ATOM      8  H32 UNL     1      21.974  43.829   4.487  1.00  0.00     0.174 HD
HETATM    9  N4  UNL     1      19.499  41.748   4.396  1.00  0.00    -0.221 N 
ATOM     10  H4  UNL     1      18.772  41.545   5.083  1.00  0.00     0.178 HD
ENDROOT
BRANCH   9  11
HETATM   11  C4  UNL     1      19.286  41.438   3.026  1.00  0.00     0.099 C 
HETATM   12  C5  UNL     1      20.137  40.269   2.542  1.00  0.00     0.026 C 
HETATM   13  C6  UNL     1      20.192  40.459   1.023  1.00  0.00     0.002 C 
HETATM   14  C7  UNL     1      18.799  40.235   0.510  1.00  0.00     0.000 C 
HETATM   15  C8  UNL     1      17.745  41.021   1.185  1.00  0.00     0.002 C 
HETATM   16  C9  UNL     1      17.863  41.077   2.684  1.00  0.00     0.026 C 
ENDBRANCH   9  11
BRANCH   1  17
HETATM   17  C2  UNL     1      22.369  41.640   8.049  1.00  0.00     0.167 C 
HETATM   18  C1  UNL     1      22.825  40.252   7.706  1.00  0.00     0.040 C 
BRANCH  17  19
HETATM   19  C10 UNL     1      21.459  41.569   9.256  1.00  0.00     0.276 C 
HETATM   20  F1  UNL     1      22.086  42.139  10.354  1.00  0.00    -0.205 F 
HETATM   21 CL1  UNL     1      21.093  39.884   9.667  1.00  0.00    -0.064 Cl
HETATM   22 CL2  UNL     1      19.902  42.383   8.927  1.00  0.00    -0.064 Cl
ENDBRANCH  17  19
ENDBRANCH   1  17
TORSDOF 3
ENDMDL
MODEL 4
REMARK VINA RESULT: -6.309555910      3.624      7.047
REMARK  3 active torsions:
REMARK  status: ('A' for Active; 'I' for Inactive)
REMARK    1  A    between atoms: C2_2  and  N1_3 
REMARK    2  A    between atoms: C2_2  and  C10_19 
REMARK       I    between atoms: N2_5  and  C3_7 
REMARK       I    between atoms: C3_7  and  N4_11 
REMARK    3  A    between atoms: N4_11  and  C4_13 
ROOT
HETATM    1  N1  UNL     1      21.475  42.283   6.993  1.00  0.00    -0.312 N 
ATOM      2  H1  UNL     1      21.100  43.221   7.136  1.00  0.00     0.181 HD
HETATM    3  N2  UNL     1      21.301  41.729   5.864  1.00  0.00    -0.137 N 
ATOM      4  H2  UNL     1      21.678  40.791   5.732  1.00  0.00     0.205 HD
HETATM    5  C3  UNL     1      20.627  42.317   4.789  1.00  0.00     0.686 C 
HETATM    6  N3  UNL     1      21.027  43.371   4.161  1.00  0.00    -0.234 N 
ATOM      7  H31 UNL     1      20.536  43.800   3.377  1.00  0.00     0.174 HD
ATOM      8  H32 UNL     1      21.898  43.795   4.482  1.00  0.00     0.174 HD
HETATM    9  N4  UNL     1      19.416  41.727   4.344  1.00  0.00    -0.221 N 
ATOM     10  H4  UNL     1      18.667  41.538   5.010  1.00  0.00     0.178 HD
ENDROOT
BRANCH   9  11
HETATM   11  C4  UNL     1      19.242  41.401   2.971  1.00  0.00     0.099 C 
HETATM   12  C5  UNL     1      20.093  40.215   2.530  1.00  0.00     0.026 C 
HETATM   13  C6  UNL     1      20.199  40.384   1.012  1.00  0.00     0.002 C 
HETATM   14  C7  UNL     1      18.819  40.168   0.458  1.00  0.00     0.000 C 
HETATM   15  C8  UNL     1      17.754  40.975   1.089  1.00  0.00     0.002 C 
HETATM   16  C9  UNL     1      17.826  41.051   2.590  1.00  0.00     0.026 C 
ENDBRANCH   9  11
BRANCH   1  17
HETATM   17  C2  UNL     1      22.174  41.651   8.082  1.00  0.00     0.167 C 
HETATM   18  C1  UNL     1      22.748  40.310   7.727  1.00  0.00     0.040 C 
BRANCH  17  19
HETATM   19  C10 UNL     1      21.187  41.474   9.215  1.00  0.00     0.276 C 
HETATM   20  F1  UNL     1      19.956  42.002   8.854  1.00  0.00    -0.205 F 
HETATM   21 CL1  UNL     1      21.733  42.336  10.664  1.00  0.00    -0.064 Cl
HETATM   22 CL2  UNL     1      21.029  39.749   9.654  1.00  0.00    -0.064 Cl
ENDBRANCH  17  19
ENDBRANCH   1  17
TORSDOF 3
ENDMDL
MODEL 5
REMARK VINA RESULT: -6.308115062      1.416      2.081
REMARK  3 active torsions:
REMARK  status: ('A' for Active; 'I' for Inactive)
REMARK    1  A    between atoms: C2_2  and  N1_3 
REMARK    2  A    between atoms: C2_2  and  C10_19 
REMARK       I    between atoms: N2_5  and  C3_7 
REMARK       I    between atoms: C3_7  and  N4_11 
REMARK    3  A    between atoms: N4_11  and  C4_13 
ROOT
HETATM    1  N1  UNL     1      20.718  41.308   3.405  1.00  0.00    -0.312 N 
ATOM      2  H1  UNL     1      21.538  41.756   2.998  1.00  0.00     0.181 HD
HETATM    3  N2  UNL     1      20.474  41.499   4.637  1.00  0.00    -0.137 N 
ATOM      4  H2  UNL     1      19.652  41.045   5.034  1.00  0.00     0.205 HD
HETATM    5  C3  UNL     1      21.258  42.288   5.485  1.00  0.00     0.686 C 
HETATM    6  N3  UNL     1      21.413  43.563   5.364  1.00  0.00    -0.234 N 
ATOM      7  H31 UNL     1      21.984  44.138   5.983  1.00  0.00     0.174 HD
ATOM      8  H32 UNL     1      20.925  44.015   4.590  1.00  0.00     0.174 HD
HETATM    9  N4  UNL     1      21.936  41.659   6.561  1.00  0.00    -0.221 N 
ATOM     10  H4  UNL     1      22.531  40.849   6.383  1.00  0.00     0.178 HD
ENDROOT
BRANCH   9  11
HETATM   11  C4  UNL     1      21.791  42.154   7.885  1.00  0.00     0.099 C 
HETATM   12  C5  UNL     1      21.431  41.065   8.890  1.00  0.00     0.026 C 
HETATM   13  C6  UNL     1      20.793  41.833  10.052  1.00  0.00     0.002 C 
HETATM   14  C7  UNL     1      21.882  42.663  10.668  1.00  0.00     0.000 C 
HETATM   15  C8  UNL     1      22.643  43.507   9.724  1.00  0.00     0.002 C 
HETATM   16  C9  UNL     1      23.022  42.828   8.436  1.00  0.00     0.026 C 
ENDBRANCH   9  11
BRANCH   1  17
HETATM   17  C2  UNL     1      19.891  40.490   2.556  1.00  0.00     0.167 C 
HETATM   18  C1  UNL     1      20.182  40.659   1.093  1.00  0.00     0.040 C 
BRANCH  17  19
HETATM   19  C10 UNL     1      18.451  40.879   2.813  1.00  0.00     0.276 C 
HETATM   20  F1  UNL     1      18.374  42.230   3.119  1.00  0.00    -0.205 F 
HETATM   21 CL1  UNL     1      17.796  39.982   4.195  1.00  0.00    -0.064 Cl
HETATM   22 CL2  UNL     1      17.427  40.493   1.400  1.00  0.00    -0.064 Cl
ENDBRANCH  17  19
ENDBRANCH   1  17
TORSDOF 3
ENDMDL
