MODEL 1
REMARK VINA RESULT: -6.303812744      0.000      0.000
REMARK  4 active torsions:
REMARK  status: ('A' for Active; 'I' for Inactive)
REMARK    1  A    between atoms: C1_4  and  S1_6 
REMARK    2  A    between atoms: S1_6  and  C2_7 
REMARK    3  A    between atoms: C2_7  and  C3_8 
REMARK    4  A    between atoms: C3_8  and  C4_9 
ROOT
HETATM    1  C4  UNL     1      21.500  42.524   6.970  1.00  0.00    -0.054 A 
HETATM    2  C5  UNL     1      21.316  41.409   7.755  1.00  0.00     0.032 A 
HETATM    3  C6  UNL     1      21.329  41.488   9.130  1.00  0.00     0.058 A 
HETATM    4 CL1  UNL     1      21.087  40.023  10.098  1.00  0.00    -0.082 Cl
HETATM    5  C7  UNL     1      21.530  42.705   9.731  1.00  0.00     0.077 A 
HETATM    6 CL2  UNL     1      21.556  42.867  11.465  1.00  0.00    -0.081 Cl
HETATM    7  C8  UNL     1      21.716  43.836   8.968  1.00  0.00     0.058 A 
HETATM    8 CL3  UNL     1      21.977  45.412   9.684  1.00  0.00    -0.082 Cl
HETATM    9  C9  UNL     1      21.700  43.743   7.572  1.00  0.00     0.032 A 
ENDROOT
BRANCH   1  10
HETATM   10  C3  UNL     1      21.471  42.355   5.485  1.00  0.00     0.049 C 
BRANCH  10  11
HETATM   11  C2  UNL     1      22.056  43.599   4.877  1.00  0.00     0.086 C 
BRANCH  11  12
HETATM   12  S1  UNL     1      22.755  43.360   3.246  1.00  0.00    -0.097 SA
BRANCH  12  13
HETATM   13  C1  UNL     1      24.344  44.112   3.084  1.00  0.00     0.147 C 
HETATM   14  N1  UNL     1      24.868  44.794   4.030  1.00  0.00    -0.382 N 
ATOM     15  H12 UNL     1      25.786  45.229   3.937  1.00  0.00     0.157 HD
ATOM     16  H11 UNL     1      24.332  44.874   4.895  1.00  0.00     0.157 HD
HETATM   17  N2  UNL     1      25.092  44.000   1.875  1.00  0.00    -0.075 NA
ENDBRANCH  12  13
ENDBRANCH  11  12
ENDBRANCH  10  11
ENDBRANCH   1  10
TORSDOF 4
ENDMDL
MODEL 2
REMARK VINA RESULT: -6.297160678      3.050      4.076
REMARK  4 active torsions:
REMARK  status: ('A' for Active; 'I' for Inactive)
REMARK    1  A    between atoms: C1_4  and  S1_6 
REMARK    2  A    between atoms: S1_6  and  C2_7 
REMARK    3  A    between atoms: C2_7  and  C3_8 
REMARK    4  A    between atoms: C3_8  and  C4_9 
ROOT
HETATM    1  C4  UNL     1      21.768  42.752   6.973  1.00  0.00    -0.054 A 
HETATM    2  C5  UNL     1      21.928  43.876   7.748  1.00  0.00     0.032 A 
HETATM    3  C6  UNL     1      21.886  43.813   9.124  1.00  0.00     0.058 A 
HETATM    4 CL1  UNL     1      22.098  45.291  10.079  1.00  0.00    -0.082 Cl
HETATM    5  C7  UNL     1      21.680  42.602   9.734  1.00  0.00     0.077 A 
HETATM    6 CL2  UNL     1      21.617  42.461  11.469  1.00  0.00    -0.081 Cl
HETATM    7  C8  UNL     1      21.517  41.462   8.981  1.00  0.00     0.058 A 
HETATM    8 CL3  UNL     1      21.251  39.892   9.709  1.00  0.00    -0.082 Cl
HETATM    9  C9  UNL     1      21.562  41.538   7.585  1.00  0.00     0.032 A 
ENDROOT
BRANCH   1  10
HETATM   10  C3  UNL     1      21.828  42.903   5.487  1.00  0.00     0.049 C 
BRANCH  10  11
HETATM   11  C2  UNL     1      21.152  41.705   4.882  1.00  0.00     0.086 C 
BRANCH  11  12
HETATM   12  S1  UNL     1      20.446  41.999   3.263  1.00  0.00    -0.097 SA
BRANCH  12  13
HETATM   13  C1  UNL     1      18.875  41.219   3.068  1.00  0.00     0.147 C 
HETATM   14  N1  UNL     1      18.334  40.544   4.010  1.00  0.00    -0.382 N 
ATOM     15  H12 UNL     1      17.427  40.093   3.898  1.00  0.00     0.157 HD
ATOM     16  H11 UNL     1      18.846  40.486   4.891  1.00  0.00     0.157 HD
HETATM   17  N2  UNL     1      18.160  41.299   1.837  1.00  0.00    -0.075 NA
ENDBRANCH  12  13
ENDBRANCH  11  12
ENDBRANCH  10  11
ENDBRANCH   1  10
TORSDOF 4
ENDMDL
MODEL 3
REMARK VINA RESULT: -6.271961715      2.999      3.283
REMARK  4 active torsions:
REMARK  status: ('A' for Active; 'I' for Inactive)
REMARK    1  A    between atoms: C1_4  and  S1_6 
REMARK    2  A    between atoms: S1_6  and  C2_7 
REMARK    3  A    between atoms: C2_7  and  C3_8 
REMARK    4  A    between atoms: C3_8  and  C4_9 
ROOT
HETATM    1  C4  UNL     1      21.779  42.875   7.122  1.00  0.00    -0.054 A 
HETATM    2  C5  UNL     1      21.434  41.671   7.690  1.00  0.00     0.032 A 
HETATM    3  C6  UNL     1      21.363  41.514   9.056  1.00  0.00     0.058 A 
HETATM    4 CL1  UNL     1      20.913  39.942   9.740  1.00  0.00    -0.082 Cl
HETATM    5  C7  UNL     1      21.643  42.583   9.870  1.00  0.00     0.077 A 
HETATM    6 CL2  UNL     1      21.570  42.445  11.605  1.00  0.00    -0.081 Cl
HETATM    7  C8  UNL     1      21.991  43.799   9.327  1.00  0.00     0.058 A 
HETATM    8 CL3  UNL     1      22.358  45.194  10.319  1.00  0.00    -0.082 Cl
HETATM    9  C9  UNL     1      22.059  43.945   7.938  1.00  0.00     0.032 A 
ENDROOT
BRANCH   1  10
HETATM   10  C3  UNL     1      21.832  42.964   5.631  1.00  0.00     0.049 C 
BRANCH  10  11
HETATM   11  C2  UNL     1      20.992  41.846   5.080  1.00  0.00     0.086 C 
BRANCH  11  12
HETATM   12  S1  UNL     1      20.510  42.063   3.369  1.00  0.00    -0.097 SA
BRANCH  12  13
HETATM   13  C1  UNL     1      19.022  41.197   2.980  1.00  0.00     0.147 C 
HETATM   14  N1  UNL     1      18.328  40.608   3.879  1.00  0.00    -0.382 N 
ATOM     15  H12 UNL     1      17.468  40.108   3.654  1.00  0.00     0.157 HD
ATOM     16  H11 UNL     1      18.664  40.673   4.840  1.00  0.00     0.157 HD
HETATM   17  N2  UNL     1      18.552  41.107   1.637  1.00  0.00    -0.075 NA
ENDBRANCH  12  13
ENDBRANCH  11  12
ENDBRANCH  10  11
ENDBRANCH   1  10
TORSDOF 4
ENDMDL
MODEL 4
REMARK VINA RESULT: -6.257234577      0.212      2.347
REMARK  4 active torsions:
REMARK  status: ('A' for Active; 'I' for Inactive)
REMARK    1  A    between atoms: C1_4  and  S1_6 
REMARK    2  A    between atoms: S1_6  and  C2_7 
REMARK    3  A    between atoms: C2_7  and  C3_8 
REMARK    4  A    between atoms: C3_8  and  C4_9 
ROOT
HETATM    1  C4  UNL     1      21.436  42.399   7.098  1.00  0.00    -0.054 A 
HETATM    2  C5  UNL     1      21.786  43.607   7.654  1.00  0.00     0.032 A 
HETATM    3  C6  UNL     1      21.832  43.784   9.019  1.00  0.00     0.058 A 
HETATM    4 CL1  UNL     1      22.291  45.360   9.688  1.00  0.00    -0.082 Cl
HETATM    5  C7  UNL     1      21.521  42.732   9.843  1.00  0.00     0.077 A 
HETATM    6 CL2  UNL     1      21.561  42.895  11.577  1.00  0.00    -0.081 Cl
HETATM    7  C8  UNL     1      21.166  41.512   9.312  1.00  0.00     0.058 A 
HETATM    8 CL3  UNL     1      20.759  40.138  10.318  1.00  0.00    -0.082 Cl
HETATM    9  C9  UNL     1      21.124  41.345   7.924  1.00  0.00     0.032 A 
ENDROOT
BRANCH   1  10
HETATM   10  C3  UNL     1      21.411  42.287   5.607  1.00  0.00     0.049 C 
BRANCH  10  11
HETATM   11  C2  UNL     1      22.077  43.514   5.051  1.00  0.00     0.086 C 
BRANCH  11  12
HETATM   12  S1  UNL     1      22.667  43.332   3.370  1.00  0.00    -0.097 SA
BRANCH  12  13
HETATM   13  C1  UNL     1      24.228  44.116   3.121  1.00  0.00     0.147 C 
HETATM   14  N1  UNL     1      24.819  44.758   4.058  1.00  0.00    -0.382 N 
ATOM     15  H12 UNL     1      25.720  45.211   3.914  1.00  0.00     0.157 HD
ATOM     16  H11 UNL     1      24.353  44.786   4.965  1.00  0.00     0.157 HD
HETATM   17  N2  UNL     1      24.879  44.077   1.853  1.00  0.00    -0.075 NA
ENDBRANCH  12  13
ENDBRANCH  11  12
ENDBRANCH  10  11
ENDBRANCH   1  10
TORSDOF 4
ENDMDL
MODEL 5
REMARK VINA RESULT: -6.247136867      1.209      2.694
REMARK  4 active torsions:
REMARK  status: ('A' for Active; 'I' for Inactive)
REMARK    1  A    between atoms: C1_4  and  S1_6 
REMARK    2  A    between atoms: S1_6  and  C2_7 
REMARK    3  A    between atoms: C2_7  and  C3_8 
REMARK    4  A    between atoms: C3_8  and  C4_9 
ROOT
HETATM    1  C4  UNL     1      21.354  42.377   7.125  1.00  0.00    -0.054 A 
HETATM    2  C5  UNL     1      21.714  43.592   7.660  1.00  0.00     0.032 A 
HETATM    3  C6  UNL     1      21.787  43.784   9.021  1.00  0.00     0.058 A 
HETATM    4 CL1  UNL     1      22.257  45.368   9.663  1.00  0.00    -0.082 Cl
HETATM    5  C7  UNL     1      21.492  42.742   9.863  1.00  0.00     0.077 A 
HETATM    6 CL2  UNL     1      21.566  42.925  11.594  1.00  0.00    -0.081 Cl
HETATM    7  C8  UNL     1      21.129  41.516   9.353  1.00  0.00     0.058 A 
HETATM    8 CL3  UNL     1      20.742  40.153  10.382  1.00  0.00    -0.082 Cl
HETATM    9  C9  UNL     1      21.059  41.333   7.968  1.00  0.00     0.032 A 
ENDROOT
BRANCH   1  10
HETATM   10  C3  UNL     1      21.300  42.249   5.636  1.00  0.00     0.049 C 
BRANCH  10  11
HETATM   11  C2  UNL     1      21.479  43.624   5.056  1.00  0.00     0.086 C 
BRANCH  11  12
HETATM   12  S1  UNL     1      22.977  43.827   4.096  1.00  0.00    -0.097 SA
BRANCH  12  13
HETATM   13  C1  UNL     1      22.671  43.765   2.359  1.00  0.00     0.147 C 
HETATM   14  N1  UNL     1      23.255  44.556   1.541  1.00  0.00    -0.382 N 
ATOM     15  H12 UNL     1      23.078  44.520   0.538  1.00  0.00     0.157 HD
ATOM     16  H11 UNL     1      23.921  45.221   1.936  1.00  0.00     0.157 HD
HETATM   17  N2  UNL     1      21.740  42.836   1.808  1.00  0.00    -0.075 NA
ENDBRANCH  12  13
ENDBRANCH  11  12
ENDBRANCH  10  11
ENDBRANCH   1  10
TORSDOF 4
ENDMDL
