MODEL 1
REMARK VINA RESULT: -6.349476481      0.000      0.000
REMARK  13 active torsions:
REMARK  status: ('A' for Active; 'I' for Inactive)
REMARK       I    between atoms: N1_2  and  C3_4 
REMARK       I    between atoms: C3_4  and  N3_8 
REMARK    1  A    between atoms: N3_8  and  C4_10 
REMARK    2  A    between atoms: C4_10  and  C5_11 
REMARK    3  A    between atoms: C5_11  and  C6_12 
REMARK    4  A    between atoms: C6_12  and  C7_13 
REMARK    5  A    between atoms: C7_13  and  C8_14 
REMARK    6  A    between atoms: C8_14  and  N4_15 
REMARK    7  A    between atoms: N5_18  and  C11_19 
REMARK    8  A    between atoms: C11_19  and  C12_20 
REMARK    9  A    between atoms: C12_20  and  C13_21 
REMARK   10  A    between atoms: C13_21  and  C14_22 
REMARK   11  A    between atoms: C14_22  and  N6_23 
REMARK   12  A    between atoms: N6_23  and  C15_25 
REMARK   13  A    between atoms: C22_35  and  C23_36 
ROOT
HETATM    1  C11 UNL     1      38.277  18.302  34.859  1.00  0.00     0.117 C 
ENDROOT
BRANCH   1   2
HETATM    2  N5  UNL     1      39.501  19.012  34.806  1.00  0.00    -0.409 N 
HETATM    3  C10 UNL     1      39.623  20.096  33.910  1.00  0.00     0.147 C 
HETATM    4  C9  UNL     1      40.731  20.004  32.932  1.00  0.00     0.291 C 
HETATM    5  N4  UNL     1      41.982  19.760  33.634  1.00  0.00     0.091 N 
HETATM    6  C26 UNL     1      41.830  18.419  34.193  1.00  0.00     0.291 C 
HETATM    7  C25 UNL     1      40.682  18.307  35.134  1.00  0.00     0.147 C 
BRANCH   5   8
HETATM    8  C8  UNL     1      42.159  20.752  34.636  1.00  0.00     0.272 C 
BRANCH   8   9
HETATM    9  C7  UNL     1      43.654  21.064  34.772  1.00  0.00     0.030 C 
BRANCH   9  10
HETATM   10  C6  UNL     1      44.014  21.811  33.511  1.00  0.00     0.003 C 
BRANCH  10  11
HETATM   11  C5  UNL     1      45.231  22.678  33.739  1.00  0.00     0.020 C 
BRANCH  11  12
HETATM   12  C4  UNL     1      45.954  22.070  34.933  1.00  0.00     0.138 C 
BRANCH  12  13
HETATM   13  N3  UNL     1      47.172  21.462  34.461  1.00  0.00    -0.227 N 
HETATM   14  C3  UNL     1      47.313  20.050  34.517  1.00  0.00     0.668 C 
HETATM   15  N1  UNL     1      46.693  19.316  33.452  1.00  0.00    -0.227 N 
HETATM   16  N2  UNL     1      47.949  19.431  35.442  1.00  0.00    -0.235 N 
HETATM   17  C1  UNL     1      45.838  18.186  33.726  1.00  0.00     0.168 C 
HETATM   18  C2  UNL     1      46.962  19.752  32.099  1.00  0.00     0.168 C 
ATOM     19  H22 UNL     1      48.050  18.417  35.483  1.00  0.00     0.174 HD
ATOM     20  H21 UNL     1      48.389  19.953  36.200  1.00  0.00     0.174 HD
ATOM     21  H3  UNL     1      47.926  22.040  34.089  1.00  0.00     0.177 HD
ENDBRANCH  12  13
ENDBRANCH  11  12
ENDBRANCH  10  11
ENDBRANCH   9  10
ENDBRANCH   8   9
ENDBRANCH   5   8
ENDBRANCH   1   2
BRANCH   1  22
HETATM   22  C12 UNL     1      37.061  19.150  34.621  1.00  0.00     0.021 C 
BRANCH  22  23
HETATM   23  C13 UNL     1      36.356  19.544  35.871  1.00  0.00     0.021 C 
BRANCH  23  24
HETATM   24  C14 UNL     1      36.852  20.808  36.488  1.00  0.00     0.120 C 
BRANCH  24  25
HETATM   25  N6  UNL     1      37.580  20.460  37.689  1.00  0.00    -0.389 N 
ATOM     26  H6  UNL     1      37.040  20.057  38.454  1.00  0.00     0.159 HD
BRANCH  25  27
HETATM   27  C15 UNL     1      38.821  20.607  37.882  1.00  0.00     0.042 A 
HETATM   28  C16 UNL     1      39.441  21.830  37.596  1.00  0.00     0.047 A 
HETATM   29  C17 UNL     1      40.790  22.029  37.772  1.00  0.00     0.090 A 
HETATM   30  N7  UNL     1      41.510  21.004  38.233  1.00  0.00    -0.365 N 
HETATM   31  C18 UNL     1      40.987  19.791  38.533  1.00  0.00     0.046 A 
ATOM     32  H7  UNL     1      42.512  21.142  38.366  1.00  0.00     0.165 HD
HETATM   33  C19 UNL     1      41.812  18.800  38.991  1.00  0.00     0.054 A 
HETATM   34  C24 UNL     1      39.600  19.584  38.353  1.00  0.00     0.029 A 
HETATM   35  C20 UNL     1      41.294  17.579  39.286  1.00  0.00     0.036 A 
HETATM   36 CL1  UNL     1      42.335  16.275  39.885  1.00  0.00    -0.084 Cl
HETATM   37  C21 UNL     1      39.971  17.382  39.116  1.00  0.00     0.037 A 
HETATM   38  C22 UNL     1      39.055  18.360  38.646  1.00  0.00     0.022 A 
BRANCH  38  39
HETATM   39  C23 UNL     1      37.665  17.958  38.556  1.00  0.00     0.387 C 
HETATM   40  F1  UNL     1      37.247  18.149  39.918  1.00  0.00    -0.209 F 
HETATM   41  F2  UNL     1      37.541  16.542  38.525  1.00  0.00    -0.209 F 
ENDBRANCH  38  39
ENDBRANCH  25  27
ENDBRANCH  24  25
ENDBRANCH  23  24
ENDBRANCH  22  23
ENDBRANCH   1  22
TORSDOF 13
ENDMDL
MODEL 2
REMARK VINA RESULT: -6.238333258      1.708      2.346
REMARK  13 active torsions:
REMARK  status: ('A' for Active; 'I' for Inactive)
REMARK       I    between atoms: N1_2  and  C3_4 
REMARK       I    between atoms: C3_4  and  N3_8 
REMARK    1  A    between atoms: N3_8  and  C4_10 
REMARK    2  A    between atoms: C4_10  and  C5_11 
REMARK    3  A    between atoms: C5_11  and  C6_12 
REMARK    4  A    between atoms: C6_12  and  C7_13 
REMARK    5  A    between atoms: C7_13  and  C8_14 
REMARK    6  A    between atoms: C8_14  and  N4_15 
REMARK    7  A    between atoms: N5_18  and  C11_19 
REMARK    8  A    between atoms: C11_19  and  C12_20 
REMARK    9  A    between atoms: C12_20  and  C13_21 
REMARK   10  A    between atoms: C13_21  and  C14_22 
REMARK   11  A    between atoms: C14_22  and  N6_23 
REMARK   12  A    between atoms: N6_23  and  C15_25 
REMARK   13  A    between atoms: C22_35  and  C23_36 
ROOT
HETATM    1  C11 UNL     1      38.897  18.392  34.735  1.00  0.00     0.117 C 
ENDROOT
BRANCH   1   2
HETATM    2  N5  UNL     1      40.201  18.876  34.994  1.00  0.00    -0.409 N 
HETATM    3  C10 UNL     1      40.596  20.109  34.432  1.00  0.00     0.147 C 
HETATM    4  C9  UNL     1      41.808  20.074  33.581  1.00  0.00     0.291 C 
HETATM    5  N4  UNL     1      42.902  19.458  34.316  1.00  0.00     0.091 N 
HETATM    6  C26 UNL     1      42.490  18.067  34.486  1.00  0.00     0.291 C 
HETATM    7  C25 UNL     1      41.216  17.924  35.243  1.00  0.00     0.147 C 
BRANCH   5   8
HETATM    8  C8  UNL     1      43.070  20.132  35.556  1.00  0.00     0.272 C 
BRANCH   8   9
HETATM    9  C7  UNL     1      44.055  21.291  35.366  1.00  0.00     0.030 C 
BRANCH   9  10
HETATM   10  C6  UNL     1      45.365  20.635  35.003  1.00  0.00     0.003 C 
BRANCH  10  11
HETATM   11  C5  UNL     1      46.291  21.632  34.342  1.00  0.00     0.020 C 
BRANCH  11  12
HETATM   12  C4  UNL     1      45.418  22.435  33.386  1.00  0.00     0.138 C 
BRANCH  12  13
HETATM   13  N3  UNL     1      46.234  23.458  32.783  1.00  0.00    -0.227 N 
HETATM   14  C3  UNL     1      46.519  23.390  31.394  1.00  0.00     0.668 C 
HETATM   15  N1  UNL     1      45.495  23.883  30.519  1.00  0.00    -0.227 N 
HETATM   16  N2  UNL     1      47.613  22.929  30.909  1.00  0.00    -0.235 N 
HETATM   17  C1  UNL     1      45.042  23.105  29.391  1.00  0.00     0.168 C 
HETATM   18  C2  UNL     1      44.939  25.186  30.813  1.00  0.00     0.168 C 
ATOM     19  H22 UNL     1      47.819  22.881  29.911  1.00  0.00     0.174 HD
ATOM     20  H21 UNL     1      48.342  22.578  31.531  1.00  0.00     0.174 HD
ATOM     21  H3  UNL     1      46.603  24.222  33.348  1.00  0.00     0.177 HD
ENDBRANCH  12  13
ENDBRANCH  11  12
ENDBRANCH  10  11
ENDBRANCH   9  10
ENDBRANCH   8   9
ENDBRANCH   5   8
ENDBRANCH   1   2
BRANCH   1  22
HETATM   22  C12 UNL     1      37.871  19.467  34.517  1.00  0.00     0.021 C 
BRANCH  22  23
HETATM   23  C13 UNL     1      36.735  19.410  35.477  1.00  0.00     0.021 C 
BRANCH  23  24
HETATM   24  C14 UNL     1      36.705  20.526  36.465  1.00  0.00     0.120 C 
BRANCH  24  25
HETATM   25  N6  UNL     1      37.438  20.100  37.638  1.00  0.00    -0.389 N 
ATOM     26  H6  UNL     1      36.925  19.550  38.327  1.00  0.00     0.159 HD
BRANCH  25  27
HETATM   27  C15 UNL     1      38.652  20.344  37.893  1.00  0.00     0.042 A 
HETATM   28  C16 UNL     1      39.177  21.624  37.673  1.00  0.00     0.047 A 
HETATM   29  C17 UNL     1      40.495  21.930  37.916  1.00  0.00     0.090 A 
HETATM   30  N7  UNL     1      41.279  20.954  38.379  1.00  0.00    -0.365 N 
HETATM   31  C18 UNL     1      40.849  19.692  38.618  1.00  0.00     0.046 A 
ATOM     32  H7  UNL     1      42.259  21.171  38.562  1.00  0.00     0.165 HD
HETATM   33  C19 UNL     1      41.736  18.758  39.083  1.00  0.00     0.054 A 
HETATM   34  C24 UNL     1      39.494  19.375  38.368  1.00  0.00     0.029 A 
HETATM   35  C20 UNL     1      41.312  17.489  39.317  1.00  0.00     0.036 A 
HETATM   36 CL1  UNL     1      42.433  16.258  39.923  1.00  0.00    -0.084 Cl
HETATM   37  C21 UNL     1      40.019  17.188  39.080  1.00  0.00     0.037 A 
HETATM   38  C22 UNL     1      39.044  18.100  38.598  1.00  0.00     0.022 A 
BRANCH  38  39
HETATM   39  C23 UNL     1      37.699  17.587  38.432  1.00  0.00     0.387 C 
HETATM   40  F1  UNL     1      37.677  16.571  39.448  1.00  0.00    -0.209 F 
HETATM   41  F2  UNL     1      37.615  16.720  37.307  1.00  0.00    -0.209 F 
ENDBRANCH  38  39
ENDBRANCH  25  27
ENDBRANCH  24  25
ENDBRANCH  23  24
ENDBRANCH  22  23
ENDBRANCH   1  22
TORSDOF 13
ENDMDL
MODEL 3
REMARK VINA RESULT: -6.092238496      1.230      2.273
REMARK  13 active torsions:
REMARK  status: ('A' for Active; 'I' for Inactive)
REMARK       I    between atoms: N1_2  and  C3_4 
REMARK       I    between atoms: C3_4  and  N3_8 
REMARK    1  A    between atoms: N3_8  and  C4_10 
REMARK    2  A    between atoms: C4_10  and  C5_11 
REMARK    3  A    between atoms: C5_11  and  C6_12 
REMARK    4  A    between atoms: C6_12  and  C7_13 
REMARK    5  A    between atoms: C7_13  and  C8_14 
REMARK    6  A    between atoms: C8_14  and  N4_15 
REMARK    7  A    between atoms: N5_18  and  C11_19 
REMARK    8  A    between atoms: C11_19  and  C12_20 
REMARK    9  A    between atoms: C12_20  and  C13_21 
REMARK   10  A    between atoms: C13_21  and  C14_22 
REMARK   11  A    between atoms: C14_22  and  N6_23 
REMARK   12  A    between atoms: N6_23  and  C15_25 
REMARK   13  A    between atoms: C22_35  and  C23_36 
ROOT
HETATM    1  C11 UNL     1      38.573  20.447  34.094  1.00  0.00     0.117 C 
ENDROOT
BRANCH   1   2
HETATM    2  N5  UNL     1      39.550  19.521  34.532  1.00  0.00    -0.409 N 
HETATM    3  C10 UNL     1      40.862  19.978  34.781  1.00  0.00     0.147 C 
HETATM    4  C9  UNL     1      41.937  19.303  34.018  1.00  0.00     0.291 C 
HETATM    5  N4  UNL     1      41.838  17.863  34.207  1.00  0.00     0.091 N 
HETATM    6  C26 UNL     1      40.588  17.495  33.548  1.00  0.00     0.291 C 
HETATM    7  C25 UNL     1      39.399  18.173  34.132  1.00  0.00     0.147 C 
BRANCH   5   8
HETATM    8  C8  UNL     1      41.828  17.572  35.598  1.00  0.00     0.272 C 
BRANCH   8   9
HETATM    9  C7  UNL     1      42.895  16.512  35.895  1.00  0.00     0.030 C 
BRANCH   9  10
HETATM   10  C6  UNL     1      44.119  17.293  36.305  1.00  0.00     0.003 C 
BRANCH  10  11
HETATM   11  C5  UNL     1      45.375  16.591  35.839  1.00  0.00     0.020 C 
BRANCH  11  12
HETATM   12  C4  UNL     1      46.084  17.578  34.921  1.00  0.00     0.138 C 
BRANCH  12  13
HETATM   13  N3  UNL     1      46.507  18.706  35.712  1.00  0.00    -0.227 N 
HETATM   14  C3  UNL     1      47.056  19.843  35.064  1.00  0.00     0.668 C 
HETATM   15  N1  UNL     1      46.108  20.764  34.506  1.00  0.00    -0.227 N 
HETATM   16  N2  UNL     1      48.313  20.074  34.965  1.00  0.00    -0.235 N 
HETATM   17  C1  UNL     1      46.241  21.237  33.149  1.00  0.00     0.168 C 
HETATM   18  C2  UNL     1      45.021  21.198  35.357  1.00  0.00     0.168 C 
ATOM     19  H22 UNL     1      48.708  20.891  34.500  1.00  0.00     0.174 HD
ATOM     20  H21 UNL     1      48.987  19.419  35.362  1.00  0.00     0.174 HD
ATOM     21  H3  UNL     1      46.413  18.686  36.727  1.00  0.00     0.177 HD
ENDBRANCH  12  13
ENDBRANCH  11  12
ENDBRANCH  10  11
ENDBRANCH   9  10
ENDBRANCH   8   9
ENDBRANCH   5   8
ENDBRANCH   1   2
BRANCH   1  22
HETATM   22  C12 UNL     1      37.161  19.946  34.190  1.00  0.00     0.021 C 
BRANCH  22  23
HETATM   23  C13 UNL     1      36.676  19.794  35.588  1.00  0.00     0.021 C 
BRANCH  23  24
HETATM   24  C14 UNL     1      36.944  20.970  36.466  1.00  0.00     0.120 C 
BRANCH  24  25
HETATM   25  N6  UNL     1      37.652  20.497  37.636  1.00  0.00    -0.389 N 
ATOM     26  H6  UNL     1      37.103  20.001  38.338  1.00  0.00     0.159 HD
BRANCH  25  27
HETATM   27  C15 UNL     1      38.885  20.641  37.875  1.00  0.00     0.042 A 
HETATM   28  C16 UNL     1      39.513  21.871  37.640  1.00  0.00     0.047 A 
HETATM   29  C17 UNL     1      40.854  22.067  37.866  1.00  0.00     0.090 A 
HETATM   30  N7  UNL     1      41.561  21.031  38.325  1.00  0.00    -0.365 N 
HETATM   31  C18 UNL     1      41.030  19.811  38.577  1.00  0.00     0.046 A 
ATOM     32  H7  UNL     1      42.558  21.167  38.495  1.00  0.00     0.165 HD
HETATM   33  C19 UNL     1      41.842  18.809  39.038  1.00  0.00     0.054 A 
HETATM   34  C24 UNL     1      39.650  19.607  38.346  1.00  0.00     0.029 A 
HETATM   35  C20 UNL     1      41.316  17.581  39.284  1.00  0.00     0.036 A 
HETATM   36 CL1  UNL     1      42.338  16.263  39.884  1.00  0.00    -0.084 Cl
HETATM   37  C21 UNL     1      40.000  17.387  39.064  1.00  0.00     0.037 A 
HETATM   38  C22 UNL     1      39.098  18.375  38.589  1.00  0.00     0.022 A 
BRANCH  38  39
HETATM   39  C23 UNL     1      37.713  17.975  38.442  1.00  0.00     0.387 C 
HETATM   40  F1  UNL     1      37.260  18.090  39.802  1.00  0.00    -0.209 F 
HETATM   41  F2  UNL     1      37.596  16.561  38.331  1.00  0.00    -0.209 F 
ENDBRANCH  38  39
ENDBRANCH  25  27
ENDBRANCH  24  25
ENDBRANCH  23  24
ENDBRANCH  22  23
ENDBRANCH   1  22
TORSDOF 13
ENDMDL
MODEL 4
REMARK VINA RESULT: -5.895885488      2.743      5.447
REMARK  13 active torsions:
REMARK  status: ('A' for Active; 'I' for Inactive)
REMARK       I    between atoms: N1_2  and  C3_4 
REMARK       I    between atoms: C3_4  and  N3_8 
REMARK    1  A    between atoms: N3_8  and  C4_10 
REMARK    2  A    between atoms: C4_10  and  C5_11 
REMARK    3  A    between atoms: C5_11  and  C6_12 
REMARK    4  A    between atoms: C6_12  and  C7_13 
REMARK    5  A    between atoms: C7_13  and  C8_14 
REMARK    6  A    between atoms: C8_14  and  N4_15 
REMARK    7  A    between atoms: N5_18  and  C11_19 
REMARK    8  A    between atoms: C11_19  and  C12_20 
REMARK    9  A    between atoms: C12_20  and  C13_21 
REMARK   10  A    between atoms: C13_21  and  C14_22 
REMARK   11  A    between atoms: C14_22  and  N6_23 
REMARK   12  A    between atoms: N6_23  and  C15_25 
REMARK   13  A    between atoms: C22_35  and  C23_36 
ROOT
HETATM    1  C11 UNL     1      44.618  21.531  35.076  1.00  0.00     0.117 C 
ENDROOT
BRANCH   1   2
HETATM    2  N5  UNL     1      45.437  20.403  34.834  1.00  0.00    -0.409 N 
HETATM    3  C10 UNL     1      46.573  20.196  35.647  1.00  0.00     0.147 C 
HETATM    4  C9  UNL     1      47.869  20.101  34.936  1.00  0.00     0.291 C 
HETATM    5  N4  UNL     1      47.779  19.090  33.893  1.00  0.00     0.091 N 
HETATM    6  C26 UNL     1      46.832  19.644  32.929  1.00  0.00     0.291 C 
HETATM    7  C25 UNL     1      45.488  19.901  33.513  1.00  0.00     0.147 C 
BRANCH   5   8
HETATM    8  C8  UNL     1      47.326  17.869  34.463  1.00  0.00     0.272 C 
BRANCH   8   9
HETATM    9  C7  UNL     1      48.252  16.733  34.012  1.00  0.00     0.030 C 
BRANCH   9  10
HETATM   10  C6  UNL     1      47.952  15.589  34.949  1.00  0.00     0.003 C 
BRANCH  10  11
HETATM   11  C5  UNL     1      46.707  14.854  34.504  1.00  0.00     0.020 C 
BRANCH  11  12
HETATM   12  C4  UNL     1      46.103  14.260  35.770  1.00  0.00     0.138 C 
BRANCH  12  13
HETATM   13  N3  UNL     1      45.840  15.335  36.692  1.00  0.00    -0.227 N 
HETATM   14  C3  UNL     1      44.583  15.995  36.651  1.00  0.00     0.668 C 
HETATM   15  N1  UNL     1      43.506  15.333  37.327  1.00  0.00    -0.227 N 
HETATM   16  N2  UNL     1      44.382  17.115  36.060  1.00  0.00    -0.235 N 
HETATM   17  C1  UNL     1      42.233  15.128  36.677  1.00  0.00     0.168 C 
HETATM   18  C2  UNL     1      43.747  14.883  38.681  1.00  0.00     0.168 C 
ATOM     19  H22 UNL     1      43.479  17.590  36.030  1.00  0.00     0.174 HD
ATOM     20  H21 UNL     1      45.148  17.586  35.578  1.00  0.00     0.174 HD
ATOM     21  H3  UNL     1      46.549  15.620  37.367  1.00  0.00     0.177 HD
ENDBRANCH  12  13
ENDBRANCH  11  12
ENDBRANCH  10  11
ENDBRANCH   9  10
ENDBRANCH   8   9
ENDBRANCH   5   8
ENDBRANCH   1   2
BRANCH   1  22
HETATM   22  C12 UNL     1      43.145  21.258  34.966  1.00  0.00     0.021 C 
BRANCH  22  23
HETATM   23  C13 UNL     1      42.547  20.703  36.211  1.00  0.00     0.021 C 
BRANCH  23  24
HETATM   24  C14 UNL     1      41.974  21.729  37.130  1.00  0.00     0.120 C 
BRANCH  24  25
HETATM   25  N6  UNL     1      41.081  21.054  38.047  1.00  0.00    -0.389 N 
ATOM     26  H6  UNL     1      41.432  20.882  38.989  1.00  0.00     0.159 HD
BRANCH  25  27
HETATM   27  C15 UNL     1      39.908  20.655  37.794  1.00  0.00     0.042 A 
HETATM   28  C16 UNL     1      39.005  21.492  37.126  1.00  0.00     0.047 A 
HETATM   29  C17 UNL     1      37.715  21.110  36.848  1.00  0.00     0.090 A 
HETATM   30  N7  UNL     1      37.335  19.891  37.240  1.00  0.00    -0.365 N 
HETATM   31  C18 UNL     1      38.146  19.023  37.891  1.00  0.00     0.046 A 
ATOM     32  H7  UNL     1      36.379  19.598  37.039  1.00  0.00     0.165 HD
HETATM   33  C19 UNL     1      37.658  17.798  38.260  1.00  0.00     0.054 A 
HETATM   34  C24 UNL     1      39.474  19.415  38.177  1.00  0.00     0.029 A 
HETATM   35  C20 UNL     1      38.464  16.927  38.920  1.00  0.00     0.036 A 
HETATM   36 CL1  UNL     1      37.864  15.332  39.409  1.00  0.00    -0.084 Cl
HETATM   37  C21 UNL     1      39.731  17.300  39.192  1.00  0.00     0.037 A 
HETATM   38  C22 UNL     1      40.306  18.550  38.842  1.00  0.00     0.022 A 
BRANCH  38  39
HETATM   39  C23 UNL     1      41.695  18.751  39.203  1.00  0.00     0.387 C 
HETATM   40  F1  UNL     1      42.350  18.108  38.097  1.00  0.00    -0.209 F 
HETATM   41  F2  UNL     1      42.101  17.834  40.212  1.00  0.00    -0.209 F 
ENDBRANCH  38  39
ENDBRANCH  25  27
ENDBRANCH  24  25
ENDBRANCH  23  24
ENDBRANCH  22  23
ENDBRANCH   1  22
TORSDOF 13
ENDMDL
MODEL 5
REMARK VINA RESULT: -5.871420353      3.238      7.933
REMARK  13 active torsions:
REMARK  status: ('A' for Active; 'I' for Inactive)
REMARK       I    between atoms: N1_2  and  C3_4 
REMARK       I    between atoms: C3_4  and  N3_8 
REMARK    1  A    between atoms: N3_8  and  C4_10 
REMARK    2  A    between atoms: C4_10  and  C5_11 
REMARK    3  A    between atoms: C5_11  and  C6_12 
REMARK    4  A    between atoms: C6_12  and  C7_13 
REMARK    5  A    between atoms: C7_13  and  C8_14 
REMARK    6  A    between atoms: C8_14  and  N4_15 
REMARK    7  A    between atoms: N5_18  and  C11_19 
REMARK    8  A    between atoms: C11_19  and  C12_20 
REMARK    9  A    between atoms: C12_20  and  C13_21 
REMARK   10  A    between atoms: C13_21  and  C14_22 
REMARK   11  A    between atoms: C14_22  and  N6_23 
REMARK   12  A    between atoms: N6_23  and  C15_25 
REMARK   13  A    between atoms: C22_35  and  C23_36 
ROOT
HETATM    1  C11 UNL     1      40.939  14.287  38.852  1.00  0.00     0.117 C 
ENDROOT
BRANCH   1   2
HETATM    2  N5  UNL     1      39.617  14.555  39.282  1.00  0.00    -0.409 N 
HETATM    3  C10 UNL     1      38.891  13.535  39.935  1.00  0.00     0.147 C 
HETATM    4  C9  UNL     1      37.598  13.163  39.314  1.00  0.00     0.291 C 
HETATM    5  N4  UNL     1      36.783  14.355  39.134  1.00  0.00     0.091 N 
HETATM    6  C26 UNL     1      37.499  15.137  38.130  1.00  0.00     0.291 C 
HETATM    7  C25 UNL     1      38.874  15.515  38.556  1.00  0.00     0.147 C 
BRANCH   5   8
HETATM    8  C8  UNL     1      36.668  15.036  40.376  1.00  0.00     0.272 C 
BRANCH   8   9
HETATM    9  C7  UNL     1      35.475  15.997  40.310  1.00  0.00     0.030 C 
BRANCH   9  10
HETATM   10  C6  UNL     1      35.964  17.272  40.953  1.00  0.00     0.003 C 
BRANCH  10  11
HETATM   11  C5  UNL     1      35.524  18.473  40.147  1.00  0.00     0.020 C 
BRANCH  11  12
HETATM   12  C4  UNL     1      36.513  18.583  38.995  1.00  0.00     0.138 C 
BRANCH  12  13
HETATM   13  N3  UNL     1      35.776  18.883  37.794  1.00  0.00    -0.227 N 
HETATM   14  C3  UNL     1      36.423  19.567  36.732  1.00  0.00     0.668 C 
HETATM   15  N1  UNL     1      37.234  18.758  35.869  1.00  0.00    -0.227 N 
HETATM   16  N2  UNL     1      36.314  20.827  36.520  1.00  0.00    -0.235 N 
HETATM   17  C1  UNL     1      38.585  19.146  35.539  1.00  0.00     0.168 C 
HETATM   18  C2  UNL     1      36.644  17.546  35.345  1.00  0.00     0.168 C 
ATOM     19  H22 UNL     1      36.779  21.318  35.757  1.00  0.00     0.174 HD
ATOM     20  H21 UNL     1      35.737  21.402  37.134  1.00  0.00     0.174 HD
ATOM     21  H3  UNL     1      34.798  18.607  37.709  1.00  0.00     0.177 HD
ENDBRANCH  12  13
ENDBRANCH  11  12
ENDBRANCH  10  11
ENDBRANCH   9  10
ENDBRANCH   8   9
ENDBRANCH   5   8
ENDBRANCH   1   2
BRANCH   1  22
HETATM   22  C12 UNL     1      42.004  14.861  39.742  1.00  0.00     0.021 C 
BRANCH  22  23
HETATM   23  C13 UNL     1      43.364  14.832  39.138  1.00  0.00     0.021 C 
BRANCH  23  24
HETATM   24  C14 UNL     1      43.466  15.515  37.815  1.00  0.00     0.120 C 
BRANCH  24  25
HETATM   25  N6  UNL     1      42.951  16.858  37.968  1.00  0.00    -0.389 N 
ATOM     26  H6  UNL     1      42.489  17.076  38.851  1.00  0.00     0.159 HD
BRANCH  25  27
HETATM   27  C15 UNL     1      43.017  17.788  37.114  1.00  0.00     0.042 A 
HETATM   28  C16 UNL     1      43.838  17.656  35.987  1.00  0.00     0.047 A 
HETATM   29  C17 UNL     1      43.957  18.648  35.043  1.00  0.00     0.090 A 
HETATM   30  N7  UNL     1      43.253  19.766  35.232  1.00  0.00    -0.365 N 
HETATM   31  C18 UNL     1      42.437  19.972  36.294  1.00  0.00     0.046 A 
ATOM     32  H7  UNL     1      43.334  20.509  34.537  1.00  0.00     0.165 HD
HETATM   33  C19 UNL     1      41.764  21.160  36.402  1.00  0.00     0.054 A 
HETATM   34  C24 UNL     1      42.314  18.953  37.266  1.00  0.00     0.029 A 
HETATM   35  C20 UNL     1      40.952  21.375  37.469  1.00  0.00     0.036 A 
HETATM   36 CL1  UNL     1      40.064  22.899  37.638  1.00  0.00    -0.084 Cl
HETATM   37  C21 UNL     1      40.833  20.401  38.396  1.00  0.00     0.037 A 
HETATM   38  C22 UNL     1      41.498  19.148  38.351  1.00  0.00     0.022 A 
BRANCH  38  39
HETATM   39  C23 UNL     1      41.218  18.225  39.433  1.00  0.00     0.387 C 
HETATM   40  F1  UNL     1      39.930  18.700  39.858  1.00  0.00    -0.209 F 
HETATM   41  F2  UNL     1      41.939  18.577  40.608  1.00  0.00    -0.209 F 
ENDBRANCH  38  39
ENDBRANCH  25  27
ENDBRANCH  24  25
ENDBRANCH  23  24
ENDBRANCH  22  23
ENDBRANCH   1  22
TORSDOF 13
ENDMDL
