MODEL 1
REMARK VINA RESULT: -7.188012378      0.000      0.000
REMARK  6 active torsions:
REMARK  status: ('A' for Active; 'I' for Inactive)
REMARK    1  A    between atoms: C2_2  and  N1_3 
REMARK    2  A    between atoms: C5_6  and  C6_7 
REMARK    3  A    between atoms: C6_7  and  N2_8 
REMARK    4  A    between atoms: C8_13  and  N4_14 
REMARK    5  A    between atoms: C11_19  and  N6_20 
REMARK    6  A    between atoms: N6_20  and  C12_22 
ROOT
HETATM    1  N2  UNL     1      -3.465   5.947  12.553  1.00  0.00    -0.225 N 
ATOM      2  H2  UNL     1      -3.182   6.054  11.579  1.00  0.00     0.177 HD
HETATM    3  C7  UNL     1      -3.626   4.742  12.963  1.00  0.00     0.707 A 
HETATM    4  N3  UNL     1      -3.405   3.740  12.060  1.00  0.00    -0.021 N 
ATOM      5  H3  UNL     1      -3.126   3.992  11.113  1.00  0.00     0.203 HD
HETATM    6  C8  UNL     1      -3.537   2.442  12.360  1.00  0.00     0.708 A 
HETATM    7  N5  UNL     1      -3.904   2.130  13.607  1.00  0.00    -0.021 N 
ATOM      8  H5  UNL     1      -4.012   1.149  13.861  1.00  0.00     0.203 HD
HETATM    9  C11 UNL     1      -4.139   3.091  14.549  1.00  0.00     0.707 A 
HETATM   10  N7  UNL     1      -3.991   4.380  14.197  1.00  0.00    -0.022 N 
ATOM     11  H7  UNL     1      -4.164   5.105  14.894  1.00  0.00     0.203 HD
ENDROOT
BRANCH   1  12
HETATM   12  C6  UNL     1      -3.632   7.148  13.289  1.00  0.00     0.142 C 
BRANCH  12  13
HETATM   13  C5  UNL     1      -2.351   7.357  14.104  1.00  0.00     0.007 C 
HETATM   14  C4  UNL     1      -2.636   8.105  15.387  1.00  0.00     0.036 C 
HETATM   15  C3  UNL     1      -1.488   9.048  15.731  1.00  0.00     0.272 C 
HETATM   16  N1  UNL     1      -1.446  10.166  14.807  1.00  0.00     0.088 N 
HETATM   17  C18 UNL     1      -2.012   9.709  13.544  1.00  0.00     0.272 C 
HETATM   18  C17 UNL     1      -1.487   8.314  13.270  1.00  0.00     0.036 C 
BRANCH  16  19
HETATM   19  C2  UNL     1      -0.107  10.662  14.585  1.00  0.00     0.268 C 
HETATM   20  C1  UNL     1       0.737  10.490  15.810  1.00  0.00     0.037 C 
ENDBRANCH  16  19
ENDBRANCH  12  13
ENDBRANCH   1  12
BRANCH   6  21
HETATM   21  N4  UNL     1      -3.305   1.405  11.412  1.00  0.00    -0.225 N 
HETATM   22  C9  UNL     1      -1.939   1.197  10.979  1.00  0.00     0.168 C 
HETATM   23  C10 UNL     1      -4.392   0.605  10.909  1.00  0.00     0.168 C 
ENDBRANCH   6  21
BRANCH   9  24
HETATM   24  N6  UNL     1      -4.487   2.798  15.742  1.00  0.00    -0.220 N 
ATOM     25  H6  UNL     1      -3.987   3.172  16.547  1.00  0.00     0.178 HD
BRANCH  24  26
HETATM   26  C12 UNL     1      -5.622   1.910  15.906  1.00  0.00     0.099 C 
HETATM   27  C13 UNL     1      -6.769   2.527  16.643  1.00  0.00     0.026 C 
HETATM   28  C14 UNL     1      -7.446   1.282  17.236  1.00  0.00     0.002 C 
HETATM   29  C15 UNL     1      -6.270   0.537  17.788  1.00  0.00     0.002 C 
HETATM   30  C16 UNL     1      -5.245   0.656  16.664  1.00  0.00     0.026 C 
ENDBRANCH  24  26
ENDBRANCH   9  24
TORSDOF 6
ENDMDL
MODEL 2
REMARK VINA RESULT: -7.147389201      3.165      4.504
REMARK  6 active torsions:
REMARK  status: ('A' for Active; 'I' for Inactive)
REMARK    1  A    between atoms: C2_2  and  N1_3 
REMARK    2  A    between atoms: C5_6  and  C6_7 
REMARK    3  A    between atoms: C6_7  and  N2_8 
REMARK    4  A    between atoms: C8_13  and  N4_14 
REMARK    5  A    between atoms: C11_19  and  N6_20 
REMARK    6  A    between atoms: N6_20  and  C12_22 
ROOT
HETATM    1  N2  UNL     1      -4.453   5.520  11.604  1.00  0.00    -0.225 N 
ATOM      2  H2  UNL     1      -4.163   5.490  10.626  1.00  0.00     0.177 HD
HETATM    3  C7  UNL     1      -4.281   4.441  12.276  1.00  0.00     0.707 A 
HETATM    4  N3  UNL     1      -3.734   3.375  11.618  1.00  0.00    -0.021 N 
ATOM      5  H3  UNL     1      -3.491   3.484  10.634  1.00  0.00     0.203 HD
HETATM    6  C8  UNL     1      -3.503   2.193  12.203  1.00  0.00     0.708 A 
HETATM    7  N5  UNL     1      -3.828   2.068  13.492  1.00  0.00    -0.021 N 
ATOM      8  H5  UNL     1      -3.661   1.179  13.962  1.00  0.00     0.203 HD
HETATM    9  C11 UNL     1      -4.378   3.100  14.199  1.00  0.00     0.707 A 
HETATM   10  N7  UNL     1      -4.590   4.266  13.565  1.00  0.00    -0.022 N 
ATOM     11  H7  UNL     1      -5.000   5.043  14.085  1.00  0.00     0.203 HD
ENDROOT
BRANCH   1  12
HETATM   12  C6  UNL     1      -4.996   6.750  12.055  1.00  0.00     0.142 C 
BRANCH  12  13
HETATM   13  C5  UNL     1      -4.894   7.740  10.889  1.00  0.00     0.007 C 
HETATM   14  C4  UNL     1      -5.510   9.074  11.250  1.00  0.00     0.036 C 
HETATM   15  C3  UNL     1      -6.206   9.693  10.042  1.00  0.00     0.272 C 
HETATM   16  N1  UNL     1      -7.411   8.954   9.709  1.00  0.00     0.088 N 
HETATM   17  C18 UNL     1      -7.213   7.578  10.145  1.00  0.00     0.272 C 
HETATM   18  C17 UNL     1      -5.798   7.169   9.787  1.00  0.00     0.036 C 
BRANCH  16  19
HETATM   19  C2  UNL     1      -7.711   8.976   8.296  1.00  0.00     0.268 C 
HETATM   20  C1  UNL     1      -9.176   9.186   8.064  1.00  0.00     0.037 C 
ENDBRANCH  16  19
ENDBRANCH  12  13
ENDBRANCH   1  12
BRANCH   6  21
HETATM   21  N4  UNL     1      -2.933   1.088  11.507  1.00  0.00    -0.225 N 
HETATM   22  C9  UNL     1      -1.650   1.298  10.868  1.00  0.00     0.168 C 
HETATM   23  C10 UNL     1      -3.615  -0.179  11.446  1.00  0.00     0.168 C 
ENDBRANCH   6  21
BRANCH   9  24
HETATM   24  N6  UNL     1      -4.687   2.986  15.432  1.00  0.00    -0.220 N 
ATOM     25  H6  UNL     1      -4.231   3.550  16.148  1.00  0.00     0.178 HD
BRANCH  24  26
HETATM   26  C12 UNL     1      -5.714   2.020  15.775  1.00  0.00     0.099 C 
HETATM   27  C13 UNL     1      -6.841   2.597  16.573  1.00  0.00     0.026 C 
HETATM   28  C14 UNL     1      -7.342   1.353  17.323  1.00  0.00     0.002 C 
HETATM   29  C15 UNL     1      -6.055   0.762  17.811  1.00  0.00     0.002 C 
HETATM   30  C16 UNL     1      -5.154   0.873  16.585  1.00  0.00     0.026 C 
ENDBRANCH  24  26
ENDBRANCH   9  24
TORSDOF 6
ENDMDL
MODEL 3
REMARK VINA RESULT: -7.100852755      3.121      4.564
REMARK  6 active torsions:
REMARK  status: ('A' for Active; 'I' for Inactive)
REMARK    1  A    between atoms: C2_2  and  N1_3 
REMARK    2  A    between atoms: C5_6  and  C6_7 
REMARK    3  A    between atoms: C6_7  and  N2_8 
REMARK    4  A    between atoms: C8_13  and  N4_14 
REMARK    5  A    between atoms: C11_19  and  N6_20 
REMARK    6  A    between atoms: N6_20  and  C12_22 
ROOT
HETATM    1  N2  UNL     1      -4.438   5.868  11.654  1.00  0.00    -0.225 N 
ATOM      2  H2  UNL     1      -4.134   5.879  10.681  1.00  0.00     0.177 HD
HETATM    3  C7  UNL     1      -4.216   4.783  12.301  1.00  0.00     0.707 A 
HETATM    4  N3  UNL     1      -3.603   3.766  11.624  1.00  0.00    -0.021 N 
ATOM      5  H3  UNL     1      -3.353   3.914  10.647  1.00  0.00     0.203 HD
HETATM    6  C8  UNL     1      -3.314   2.584  12.182  1.00  0.00     0.708 A 
HETATM    7  N5  UNL     1      -3.649   2.407  13.463  1.00  0.00    -0.021 N 
ATOM      8  H5  UNL     1      -3.440   1.516  13.913  1.00  0.00     0.203 HD
HETATM    9  C11 UNL     1      -4.264   3.389  14.187  1.00  0.00     0.707 A 
HETATM   10  N7  UNL     1      -4.532   4.558  13.581  1.00  0.00    -0.022 N 
ATOM     11  H7  UNL     1      -4.991   5.297  14.114  1.00  0.00     0.203 HD
ENDROOT
BRANCH   1  12
HETATM   12  C6  UNL     1      -5.055   7.054  12.128  1.00  0.00     0.142 C 
BRANCH  12  13
HETATM   13  C5  UNL     1      -6.391   7.192  11.389  1.00  0.00     0.007 C 
HETATM   14  C4  UNL     1      -6.274   6.720   9.957  1.00  0.00     0.036 C 
HETATM   15  C3  UNL     1      -7.134   7.577   9.033  1.00  0.00     0.272 C 
HETATM   16  N1  UNL     1      -6.570   8.907   8.894  1.00  0.00     0.088 N 
HETATM   17  C18 UNL     1      -5.831   9.198  10.115  1.00  0.00     0.272 C 
HETATM   18  C17 UNL     1      -6.649   8.703  11.291  1.00  0.00     0.036 C 
BRANCH  16  19
HETATM   19  C2  UNL     1      -7.575   9.924   8.683  1.00  0.00     0.268 C 
HETATM   20  C1  UNL     1      -8.864   9.314   8.224  1.00  0.00     0.037 C 
ENDBRANCH  16  19
ENDBRANCH  12  13
ENDBRANCH   1  12
BRANCH   6  21
HETATM   21  N4  UNL     1      -2.675   1.530  11.467  1.00  0.00    -0.225 N 
HETATM   22  C9  UNL     1      -1.399   1.827  10.849  1.00  0.00     0.168 C 
HETATM   23  C10 UNL     1      -3.283   0.228  11.367  1.00  0.00     0.168 C 
ENDBRANCH   6  21
BRANCH   9  24
HETATM   24  N6  UNL     1      -4.583   3.225  15.413  1.00  0.00    -0.220 N 
ATOM     25  H6  UNL     1      -4.164   3.791  16.150  1.00  0.00     0.178 HD
BRANCH  24  26
HETATM   26  C12 UNL     1      -5.566   2.202  15.715  1.00  0.00     0.099 C 
HETATM   27  C13 UNL     1      -6.746   2.709  16.485  1.00  0.00     0.026 C 
HETATM   28  C14 UNL     1      -7.200   1.432  17.207  1.00  0.00     0.002 C 
HETATM   29  C15 UNL     1      -5.899   0.904  17.727  1.00  0.00     0.002 C 
HETATM   30  C16 UNL     1      -4.969   1.077  16.530  1.00  0.00     0.026 C 
ENDBRANCH  24  26
ENDBRANCH   9  24
TORSDOF 6
ENDMDL
MODEL 4
REMARK VINA RESULT: -7.073861009      1.130      1.784
REMARK  6 active torsions:
REMARK  status: ('A' for Active; 'I' for Inactive)
REMARK    1  A    between atoms: C2_2  and  N1_3 
REMARK    2  A    between atoms: C5_6  and  C6_7 
REMARK    3  A    between atoms: C6_7  and  N2_8 
REMARK    4  A    between atoms: C8_13  and  N4_14 
REMARK    5  A    between atoms: C11_19  and  N6_20 
REMARK    6  A    between atoms: N6_20  and  C12_22 
ROOT
HETATM    1  N2  UNL     1      -1.935   4.670  13.699  1.00  0.00    -0.225 N 
ATOM      2  H2  UNL     1      -1.151   4.543  13.058  1.00  0.00     0.177 HD
HETATM    3  C7  UNL     1      -2.898   3.832  13.584  1.00  0.00     0.707 A 
HETATM    4  N3  UNL     1      -2.776   2.866  12.624  1.00  0.00    -0.021 N 
ATOM      5  H3  UNL     1      -1.934   2.857  12.049  1.00  0.00     0.203 HD
HETATM    6  C8  UNL     1      -3.708   1.931  12.403  1.00  0.00     0.708 A 
HETATM    7  N5  UNL     1      -4.804   1.959  13.166  1.00  0.00    -0.021 N 
ATOM      8  H5  UNL     1      -5.529   1.258  13.018  1.00  0.00     0.203 HD
HETATM    9  C11 UNL     1      -4.979   2.901  14.139  1.00  0.00     0.707 A 
HETATM   10  N7  UNL     1      -4.013   3.818  14.322  1.00  0.00    -0.022 N 
ATOM     11  H7  UNL     1      -4.135   4.525  15.047  1.00  0.00     0.203 HD
ENDROOT
BRANCH   1  12
HETATM   12  C6  UNL     1      -1.825   5.753  14.609  1.00  0.00     0.142 C 
BRANCH  12  13
HETATM   13  C5  UNL     1      -2.208   7.024  13.843  1.00  0.00     0.007 C 
HETATM   14  C4  UNL     1      -0.991   7.680  13.230  1.00  0.00     0.036 C 
HETATM   15  C3  UNL     1      -1.118   9.200  13.271  1.00  0.00     0.272 C 
HETATM   16  N1  UNL     1      -0.995   9.690  14.632  1.00  0.00     0.088 N 
HETATM   17  C18 UNL     1      -1.457   8.631  15.520  1.00  0.00     0.272 C 
HETATM   18  C17 UNL     1      -2.699   8.013  14.910  1.00  0.00     0.036 C 
BRANCH  16  19
HETATM   19  C2  UNL     1      -1.766  10.889  14.868  1.00  0.00     0.268 C 
HETATM   20  C1  UNL     1      -2.109  11.568  13.578  1.00  0.00     0.037 C 
ENDBRANCH  16  19
ENDBRANCH  12  13
ENDBRANCH   1  12
BRANCH   6  21
HETATM   21  N4  UNL     1      -3.570   0.930  11.399  1.00  0.00    -0.225 N 
HETATM   22  C9  UNL     1      -2.242   0.699  10.871  1.00  0.00     0.168 C 
HETATM   23  C10 UNL     1      -4.713   0.186  10.934  1.00  0.00     0.168 C 
ENDBRANCH   6  21
BRANCH   9  24
HETATM   24  N6  UNL     1      -6.024   2.930  14.872  1.00  0.00    -0.220 N 
ATOM     25  H6  UNL     1      -6.910   3.292  14.520  1.00  0.00     0.178 HD
BRANCH  24  26
HETATM   26  C12 UNL     1      -5.901   2.427  16.227  1.00  0.00     0.099 C 
HETATM   27  C13 UNL     1      -5.361   1.033  16.306  1.00  0.00     0.026 C 
HETATM   28  C14 UNL     1      -5.959   0.557  17.639  1.00  0.00     0.002 C 
HETATM   29  C15 UNL     1      -7.382   1.004  17.504  1.00  0.00     0.002 C 
HETATM   30  C16 UNL     1      -7.234   2.414  16.941  1.00  0.00     0.026 C 
ENDBRANCH  24  26
ENDBRANCH   9  24
TORSDOF 6
ENDMDL
MODEL 5
REMARK VINA RESULT: -6.942020737      3.171      5.758
REMARK  6 active torsions:
REMARK  status: ('A' for Active; 'I' for Inactive)
REMARK    1  A    between atoms: C2_2  and  N1_3 
REMARK    2  A    between atoms: C5_6  and  C6_7 
REMARK    3  A    between atoms: C6_7  and  N2_8 
REMARK    4  A    between atoms: C8_13  and  N4_14 
REMARK    5  A    between atoms: C11_19  and  N6_20 
REMARK    6  A    between atoms: N6_20  and  C12_22 
ROOT
HETATM    1  N2  UNL     1      -5.586   6.003  13.699  1.00  0.00    -0.225 N 
ATOM      2  H2  UNL     1      -6.315   6.279  14.358  1.00  0.00     0.177 HD
HETATM    3  C7  UNL     1      -5.122   4.816  13.836  1.00  0.00     0.707 A 
HETATM    4  N3  UNL     1      -5.644   4.052  14.842  1.00  0.00    -0.021 N 
ATOM      5  H3  UNL     1      -6.371   4.457  15.431  1.00  0.00     0.203 HD
HETATM    6  C8  UNL     1      -5.248   2.799  15.092  1.00  0.00     0.708 A 
HETATM    7  N5  UNL     1      -4.294   2.285  14.309  1.00  0.00    -0.021 N 
ATOM      8  H5  UNL     1      -3.974   1.332  14.478  1.00  0.00     0.203 HD
HETATM    9  C11 UNL     1      -3.736   3.003  13.291  1.00  0.00     0.707 A 
HETATM   10  N7  UNL     1      -4.169   4.258  13.081  1.00  0.00    -0.022 N 
ATOM     11  H7  UNL     1      -3.759   4.802  12.322  1.00  0.00     0.203 HD
ENDROOT
BRANCH   1  12
HETATM   12  C6  UNL     1      -5.212   6.981  12.741  1.00  0.00     0.142 C 
BRANCH  12  13
HETATM   13  C5  UNL     1      -6.269   6.951  11.632  1.00  0.00     0.007 C 
HETATM   14  C4  UNL     1      -5.626   6.833  10.268  1.00  0.00     0.036 C 
HETATM   15  C3  UNL     1      -6.404   7.636   9.231  1.00  0.00     0.272 C 
HETATM   16  N1  UNL     1      -6.236   9.061   9.453  1.00  0.00     0.088 N 
HETATM   17  C18 UNL     1      -5.985   9.254  10.875  1.00  0.00     0.272 C 
HETATM   18  C17 UNL     1      -6.918   8.343  11.647  1.00  0.00     0.036 C 
BRANCH  16  19
HETATM   19  C2  UNL     1      -7.393   9.831   9.057  1.00  0.00     0.268 C 
HETATM   20  C1  UNL     1      -8.396   8.968   8.355  1.00  0.00     0.037 C 
ENDBRANCH  16  19
ENDBRANCH  12  13
ENDBRANCH   1  12
BRANCH   6  21
HETATM   21  N4  UNL     1      -5.799   2.012  16.143  1.00  0.00    -0.225 N 
HETATM   22  C9  UNL     1      -5.108   0.786  16.487  1.00  0.00     0.168 C 
HETATM   23  C10 UNL     1      -6.997   2.427  16.828  1.00  0.00     0.168 C 
ENDBRANCH   6  21
BRANCH   9  24
HETATM   24  N6  UNL     1      -2.826   2.516  12.539  1.00  0.00    -0.220 N 
ATOM     25  H6  UNL     1      -1.838   2.686  12.724  1.00  0.00     0.178 HD
BRANCH  24  26
HETATM   26  C12 UNL     1      -3.254   1.710  11.411  1.00  0.00     0.099 C 
HETATM   27  C13 UNL     1      -4.678   1.257  11.500  1.00  0.00     0.026 C 
HETATM   28  C14 UNL     1      -4.638  -0.021  10.650  1.00  0.00     0.002 C 
HETATM   29  C15 UNL     1      -3.407  -0.692  11.179  1.00  0.00     0.002 C 
HETATM   30  C16 UNL     1      -2.413   0.462  11.266  1.00  0.00     0.026 C 
ENDBRANCH  24  26
ENDBRANCH   9  24
TORSDOF 6
ENDMDL
