MODEL 1
REMARK VINA RESULT: -7.032292851      0.000      0.000
REMARK  6 active torsions:
REMARK  status: ('A' for Active; 'I' for Inactive)
REMARK    1  A    between atoms: C2_2  and  O1_3 
REMARK    2  A    between atoms: C2_2  and  C3_5 
REMARK    3  A    between atoms: C2_2  and  C14_21 
REMARK       I    between atoms: C3_5  and  N1_7 
REMARK    4  A    between atoms: N1_7  and  C4_9 
REMARK    5  A    between atoms: C4_9  and  C5_10 
REMARK    6  A    between atoms: C5_10  and  N2_11 
ROOT
HETATM    1  C3  UNL     1      -5.865   6.363   9.554  1.00  0.00     0.252 C 
HETATM    2  O2  UNL     1      -5.910   6.691  10.765  1.00  0.00    -0.270 OA
HETATM    3  N1  UNL     1      -4.873   5.406   9.200  1.00  0.00    -0.357 N 
ATOM      4  H1  UNL     1      -4.797   5.108   8.227  1.00  0.00     0.162 HD
ENDROOT
BRANCH   3   5
HETATM    5  C4  UNL     1      -3.952   4.833  10.197  1.00  0.00     0.153 C 
BRANCH   5   6
HETATM    6  C5  UNL     1      -4.409   3.456  10.549  1.00  0.00     0.296 C 
BRANCH   6   7
HETATM    7  N2  UNL     1      -3.953   2.979  11.808  1.00  0.00     0.127 N 
HETATM    8  C6  UNL     1      -4.824   3.209  12.912  1.00  0.00     0.302 C 
HETATM    9  C7  UNL     1      -4.392   2.191  13.917  1.00  0.00     0.201 C 
HETATM   10  O3  UNL     1      -3.678   1.224  13.227  1.00  0.00    -0.350 OA
HETATM   11  C8  UNL     1      -3.632   1.610  11.894  1.00  0.00     0.261 C 
HETATM   12  C9  UNL     1      -4.752   0.831  11.192  1.00  0.00     0.072 C 
HETATM   13  C13 UNL     1      -2.338   1.171  11.312  1.00  0.00     0.072 C 
HETATM   14  C10 UNL     1      -4.655  -0.627  11.571  1.00  0.00     0.005 C 
HETATM   15  C11 UNL     1      -3.319  -1.147  11.150  1.00  0.00     0.000 C 
HETATM   16  C12 UNL     1      -2.157  -0.303  11.530  1.00  0.00     0.005 C 
ENDBRANCH   6   7
ENDBRANCH   5   6
ENDBRANCH   3   5
BRANCH   1  17
HETATM   17  C2  UNL     1      -6.745   6.891   8.514  1.00  0.00     0.138 C 
HETATM   18  C1  UNL     1      -7.788   5.844   8.146  1.00  0.00     0.057 C 
BRANCH  17  19
HETATM   19  O1  UNL     1      -6.050   7.150   7.321  1.00  0.00    -0.380 OA
ATOM     20  H1  UNL     1      -6.719   7.186   6.647  1.00  0.00     0.211 HD
ENDBRANCH  17  19
BRANCH  17  21
HETATM   21  C14 UNL     1      -7.456   8.177   8.860  1.00  0.00     0.033 C 
HETATM   22  C15 UNL     1      -6.791   9.391   8.318  1.00  0.00     0.034 C 
HETATM   23  C16 UNL     1      -7.687  10.573   8.662  1.00  0.00     0.168 C 
HETATM   24  O4  UNL     1      -8.809  10.451   7.889  1.00  0.00    -0.391 OA
HETATM   25  C17 UNL     1      -9.557   9.325   8.042  1.00  0.00     0.168 C 
HETATM   26  C18 UNL     1      -8.937   8.126   8.620  1.00  0.00     0.034 C 
ENDBRANCH  17  21
ENDBRANCH   1  17
TORSDOF 6
ENDMDL
MODEL 2
REMARK VINA RESULT: -6.980038926      2.658      7.830
REMARK  6 active torsions:
REMARK  status: ('A' for Active; 'I' for Inactive)
REMARK    1  A    between atoms: C2_2  and  O1_3 
REMARK    2  A    between atoms: C2_2  and  C3_5 
REMARK    3  A    between atoms: C2_2  and  C14_21 
REMARK       I    between atoms: C3_5  and  N1_7 
REMARK    4  A    between atoms: N1_7  and  C4_9 
REMARK    5  A    between atoms: C4_9  and  C5_10 
REMARK    6  A    between atoms: C5_10  and  N2_11 
ROOT
HETATM    1  C3  UNL     1      -3.208   1.961  11.829  1.00  0.00     0.252 C 
HETATM    2  O2  UNL     1      -2.083   1.430  11.993  1.00  0.00    -0.270 OA
HETATM    3  N1  UNL     1      -3.215   3.231  11.186  1.00  0.00    -0.357 N 
ATOM      4  H1  UNL     1      -4.106   3.702  11.031  1.00  0.00     0.162 HD
ENDROOT
BRANCH   3   5
HETATM    5  C4  UNL     1      -1.973   3.884  10.739  1.00  0.00     0.153 C 
BRANCH   5   6
HETATM    6  C5  UNL     1      -2.234   4.610   9.461  1.00  0.00     0.296 C 
BRANCH   6   7
HETATM    7  N2  UNL     1      -3.080   5.746   9.582  1.00  0.00     0.127 N 
HETATM    8  C6  UNL     1      -2.446   7.012   9.430  1.00  0.00     0.302 C 
HETATM    9  C7  UNL     1      -3.571   7.927   9.070  1.00  0.00     0.201 C 
HETATM   10  O3  UNL     1      -4.612   7.127   8.624  1.00  0.00    -0.350 OA
HETATM   11  C8  UNL     1      -4.194   5.806   8.722  1.00  0.00     0.261 C 
HETATM   12  C9  UNL     1      -3.713   5.414   7.319  1.00  0.00     0.072 C 
HETATM   13  C13 UNL     1      -5.365   4.956   9.055  1.00  0.00     0.072 C 
HETATM   14  C10 UNL     1      -4.757   5.815   6.305  1.00  0.00     0.005 C 
HETATM   15  C11 UNL     1      -6.037   5.115   6.629  1.00  0.00     0.000 C 
HETATM   16  C12 UNL     1      -6.459   5.182   8.052  1.00  0.00     0.005 C 
ENDBRANCH   6   7
ENDBRANCH   5   6
ENDBRANCH   3   5
BRANCH   1  17
HETATM   17  C2  UNL     1      -4.478   1.371  12.247  1.00  0.00     0.138 C 
HETATM   18  C1  UNL     1      -4.533  -0.088  11.812  1.00  0.00     0.057 C 
BRANCH  17  19
HETATM   19  O1  UNL     1      -5.573   1.982  11.615  1.00  0.00    -0.380 OA
ATOM     20  H1  UNL     1      -6.109   2.322  12.322  1.00  0.00     0.211 HD
ENDBRANCH  17  19
BRANCH  17  21
HETATM   21  C14 UNL     1      -4.768   1.442  13.727  1.00  0.00     0.033 C 
HETATM   22  C15 UNL     1      -4.366   0.220  14.473  1.00  0.00     0.034 C 
HETATM   23  C16 UNL     1      -4.625   0.500  15.946  1.00  0.00     0.168 C 
HETATM   24  O4  UNL     1      -3.701   1.431  16.335  1.00  0.00    -0.391 OA
HETATM   25  C17 UNL     1      -3.710   2.630  15.693  1.00  0.00     0.168 C 
HETATM   26  C18 UNL     1      -4.325   2.727  14.364  1.00  0.00     0.034 C 
ENDBRANCH  17  21
ENDBRANCH   1  17
TORSDOF 6
ENDMDL
MODEL 3
REMARK VINA RESULT: -6.957445595      3.274      7.876
REMARK  6 active torsions:
REMARK  status: ('A' for Active; 'I' for Inactive)
REMARK    1  A    between atoms: C2_2  and  O1_3 
REMARK    2  A    between atoms: C2_2  and  C3_5 
REMARK    3  A    between atoms: C2_2  and  C14_21 
REMARK       I    between atoms: C3_5  and  N1_7 
REMARK    4  A    between atoms: N1_7  and  C4_9 
REMARK    5  A    between atoms: C4_9  and  C5_10 
REMARK    6  A    between atoms: C5_10  and  N2_11 
ROOT
HETATM    1  C3  UNL     1      -3.343   2.133  11.757  1.00  0.00     0.252 C 
HETATM    2  O2  UNL     1      -2.168   1.763  11.999  1.00  0.00    -0.270 OA
HETATM    3  N1  UNL     1      -3.480   3.315  10.977  1.00  0.00    -0.357 N 
ATOM      4  H1  UNL     1      -4.415   3.656  10.754  1.00  0.00     0.162 HD
ENDROOT
BRANCH   3   5
HETATM    5  C4  UNL     1      -2.310   4.062  10.481  1.00  0.00     0.153 C 
BRANCH   5   6
HETATM    6  C5  UNL     1      -2.630   5.520  10.469  1.00  0.00     0.296 C 
BRANCH   6   7
HETATM    7  N2  UNL     1      -2.752   6.116  11.754  1.00  0.00     0.127 N 
HETATM    8  C6  UNL     1      -1.673   6.952  12.157  1.00  0.00     0.302 C 
HETATM    9  C7  UNL     1      -2.276   7.820  13.213  1.00  0.00     0.201 C 
HETATM   10  O3  UNL     1      -3.651   7.755  13.048  1.00  0.00    -0.350 OA
HETATM   11  C8  UNL     1      -3.904   6.891  11.991  1.00  0.00     0.261 C 
HETATM   12  C9  UNL     1      -4.117   7.784  10.761  1.00  0.00     0.072 C 
HETATM   13  C13 UNL     1      -5.175   6.169  12.255  1.00  0.00     0.072 C 
HETATM   14  C10 UNL     1      -5.097   8.879  11.106  1.00  0.00     0.005 C 
HETATM   15  C11 UNL     1      -6.389   8.257  11.526  1.00  0.00     0.000 C 
HETATM   16  C12 UNL     1      -6.275   7.157  12.518  1.00  0.00     0.005 C 
ENDBRANCH   6   7
ENDBRANCH   5   6
ENDBRANCH   3   5
BRANCH   1  17
HETATM   17  C2  UNL     1      -4.546   1.442  12.215  1.00  0.00     0.138 C 
HETATM   18  C1  UNL     1      -4.489  -0.020  11.795  1.00  0.00     0.057 C 
BRANCH  17  19
HETATM   19  O1  UNL     1      -5.706   1.953  11.610  1.00  0.00    -0.380 OA
ATOM     20  H1  UNL     1      -6.323   1.231  11.610  1.00  0.00     0.211 HD
ENDBRANCH  17  19
BRANCH  17  21
HETATM   21  C14 UNL     1      -4.800   1.505  13.702  1.00  0.00     0.033 C 
HETATM   22  C15 UNL     1      -4.364   0.286  14.434  1.00  0.00     0.034 C 
HETATM   23  C16 UNL     1      -4.590   0.558  15.914  1.00  0.00     0.168 C 
HETATM   24  O4  UNL     1      -3.668   1.499  16.284  1.00  0.00    -0.391 OA
HETATM   25  C17 UNL     1      -3.709   2.700  15.647  1.00  0.00     0.168 C 
HETATM   26  C18 UNL     1      -4.358   2.793  14.333  1.00  0.00     0.034 C 
ENDBRANCH  17  21
ENDBRANCH   1  17
TORSDOF 6
ENDMDL
MODEL 4
REMARK VINA RESULT: -6.956969511      2.273      7.946
REMARK  6 active torsions:
REMARK  status: ('A' for Active; 'I' for Inactive)
REMARK    1  A    between atoms: C2_2  and  O1_3 
REMARK    2  A    between atoms: C2_2  and  C3_5 
REMARK    3  A    between atoms: C2_2  and  C14_21 
REMARK       I    between atoms: C3_5  and  N1_7 
REMARK    4  A    between atoms: N1_7  and  C4_9 
REMARK    5  A    between atoms: C4_9  and  C5_10 
REMARK    6  A    between atoms: C5_10  and  N2_11 
ROOT
HETATM    1  C3  UNL     1      -3.453   2.523  11.836  1.00  0.00     0.252 C 
HETATM    2  O2  UNL     1      -2.227   2.326  12.021  1.00  0.00    -0.270 OA
HETATM    3  N1  UNL     1      -3.801   3.733  11.173  1.00  0.00    -0.357 N 
ATOM      4  H1  UNL     1      -4.786   3.937  11.001  1.00  0.00     0.162 HD
ENDROOT
BRANCH   3   5
HETATM    5  C4  UNL     1      -2.782   4.699  10.729  1.00  0.00     0.153 C 
BRANCH   5   6
HETATM    6  C5  UNL     1      -2.816   4.797   9.240  1.00  0.00     0.296 C 
BRANCH   6   7
HETATM    7  N2  UNL     1      -3.228   6.059   8.733  1.00  0.00     0.127 N 
HETATM    8  C6  UNL     1      -2.515   6.535   7.596  1.00  0.00     0.302 C 
HETATM    9  C7  UNL     1      -3.451   7.527   6.985  1.00  0.00     0.201 C 
HETATM   10  O3  UNL     1      -4.712   7.255   7.491  1.00  0.00    -0.350 OA
HETATM   11  C8  UNL     1      -4.585   6.193   8.378  1.00  0.00     0.261 C 
HETATM   12  C9  UNL     1      -4.978   4.938   7.588  1.00  0.00     0.072 C 
HETATM   13  C13 UNL     1      -5.568   6.366   9.477  1.00  0.00     0.072 C 
HETATM   14  C10 UNL     1      -6.285   5.189   6.876  1.00  0.00     0.005 C 
HETATM   15  C11 UNL     1      -7.333   5.514   7.890  1.00  0.00     0.000 C 
HETATM   16  C12 UNL     1      -6.947   6.527   8.905  1.00  0.00     0.005 C 
ENDBRANCH   6   7
ENDBRANCH   5   6
ENDBRANCH   3   5
BRANCH   1  17
HETATM   17  C2  UNL     1      -4.516   1.609  12.250  1.00  0.00     0.138 C 
HETATM   18  C1  UNL     1      -4.190   0.198  11.779  1.00  0.00     0.057 C 
BRANCH  17  19
HETATM   19  O1  UNL     1      -5.743   1.924  11.643  1.00  0.00    -0.380 OA
ATOM     20  H1  UNL     1      -5.700   2.856  11.466  1.00  0.00     0.211 HD
ENDBRANCH  17  19
BRANCH  17  21
HETATM   21  C14 UNL     1      -4.793   1.569  13.733  1.00  0.00     0.033 C 
HETATM   22  C15 UNL     1      -4.387   0.294  14.382  1.00  0.00     0.034 C 
HETATM   23  C16 UNL     1      -4.633   0.463  15.874  1.00  0.00     0.168 C 
HETATM   24  O4  UNL     1      -3.704   1.361  16.324  1.00  0.00    -0.391 OA
HETATM   25  C17 UNL     1      -3.715   2.605  15.775  1.00  0.00     0.168 C 
HETATM   26  C18 UNL     1      -4.342   2.802  14.461  1.00  0.00     0.034 C 
ENDBRANCH  17  21
ENDBRANCH   1  17
TORSDOF 6
ENDMDL
MODEL 5
REMARK VINA RESULT: -6.954051123      2.444      7.786
REMARK  6 active torsions:
REMARK  status: ('A' for Active; 'I' for Inactive)
REMARK    1  A    between atoms: C2_2  and  O1_3 
REMARK    2  A    between atoms: C2_2  and  C3_5 
REMARK    3  A    between atoms: C2_2  and  C14_21 
REMARK       I    between atoms: C3_5  and  N1_7 
REMARK    4  A    between atoms: N1_7  and  C4_9 
REMARK    5  A    between atoms: C4_9  and  C5_10 
REMARK    6  A    between atoms: C5_10  and  N2_11 
ROOT
HETATM    1  C3  UNL     1      -3.344   2.106  11.826  1.00  0.00     0.252 C 
HETATM    2  O2  UNL     1      -2.157   1.725  11.977  1.00  0.00    -0.270 OA
HETATM    3  N1  UNL     1      -3.524   3.347  11.154  1.00  0.00    -0.357 N 
ATOM      4  H1  UNL     1      -4.470   3.698  11.007  1.00  0.00     0.162 HD
ENDROOT
BRANCH   3   5
HETATM    5  C4  UNL     1      -2.383   4.141  10.664  1.00  0.00     0.153 C 
BRANCH   5   6
HETATM    6  C5  UNL     1      -2.862   5.501  10.280  1.00  0.00     0.296 C 
BRANCH   6   7
HETATM    7  N2  UNL     1      -4.266   5.693  10.389  1.00  0.00     0.127 N 
HETATM    8  C6  UNL     1      -4.683   6.782  11.207  1.00  0.00     0.302 C 
HETATM    9  C7  UNL     1      -6.067   7.071  10.726  1.00  0.00     0.201 C 
HETATM   10  O3  UNL     1      -6.186   6.495   9.471  1.00  0.00    -0.350 OA
HETATM   11  C8  UNL     1      -4.983   5.862   9.188  1.00  0.00     0.261 C 
HETATM   12  C9  UNL     1      -4.188   6.842   8.314  1.00  0.00     0.072 C 
HETATM   13  C13 UNL     1      -5.258   4.649   8.377  1.00  0.00     0.072 C 
HETATM   14  C10 UNL     1      -5.073   7.340   7.197  1.00  0.00     0.005 C 
HETATM   15  C11 UNL     1      -5.529   6.171   6.384  1.00  0.00     0.000 C 
HETATM   16  C12 UNL     1      -6.057   5.021   7.161  1.00  0.00     0.005 C 
ENDBRANCH   6   7
ENDBRANCH   5   6
ENDBRANCH   3   5
BRANCH   1  17
HETATM   17  C2  UNL     1      -4.520   1.371  12.285  1.00  0.00     0.138 C 
HETATM   18  C1  UNL     1      -4.394  -0.095  11.894  1.00  0.00     0.057 C 
BRANCH  17  19
HETATM   19  O1  UNL     1      -5.695   1.818  11.658  1.00  0.00    -0.380 OA
ATOM     20  H1  UNL     1      -6.298   2.004  12.367  1.00  0.00     0.211 HD
ENDBRANCH  17  19
BRANCH  17  21
HETATM   21  C14 UNL     1      -4.793   1.450  13.768  1.00  0.00     0.033 C 
HETATM   22  C15 UNL     1      -4.394   0.227  14.514  1.00  0.00     0.034 C 
HETATM   23  C16 UNL     1      -4.635   0.515  15.989  1.00  0.00     0.168 C 
HETATM   24  O4  UNL     1      -3.698   1.439  16.365  1.00  0.00    -0.391 OA
HETATM   25  C17 UNL     1      -3.703   2.636  15.719  1.00  0.00     0.168 C 
HETATM   26  C18 UNL     1      -4.332   2.733  14.396  1.00  0.00     0.034 C 
ENDBRANCH  17  21
ENDBRANCH   1  17
TORSDOF 6
ENDMDL
