MODEL 1
REMARK VINA RESULT: -7.142839326      0.000      0.000
REMARK  8 active torsions:
REMARK  status: ('A' for Active; 'I' for Inactive)
REMARK    1  A    between atoms: C2_2  and  O2_4 
REMARK    2  A    between atoms: O2_4  and  C3_5 
REMARK    3  A    between atoms: C10_12  and  O3_13 
REMARK    4  A    between atoms: C10_12  and  C11_15 
REMARK    5  A    between atoms: C12_16  and  C13_17 
REMARK    6  A    between atoms: C16_21  and  C17_22 
REMARK    7  A    between atoms: C17_22  and  C19_25 
REMARK    8  A    between atoms: C19_25  and  C20_26 
ROOT
HETATM    1  C3  UNL     1      -3.293   3.815  14.094  1.00  0.00     0.172 C 
HETATM    2  C4  UNL     1      -3.671   5.179  14.736  1.00  0.00     0.041 C 
HETATM    3  C5  UNL     1      -5.094   5.411  14.464  1.00  0.00    -0.011 C 
HETATM    4  C6  UNL     1      -5.907   5.977  15.639  1.00  0.00     0.010 C 
HETATM    5  C7  UNL     1      -5.447   6.119  13.189  1.00  0.00     0.005 C 
HETATM    6  C8  UNL     1      -4.392   6.042  12.133  1.00  0.00     0.009 C 
HETATM    7  C9  UNL     1      -3.037   5.715  12.610  1.00  0.00     0.042 C 
HETATM    8  C10 UNL     1      -2.864   4.187  12.714  1.00  0.00     0.094 C 
HETATM    9  C19 UNL     1      -2.689   6.111  14.005  1.00  0.00     0.067 C 
ENDROOT
BRANCH   1  10
HETATM   10  O2  UNL     1      -4.363   2.928  14.020  1.00  0.00    -0.313 OA
BRANCH  10  11
HETATM   11  C2  UNL     1      -4.442   1.723  14.667  1.00  0.00     0.255 C 
HETATM   12  C1  UNL     1      -4.260   1.554  16.132  1.00  0.00     0.126 C 
HETATM   13  O1  UNL     1      -4.684   0.725  13.955  1.00  0.00    -0.266 OA
ENDBRANCH  10  11
ENDBRANCH   1  10
BRANCH   8  14
HETATM   14  O3  UNL     1      -3.609   3.633  11.701  1.00  0.00    -0.386 OA
ATOM     15  H3  UNL     1      -3.956   4.253  11.070  1.00  0.00     0.210 HD
ENDBRANCH   8  14
BRANCH   8  16
HETATM   16  C11 UNL     1      -1.393   3.987  12.452  1.00  0.00     0.041 A 
HETATM   17  C12 UNL     1      -0.728   4.675  11.338  1.00  0.00     0.063 A 
HETATM   18  C15 UNL     1      -0.357   3.357  10.652  1.00  0.00     0.020 A 
HETATM   19  C16 UNL     1      -1.126   2.670  11.769  1.00  0.00     0.032 A 
BRANCH  17  20
HETATM   20  C13 UNL     1       0.527   5.404  11.656  1.00  0.00     0.127 C 
HETATM   21  C14 UNL     1       0.438   6.829  12.043  1.00  0.00     0.091 C 
HETATM   22  O4  UNL     1       1.614   4.876  11.610  1.00  0.00    -0.298 OA
ENDBRANCH  17  20
BRANCH  19  23
HETATM   23  C17 UNL     1      -2.321   1.982  11.249  1.00  0.00     0.102 A 
HETATM   24  C18 UNL     1      -2.286   0.485  11.401  1.00  0.00     0.208 A 
HETATM   25  O5  UNL     1      -2.250   1.104  10.169  1.00  0.00    -0.373 OA
ENDBRANCH  19  23
ENDBRANCH   8  16
BRANCH   9  26
HETATM   26  C20 UNL     1      -2.827   7.499  14.369  1.00  0.00     0.135 C 
HETATM   27  C21 UNL     1      -2.947   7.988  15.791  1.00  0.00     0.091 C 
HETATM   28  O6  UNL     1      -2.859   8.376  13.535  1.00  0.00    -0.297 OA
ENDBRANCH   9  26
TORSDOF 8
ENDMDL
MODEL 2
REMARK VINA RESULT: -7.114420107      1.466      1.787
REMARK  8 active torsions:
REMARK  status: ('A' for Active; 'I' for Inactive)
REMARK    1  A    between atoms: C2_2  and  O2_4 
REMARK    2  A    between atoms: O2_4  and  C3_5 
REMARK    3  A    between atoms: C10_12  and  O3_13 
REMARK    4  A    between atoms: C10_12  and  C11_15 
REMARK    5  A    between atoms: C12_16  and  C13_17 
REMARK    6  A    between atoms: C16_21  and  C17_22 
REMARK    7  A    between atoms: C17_22  and  C19_25 
REMARK    8  A    between atoms: C19_25  and  C20_26 
ROOT
HETATM    1  C3  UNL     1      -3.767   3.475  14.137  1.00  0.00     0.172 C 
HETATM    2  C4  UNL     1      -3.602   4.949  14.600  1.00  0.00     0.041 C 
HETATM    3  C5  UNL     1      -4.941   5.546  14.647  1.00  0.00    -0.011 C 
HETATM    4  C6  UNL     1      -5.223   6.439  15.866  1.00  0.00     0.010 C 
HETATM    5  C7  UNL     1      -5.457   6.188  13.393  1.00  0.00     0.005 C 
HETATM    6  C8  UNL     1      -4.797   5.705  12.142  1.00  0.00     0.009 C 
HETATM    7  C9  UNL     1      -3.485   5.058  12.322  1.00  0.00     0.042 C 
HETATM    8  C10 UNL     1      -3.670   3.563  12.650  1.00  0.00     0.094 C 
HETATM    9  C19 UNL     1      -2.670   5.483  13.497  1.00  0.00     0.067 C 
ENDROOT
BRANCH   1  10
HETATM   10  O2  UNL     1      -4.998   2.926  14.485  1.00  0.00    -0.313 OA
BRANCH  10  11
HETATM   11  C2  UNL     1      -5.238   2.149  15.589  1.00  0.00     0.255 C 
HETATM   12  C1  UNL     1      -4.203   1.326  16.266  1.00  0.00     0.126 C 
HETATM   13  O1  UNL     1      -6.408   2.155  16.028  1.00  0.00    -0.266 OA
ENDBRANCH  10  11
ENDBRANCH   1  10
BRANCH   8  14
HETATM   14  O3  UNL     1      -4.784   3.142  11.965  1.00  0.00    -0.386 OA
ATOM     15  H3  UNL     1      -4.684   3.094  11.022  1.00  0.00     0.210 HD
ENDBRANCH   8  14
BRANCH   8  16
HETATM   16  C11 UNL     1      -2.429   2.928  12.076  1.00  0.00     0.041 A 
HETATM   17  C12 UNL     1      -2.101   3.076  10.652  1.00  0.00     0.063 A 
HETATM   18  C15 UNL     1      -2.192   1.567  10.402  1.00  0.00     0.020 A 
HETATM   19  C16 UNL     1      -2.616   1.448  11.858  1.00  0.00     0.032 A 
BRANCH  17  20
HETATM   20  C13 UNL     1      -0.720   3.519  10.328  1.00  0.00     0.127 C 
HETATM   21  C14 UNL     1       0.227   3.751  11.441  1.00  0.00     0.091 C 
HETATM   22  O4  UNL     1      -0.344   3.697   9.192  1.00  0.00    -0.298 OA
ENDBRANCH  17  20
BRANCH  19  23
HETATM   23  C17 UNL     1      -4.005   0.970  11.970  1.00  0.00     0.102 A 
HETATM   24  C18 UNL     1      -4.175  -0.221  12.874  1.00  0.00     0.208 A 
HETATM   25  O5  UNL     1      -4.386  -0.290  11.513  1.00  0.00    -0.373 OA
ENDBRANCH  19  23
ENDBRANCH   8  16
BRANCH   9  26
HETATM   26  C20 UNL     1      -2.355   6.883  13.633  1.00  0.00     0.135 C 
HETATM   27  C21 UNL     1      -1.976   7.538  14.937  1.00  0.00     0.091 C 
HETATM   28  O6  UNL     1      -2.378   7.635  12.684  1.00  0.00    -0.297 OA
ENDBRANCH   9  26
TORSDOF 8
ENDMDL
MODEL 3
REMARK VINA RESULT: -6.921567681      2.271      4.862
REMARK  8 active torsions:
REMARK  status: ('A' for Active; 'I' for Inactive)
REMARK    1  A    between atoms: C2_2  and  O2_4 
REMARK    2  A    between atoms: O2_4  and  C3_5 
REMARK    3  A    between atoms: C10_12  and  O3_13 
REMARK    4  A    between atoms: C10_12  and  C11_15 
REMARK    5  A    between atoms: C12_16  and  C13_17 
REMARK    6  A    between atoms: C16_21  and  C17_22 
REMARK    7  A    between atoms: C17_22  and  C19_25 
REMARK    8  A    between atoms: C19_25  and  C20_26 
ROOT
HETATM    1  C3  UNL     1      -4.309   3.763  12.131  1.00  0.00     0.172 C 
HETATM    2  C4  UNL     1      -4.963   5.132  12.465  1.00  0.00     0.041 C 
HETATM    3  C5  UNL     1      -3.896   6.139  12.467  1.00  0.00    -0.011 C 
HETATM    4  C6  UNL     1      -4.248   7.475  11.793  1.00  0.00     0.010 C 
HETATM    5  C7  UNL     1      -3.170   6.375  13.758  1.00  0.00     0.005 C 
HETATM    6  C8  UNL     1      -3.251   5.237  14.723  1.00  0.00     0.009 C 
HETATM    7  C9  UNL     1      -4.355   4.288  14.497  1.00  0.00     0.042 C 
HETATM    8  C10 UNL     1      -3.935   3.218  13.470  1.00  0.00     0.094 C 
HETATM    9  C19 UNL     1      -5.585   4.814  13.837  1.00  0.00     0.067 C 
ENDROOT
BRANCH   1  10
HETATM   10  O2  UNL     1      -3.165   3.879  11.347  1.00  0.00    -0.313 OA
BRANCH  10  11
HETATM   11  C2  UNL     1      -3.148   4.071   9.990  1.00  0.00     0.255 C 
HETATM   12  C1  UNL     1      -2.001   4.656   9.249  1.00  0.00     0.126 C 
HETATM   13  O1  UNL     1      -4.174   3.724   9.367  1.00  0.00    -0.266 OA
ENDBRANCH  10  11
ENDBRANCH   1  10
BRANCH   8  14
HETATM   14  O3  UNL     1      -2.593   2.995  13.656  1.00  0.00    -0.386 OA
ATOM     15  H3  UNL     1      -2.337   2.794  14.548  1.00  0.00     0.210 HD
ENDBRANCH   8  14
BRANCH   8  16
HETATM   16  C11 UNL     1      -4.732   2.008  13.886  1.00  0.00     0.041 A 
HETATM   17  C12 UNL     1      -4.358   1.237  15.078  1.00  0.00     0.063 A 
HETATM   18  C15 UNL     1      -4.096  -0.033  14.261  1.00  0.00     0.020 A 
HETATM   19  C16 UNL     1      -4.403   0.810  13.032  1.00  0.00     0.032 A 
BRANCH  17  20
HETATM   20  C13 UNL     1      -5.441   0.948  16.053  1.00  0.00     0.127 C 
HETATM   21  C14 UNL     1      -6.278   2.069  16.532  1.00  0.00     0.091 C 
HETATM   22  O4  UNL     1      -5.661  -0.166  16.469  1.00  0.00    -0.298 OA
ENDBRANCH  17  20
BRANCH  19  23
HETATM   23  C17 UNL     1      -3.211   0.958  12.178  1.00  0.00     0.102 A 
HETATM   24  C18 UNL     1      -3.387   0.431  10.779  1.00  0.00     0.208 A 
HETATM   25  O5  UNL     1      -2.521  -0.147  11.684  1.00  0.00    -0.373 OA
ENDBRANCH  19  23
ENDBRANCH   8  16
BRANCH   9  26
HETATM   26  C20 UNL     1      -6.252   5.938  14.445  1.00  0.00     0.135 C 
HETATM   27  C21 UNL     1      -6.129   6.301  15.904  1.00  0.00     0.091 C 
HETATM   28  O6  UNL     1      -6.970   6.674  13.806  1.00  0.00    -0.297 OA
ENDBRANCH   9  26
TORSDOF 8
ENDMDL
MODEL 4
REMARK VINA RESULT: -6.866609614      2.417      5.357
REMARK  8 active torsions:
REMARK  status: ('A' for Active; 'I' for Inactive)
REMARK    1  A    between atoms: C2_2  and  O2_4 
REMARK    2  A    between atoms: O2_4  and  C3_5 
REMARK    3  A    between atoms: C10_12  and  O3_13 
REMARK    4  A    between atoms: C10_12  and  C11_15 
REMARK    5  A    between atoms: C12_16  and  C13_17 
REMARK    6  A    between atoms: C16_21  and  C17_22 
REMARK    7  A    between atoms: C17_22  and  C19_25 
REMARK    8  A    between atoms: C19_25  and  C20_26 
ROOT
HETATM    1  C3  UNL     1      -4.229   2.150  12.534  1.00  0.00     0.172 C 
HETATM    2  C4  UNL     1      -3.455   2.601  11.264  1.00  0.00     0.041 C 
HETATM    3  C5  UNL     1      -2.045   2.243  11.460  1.00  0.00    -0.011 C 
HETATM    4  C6  UNL     1      -1.340   1.643  10.233  1.00  0.00     0.010 C 
HETATM    5  C7  UNL     1      -1.163   3.250  12.135  1.00  0.00     0.005 C 
HETATM    6  C8  UNL     1      -1.899   4.247  12.971  1.00  0.00     0.009 C 
HETATM    7  C9  UNL     1      -3.333   4.399  12.665  1.00  0.00     0.042 C 
HETATM    8  C10 UNL     1      -4.155   3.343  13.429  1.00  0.00     0.094 C 
HETATM    9  C19 UNL     1      -3.769   4.107  11.269  1.00  0.00     0.067 C 
ENDROOT
BRANCH   1  10
HETATM   10  O2  UNL     1      -3.646   1.060  13.173  1.00  0.00    -0.313 OA
BRANCH  10  11
HETATM   11  C2  UNL     1      -4.092  -0.235  13.101  1.00  0.00     0.255 C 
HETATM   12  C1  UNL     1      -3.876  -1.123  11.929  1.00  0.00     0.126 C 
HETATM   13  O1  UNL     1      -4.714  -0.664  14.096  1.00  0.00    -0.266 OA
ENDBRANCH  10  11
ENDBRANCH   1  10
BRANCH   8  14
HETATM   14  O3  UNL     1      -3.517   3.135  14.628  1.00  0.00    -0.386 OA
ATOM     15  H3  UNL     1      -4.046   3.299  15.400  1.00  0.00     0.210 HD
ENDBRANCH   8  14
BRANCH   8  16
HETATM   16  C11 UNL     1      -5.478   4.029  13.650  1.00  0.00     0.041 A 
HETATM   17  C12 UNL     1      -5.535   5.406  14.157  1.00  0.00     0.063 A 
HETATM   18  C15 UNL     1      -6.288   4.985  15.423  1.00  0.00     0.020 A 
HETATM   19  C16 UNL     1      -6.140   3.557  14.921  1.00  0.00     0.032 A 
BRANCH  17  20
HETATM   20  C13 UNL     1      -6.389   6.360  13.402  1.00  0.00     0.127 C 
HETATM   21  C14 UNL     1      -5.749   7.242  12.402  1.00  0.00     0.091 C 
HETATM   22  O4  UNL     1      -7.583   6.441  13.577  1.00  0.00    -0.298 OA
ENDBRANCH  17  20
BRANCH  19  23
HETATM   23  C17 UNL     1      -5.280   2.764  15.817  1.00  0.00     0.102 A 
HETATM   24  C18 UNL     1      -5.888   1.460  16.259  1.00  0.00     0.208 A 
HETATM   25  O5  UNL     1      -5.643   2.497  17.135  1.00  0.00    -0.373 OA
ENDBRANCH  19  23
ENDBRANCH   8  16
BRANCH   9  26
HETATM   26  C20 UNL     1      -3.136   4.834  10.196  1.00  0.00     0.135 C 
HETATM   27  C21 UNL     1      -2.602   6.238  10.331  1.00  0.00     0.091 C 
HETATM   28  O6  UNL     1      -2.996   4.350   9.095  1.00  0.00    -0.297 OA
ENDBRANCH   9  26
TORSDOF 8
ENDMDL
MODEL 5
REMARK VINA RESULT: -6.636045155      2.275      4.762
REMARK  8 active torsions:
REMARK  status: ('A' for Active; 'I' for Inactive)
REMARK    1  A    between atoms: C2_2  and  O2_4 
REMARK    2  A    between atoms: O2_4  and  C3_5 
REMARK    3  A    between atoms: C10_12  and  O3_13 
REMARK    4  A    between atoms: C10_12  and  C11_15 
REMARK    5  A    between atoms: C12_16  and  C13_17 
REMARK    6  A    between atoms: C16_21  and  C17_22 
REMARK    7  A    between atoms: C17_22  and  C19_25 
REMARK    8  A    between atoms: C19_25  and  C20_26 
ROOT
HETATM    1  C3  UNL     1      -4.915   4.427  12.421  1.00  0.00     0.172 C 
HETATM    2  C4  UNL     1      -5.532   4.357  13.846  1.00  0.00     0.041 C 
HETATM    3  C5  UNL     1      -4.940   5.444  14.633  1.00  0.00    -0.011 C 
HETATM    4  C6  UNL     1      -5.918   6.215  15.534  1.00  0.00     0.010 C 
HETATM    5  C7  UNL     1      -3.665   5.152  15.367  1.00  0.00     0.005 C 
HETATM    6  C8  UNL     1      -2.892   3.997  14.816  1.00  0.00     0.009 C 
HETATM    7  C9  UNL     1      -3.660   3.058  13.980  1.00  0.00     0.042 C 
HETATM    8  C10 UNL     1      -3.706   3.558  12.522  1.00  0.00     0.094 C 
HETATM    9  C19 UNL     1      -5.120   2.933  14.257  1.00  0.00     0.067 C 
ENDROOT
BRANCH   1  10
HETATM   10  O2  UNL     1      -4.529   5.712  12.053  1.00  0.00    -0.313 OA
BRANCH  10  11
HETATM   11  C2  UNL     1      -5.275   6.580  11.299  1.00  0.00     0.255 C 
HETATM   12  C1  UNL     1      -5.582   7.977  11.702  1.00  0.00     0.126 C 
HETATM   13  O1  UNL     1      -5.708   6.141  10.212  1.00  0.00    -0.266 OA
ENDBRANCH  10  11
ENDBRANCH   1  10
BRANCH   8  14
HETATM   14  O3  UNL     1      -2.510   4.191  12.283  1.00  0.00    -0.386 OA
ATOM     15  H3  UNL     1      -1.842   4.057  12.945  1.00  0.00     0.210 HD
ENDBRANCH   8  14
BRANCH   8  16
HETATM   16  C11 UNL     1      -3.794   2.284  11.723  1.00  0.00     0.041 A 
HETATM   17  C12 UNL     1      -2.922   1.143  12.029  1.00  0.00     0.063 A 
HETATM   18  C15 UNL     1      -2.259   1.188  10.649  1.00  0.00     0.020 A 
HETATM   19  C16 UNL     1      -3.109   2.421  10.386  1.00  0.00     0.032 A 
BRANCH  17  20
HETATM   20  C13 UNL     1      -3.583  -0.179  12.186  1.00  0.00     0.127 C 
HETATM   21  C14 UNL     1      -3.176  -1.283  11.290  1.00  0.00     0.091 C 
HETATM   22  O4  UNL     1      -4.439  -0.383  13.016  1.00  0.00    -0.298 OA
ENDBRANCH  17  20
BRANCH  19  23
HETATM   23  C17 UNL     1      -2.270   3.623  10.234  1.00  0.00     0.102 A 
HETATM   24  C18 UNL     1      -2.724   4.556   9.144  1.00  0.00     0.208 A 
HETATM   25  O5  UNL     1      -1.535   3.862   9.075  1.00  0.00    -0.373 OA
ENDBRANCH  19  23
ENDBRANCH   8  16
BRANCH   9  26
HETATM   26  C20 UNL     1      -5.528   2.574  15.593  1.00  0.00     0.135 C 
HETATM   27  C21 UNL     1      -4.758   1.632  16.483  1.00  0.00     0.091 C 
HETATM   28  O6  UNL     1      -6.538   3.017  16.090  1.00  0.00    -0.297 OA
ENDBRANCH   9  26
TORSDOF 8
ENDMDL
