MODEL 1
REMARK VINA RESULT: -7.933536530      0.000      0.000
REMARK  5 active torsions:
REMARK  status: ('A' for Active; 'I' for Inactive)
REMARK    1  A    between atoms: C2_2  and  C4_4 
REMARK    2  A    between atoms: C15_17  and  O2_18 
REMARK    3  A    between atoms: C16_20  and  C17_21 
REMARK    4  A    between atoms: C17_21  and  O3_22 
REMARK    5  A    between atoms: O3_22  and  C18_23 
ROOT
HETATM    1  C4  UNL     1      -5.194   2.566  15.487  1.00  0.00     0.152 C 
HETATM    2  C5  UNL     1      -5.616   3.966  15.016  1.00  0.00     0.071 C 
HETATM    3  C6  UNL     1      -4.692   4.049  13.787  1.00  0.00     0.154 C 
HETATM    4  O1  UNL     1      -3.440   4.304  14.268  1.00  0.00    -0.375 OA
HETATM    5  C7  UNL     1      -2.396   3.908  13.501  1.00  0.00     0.160 C 
HETATM    6  C8  UNL     1      -1.423   5.023  13.284  1.00  0.00     0.071 C 
HETATM    7  C9  UNL     1      -0.735   4.992  11.962  1.00  0.00     0.225 C 
HETATM    8  C10 UNL     1       0.613   5.718  12.087  1.00  0.00     0.036 C 
HETATM    9  C11 UNL     1       1.073   5.972  10.685  1.00  0.00     0.004 C 
HETATM   10  C12 UNL     1       1.027   4.785   9.793  1.00  0.00     0.030 C 
HETATM   11  C13 UNL     1      -0.018   3.778  10.095  1.00  0.00     0.273 C 
HETATM   12  N1  UNL     1      -0.439   3.699  11.456  1.00  0.00     0.096 N 
HETATM   13  C14 UNL     1      -1.496   2.740  11.568  1.00  0.00     0.313 C 
HETATM   14  C15 UNL     1      -2.762   3.312  12.172  1.00  0.00     0.118 C 
HETATM   15  C16 UNL     1      -3.718   2.168  12.434  1.00  0.00     0.080 C 
HETATM   16  C20 UNL     1      -4.877   2.638  13.268  1.00  0.00     0.160 C 
HETATM   17  O5  UNL     1      -5.145   1.826  14.340  1.00  0.00    -0.373 OA
ENDROOT
BRANCH  15  18
HETATM   18  C17 UNL     1      -4.266   1.597  11.141  1.00  0.00     0.189 C 
BRANCH  18  19
HETATM   19  O3  UNL     1      -4.859   0.330  11.357  1.00  0.00    -0.321 OA
BRANCH  19  20
HETATM   20  C18 UNL     1      -4.160  -0.685  11.983  1.00  0.00     0.254 C 
HETATM   21  C19 UNL     1      -3.033  -1.407  11.388  1.00  0.00     0.126 C 
HETATM   22  O4  UNL     1      -4.531  -1.000  13.152  1.00  0.00    -0.266 OA
ENDBRANCH  19  20
ENDBRANCH  18  19
ENDBRANCH  15  18
BRANCH  14  23
HETATM   23  O2  UNL     1      -3.363   4.237  11.330  1.00  0.00    -0.385 OA
ATOM     24  H2  UNL     1      -3.430   3.920  10.438  1.00  0.00     0.210 HD
ENDBRANCH  14  23
BRANCH   1  25
HETATM   25  C2  UNL     1      -6.102   2.074  16.515  1.00  0.00    -0.064 C 
HETATM   26  C1  UNL     1      -7.140   2.802  16.893  1.00  0.00     0.016 C 
HETATM   27  C3  UNL     1      -5.888   0.755  17.158  1.00  0.00     0.045 C 
ENDBRANCH   1  25
TORSDOF 5
ENDMDL
MODEL 2
REMARK VINA RESULT: -7.874235160      2.489      5.297
REMARK  5 active torsions:
REMARK  status: ('A' for Active; 'I' for Inactive)
REMARK    1  A    between atoms: C2_2  and  C4_4 
REMARK    2  A    between atoms: C15_17  and  O2_18 
REMARK    3  A    between atoms: C16_20  and  C17_21 
REMARK    4  A    between atoms: C17_21  and  O3_22 
REMARK    5  A    between atoms: O3_22  and  C18_23 
ROOT
HETATM    1  C4  UNL     1      -3.069   6.789  14.443  1.00  0.00     0.152 C 
HETATM    2  C5  UNL     1      -3.931   6.971  13.183  1.00  0.00     0.071 C 
HETATM    3  C6  UNL     1      -4.340   5.497  13.009  1.00  0.00     0.154 C 
HETATM    4  O1  UNL     1      -3.253   4.858  12.489  1.00  0.00    -0.375 OA
HETATM    5  C7  UNL     1      -3.149   3.528  12.730  1.00  0.00     0.160 C 
HETATM    6  C8  UNL     1      -2.919   2.760  11.467  1.00  0.00     0.071 C 
HETATM    7  C9  UNL     1      -3.526   1.398  11.456  1.00  0.00     0.225 C 
HETATM    8  C10 UNL     1      -2.737   0.512  10.481  1.00  0.00     0.036 C 
HETATM    9  C11 UNL     1      -3.592  -0.693  10.238  1.00  0.00     0.004 C 
HETATM   10  C12 UNL     1      -4.110  -1.342  11.470  1.00  0.00     0.030 C 
HETATM   11  C13 UNL     1      -4.336  -0.454  12.635  1.00  0.00     0.273 C 
HETATM   12  N1  UNL     1      -3.519   0.715  12.700  1.00  0.00     0.096 N 
HETATM   13  C14 UNL     1      -3.908   1.499  13.833  1.00  0.00     0.313 C 
HETATM   14  C15 UNL     1      -4.303   2.916  13.473  1.00  0.00     0.118 C 
HETATM   15  C16 UNL     1      -4.482   3.697  14.757  1.00  0.00     0.080 C 
HETATM   16  C20 UNL     1      -4.615   5.165  14.461  1.00  0.00     0.160 C 
HETATM   17  O5  UNL     1      -3.805   5.955  15.235  1.00  0.00    -0.373 OA
ENDROOT
BRANCH  15  18
HETATM   18  C17 UNL     1      -5.721   3.251  15.508  1.00  0.00     0.189 C 
BRANCH  18  19
HETATM   19  O3  UNL     1      -5.399   2.282  16.489  1.00  0.00    -0.321 OA
BRANCH  19  20
HETATM   20  C18 UNL     1      -6.250   1.225  16.750  1.00  0.00     0.254 C 
HETATM   21  C19 UNL     1      -7.610   1.364  17.277  1.00  0.00     0.126 C 
HETATM   22  O4  UNL     1      -5.810   0.061  16.511  1.00  0.00    -0.266 OA
ENDBRANCH  19  20
ENDBRANCH  18  19
ENDBRANCH  15  18
BRANCH  14  23
HETATM   23  O2  UNL     1      -5.479   2.954  12.737  1.00  0.00    -0.385 OA
ATOM     24  H2  UNL     1      -6.005   3.717  12.942  1.00  0.00     0.210 HD
ENDBRANCH  14  23
BRANCH   1  25
HETATM   25  C2  UNL     1      -2.736   8.082  15.028  1.00  0.00    -0.064 C 
HETATM   26  C1  UNL     1      -2.936   8.304  16.316  1.00  0.00     0.016 C 
HETATM   27  C3  UNL     1      -2.167   9.172  14.198  1.00  0.00     0.045 C 
ENDBRANCH   1  25
TORSDOF 5
ENDMDL
MODEL 3
REMARK VINA RESULT: -7.814621010      1.396      1.766
REMARK  5 active torsions:
REMARK  status: ('A' for Active; 'I' for Inactive)
REMARK    1  A    between atoms: C2_2  and  C4_4 
REMARK    2  A    between atoms: C15_17  and  O2_18 
REMARK    3  A    between atoms: C16_20  and  C17_21 
REMARK    4  A    between atoms: C17_21  and  O3_22 
REMARK    5  A    between atoms: O3_22  and  C18_23 
ROOT
HETATM    1  C4  UNL     1      -5.615   2.367  16.155  1.00  0.00     0.152 C 
HETATM    2  C5  UNL     1      -6.463   3.495  15.545  1.00  0.00     0.071 C 
HETATM    3  C6  UNL     1      -5.458   3.936  14.465  1.00  0.00     0.154 C 
HETATM    4  O1  UNL     1      -4.496   4.656  15.111  1.00  0.00    -0.375 OA
HETATM    5  C7  UNL     1      -3.271   4.702  14.533  1.00  0.00     0.160 C 
HETATM    6  C8  UNL     1      -2.782   6.109  14.399  1.00  0.00     0.071 C 
HETATM    7  C9  UNL     1      -1.933   6.354  13.197  1.00  0.00     0.225 C 
HETATM    8  C10 UNL     1      -1.008   7.547  13.479  1.00  0.00     0.036 C 
HETATM    9  C11 UNL     1      -0.463   7.966  12.149  1.00  0.00     0.004 C 
HETATM   10  C12 UNL     1       0.094   6.858  11.331  1.00  0.00     0.030 C 
HETATM   11  C13 UNL     1      -0.515   5.523  11.533  1.00  0.00     0.273 C 
HETATM   12  N1  UNL     1      -1.085   5.281  12.818  1.00  0.00     0.096 N 
HETATM   13  C14 UNL     1      -1.694   3.985  12.827  1.00  0.00     0.313 C 
HETATM   14  C15 UNL     1      -3.162   4.015  13.201  1.00  0.00     0.118 C 
HETATM   15  C16 UNL     1      -3.632   2.589  13.385  1.00  0.00     0.080 C 
HETATM   16  C20 UNL     1      -5.000   2.567  14.008  1.00  0.00     0.160 C 
HETATM   17  O5  UNL     1      -5.102   1.710  15.074  1.00  0.00    -0.373 OA
ENDROOT
BRANCH  15  18
HETATM   18  C17 UNL     1      -3.703   1.855  12.060  1.00  0.00     0.189 C 
BRANCH  18  19
HETATM   19  O3  UNL     1      -2.974   0.642  12.112  1.00  0.00    -0.321 OA
BRANCH  19  20
HETATM   20  C18 UNL     1      -3.200  -0.363  11.192  1.00  0.00     0.254 C 
HETATM   21  C19 UNL     1      -3.010  -1.792  11.458  1.00  0.00     0.126 C 
HETATM   22  O4  UNL     1      -3.600  -0.010  10.043  1.00  0.00    -0.266 OA
ENDBRANCH  19  20
ENDBRANCH  18  19
ENDBRANCH  15  18
BRANCH  14  23
HETATM   23  O2  UNL     1      -3.930   4.637  12.227  1.00  0.00    -0.385 OA
ATOM     24  H2  UNL     1      -3.400   4.985  11.520  1.00  0.00     0.210 HD
ENDBRANCH  14  23
BRANCH   1  25
HETATM   25  C2  UNL     1      -6.416   1.556  17.064  1.00  0.00    -0.064 C 
HETATM   26  C1  UNL     1      -7.736   1.580  16.993  1.00  0.00     0.016 C 
HETATM   27  C3  UNL     1      -5.774   0.690  18.083  1.00  0.00     0.045 C 
ENDBRANCH   1  25
TORSDOF 5
ENDMDL
MODEL 4
REMARK VINA RESULT: -7.518133673      2.121      2.638
REMARK  5 active torsions:
REMARK  status: ('A' for Active; 'I' for Inactive)
REMARK    1  A    between atoms: C2_2  and  C4_4 
REMARK    2  A    between atoms: C15_17  and  O2_18 
REMARK    3  A    between atoms: C16_20  and  C17_21 
REMARK    4  A    between atoms: C17_21  and  O3_22 
REMARK    5  A    between atoms: O3_22  and  C18_23 
ROOT
HETATM    1  C4  UNL     1      -5.531   2.497  15.850  1.00  0.00     0.152 C 
HETATM    2  C5  UNL     1      -6.639   3.530  15.589  1.00  0.00     0.071 C 
HETATM    3  C6  UNL     1      -5.946   4.276  14.435  1.00  0.00     0.154 C 
HETATM    4  O1  UNL     1      -4.989   5.062  15.009  1.00  0.00    -0.375 OA
HETATM    5  C7  UNL     1      -3.924   5.395  14.239  1.00  0.00     0.160 C 
HETATM    6  C8  UNL     1      -3.682   6.871  14.250  1.00  0.00     0.071 C 
HETATM    7  C9  UNL     1      -3.135   7.415  12.974  1.00  0.00     0.225 C 
HETATM    8  C10 UNL     1      -2.355   8.703  13.277  1.00  0.00     0.036 C 
HETATM    9  C11 UNL     1      -2.154   9.381  11.958  1.00  0.00     0.004 C 
HETATM   10  C12 UNL     1      -1.617   8.503  10.887  1.00  0.00     0.030 C 
HETATM   11  C13 UNL     1      -1.973   7.067  10.974  1.00  0.00     0.273 C 
HETATM   12  N1  UNL     1      -2.233   6.564  12.283  1.00  0.00     0.096 N 
HETATM   13  C14 UNL     1      -2.633   5.192  12.190  1.00  0.00     0.313 C 
HETATM   14  C15 UNL     1      -3.985   4.918  12.816  1.00  0.00     0.118 C 
HETATM   15  C16 UNL     1      -4.196   3.421  12.847  1.00  0.00     0.080 C 
HETATM   16  C20 UNL     1      -5.394   3.080  13.689  1.00  0.00     0.160 C 
HETATM   17  O5  UNL     1      -5.155   2.086  14.603  1.00  0.00    -0.373 OA
ENDROOT
BRANCH  15  18
HETATM   18  C17 UNL     1      -4.423   2.865  11.454  1.00  0.00     0.189 C 
BRANCH  18  19
HETATM   19  O3  UNL     1      -5.165   1.660  11.503  1.00  0.00    -0.321 OA
BRANCH  19  20
HETATM   20  C18 UNL     1      -4.631   0.477  11.028  1.00  0.00     0.254 C 
HETATM   21  C19 UNL     1      -4.190  -0.634  11.874  1.00  0.00     0.126 C 
HETATM   22  O4  UNL     1      -4.524   0.360   9.771  1.00  0.00    -0.266 OA
ENDBRANCH  19  20
ENDBRANCH  18  19
ENDBRANCH  15  18
BRANCH  14  23
HETATM   23  O2  UNL     1      -5.015   5.520  12.106  1.00  0.00    -0.385 OA
ATOM     24  H2  UNL     1      -4.863   6.447  11.971  1.00  0.00     0.210 HD
ENDBRANCH  14  23
BRANCH   1  25
HETATM   25  C2  UNL     1      -6.008   1.447  16.742  1.00  0.00    -0.064 C 
HETATM   26  C1  UNL     1      -5.261   0.382  16.979  1.00  0.00     0.016 C 
HETATM   27  C3  UNL     1      -7.333   1.548  17.402  1.00  0.00     0.045 C 
ENDBRANCH   1  25
TORSDOF 5
ENDMDL
MODEL 5
REMARK VINA RESULT: -7.415039953      2.583      6.062
REMARK  5 active torsions:
REMARK  status: ('A' for Active; 'I' for Inactive)
REMARK    1  A    between atoms: C2_2  and  C4_4 
REMARK    2  A    between atoms: C15_17  and  O2_18 
REMARK    3  A    between atoms: C16_20  and  C17_21 
REMARK    4  A    between atoms: C17_21  and  O3_22 
REMARK    5  A    between atoms: O3_22  and  C18_23 
ROOT
HETATM    1  C4  UNL     1      -4.435   4.768   9.606  1.00  0.00     0.152 C 
HETATM    2  C5  UNL     1      -3.930   5.821  10.605  1.00  0.00     0.071 C 
HETATM    3  C6  UNL     1      -3.774   4.885  11.817  1.00  0.00     0.154 C 
HETATM    4  O1  UNL     1      -5.034   4.661  12.291  1.00  0.00    -0.375 OA
HETATM    5  C7  UNL     1      -5.237   3.508  12.974  1.00  0.00     0.160 C 
HETATM    6  C8  UNL     1      -5.895   3.763  14.293  1.00  0.00     0.071 C 
HETATM    7  C9  UNL     1      -5.493   2.819  15.375  1.00  0.00     0.225 C 
HETATM    8  C10 UNL     1      -6.622   2.744  16.413  1.00  0.00     0.036 C 
HETATM    9  C11 UNL     1      -6.026   2.092  17.621  1.00  0.00     0.004 C 
HETATM   10  C12 UNL     1      -5.281   0.837  17.344  1.00  0.00     0.030 C 
HETATM   11  C13 UNL     1      -4.638   0.737  16.012  1.00  0.00     0.273 C 
HETATM   12  N1  UNL     1      -5.251   1.483  14.961  1.00  0.00     0.096 N 
HETATM   13  C14 UNL     1      -4.474   1.341  13.767  1.00  0.00     0.313 C 
HETATM   14  C15 UNL     1      -4.014   2.664  13.192  1.00  0.00     0.118 C 
HETATM   15  C16 UNL     1      -3.397   2.400  11.836  1.00  0.00     0.080 C 
HETATM   16  C20 UNL     1      -3.162   3.694  11.108  1.00  0.00     0.160 C 
HETATM   17  O5  UNL     1      -3.626   3.689   9.817  1.00  0.00    -0.373 OA
ENDROOT
BRANCH  15  18
HETATM   18  C17 UNL     1      -2.068   1.681  11.963  1.00  0.00     0.189 C 
BRANCH  18  19
HETATM   19  O3  UNL     1      -1.954   0.650  10.998  1.00  0.00    -0.321 OA
BRANCH  19  20
HETATM   20  C18 UNL     1      -3.005  -0.213  10.753  1.00  0.00     0.254 C 
HETATM   21  C19 UNL     1      -3.311  -1.398  11.557  1.00  0.00     0.126 C 
HETATM   22  O4  UNL     1      -3.746   0.053   9.760  1.00  0.00    -0.266 OA
ENDBRANCH  19  20
ENDBRANCH  18  19
ENDBRANCH  15  18
BRANCH  14  23
HETATM   23  O2  UNL     1      -3.085   3.289  14.012  1.00  0.00    -0.385 OA
ATOM     24  H2  UNL     1      -3.227   4.227  14.064  1.00  0.00     0.210 HD
ENDBRANCH  14  23
BRANCH   1  25
HETATM   25  C2  UNL     1      -4.431   5.303   8.250  1.00  0.00    -0.064 C 
HETATM   26  C1  UNL     1      -3.463   6.112   7.854  1.00  0.00     0.016 C 
HETATM   27  C3  UNL     1      -5.504   4.954   7.287  1.00  0.00     0.045 C 
ENDBRANCH   1  25
TORSDOF 5
ENDMDL
