MODEL 1
REMARK VINA RESULT: -7.693124455      0.000      0.000
REMARK  4 active torsions:
REMARK  status: ('A' for Active; 'I' for Inactive)
REMARK    1  A    between atoms: N2_7  and  C6_8 
REMARK    2  A    between atoms: C10_13  and  C11_14 
REMARK    3  A    between atoms: C12_15  and  C13_16 
REMARK    4  A    between atoms: C19_24  and  O3_25 
ROOT
HETATM    1  N1  UNL     1      -1.821   1.950  10.097  1.00  0.00    -0.195 NA
HETATM    2  C1  UNL     1      -2.806   1.673  10.636  1.00  0.00     0.095 C 
HETATM    3  C2  UNL     1      -4.076   1.346  11.326  1.00  0.00     0.329 C 
HETATM    4  C3  UNL     1      -4.649   0.110  10.739  1.00  0.00     0.053 C 
HETATM    5  C4  UNL     1      -4.475  -0.955  11.764  1.00  0.00     0.033 C 
HETATM    6  C5  UNL     1      -3.698  -0.263  12.858  1.00  0.00     0.275 C 
HETATM    7  N2  UNL     1      -3.722   1.110  12.709  1.00  0.00     0.118 N 
ENDROOT
BRANCH   7   8
HETATM    8  C6  UNL     1      -4.505   1.935  13.528  1.00  0.00     0.301 C 
HETATM    9  C7  UNL     1      -4.654   1.450  14.933  1.00  0.00     0.161 C 
HETATM   10  O1  UNL     1      -5.297   0.517  15.379  1.00  0.00    -0.296 OA
HETATM   11  C8  UNL     1      -3.836   2.335  15.820  1.00  0.00     0.081 C 
HETATM   12  C9  UNL     1      -3.375   3.491  14.999  1.00  0.00     0.018 C 
HETATM   13  C10 UNL     1      -4.134   3.342  13.714  1.00  0.00     0.049 C 
BRANCH  13  14
HETATM   14  C11 UNL     1      -3.488   4.003  12.567  1.00  0.00    -0.023 C 
HETATM   15  C12 UNL     1      -4.026   4.989  11.873  1.00  0.00    -0.024 C 
BRANCH  15  16
HETATM   16  C13 UNL     1      -3.411   5.666  10.729  1.00  0.00     0.024 C 
HETATM   17  C14 UNL     1      -2.605   6.845  11.212  1.00  0.00     0.083 C 
HETATM   18  S1  UNL     1      -3.638   8.240  11.703  1.00  0.00    -0.168 SA
HETATM   19  C15 UNL     1      -5.314   8.147  11.094  1.00  0.00     0.079 C 
HETATM   20  C16 UNL     1      -5.639   6.823  10.442  1.00  0.00     0.009 C 
HETATM   21  C17 UNL     1      -6.576   7.017   9.249  1.00  0.00     0.087 C 
HETATM   22  C20 UNL     1      -4.446   6.208   9.773  1.00  0.00     0.035 C 
HETATM   23  C18 UNL     1      -6.369   5.735   8.517  1.00  0.00     0.156 C 
HETATM   24  O2  UNL     1      -7.128   5.241   7.696  1.00  0.00    -0.295 OA
HETATM   25  C19 UNL     1      -5.078   5.123   8.936  1.00  0.00     0.192 C 
BRANCH  25  26
HETATM   26  O3  UNL     1      -4.300   4.960   7.796  1.00  0.00    -0.388 OA
ATOM     27  H3  UNL     1      -3.830   5.772   7.649  1.00  0.00     0.210 HD
ENDBRANCH  25  26
ENDBRANCH  15  16
ENDBRANCH  13  14
ENDBRANCH   7   8
TORSDOF 4
ENDMDL
MODEL 2
REMARK VINA RESULT: -7.605889169      3.494      6.380
REMARK  4 active torsions:
REMARK  status: ('A' for Active; 'I' for Inactive)
REMARK    1  A    between atoms: N2_7  and  C6_8 
REMARK    2  A    between atoms: C10_13  and  C11_14 
REMARK    3  A    between atoms: C12_15  and  C13_16 
REMARK    4  A    between atoms: C19_24  and  O3_25 
ROOT
HETATM    1  N1  UNL     1      -4.811   5.260  10.531  1.00  0.00    -0.195 NA
HETATM    2  C1  UNL     1      -3.800   5.656  10.931  1.00  0.00     0.095 C 
HETATM    3  C2  UNL     1      -2.502   6.139  11.457  1.00  0.00     0.329 C 
HETATM    4  C3  UNL     1      -1.704   6.713  10.346  1.00  0.00     0.053 C 
HETATM    5  C4  UNL     1      -1.697   8.186  10.559  1.00  0.00     0.033 C 
HETATM    6  C5  UNL     1      -2.602   8.371  11.752  1.00  0.00     0.275 C 
HETATM    7  N2  UNL     1      -2.826   7.177  12.410  1.00  0.00     0.118 N 
ENDROOT
BRANCH   7   8
HETATM    8  C6  UNL     1      -2.219   6.877  13.638  1.00  0.00     0.301 C 
HETATM    9  C7  UNL     1      -1.361   7.968  14.187  1.00  0.00     0.161 C 
HETATM   10  O1  UNL     1      -0.268   8.368  13.825  1.00  0.00    -0.296 OA
HETATM   11  C8  UNL     1      -2.072   8.578  15.354  1.00  0.00     0.081 C 
HETATM   12  C9  UNL     1      -3.250   7.717  15.661  1.00  0.00     0.018 C 
HETATM   13  C10 UNL     1      -3.048   6.511  14.792  1.00  0.00     0.049 C 
BRANCH  13  14
HETATM   14  C11 UNL     1      -4.292   5.782  14.496  1.00  0.00    -0.023 C 
HETATM   15  C12 UNL     1      -4.393   4.466  14.438  1.00  0.00    -0.024 C 
BRANCH  15  16
HETATM   16  C13 UNL     1      -5.613   3.712  14.147  1.00  0.00     0.024 C 
HETATM   17  C14 UNL     1      -6.451   3.603  15.395  1.00  0.00     0.083 C 
HETATM   18  S1  UNL     1      -5.790   2.411  16.576  1.00  0.00    -0.168 SA
HETATM   19  C15 UNL     1      -4.598   1.282  15.872  1.00  0.00     0.079 C 
HETATM   20  C16 UNL     1      -4.197   1.643  14.462  1.00  0.00     0.009 C 
HETATM   21  C17 UNL     1      -3.972   0.385  13.620  1.00  0.00     0.087 C 
HETATM   22  C20 UNL     1      -5.310   2.302  13.701  1.00  0.00     0.035 C 
HETATM   23  C18 UNL     1      -4.070   0.948  12.242  1.00  0.00     0.156 C 
HETATM   24  O2  UNL     1      -3.626   0.442  11.222  1.00  0.00    -0.295 OA
HETATM   25  C19 UNL     1      -4.800   2.244  12.282  1.00  0.00     0.192 C 
BRANCH  25  26
HETATM   26  O3  UNL     1      -5.900   2.135  11.440  1.00  0.00    -0.388 OA
ATOM     27  H3  UNL     1      -5.737   2.682  10.681  1.00  0.00     0.210 HD
ENDBRANCH  25  26
ENDBRANCH  15  16
ENDBRANCH  13  14
ENDBRANCH   7   8
TORSDOF 4
ENDMDL
MODEL 3
REMARK VINA RESULT: -7.603419750      1.403      1.822
REMARK  4 active torsions:
REMARK  status: ('A' for Active; 'I' for Inactive)
REMARK    1  A    between atoms: N2_7  and  C6_8 
REMARK    2  A    between atoms: C10_13  and  C11_14 
REMARK    3  A    between atoms: C12_15  and  C13_16 
REMARK    4  A    between atoms: C19_24  and  O3_25 
ROOT
HETATM    1  N1  UNL     1      -2.202   2.076  10.224  1.00  0.00    -0.195 NA
HETATM    2  C1  UNL     1      -3.114   1.656  10.799  1.00  0.00     0.095 C 
HETATM    3  C2  UNL     1      -4.292   1.144  11.536  1.00  0.00     0.329 C 
HETATM    4  C3  UNL     1      -4.806  -0.071  10.859  1.00  0.00     0.053 C 
HETATM    5  C4  UNL     1      -4.462  -1.216  11.744  1.00  0.00     0.033 C 
HETATM    6  C5  UNL     1      -3.660  -0.574  12.850  1.00  0.00     0.275 C 
HETATM    7  N2  UNL     1      -3.810   0.799  12.855  1.00  0.00     0.118 N 
ENDROOT
BRANCH   7   8
HETATM    8  C6  UNL     1      -4.590   1.460  13.815  1.00  0.00     0.301 C 
HETATM    9  C7  UNL     1      -4.613   0.801  15.155  1.00  0.00     0.161 C 
HETATM   10  O1  UNL     1      -5.160  -0.225  15.519  1.00  0.00    -0.296 OA
HETATM   11  C8  UNL     1      -3.799   1.632  16.096  1.00  0.00     0.081 C 
HETATM   12  C9  UNL     1      -3.472   2.910  15.399  1.00  0.00     0.018 C 
HETATM   13  C10 UNL     1      -4.304   2.858  14.152  1.00  0.00     0.049 C 
BRANCH  13  14
HETATM   14  C11 UNL     1      -3.782   3.698  13.060  1.00  0.00    -0.023 C 
HETATM   15  C12 UNL     1      -2.777   4.544  13.182  1.00  0.00    -0.024 C 
BRANCH  15  16
HETATM   16  C13 UNL     1      -2.236   5.393  12.118  1.00  0.00     0.024 C 
HETATM   17  C14 UNL     1      -1.028   6.136  12.629  1.00  0.00     0.083 C 
HETATM   18  S1  UNL     1      -1.462   7.498  13.730  1.00  0.00    -0.168 SA
HETATM   19  C15 UNL     1      -3.176   7.991  13.625  1.00  0.00     0.079 C 
HETATM   20  C16 UNL     1      -4.015   7.059  12.785  1.00  0.00     0.009 C 
HETATM   21  C17 UNL     1      -5.075   7.834  12.000  1.00  0.00     0.087 C 
HETATM   22  C20 UNL     1      -3.231   6.434  11.668  1.00  0.00     0.035 C 
HETATM   23  C18 UNL     1      -5.423   6.843  10.942  1.00  0.00     0.156 C 
HETATM   24  O2  UNL     1      -6.449   6.827  10.278  1.00  0.00    -0.295 OA
HETATM   25  C19 UNL     1      -4.322   5.851  10.804  1.00  0.00     0.192 C 
BRANCH  25  26
HETATM   26  O3  UNL     1      -3.884   5.888   9.486  1.00  0.00    -0.388 OA
ATOM     27  H3  UNL     1      -3.073   5.396   9.438  1.00  0.00     0.210 HD
ENDBRANCH  25  26
ENDBRANCH  15  16
ENDBRANCH  13  14
ENDBRANCH   7   8
TORSDOF 4
ENDMDL
MODEL 4
REMARK VINA RESULT: -7.551691016      2.685      7.084
REMARK  4 active torsions:
REMARK  status: ('A' for Active; 'I' for Inactive)
REMARK    1  A    between atoms: N2_7  and  C6_8 
REMARK    2  A    between atoms: C10_13  and  C11_14 
REMARK    3  A    between atoms: C12_15  and  C13_16 
REMARK    4  A    between atoms: C19_24  and  O3_25 
ROOT
HETATM    1  N1  UNL     1      -4.014   7.177  13.324  1.00  0.00    -0.195 NA
HETATM    2  C1  UNL     1      -4.878   7.190  12.555  1.00  0.00     0.095 C 
HETATM    3  C2  UNL     1      -5.992   7.182  11.578  1.00  0.00     0.329 C 
HETATM    4  C3  UNL     1      -6.724   8.469  11.657  1.00  0.00     0.053 C 
HETATM    5  C4  UNL     1      -6.388   9.214  10.413  1.00  0.00     0.033 C 
HETATM    6  C5  UNL     1      -5.375   8.323   9.735  1.00  0.00     0.275 C 
HETATM    7  N2  UNL     1      -5.372   7.052  10.278  1.00  0.00     0.118 N 
ENDROOT
BRANCH   7   8
HETATM    8  C6  UNL     1      -5.935   5.956   9.610  1.00  0.00     0.301 C 
HETATM    9  C7  UNL     1      -6.703   6.308   8.379  1.00  0.00     0.161 C 
HETATM   10  O1  UNL     1      -7.787   6.850   8.255  1.00  0.00    -0.296 OA
HETATM   11  C8  UNL     1      -5.903   5.875   7.191  1.00  0.00     0.081 C 
HETATM   12  C9  UNL     1      -4.762   5.057   7.693  1.00  0.00     0.018 C 
HETATM   13  C10 UNL     1      -5.074   4.863   9.147  1.00  0.00     0.049 C 
BRANCH  13  14
HETATM   14  C11 UNL     1      -3.889   4.572   9.971  1.00  0.00    -0.023 C 
HETATM   15  C12 UNL     1      -3.912   3.887  11.099  1.00  0.00    -0.024 C 
BRANCH  15  16
HETATM   16  C13 UNL     1      -2.753   3.582  11.941  1.00  0.00     0.024 C 
HETATM   17  C14 UNL     1      -1.674   2.944  11.104  1.00  0.00     0.083 C 
HETATM   18  S1  UNL     1      -2.039   1.228  10.686  1.00  0.00    -0.168 SA
HETATM   19  C15 UNL     1      -3.312   0.494  11.701  1.00  0.00     0.079 C 
HETATM   20  C16 UNL     1      -4.005   1.489  12.600  1.00  0.00     0.009 C 
HETATM   21  C17 UNL     1      -4.357   0.856  13.948  1.00  0.00     0.087 C 
HETATM   22  C20 UNL     1      -3.095   2.599  13.034  1.00  0.00     0.035 C 
HETATM   23  C18 UNL     1      -4.562   2.072  14.786  1.00  0.00     0.156 C 
HETATM   24  O2  UNL     1      -5.189   2.130  15.834  1.00  0.00    -0.295 OA
HETATM   25  C19 UNL     1      -3.882   3.235  14.153  1.00  0.00     0.192 C 
BRANCH  25  26
HETATM   26  O3  UNL     1      -2.975   3.745  15.074  1.00  0.00    -0.388 OA
ATOM     27  H3  UNL     1      -2.117   3.400  14.855  1.00  0.00     0.210 HD
ENDBRANCH  25  26
ENDBRANCH  15  16
ENDBRANCH  13  14
ENDBRANCH   7   8
TORSDOF 4
ENDMDL
MODEL 5
REMARK VINA RESULT: -7.500633196      2.608      6.990
REMARK  4 active torsions:
REMARK  status: ('A' for Active; 'I' for Inactive)
REMARK    1  A    between atoms: N2_7  and  C6_8 
REMARK    2  A    between atoms: C10_13  and  C11_14 
REMARK    3  A    between atoms: C12_15  and  C13_16 
REMARK    4  A    between atoms: C19_24  and  O3_25 
ROOT
HETATM    1  N1  UNL     1      -4.661   6.573  13.968  1.00  0.00    -0.195 NA
HETATM    2  C1  UNL     1      -5.324   6.728  13.033  1.00  0.00     0.095 C 
HETATM    3  C2  UNL     1      -6.178   6.899  11.835  1.00  0.00     0.329 C 
HETATM    4  C3  UNL     1      -7.067   8.071  12.029  1.00  0.00     0.053 C 
HETATM    5  C4  UNL     1      -6.557   9.133  11.121  1.00  0.00     0.033 C 
HETATM    6  C5  UNL     1      -5.313   8.518  10.527  1.00  0.00     0.275 C 
HETATM    7  N2  UNL     1      -5.271   7.153  10.738  1.00  0.00     0.118 N 
ENDROOT
BRANCH   7   8
HETATM    8  C6  UNL     1      -5.524   6.233   9.711  1.00  0.00     0.301 C 
HETATM    9  C7  UNL     1      -5.687   6.844   8.358  1.00  0.00     0.161 C 
HETATM   10  O1  UNL     1      -6.602   7.503   7.897  1.00  0.00    -0.296 OA
HETATM   11  C8  UNL     1      -4.469   6.519   7.552  1.00  0.00     0.081 C 
HETATM   12  C9  UNL     1      -3.671   5.524   8.325  1.00  0.00     0.018 C 
HETATM   13  C10 UNL     1      -4.576   5.143   9.458  1.00  0.00     0.049 C 
BRANCH  13  14
HETATM   14  C11 UNL     1      -3.861   4.614  10.632  1.00  0.00    -0.023 C 
HETATM   15  C12 UNL     1      -4.238   3.553  11.322  1.00  0.00    -0.024 C 
BRANCH  15  16
HETATM   16  C13 UNL     1      -3.551   3.003  12.492  1.00  0.00     0.024 C 
HETATM   17  C14 UNL     1      -2.237   3.716  12.688  1.00  0.00     0.083 C 
HETATM   18  S1  UNL     1      -0.983   3.205  11.496  1.00  0.00    -0.168 SA
HETATM   19  C15 UNL     1      -1.364   1.673  10.660  1.00  0.00     0.079 C 
HETATM   20  C16 UNL     1      -2.759   1.170  10.944  1.00  0.00     0.009 C 
HETATM   21  C17 UNL     1      -2.783  -0.357  11.026  1.00  0.00     0.087 C 
HETATM   22  C20 UNL     1      -3.231   1.538  12.319  1.00  0.00     0.035 C 
HETATM   23  C18 UNL     1      -4.064  -0.580  11.757  1.00  0.00     0.156 C 
HETATM   24  O2  UNL     1      -4.716  -1.614  11.772  1.00  0.00    -0.295 OA
HETATM   25  C19 UNL     1      -4.448   0.662  12.482  1.00  0.00     0.192 C 
BRANCH  25  26
HETATM   26  O3  UNL     1      -4.566   0.343  13.829  1.00  0.00    -0.388 OA
ATOM     27  H3  UNL     1      -3.893  -0.296  14.034  1.00  0.00     0.210 HD
ENDBRANCH  25  26
ENDBRANCH  15  16
ENDBRANCH  13  14
ENDBRANCH   7   8
TORSDOF 4
ENDMDL
