MODEL 1
REMARK VINA RESULT: -6.539720793      0.000      0.000
REMARK  10 active torsions:
REMARK  status: ('A' for Active; 'I' for Inactive)
REMARK    1  A    between atoms: N1_4  and  C4_5 
REMARK    2  A    between atoms: C4_5  and  C5_6 
REMARK    3  A    between atoms: C5_6  and  C6_7 
REMARK    4  A    between atoms: C5_6  and  C8_13 
REMARK    5  A    between atoms: C6_7  and  N2_8 
REMARK    6  A    between atoms: N2_8  and  O1_9 
REMARK    7  A    between atoms: N2_8  and  C7_11 
REMARK    8  A    between atoms: C8_13  and  O3_15 
REMARK       I    between atoms: N3_19  and  C12_20 
REMARK    9  A    between atoms: C12_20  and  O5_22 
REMARK   10  A    between atoms: O5_22  and  C13_23 
ROOT
HETATM    1  C1  UNL     1      -4.911   6.529  12.959  1.00  0.00     0.013 C 
HETATM    2  C2  UNL     1      -4.506   6.315  14.375  1.00  0.00     0.028 C 
HETATM    3  C3  UNL     1      -4.285   4.931  14.814  1.00  0.00     0.278 C 
HETATM    4  N1  UNL     1      -3.760   4.007  13.822  1.00  0.00     0.090 N 
HETATM    5  C10 UNL     1      -2.590   4.473  13.181  1.00  0.00     0.292 C 
HETATM    6  C11 UNL     1      -1.703   5.319  14.073  1.00  0.00     0.158 C 
HETATM    7  N3  UNL     1      -2.153   6.679  14.123  1.00  0.00    -0.326 N 
HETATM    8  C12 UNL     1      -1.376   7.671  13.425  1.00  0.00     0.363 C 
HETATM    9  O4  UNL     1      -0.337   7.362  12.793  1.00  0.00    -0.238 OA
HETATM   10  C17 UNL     1      -3.321   7.178  14.806  1.00  0.00     0.134 C 
ENDROOT
BRANCH   4  11
HETATM   11  C4  UNL     1      -3.533   2.788  14.549  1.00  0.00     0.281 C 
BRANCH  11  12
HETATM   12  C5  UNL     1      -4.555   1.711  14.386  1.00  0.00     0.063 C 
BRANCH  12  13
HETATM   13  C6  UNL     1      -4.078   0.816  13.253  1.00  0.00     0.167 C 
BRANCH  13  14
HETATM   14  N2  UNL     1      -4.838   0.974  12.053  1.00  0.00    -0.236 N 
BRANCH  14  15
HETATM   15  O1  UNL     1      -5.643   2.035  11.828  1.00  0.00    -0.285 OA
ATOM     16  H1  UNL     1      -5.697   2.473  10.987  1.00  0.00     0.245 HD
ENDBRANCH  14  15
BRANCH  14  17
HETATM   17  C7  UNL     1      -4.768  -0.037  11.056  1.00  0.00     0.376 C 
HETATM   18  O2  UNL     1      -4.733   0.256   9.827  1.00  0.00    -0.281 OA
ENDBRANCH  14  17
ENDBRANCH  13  14
ENDBRANCH  12  13
BRANCH  12  19
HETATM   19  C8  UNL     1      -4.896   1.005  15.645  1.00  0.00     0.121 C 
HETATM   20  C9  UNL     1      -5.866   1.711  16.534  1.00  0.00     0.040 C 
BRANCH  19  21
HETATM   21  O3  UNL     1      -3.748   0.586  16.303  1.00  0.00    -0.395 OA
ATOM     22  H3  UNL     1      -3.967   0.134  17.110  1.00  0.00     0.210 HD
ENDBRANCH  19  21
ENDBRANCH  12  19
ENDBRANCH  11  12
ENDBRANCH   4  11
BRANCH   8  23
HETATM   23  O5  UNL     1      -1.746   9.007  13.428  1.00  0.00    -0.294 OA
BRANCH  23  24
HETATM   24  C13 UNL     1      -1.080  10.015  14.120  1.00  0.00     0.061 C 
HETATM   25  C14 UNL     1      -2.055  11.196  14.222  1.00  0.00     0.046 C 
HETATM   26  C15 UNL     1       0.134  10.556  13.393  1.00  0.00     0.046 C 
HETATM   27  C16 UNL     1      -0.713   9.653  15.535  1.00  0.00     0.046 C 
ENDBRANCH  23  24
ENDBRANCH   8  23
TORSDOF 10
ENDMDL
MODEL 2
REMARK VINA RESULT: -6.416554875      1.416      3.060
REMARK  10 active torsions:
REMARK  status: ('A' for Active; 'I' for Inactive)
REMARK    1  A    between atoms: N1_4  and  C4_5 
REMARK    2  A    between atoms: C4_5  and  C5_6 
REMARK    3  A    between atoms: C5_6  and  C6_7 
REMARK    4  A    between atoms: C5_6  and  C8_13 
REMARK    5  A    between atoms: C6_7  and  N2_8 
REMARK    6  A    between atoms: N2_8  and  O1_9 
REMARK    7  A    between atoms: N2_8  and  C7_11 
REMARK    8  A    between atoms: C8_13  and  O3_15 
REMARK       I    between atoms: N3_19  and  C12_20 
REMARK    9  A    between atoms: C12_20  and  O5_22 
REMARK   10  A    between atoms: O5_22  and  C13_23 
ROOT
HETATM    1  C1  UNL     1      -5.011   6.251  11.834  1.00  0.00     0.013 C 
HETATM    2  C2  UNL     1      -5.222   6.071  13.296  1.00  0.00     0.028 C 
HETATM    3  C3  UNL     1      -5.464   4.706  13.782  1.00  0.00     0.278 C 
HETATM    4  N1  UNL     1      -4.797   3.630  13.065  1.00  0.00     0.090 N 
HETATM    5  C10 UNL     1      -3.405   3.824  12.926  1.00  0.00     0.292 C 
HETATM    6  C11 UNL     1      -2.772   4.555  14.093  1.00  0.00     0.158 C 
HETATM    7  N3  UNL     1      -2.927   5.975  13.970  1.00  0.00    -0.326 N 
HETATM    8  C12 UNL     1      -1.764   6.752  13.629  1.00  0.00     0.363 C 
HETATM    9  O4  UNL     1      -0.647   6.210  13.444  1.00  0.00    -0.238 OA
HETATM   10  C17 UNL     1      -4.142   6.730  14.153  1.00  0.00     0.134 C 
ENDROOT
BRANCH   4  11
HETATM   11  C4  UNL     1      -5.110   2.448  13.820  1.00  0.00     0.281 C 
BRANCH  11  12
HETATM   12  C5  UNL     1      -4.282   1.237  13.540  1.00  0.00     0.063 C 
BRANCH  12  13
HETATM   13  C6  UNL     1      -4.494   0.278  14.701  1.00  0.00     0.167 C 
BRANCH  13  14
HETATM   14  N2  UNL     1      -4.429   0.917  15.978  1.00  0.00    -0.236 N 
BRANCH  14  15
HETATM   15  O1  UNL     1      -3.306   1.498  16.452  1.00  0.00    -0.285 OA
ATOM     16  H1  UNL     1      -3.044   2.381  16.220  1.00  0.00     0.245 HD
ENDBRANCH  14  15
BRANCH  14  17
HETATM   17  C7  UNL     1      -5.587   0.927  16.802  1.00  0.00     0.376 C 
HETATM   18  O2  UNL     1      -6.245  -0.131  17.023  1.00  0.00    -0.281 OA
ENDBRANCH  14  17
ENDBRANCH  13  14
ENDBRANCH  12  13
BRANCH  12  19
HETATM   19  C8  UNL     1      -4.499   0.653  12.195  1.00  0.00     0.121 C 
HETATM   20  C9  UNL     1      -3.266   0.442  11.380  1.00  0.00     0.040 C 
BRANCH  19  21
HETATM   21  O3  UNL     1      -5.499   1.336  11.515  1.00  0.00    -0.395 OA
ATOM     22  H3  UNL     1      -5.187   2.181  11.213  1.00  0.00     0.210 HD
ENDBRANCH  19  21
ENDBRANCH  12  19
ENDBRANCH  11  12
ENDBRANCH   4  11
BRANCH   8  23
HETATM   23  O5  UNL     1      -1.834   8.129  13.493  1.00  0.00    -0.294 OA
BRANCH  23  24
HETATM   24  C13 UNL     1      -1.309   9.045  14.401  1.00  0.00     0.061 C 
HETATM   25  C14 UNL     1      -1.992  10.390  14.114  1.00  0.00     0.046 C 
HETATM   26  C15 UNL     1       0.174   9.300  14.223  1.00  0.00     0.046 C 
HETATM   27  C16 UNL     1      -1.607   8.725  15.843  1.00  0.00     0.046 C 
ENDBRANCH  23  24
ENDBRANCH   8  23
TORSDOF 10
ENDMDL
MODEL 3
REMARK VINA RESULT: -6.378947714      3.379      5.289
REMARK  10 active torsions:
REMARK  status: ('A' for Active; 'I' for Inactive)
REMARK    1  A    between atoms: N1_4  and  C4_5 
REMARK    2  A    between atoms: C4_5  and  C5_6 
REMARK    3  A    between atoms: C5_6  and  C6_7 
REMARK    4  A    between atoms: C5_6  and  C8_13 
REMARK    5  A    between atoms: C6_7  and  N2_8 
REMARK    6  A    between atoms: N2_8  and  O1_9 
REMARK    7  A    between atoms: N2_8  and  C7_11 
REMARK    8  A    between atoms: C8_13  and  O3_15 
REMARK       I    between atoms: N3_19  and  C12_20 
REMARK    9  A    between atoms: C12_20  and  O5_22 
REMARK   10  A    between atoms: O5_22  and  C13_23 
ROOT
HETATM    1  C1  UNL     1      -0.756   5.742  12.491  1.00  0.00     0.013 C 
HETATM    2  C2  UNL     1      -1.011   4.321  12.851  1.00  0.00     0.028 C 
HETATM    3  C3  UNL     1      -2.371   3.965  13.275  1.00  0.00     0.278 C 
HETATM    4  N1  UNL     1      -3.462   4.706  12.662  1.00  0.00     0.090 N 
HETATM    5  C10 UNL     1      -3.414   4.715  11.251  1.00  0.00     0.292 C 
HETATM    6  C11 UNL     1      -2.839   3.446  10.653  1.00  0.00     0.158 C 
HETATM    7  N3  UNL     1      -1.406   3.470  10.648  1.00  0.00    -0.326 N 
HETATM    8  C12 UNL     1      -0.740   3.653   9.384  1.00  0.00     0.363 C 
HETATM    9  O4  UNL     1      -1.388   3.787   8.317  1.00  0.00    -0.238 OA
HETATM   10  C17 UNL     1      -0.536   3.330  11.789  1.00  0.00     0.134 C 
ENDROOT
BRANCH   4  11
HETATM   11  C4  UNL     1      -4.652   4.074  13.163  1.00  0.00     0.281 C 
BRANCH  11  12
HETATM   12  C5  UNL     1      -4.476   2.750  13.832  1.00  0.00     0.063 C 
BRANCH  12  13
HETATM   13  C6  UNL     1      -5.075   2.874  15.224  1.00  0.00     0.167 C 
BRANCH  13  14
HETATM   14  N2  UNL     1      -4.728   1.789  16.086  1.00  0.00    -0.236 N 
BRANCH  14  15
HETATM   15  O1  UNL     1      -3.453   1.388  16.284  1.00  0.00    -0.285 OA
ATOM     16  H1  UNL     1      -2.949   1.632  17.052  1.00  0.00     0.245 HD
ENDBRANCH  14  15
BRANCH  14  17
HETATM   17  C7  UNL     1      -5.764   1.078  16.750  1.00  0.00     0.376 C 
HETATM   18  O2  UNL     1      -5.803  -0.186  16.740  1.00  0.00    -0.281 OA
ENDBRANCH  14  17
ENDBRANCH  13  14
ENDBRANCH  12  13
BRANCH  12  19
HETATM   19  C8  UNL     1      -4.966   1.600  13.036  1.00  0.00     0.121 C 
HETATM   20  C9  UNL     1      -3.955   0.538  12.753  1.00  0.00     0.040 C 
BRANCH  19  21
HETATM   21  O3  UNL     1      -5.641   2.034  11.903  1.00  0.00    -0.395 OA
ATOM     22  H3  UNL     1      -6.582   2.005  12.038  1.00  0.00     0.210 HD
ENDBRANCH  19  21
ENDBRANCH  12  19
ENDBRANCH  11  12
ENDBRANCH   4  11
BRANCH   8  23
HETATM   23  O5  UNL     1       0.643   3.687   9.298  1.00  0.00    -0.294 OA
BRANCH  23  24
HETATM   24  C13 UNL     1       1.394   4.824   9.013  1.00  0.00     0.061 C 
HETATM   25  C14 UNL     1       2.483   4.913  10.092  1.00  0.00     0.046 C 
HETATM   26  C15 UNL     1       0.612   6.117   9.121  1.00  0.00     0.046 C 
HETATM   27  C16 UNL     1       2.118   4.770   7.693  1.00  0.00     0.046 C 
ENDBRANCH  23  24
ENDBRANCH   8  23
TORSDOF 10
ENDMDL
MODEL 4
REMARK VINA RESULT: -6.353565096      3.360      5.098
REMARK  10 active torsions:
REMARK  status: ('A' for Active; 'I' for Inactive)
REMARK    1  A    between atoms: N1_4  and  C4_5 
REMARK    2  A    between atoms: C4_5  and  C5_6 
REMARK    3  A    between atoms: C5_6  and  C6_7 
REMARK    4  A    between atoms: C5_6  and  C8_13 
REMARK    5  A    between atoms: C6_7  and  N2_8 
REMARK    6  A    between atoms: N2_8  and  O1_9 
REMARK    7  A    between atoms: N2_8  and  C7_11 
REMARK    8  A    between atoms: C8_13  and  O3_15 
REMARK       I    between atoms: N3_19  and  C12_20 
REMARK    9  A    between atoms: C12_20  and  O5_22 
REMARK   10  A    between atoms: O5_22  and  C13_23 
ROOT
HETATM    1  C1  UNL     1      -4.435   6.158  12.977  1.00  0.00     0.013 C 
HETATM    2  C2  UNL     1      -3.279   6.020  12.051  1.00  0.00     0.028 C 
HETATM    3  C3  UNL     1      -2.708   4.679  11.876  1.00  0.00     0.278 C 
HETATM    4  N1  UNL     1      -3.632   3.559  11.962  1.00  0.00     0.090 N 
HETATM    5  C10 UNL     1      -4.755   3.689  11.115  1.00  0.00     0.292 C 
HETATM    6  C11 UNL     1      -4.460   4.420   9.820  1.00  0.00     0.158 C 
HETATM    7  N3  UNL     1      -4.497   5.842   9.998  1.00  0.00    -0.326 N 
HETATM    8  C12 UNL     1      -5.617   6.560   9.447  1.00  0.00     0.363 C 
HETATM    9  O4  UNL     1      -6.534   5.967   8.830  1.00  0.00    -0.238 OA
HETATM   10  C17 UNL     1      -3.518   6.652  10.681  1.00  0.00     0.134 C 
ENDROOT
BRANCH   4  11
HETATM   11  C4  UNL     1      -2.835   2.409  11.635  1.00  0.00     0.281 C 
BRANCH  11  12
HETATM   12  C5  UNL     1      -3.279   1.102  12.206  1.00  0.00     0.063 C 
BRANCH  12  13
HETATM   13  C6  UNL     1      -4.441   1.399  13.140  1.00  0.00     0.167 C 
BRANCH  13  14
HETATM   14  N2  UNL     1      -4.453   0.571  14.305  1.00  0.00    -0.236 N 
BRANCH  14  15
HETATM   15  O1  UNL     1      -4.555  -0.775  14.248  1.00  0.00    -0.285 OA
ATOM     16  H1  UNL     1      -5.211  -1.263  14.731  1.00  0.00     0.245 HD
ENDBRANCH  14  15
BRANCH  14  17
HETATM   17  C7  UNL     1      -4.377   1.183  15.585  1.00  0.00     0.376 C 
HETATM   18  O2  UNL     1      -3.616   0.728  16.486  1.00  0.00    -0.281 OA
ENDBRANCH  14  17
ENDBRANCH  13  14
ENDBRANCH  12  13
BRANCH  12  19
HETATM   19  C8  UNL     1      -3.541   0.056  11.189  1.00  0.00     0.121 C 
HETATM   20  C9  UNL     1      -4.939   0.004  10.666  1.00  0.00     0.040 C 
BRANCH  19  21
HETATM   21  O3  UNL     1      -3.065  -1.177  11.614  1.00  0.00    -0.395 OA
ATOM     22  H3  UNL     1      -3.424  -1.880  11.084  1.00  0.00     0.210 HD
ENDBRANCH  19  21
ENDBRANCH  12  19
ENDBRANCH  11  12
ENDBRANCH   4  11
BRANCH   8  23
HETATM   23  O5  UNL     1      -5.722   7.936   9.578  1.00  0.00    -0.294 OA
BRANCH  23  24
HETATM   24  C13 UNL     1      -6.764   8.595  10.225  1.00  0.00     0.061 C 
HETATM   25  C14 UNL     1      -6.217   9.962  10.659  1.00  0.00     0.046 C 
HETATM   26  C15 UNL     1      -7.217   7.917  11.502  1.00  0.00     0.046 C 
HETATM   27  C16 UNL     1      -7.953   8.882   9.345  1.00  0.00     0.046 C 
ENDBRANCH  23  24
ENDBRANCH   8  23
TORSDOF 10
ENDMDL
MODEL 5
REMARK VINA RESULT: -6.331640147      2.391      3.303
REMARK  10 active torsions:
REMARK  status: ('A' for Active; 'I' for Inactive)
REMARK    1  A    between atoms: N1_4  and  C4_5 
REMARK    2  A    between atoms: C4_5  and  C5_6 
REMARK    3  A    between atoms: C5_6  and  C6_7 
REMARK    4  A    between atoms: C5_6  and  C8_13 
REMARK    5  A    between atoms: C6_7  and  N2_8 
REMARK    6  A    between atoms: N2_8  and  O1_9 
REMARK    7  A    between atoms: N2_8  and  C7_11 
REMARK    8  A    between atoms: C8_13  and  O3_15 
REMARK       I    between atoms: N3_19  and  C12_20 
REMARK    9  A    between atoms: C12_20  and  O5_22 
REMARK   10  A    between atoms: O5_22  and  C13_23 
ROOT
HETATM    1  C1  UNL     1      -4.084   6.855  15.438  1.00  0.00     0.013 C 
HETATM    2  C2  UNL     1      -3.074   6.322  14.484  1.00  0.00     0.028 C 
HETATM    3  C3  UNL     1      -2.874   4.867  14.454  1.00  0.00     0.278 C 
HETATM    4  N1  UNL     1      -4.040   4.041  14.724  1.00  0.00     0.090 N 
HETATM    5  C10 UNL     1      -5.156   4.363  13.921  1.00  0.00     0.292 C 
HETATM    6  C11 UNL     1      -4.789   4.844  12.531  1.00  0.00     0.158 C 
HETATM    7  N3  UNL     1      -4.453   6.238  12.529  1.00  0.00    -0.326 N 
HETATM    8  C12 UNL     1      -5.397   7.156  11.945  1.00  0.00     0.363 C 
HETATM    9  O4  UNL     1      -6.479   6.756  11.451  1.00  0.00    -0.238 OA
HETATM   10  C17 UNL     1      -3.253   6.838  13.057  1.00  0.00     0.134 C 
ENDROOT
BRANCH   4  11
HETATM   11  C4  UNL     1      -3.585   2.695  14.509  1.00  0.00     0.281 C 
BRANCH  11  12
HETATM   12  C5  UNL     1      -4.628   1.627  14.513  1.00  0.00     0.063 C 
BRANCH  12  13
HETATM   13  C6  UNL     1      -4.280   0.663  13.391  1.00  0.00     0.167 C 
BRANCH  13  14
HETATM   14  N2  UNL     1      -4.377   1.252  12.092  1.00  0.00    -0.236 N 
BRANCH  14  15
HETATM   15  O1  UNL     1      -5.547   1.671  11.562  1.00  0.00    -0.285 OA
ATOM     16  H1  UNL     1      -5.793   1.506  10.660  1.00  0.00     0.245 HD
ENDBRANCH  14  15
BRANCH  14  17
HETATM   17  C7  UNL     1      -3.200   1.385  11.306  1.00  0.00     0.376 C 
HETATM   18  O2  UNL     1      -2.064   1.082  11.770  1.00  0.00    -0.281 OA
ENDBRANCH  14  17
ENDBRANCH  13  14
ENDBRANCH  12  13
BRANCH  12  19
HETATM   19  C8  UNL     1      -4.845   0.998  15.838  1.00  0.00     0.121 C 
HETATM   20  C9  UNL     1      -5.869   1.657  16.702  1.00  0.00     0.040 C 
BRANCH  19  21
HETATM   21  O3  UNL     1      -3.637   0.778  16.485  1.00  0.00    -0.395 OA
ATOM     22  H3  UNL     1      -3.566   1.319  17.263  1.00  0.00     0.210 HD
ENDBRANCH  19  21
ENDBRANCH  12  19
ENDBRANCH  11  12
ENDBRANCH   4  11
BRANCH   8  23
HETATM   23  O5  UNL     1      -5.143   8.518  11.904  1.00  0.00    -0.294 OA
BRANCH  23  24
HETATM   24  C13 UNL     1      -4.943   9.255  10.740  1.00  0.00     0.061 C 
HETATM   25  C14 UNL     1      -3.939  10.363  11.088  1.00  0.00     0.046 C 
HETATM   26  C15 UNL     1      -6.184   9.974  10.252  1.00  0.00     0.046 C 
HETATM   27  C16 UNL     1      -4.325   8.471   9.612  1.00  0.00     0.046 C 
ENDBRANCH  23  24
ENDBRANCH   8  23
TORSDOF 10
ENDMDL
