MODEL 1
REMARK VINA RESULT: -7.617414313      0.000      0.000
REMARK  9 active torsions:
REMARK  status: ('A' for Active; 'I' for Inactive)
REMARK    1  A    between atoms: C2_2  and  O1_3 
REMARK    2  A    between atoms: O1_3  and  C3_4 
REMARK       I    between atoms: C3_4  and  N1_6 
REMARK    3  A    between atoms: N2_9  and  C6_10 
REMARK    4  A    between atoms: C6_10  and  C7_11 
REMARK    5  A    between atoms: C7_11  and  O3_12 
REMARK    6  A    between atoms: C7_11  and  C8_14 
REMARK    7  A    between atoms: C8_14  and  O4_15 
REMARK    8  A    between atoms: C8_14  and  C9_17 
REMARK    9  A    between atoms: C9_17  and  C10_19 
ROOT
HETATM    1  C7  UNL     1      -3.995   5.440  11.676  1.00  0.00     0.192 C 
ENDROOT
BRANCH   1   2
HETATM    2  C6  UNL     1      -2.912   4.621  12.292  1.00  0.00     0.092 C 
BRANCH   2   3
HETATM    3  N2  UNL     1      -3.321   3.649  13.227  1.00  0.00    -0.388 N 
HETATM    4  C5  UNL     1      -3.241   2.306  12.778  1.00  0.00     0.142 C 
HETATM    5  C4  UNL     1      -4.411   1.518  13.323  1.00  0.00     0.148 C 
HETATM    6  N1  UNL     1      -4.563   1.788  14.755  1.00  0.00    -0.325 N 
HETATM    7  C3  UNL     1      -4.721   0.707  15.662  1.00  0.00     0.362 C 
HETATM    8  C19 UNL     1      -4.548   3.151  15.225  1.00  0.00     0.148 C 
HETATM    9  O2  UNL     1      -4.736  -0.501  15.246  1.00  0.00    -0.238 OA
HETATM   10  C18 UNL     1      -3.373   3.908  14.590  1.00  0.00     0.142 C 
BRANCH   7  11
HETATM   11  O1  UNL     1      -4.865   0.872  17.022  1.00  0.00    -0.304 OA
BRANCH  11  12
HETATM   12  C2  UNL     1      -6.087   0.556  17.681  1.00  0.00     0.176 C 
HETATM   13  C1  UNL     1      -7.219   1.436  17.262  1.00  0.00     0.034 C 
ENDBRANCH  11  12
ENDBRANCH   7  11
ENDBRANCH   2   3
ENDBRANCH   1   2
BRANCH   1  14
HETATM   14  O3  UNL     1      -5.075   4.755  11.176  1.00  0.00    -0.387 OA
ATOM     15  H3  UNL     1      -5.704   4.434  11.811  1.00  0.00     0.210 HD
ENDBRANCH   1  14
BRANCH   1  16
HETATM   16  C8  UNL     1      -4.406   6.642  12.509  1.00  0.00     0.225 C 
BRANCH  16  17
HETATM   17  O4  UNL     1      -3.690   7.771  12.081  1.00  0.00    -0.385 OA
ATOM     18  H4  UNL     1      -3.934   7.978  11.187  1.00  0.00     0.210 HD
ENDBRANCH  16  17
BRANCH  16  19
HETATM   19  C9  UNL     1      -5.861   6.929  12.432  1.00  0.00     0.180 C 
HETATM   20  O5  UNL     1      -6.683   6.130  12.915  1.00  0.00    -0.290 OA
BRANCH  19  21
HETATM   21  C10 UNL     1      -6.309   8.141  11.793  1.00  0.00     0.056 C 
HETATM   22  C11 UNL     1      -6.828   8.278  10.598  1.00  0.00    -0.076 C 
HETATM   23  C12 UNL     1      -7.211   9.673  10.179  1.00  0.00     0.034 C 
HETATM   24  C17 UNL     1      -7.009   7.119   9.733  1.00  0.00     0.034 C 
HETATM   25  C13 UNL     1      -6.887   9.771   8.695  1.00  0.00     0.008 C 
HETATM   26  C14 UNL     1      -7.789   8.801   8.004  1.00  0.00    -0.018 C 
HETATM   27  C15 UNL     1      -9.219   9.301   8.167  1.00  0.00     0.010 C 
HETATM   28  C16 UNL     1      -7.652   7.382   8.409  1.00  0.00     0.008 C 
ENDBRANCH  19  21
ENDBRANCH  16  19
ENDBRANCH   1  16
TORSDOF 9
ENDMDL
MODEL 2
REMARK VINA RESULT: -7.527228520      1.877      2.519
REMARK  9 active torsions:
REMARK  status: ('A' for Active; 'I' for Inactive)
REMARK    1  A    between atoms: C2_2  and  O1_3 
REMARK    2  A    between atoms: O1_3  and  C3_4 
REMARK       I    between atoms: C3_4  and  N1_6 
REMARK    3  A    between atoms: N2_9  and  C6_10 
REMARK    4  A    between atoms: C6_10  and  C7_11 
REMARK    5  A    between atoms: C7_11  and  O3_12 
REMARK    6  A    between atoms: C7_11  and  C8_14 
REMARK    7  A    between atoms: C8_14  and  O4_15 
REMARK    8  A    between atoms: C8_14  and  C9_17 
REMARK    9  A    between atoms: C9_17  and  C10_19 
ROOT
HETATM    1  C7  UNL     1      -3.564   3.828  10.524  1.00  0.00     0.192 C 
ENDROOT
BRANCH   1   2
HETATM    2  C6  UNL     1      -3.638   4.409  11.895  1.00  0.00     0.092 C 
BRANCH   2   3
HETATM    3  N2  UNL     1      -3.880   3.502  12.945  1.00  0.00    -0.388 N 
HETATM    4  C5  UNL     1      -3.469   2.167  12.700  1.00  0.00     0.142 C 
HETATM    5  C4  UNL     1      -4.466   1.208  13.310  1.00  0.00     0.148 C 
HETATM    6  N1  UNL     1      -4.773   1.623  14.682  1.00  0.00    -0.325 N 
HETATM    7  C3  UNL     1      -4.745   0.666  15.729  1.00  0.00     0.362 C 
HETATM    8  C19 UNL     1      -5.098   3.003  14.949  1.00  0.00     0.148 C 
HETATM    9  O2  UNL     1      -4.458  -0.557  15.493  1.00  0.00    -0.238 OA
HETATM   10  C18 UNL     1      -4.083   3.921  14.254  1.00  0.00     0.142 C 
BRANCH   7  11
HETATM   11  O1  UNL     1      -5.016   0.972  17.045  1.00  0.00    -0.304 OA
BRANCH  11  12
HETATM   12  C2  UNL     1      -6.185   0.483  17.694  1.00  0.00     0.176 C 
HETATM   13  C1  UNL     1      -7.403   1.289  17.382  1.00  0.00     0.034 C 
ENDBRANCH  11  12
ENDBRANCH   7  11
ENDBRANCH   2   3
ENDBRANCH   1   2
BRANCH   1  14
HETATM   14  O3  UNL     1      -4.758   3.483   9.939  1.00  0.00    -0.387 OA
ATOM     15  H3  UNL     1      -4.731   3.268   9.014  1.00  0.00     0.210 HD
ENDBRANCH   1  14
BRANCH   1  16
HETATM   16  C8  UNL     1      -2.656   4.594   9.579  1.00  0.00     0.225 C 
BRANCH  16  17
HETATM   17  O4  UNL     1      -1.732   3.708   9.002  1.00  0.00    -0.385 OA
ATOM     18  H4  UNL     1      -1.573   3.961   8.101  1.00  0.00     0.210 HD
ENDBRANCH  16  17
BRANCH  16  19
HETATM   19  C9  UNL     1      -3.400   5.293   8.499  1.00  0.00     0.180 C 
HETATM   20  O5  UNL     1      -3.520   4.764   7.380  1.00  0.00    -0.290 OA
BRANCH  19  21
HETATM   21  C10 UNL     1      -3.979   6.586   8.764  1.00  0.00     0.056 C 
HETATM   22  C11 UNL     1      -5.240   6.932   8.702  1.00  0.00    -0.076 C 
HETATM   23  C12 UNL     1      -5.570   8.364   9.032  1.00  0.00     0.034 C 
HETATM   24  C17 UNL     1      -6.257   5.958   8.322  1.00  0.00     0.034 C 
HETATM   25  C13 UNL     1      -6.696   8.765   8.091  1.00  0.00     0.008 C 
HETATM   26  C14 UNL     1      -7.868   7.910   8.451  1.00  0.00    -0.018 C 
HETATM   27  C15 UNL     1      -8.316   8.306   9.853  1.00  0.00     0.010 C 
HETATM   28  C16 UNL     1      -7.670   6.447   8.329  1.00  0.00     0.008 C 
ENDBRANCH  19  21
ENDBRANCH  16  19
ENDBRANCH   1  16
TORSDOF 9
ENDMDL
MODEL 3
REMARK VINA RESULT: -7.466237047      1.607      2.499
REMARK  9 active torsions:
REMARK  status: ('A' for Active; 'I' for Inactive)
REMARK    1  A    between atoms: C2_2  and  O1_3 
REMARK    2  A    between atoms: O1_3  and  C3_4 
REMARK       I    between atoms: C3_4  and  N1_6 
REMARK    3  A    between atoms: N2_9  and  C6_10 
REMARK    4  A    between atoms: C6_10  and  C7_11 
REMARK    5  A    between atoms: C7_11  and  O3_12 
REMARK    6  A    between atoms: C7_11  and  C8_14 
REMARK    7  A    between atoms: C8_14  and  O4_15 
REMARK    8  A    between atoms: C8_14  and  C9_17 
REMARK    9  A    between atoms: C9_17  and  C10_19 
ROOT
HETATM    1  C7  UNL     1      -3.768   3.942  10.420  1.00  0.00     0.192 C 
ENDROOT
BRANCH   1   2
HETATM    2  C6  UNL     1      -3.134   4.242  11.736  1.00  0.00     0.092 C 
BRANCH   2   3
HETATM    3  N2  UNL     1      -3.493   3.399  12.807  1.00  0.00    -0.388 N 
HETATM    4  C5  UNL     1      -3.310   2.013  12.574  1.00  0.00     0.142 C 
HETATM    5  C4  UNL     1      -4.432   1.235  13.224  1.00  0.00     0.148 C 
HETATM    6  N1  UNL     1      -4.632   1.712  14.595  1.00  0.00    -0.325 N 
HETATM    7  C3  UNL     1      -4.732   0.776  15.657  1.00  0.00     0.362 C 
HETATM    8  C19 UNL     1      -4.722   3.129  14.847  1.00  0.00     0.148 C 
HETATM    9  O2  UNL     1      -4.654  -0.480  15.435  1.00  0.00    -0.238 OA
HETATM   10  C18 UNL     1      -3.590   3.862  14.113  1.00  0.00     0.142 C 
BRANCH   7  11
HETATM   11  O1  UNL     1      -4.915   1.139  16.974  1.00  0.00    -0.304 OA
BRANCH  11  12
HETATM   12  C2  UNL     1      -6.066   0.724  17.703  1.00  0.00     0.176 C 
HETATM   13  C1  UNL     1      -7.319   1.394  17.243  1.00  0.00     0.034 C 
ENDBRANCH  11  12
ENDBRANCH   7  11
ENDBRANCH   2   3
ENDBRANCH   1   2
BRANCH   1  14
HETATM   14  O3  UNL     1      -5.117   3.685  10.432  1.00  0.00    -0.387 OA
ATOM     15  H3  UNL     1      -5.489   3.332   9.633  1.00  0.00     0.210 HD
ENDBRANCH   1  14
BRANCH   1  16
HETATM   16  C8  UNL     1      -3.371   4.904   9.313  1.00  0.00     0.225 C 
BRANCH  16  17
HETATM   17  O4  UNL     1      -2.326   4.342   8.562  1.00  0.00    -0.385 OA
ATOM     18  H4  UNL     1      -1.902   5.024   8.055  1.00  0.00     0.210 HD
ENDBRANCH  16  17
BRANCH  16  19
HETATM   19  C9  UNL     1      -4.498   5.239   8.405  1.00  0.00     0.180 C 
HETATM   20  O5  UNL     1      -5.126   4.334   7.828  1.00  0.00    -0.290 OA
BRANCH  19  21
HETATM   21  C10 UNL     1      -4.854   6.621   8.203  1.00  0.00     0.056 C 
HETATM   22  C11 UNL     1      -5.540   7.402   9.000  1.00  0.00    -0.076 C 
HETATM   23  C12 UNL     1      -5.768   8.816   8.536  1.00  0.00     0.034 C 
HETATM   24  C17 UNL     1      -6.052   6.898  10.269  1.00  0.00     0.034 C 
HETATM   25  C13 UNL     1      -7.171   9.189   8.994  1.00  0.00     0.008 C 
HETATM   26  C14 UNL     1      -7.141   9.176  10.488  1.00  0.00    -0.018 C 
HETATM   27  C15 UNL     1      -6.225  10.305  10.943  1.00  0.00     0.010 C 
HETATM   28  C16 UNL     1      -6.782   7.886  11.122  1.00  0.00     0.008 C 
ENDBRANCH  19  21
ENDBRANCH  16  19
ENDBRANCH   1  16
TORSDOF 9
ENDMDL
MODEL 4
REMARK VINA RESULT: -7.420054457      0.837      1.327
REMARK  9 active torsions:
REMARK  status: ('A' for Active; 'I' for Inactive)
REMARK    1  A    between atoms: C2_2  and  O1_3 
REMARK    2  A    between atoms: O1_3  and  C3_4 
REMARK       I    between atoms: C3_4  and  N1_6 
REMARK    3  A    between atoms: N2_9  and  C6_10 
REMARK    4  A    between atoms: C6_10  and  C7_11 
REMARK    5  A    between atoms: C7_11  and  O3_12 
REMARK    6  A    between atoms: C7_11  and  C8_14 
REMARK    7  A    between atoms: C8_14  and  O4_15 
REMARK    8  A    between atoms: C8_14  and  C9_17 
REMARK    9  A    between atoms: C9_17  and  C10_19 
ROOT
HETATM    1  C7  UNL     1      -4.385   6.211  12.735  1.00  0.00     0.192 C 
ENDROOT
BRANCH   1   2
HETATM    2  C6  UNL     1      -3.535   4.998  12.566  1.00  0.00     0.092 C 
BRANCH   2   3
HETATM    3  N2  UNL     1      -3.799   3.925  13.441  1.00  0.00    -0.388 N 
HETATM    4  C5  UNL     1      -3.534   2.635  12.915  1.00  0.00     0.142 C 
HETATM    5  C4  UNL     1      -4.579   1.660  13.407  1.00  0.00     0.148 C 
HETATM    6  N1  UNL     1      -4.762   1.822  14.852  1.00  0.00    -0.325 N 
HETATM    7  C3  UNL     1      -4.762   0.678  15.693  1.00  0.00     0.362 C 
HETATM    8  C19 UNL     1      -4.937   3.144  15.402  1.00  0.00     0.148 C 
HETATM    9  O2  UNL     1      -4.608  -0.494  15.207  1.00  0.00    -0.238 OA
HETATM   10  C18 UNL     1      -3.882   4.094  14.817  1.00  0.00     0.142 C 
BRANCH   7  11
HETATM   11  O1  UNL     1      -4.922   0.741  17.060  1.00  0.00    -0.304 OA
BRANCH  11  12
HETATM   12  C2  UNL     1      -6.122   0.297  17.687  1.00  0.00     0.176 C 
HETATM   13  C1  UNL     1      -7.281   1.202  17.431  1.00  0.00     0.034 C 
ENDBRANCH  11  12
ENDBRANCH   7  11
ENDBRANCH   2   3
ENDBRANCH   1   2
BRANCH   1  14
HETATM   14  O3  UNL     1      -3.848   7.238  13.472  1.00  0.00    -0.387 OA
ATOM     15  H3  UNL     1      -4.327   7.498  14.249  1.00  0.00     0.210 HD
ENDBRANCH   1  14
BRANCH   1  16
HETATM   16  C8  UNL     1      -5.028   6.696  11.447  1.00  0.00     0.225 C 
BRANCH  16  17
HETATM   17  O4  UNL     1      -5.482   5.591  10.710  1.00  0.00    -0.385 OA
ATOM     18  H4  UNL     1      -4.862   5.399  10.016  1.00  0.00     0.210 HD
ENDBRANCH  16  17
BRANCH  16  19
HETATM   19  C9  UNL     1      -6.162   7.626  11.680  1.00  0.00     0.180 C 
HETATM   20  O5  UNL     1      -7.002   7.378  12.563  1.00  0.00    -0.290 OA
BRANCH  19  21
HETATM   21  C10 UNL     1      -6.277   8.815  10.874  1.00  0.00     0.056 C 
HETATM   22  C11 UNL     1      -7.126   9.053   9.905  1.00  0.00    -0.076 C 
HETATM   23  C12 UNL     1      -7.023  10.393   9.225  1.00  0.00     0.034 C 
HETATM   24  C17 UNL     1      -8.109   8.048   9.519  1.00  0.00     0.034 C 
HETATM   25  C13 UNL     1      -7.320  10.143   7.753  1.00  0.00     0.008 C 
HETATM   26  C14 UNL     1      -8.740   9.680   7.685  1.00  0.00    -0.018 C 
HETATM   27  C15 UNL     1      -9.627  10.844   8.112  1.00  0.00     0.010 C 
HETATM   28  C16 UNL     1      -9.058   8.442   8.433  1.00  0.00     0.008 C 
ENDBRANCH  19  21
ENDBRANCH  16  19
ENDBRANCH   1  16
TORSDOF 9
ENDMDL
MODEL 5
REMARK VINA RESULT: -7.388840941      1.798      2.344
REMARK  9 active torsions:
REMARK  status: ('A' for Active; 'I' for Inactive)
REMARK    1  A    between atoms: C2_2  and  O1_3 
REMARK    2  A    between atoms: O1_3  and  C3_4 
REMARK       I    between atoms: C3_4  and  N1_6 
REMARK    3  A    between atoms: N2_9  and  C6_10 
REMARK    4  A    between atoms: C6_10  and  C7_11 
REMARK    5  A    between atoms: C7_11  and  O3_12 
REMARK    6  A    between atoms: C7_11  and  C8_14 
REMARK    7  A    between atoms: C8_14  and  O4_15 
REMARK    8  A    between atoms: C8_14  and  C9_17 
REMARK    9  A    between atoms: C9_17  and  C10_19 
ROOT
HETATM    1  C7  UNL     1      -3.934   3.818  10.333  1.00  0.00     0.192 C 
ENDROOT
BRANCH   1   2
HETATM    2  C6  UNL     1      -2.966   3.773  11.466  1.00  0.00     0.092 C 
BRANCH   2   3
HETATM    3  N2  UNL     1      -3.368   3.045  12.602  1.00  0.00    -0.388 N 
HETATM    4  C5  UNL     1      -3.190   1.641  12.516  1.00  0.00     0.142 C 
HETATM    5  C4  UNL     1      -4.341   0.938  13.201  1.00  0.00     0.148 C 
HETATM    6  N1  UNL     1      -4.583   1.552  14.509  1.00  0.00    -0.325 N 
HETATM    7  C3  UNL     1      -4.727   0.727  15.656  1.00  0.00     0.362 C 
HETATM    8  C19 UNL     1      -4.669   2.988  14.615  1.00  0.00     0.148 C 
HETATM    9  O2  UNL     1      -4.653  -0.545  15.563  1.00  0.00    -0.238 OA
HETATM   10  C18 UNL     1      -3.506   3.637  13.851  1.00  0.00     0.142 C 
BRANCH   7  11
HETATM   11  O1  UNL     1      -4.952   1.221  16.922  1.00  0.00    -0.304 OA
BRANCH  11  12
HETATM   12  C2  UNL     1      -6.042   0.761  17.715  1.00  0.00     0.176 C 
HETATM   13  C1  UNL     1      -7.354   1.330  17.286  1.00  0.00     0.034 C 
ENDBRANCH  11  12
ENDBRANCH   7  11
ENDBRANCH   2   3
ENDBRANCH   1   2
BRANCH   1  14
HETATM   14  O3  UNL     1      -5.149   3.211  10.540  1.00  0.00    -0.387 OA
ATOM     15  H3  UNL     1      -5.754   3.660  11.118  1.00  0.00     0.210 HD
ENDBRANCH   1  14
BRANCH   1  16
HETATM   16  C8  UNL     1      -4.074   5.191   9.697  1.00  0.00     0.225 C 
BRANCH  16  17
HETATM   17  O4  UNL     1      -2.797   5.710   9.429  1.00  0.00    -0.385 OA
ATOM     18  H4  UNL     1      -2.283   5.710  10.228  1.00  0.00     0.210 HD
ENDBRANCH  16  17
BRANCH  16  19
HETATM   19  C9  UNL     1      -4.864   5.168   8.439  1.00  0.00     0.180 C 
HETATM   20  O5  UNL     1      -4.356   4.735   7.390  1.00  0.00    -0.290 OA
BRANCH  19  21
HETATM   21  C10 UNL     1      -6.221   5.653   8.450  1.00  0.00     0.056 C 
HETATM   22  C11 UNL     1      -6.633   6.894   8.522  1.00  0.00    -0.076 C 
HETATM   23  C12 UNL     1      -8.123   7.118   8.514  1.00  0.00     0.034 C 
HETATM   24  C17 UNL     1      -5.674   7.988   8.610  1.00  0.00     0.034 C 
HETATM   25  C13 UNL     1      -8.379   8.282   9.460  1.00  0.00     0.008 C 
HETATM   26  C14 UNL     1      -7.715   9.473   8.849  1.00  0.00    -0.018 C 
HETATM   27  C15 UNL     1      -8.449   9.800   7.555  1.00  0.00     0.010 C 
HETATM   28  C16 UNL     1      -6.252   9.367   8.641  1.00  0.00     0.008 C 
ENDBRANCH  19  21
ENDBRANCH  16  19
ENDBRANCH   1  16
TORSDOF 9
ENDMDL
