MODEL 1
REMARK VINA RESULT: -7.659833361      0.000      0.000
REMARK  6 active torsions:
REMARK  status: ('A' for Active; 'I' for Inactive)
REMARK    1  A    between atoms: C2_2  and  C3_3 
REMARK    2  A    between atoms: C3_3  and  N1_4 
REMARK       I    between atoms: N1_4  and  C4_6 
REMARK    3  A    between atoms: C4_6  and  C5_8 
REMARK    4  A    between atoms: C6_9  and  C7_10 
REMARK    5  A    between atoms: C7_10  and  N2_11 
REMARK       I    between atoms: N2_11  and  C8_13 
REMARK    6  A    between atoms: C8_13  and  C9_15 
ROOT
HETATM    1  C9  UNL     1      -5.416   7.030  10.806  1.00  0.00     0.129 C 
HETATM    2  C10 UNL     1      -5.926   6.188   9.694  1.00  0.00     0.079 C 
HETATM    3  N3  UNL     1      -6.311   5.519   8.834  1.00  0.00    -0.196 NA
HETATM    4  C11 UNL     1      -4.613   8.174  10.321  1.00  0.00     0.034 C 
HETATM    5  C12 UNL     1      -5.399   9.376   9.912  1.00  0.00     0.002 C 
HETATM    6  C13 UNL     1      -6.272   9.769  11.110  1.00  0.00     0.000 C 
HETATM    7  C14 UNL     1      -7.289   8.646  11.245  1.00  0.00     0.002 C 
HETATM    8  C15 UNL     1      -6.587   7.408  11.674  1.00  0.00     0.034 C 
ENDROOT
BRANCH   1   9
HETATM    9  C8  UNL     1      -4.545   6.151  11.620  1.00  0.00     0.240 C 
HETATM   10  N2  UNL     1      -3.978   5.012  11.005  1.00  0.00    -0.357 N 
ATOM     11  H2  UNL     1      -4.191   4.849  10.021  1.00  0.00     0.162 HD
HETATM   12  O2  UNL     1      -4.362   6.469  12.813  1.00  0.00    -0.272 OA
BRANCH  10  13
HETATM   13  C7  UNL     1      -3.109   4.058  11.678  1.00  0.00     0.157 C 
BRANCH  13  14
HETATM   14  C6  UNL     1      -3.411   2.666  11.204  1.00  0.00     0.182 C 
HETATM   15  C5  UNL     1      -3.642   1.671  12.325  1.00  0.00     0.350 C 
HETATM   16  N4  UNL     1      -4.309   0.536  11.658  1.00  0.00     0.158 N 
HETATM   17  C17 UNL     1      -3.381   0.027  10.695  1.00  0.00     0.388 C 
HETATM   18  C18 UNL     1      -4.152  -0.712  12.372  1.00  0.00     0.447 C 
HETATM   19  C16 UNL     1      -2.139   0.868  10.571  1.00  0.00     0.232 C 
HETATM   20  O4  UNL     1      -3.141  -1.083  11.485  1.00  0.00    -0.325 OA
HETATM   21  O3  UNL     1      -2.355   2.207  10.446  1.00  0.00    -0.377 OA
BRANCH  15  22
HETATM   22  C4  UNL     1      -4.575   2.168  13.369  1.00  0.00     0.254 C 
HETATM   23  N1  UNL     1      -4.473   1.880  14.741  1.00  0.00    -0.359 N 
ATOM     24  H1  UNL     1      -3.701   1.289  15.051  1.00  0.00     0.162 HD
HETATM   25  O1  UNL     1      -5.537   2.903  12.997  1.00  0.00    -0.271 OA
BRANCH  23  26
HETATM   26  C3  UNL     1      -5.390   2.368  15.730  1.00  0.00     0.122 C 
BRANCH  26  27
HETATM   27  C2  UNL     1      -5.737   1.395  16.810  1.00  0.00     0.015 C 
HETATM   28  C1  UNL     1      -7.186   1.563  17.263  1.00  0.00     0.006 C 
ENDBRANCH  26  27
ENDBRANCH  23  26
ENDBRANCH  15  22
ENDBRANCH  13  14
ENDBRANCH  10  13
ENDBRANCH   1   9
TORSDOF 6
ENDMDL
MODEL 2
REMARK VINA RESULT: -7.596226886      1.332      1.705
REMARK  6 active torsions:
REMARK  status: ('A' for Active; 'I' for Inactive)
REMARK    1  A    between atoms: C2_2  and  C3_3 
REMARK    2  A    between atoms: C3_3  and  N1_4 
REMARK       I    between atoms: N1_4  and  C4_6 
REMARK    3  A    between atoms: C4_6  and  C5_8 
REMARK    4  A    between atoms: C6_9  and  C7_10 
REMARK    5  A    between atoms: C7_10  and  N2_11 
REMARK       I    between atoms: N2_11  and  C8_13 
REMARK    6  A    between atoms: C8_13  and  C9_15 
ROOT
HETATM    1  C9  UNL     1      -5.350   7.239  10.532  1.00  0.00     0.129 C 
HETATM    2  C10 UNL     1      -6.053   6.361   9.565  1.00  0.00     0.079 C 
HETATM    3  N3  UNL     1      -6.587   5.664   8.813  1.00  0.00    -0.196 NA
HETATM    4  C11 UNL     1      -4.775   8.440   9.886  1.00  0.00     0.034 C 
HETATM    5  C12 UNL     1      -5.722   9.580   9.702  1.00  0.00     0.002 C 
HETATM    6  C13 UNL     1      -6.302   9.907  11.084  1.00  0.00     0.000 C 
HETATM    7  C14 UNL     1      -7.171   8.712  11.443  1.00  0.00     0.002 C 
HETATM    8  C15 UNL     1      -6.297   7.530  11.667  1.00  0.00     0.034 C 
ENDROOT
BRANCH   1   9
HETATM    9  C8  UNL     1      -4.245   6.429  11.095  1.00  0.00     0.240 C 
HETATM   10  N2  UNL     1      -4.268   5.031  10.892  1.00  0.00    -0.357 N 
ATOM     11  H2  UNL     1      -5.047   4.641  10.361  1.00  0.00     0.162 HD
HETATM   12  O2  UNL     1      -3.350   7.032  11.722  1.00  0.00    -0.272 OA
BRANCH  10  13
HETATM   13  C7  UNL     1      -3.257   4.108  11.389  1.00  0.00     0.157 C 
BRANCH  13  14
HETATM   14  C6  UNL     1      -3.748   2.695  11.267  1.00  0.00     0.182 C 
HETATM   15  C5  UNL     1      -3.703   1.914  12.567  1.00  0.00     0.350 C 
HETATM   16  N4  UNL     1      -4.586   0.759  12.316  1.00  0.00     0.158 N 
HETATM   17  C17 UNL     1      -3.992   0.019  11.245  1.00  0.00     0.388 C 
HETATM   18  C18 UNL     1      -4.296  -0.372  13.170  1.00  0.00     0.447 C 
HETATM   19  C16 UNL     1      -2.795   0.706  10.646  1.00  0.00     0.232 C 
HETATM   20  O4  UNL     1      -3.594  -0.972  12.125  1.00  0.00    -0.325 OA
HETATM   21  O3  UNL     1      -2.971   2.024  10.348  1.00  0.00    -0.377 OA
BRANCH  15  22
HETATM   22  C4  UNL     1      -4.281   2.656  13.718  1.00  0.00     0.254 C 
HETATM   23  N1  UNL     1      -5.563   3.231  13.741  1.00  0.00    -0.359 N 
ATOM     24  H1  UNL     1      -6.149   3.133  12.911  1.00  0.00     0.162 HD
HETATM   25  O1  UNL     1      -3.566   2.785  14.755  1.00  0.00    -0.271 OA
BRANCH  23  26
HETATM   26  C3  UNL     1      -6.098   3.947  14.863  1.00  0.00     0.122 C 
BRANCH  26  27
HETATM   27  C2  UNL     1      -6.153   5.432  14.700  1.00  0.00     0.015 C 
HETATM   28  C1  UNL     1      -4.777   6.063  14.903  1.00  0.00     0.006 C 
ENDBRANCH  26  27
ENDBRANCH  23  26
ENDBRANCH  15  22
ENDBRANCH  13  14
ENDBRANCH  10  13
ENDBRANCH   1   9
TORSDOF 6
ENDMDL
MODEL 3
REMARK VINA RESULT: -7.550982760      1.071      1.596
REMARK  6 active torsions:
REMARK  status: ('A' for Active; 'I' for Inactive)
REMARK    1  A    between atoms: C2_2  and  C3_3 
REMARK    2  A    between atoms: C3_3  and  N1_4 
REMARK       I    between atoms: N1_4  and  C4_6 
REMARK    3  A    between atoms: C4_6  and  C5_8 
REMARK    4  A    between atoms: C6_9  and  C7_10 
REMARK    5  A    between atoms: C7_10  and  N2_11 
REMARK       I    between atoms: N2_11  and  C8_13 
REMARK    6  A    between atoms: C8_13  and  C9_15 
ROOT
HETATM    1  C9  UNL     1      -5.132   6.983  11.107  1.00  0.00     0.129 C 
HETATM    2  C10 UNL     1      -3.895   7.763  10.853  1.00  0.00     0.079 C 
HETATM    3  N3  UNL     1      -2.923   8.360  10.667  1.00  0.00    -0.196 NA
HETATM    4  C11 UNL     1      -6.153   7.769  11.833  1.00  0.00     0.034 C 
HETATM    5  C12 UNL     1      -7.009   8.645  10.980  1.00  0.00     0.002 C 
HETATM    6  C13 UNL     1      -7.645   7.747   9.912  1.00  0.00     0.000 C 
HETATM    7  C14 UNL     1      -6.492   7.313   9.020  1.00  0.00     0.002 C 
HETATM    8  C15 UNL     1      -5.598   6.412   9.793  1.00  0.00     0.034 C 
ENDROOT
BRANCH   1   9
HETATM    9  C8  UNL     1      -4.728   5.836  11.952  1.00  0.00     0.240 C 
HETATM   10  N2  UNL     1      -3.495   5.201  11.676  1.00  0.00    -0.357 N 
ATOM     11  H2  UNL     1      -2.935   5.567  10.906  1.00  0.00     0.162 HD
HETATM   12  O2  UNL     1      -5.505   5.491  12.866  1.00  0.00    -0.272 OA
BRANCH  10  13
HETATM   13  C7  UNL     1      -2.970   4.063  12.416  1.00  0.00     0.157 C 
BRANCH  13  14
HETATM   14  C6  UNL     1      -3.244   2.792  11.666  1.00  0.00     0.182 C 
HETATM   15  C5  UNL     1      -3.617   1.621  12.555  1.00  0.00     0.350 C 
HETATM   16  N4  UNL     1      -4.229   0.652  11.625  1.00  0.00     0.158 N 
HETATM   17  C17 UNL     1      -3.210   0.289  10.687  1.00  0.00     0.388 C 
HETATM   18  C18 UNL     1      -4.176  -0.709  12.110  1.00  0.00     0.447 C 
HETATM   19  C16 UNL     1      -1.946   1.089  10.851  1.00  0.00     0.232 C 
HETATM   20  O4  UNL     1      -3.081  -0.954  11.282  1.00  0.00    -0.325 OA
HETATM   21  O3  UNL     1      -2.121   2.436  10.952  1.00  0.00    -0.377 OA
BRANCH  15  22
HETATM   22  C4  UNL     1      -4.650   1.959  13.568  1.00  0.00     0.254 C 
HETATM   23  N1  UNL     1      -4.479   1.844  14.958  1.00  0.00    -0.359 N 
ATOM     24  H1  UNL     1      -3.581   1.508  15.306  1.00  0.00     0.162 HD
HETATM   25  O1  UNL     1      -5.770   2.378  13.151  1.00  0.00    -0.271 OA
BRANCH  23  26
HETATM   26  C3  UNL     1      -5.494   2.171  15.918  1.00  0.00     0.122 C 
BRANCH  26  27
HETATM   27  C2  UNL     1      -5.717   1.146  16.981  1.00  0.00     0.015 C 
HETATM   28  C1  UNL     1      -7.189   1.078  17.386  1.00  0.00     0.006 C 
ENDBRANCH  26  27
ENDBRANCH  23  26
ENDBRANCH  15  22
ENDBRANCH  13  14
ENDBRANCH  10  13
ENDBRANCH   1   9
TORSDOF 6
ENDMDL
MODEL 4
REMARK VINA RESULT: -7.547802085      1.181      1.513
REMARK  6 active torsions:
REMARK  status: ('A' for Active; 'I' for Inactive)
REMARK    1  A    between atoms: C2_2  and  C3_3 
REMARK    2  A    between atoms: C3_3  and  N1_4 
REMARK       I    between atoms: N1_4  and  C4_6 
REMARK    3  A    between atoms: C4_6  and  C5_8 
REMARK    4  A    between atoms: C6_9  and  C7_10 
REMARK    5  A    between atoms: C7_10  and  N2_11 
REMARK       I    between atoms: N2_11  and  C8_13 
REMARK    6  A    between atoms: C8_13  and  C9_15 
ROOT
HETATM    1  C9  UNL     1      -5.604   7.101  11.273  1.00  0.00     0.129 C 
HETATM    2  C10 UNL     1      -6.384   6.644  12.451  1.00  0.00     0.079 C 
HETATM    3  N3  UNL     1      -6.979   6.274  13.370  1.00  0.00    -0.196 NA
HETATM    4  C11 UNL     1      -6.326   6.879  10.001  1.00  0.00     0.034 C 
HETATM    5  C12 UNL     1      -7.306   7.943   9.631  1.00  0.00     0.002 C 
HETATM    6  C13 UNL     1      -6.541   9.273   9.621  1.00  0.00     0.000 C 
HETATM    7  C14 UNL     1      -6.185   9.537  11.075  1.00  0.00     0.002 C 
HETATM    8  C15 UNL     1      -5.188   8.527  11.519  1.00  0.00     0.034 C 
ENDROOT
BRANCH   1   9
HETATM    9  C8  UNL     1      -4.364   6.290  11.262  1.00  0.00     0.240 C 
HETATM   10  N2  UNL     1      -4.237   5.246  12.206  1.00  0.00    -0.357 N 
ATOM     11  H2  UNL     1      -5.011   5.094  12.853  1.00  0.00     0.162 HD
HETATM   12  O2  UNL     1      -3.496   6.578  10.414  1.00  0.00    -0.272 OA
BRANCH  10  13
HETATM   13  C7  UNL     1      -3.079   4.371  12.318  1.00  0.00     0.157 C 
BRANCH  13  14
HETATM   14  C6  UNL     1      -3.350   3.068  11.623  1.00  0.00     0.182 C 
HETATM   15  C5  UNL     1      -3.625   1.914  12.567  1.00  0.00     0.350 C 
HETATM   16  N4  UNL     1      -4.254   0.895  11.704  1.00  0.00     0.158 N 
HETATM   17  C17 UNL     1      -3.279   0.539  10.718  1.00  0.00     0.388 C 
HETATM   18  C18 UNL     1      -4.121  -0.448  12.225  1.00  0.00     0.447 C 
HETATM   19  C16 UNL     1      -2.039   1.388  10.782  1.00  0.00     0.232 C 
HETATM   20  O4  UNL     1      -3.068  -0.679  11.340  1.00  0.00    -0.325 OA
HETATM   21  O3  UNL     1      -2.257   2.731  10.853  1.00  0.00    -0.377 OA
BRANCH  15  22
HETATM   22  C4  UNL     1      -4.608   2.245  13.630  1.00  0.00     0.254 C 
HETATM   23  N1  UNL     1      -4.497   1.857  14.976  1.00  0.00    -0.359 N 
ATOM     24  H1  UNL     1      -3.682   1.309  15.252  1.00  0.00     0.162 HD
HETATM   25  O1  UNL     1      -5.624   2.926  13.301  1.00  0.00    -0.271 OA
BRANCH  23  26
HETATM   26  C3  UNL     1      -5.463   2.185  15.985  1.00  0.00     0.122 C 
BRANCH  26  27
HETATM   27  C2  UNL     1      -5.729   1.107  16.985  1.00  0.00     0.015 C 
HETATM   28  C1  UNL     1      -7.195   1.100  17.415  1.00  0.00     0.006 C 
ENDBRANCH  26  27
ENDBRANCH  23  26
ENDBRANCH  15  22
ENDBRANCH  13  14
ENDBRANCH  10  13
ENDBRANCH   1   9
TORSDOF 6
ENDMDL
MODEL 5
REMARK VINA RESULT: -7.362516917      2.159      2.569
REMARK  6 active torsions:
REMARK  status: ('A' for Active; 'I' for Inactive)
REMARK    1  A    between atoms: C2_2  and  C3_3 
REMARK    2  A    between atoms: C3_3  and  N1_4 
REMARK       I    between atoms: N1_4  and  C4_6 
REMARK    3  A    between atoms: C4_6  and  C5_8 
REMARK    4  A    between atoms: C6_9  and  C7_10 
REMARK    5  A    between atoms: C7_10  and  N2_11 
REMARK       I    between atoms: N2_11  and  C8_13 
REMARK    6  A    between atoms: C8_13  and  C9_15 
ROOT
HETATM    1  C9  UNL     1      -5.476   6.158   8.731  1.00  0.00     0.129 C 
HETATM    2  C10 UNL     1      -5.481   5.165   7.627  1.00  0.00     0.079 C 
HETATM    3  N3  UNL     1      -5.473   4.381   6.777  1.00  0.00    -0.196 NA
HETATM    4  C11 UNL     1      -4.736   7.388   8.376  1.00  0.00     0.034 C 
HETATM    5  C12 UNL     1      -5.517   8.403   7.609  1.00  0.00     0.002 C 
HETATM    6  C13 UNL     1      -6.772   8.719   8.432  1.00  0.00     0.000 C 
HETATM    7  C14 UNL     1      -7.605   7.447   8.388  1.00  0.00     0.002 C 
HETATM    8  C15 UNL     1      -6.904   6.384   9.155  1.00  0.00     0.034 C 
ENDROOT
BRANCH   1   9
HETATM    9  C8  UNL     1      -4.791   5.503   9.869  1.00  0.00     0.240 C 
HETATM   10  N2  UNL     1      -3.775   4.562   9.589  1.00  0.00    -0.357 N 
ATOM     11  H2  UNL     1      -3.556   4.377   8.610  1.00  0.00     0.162 HD
HETATM   12  O2  UNL     1      -5.154   5.823  11.019  1.00  0.00    -0.272 OA
BRANCH  10  13
HETATM   13  C7  UNL     1      -3.020   3.837  10.601  1.00  0.00     0.157 C 
BRANCH  13  14
HETATM   14  C6  UNL     1      -3.824   2.676  11.108  1.00  0.00     0.182 C 
HETATM   15  C5  UNL     1      -3.549   2.323  12.558  1.00  0.00     0.350 C 
HETATM   16  N4  UNL     1      -4.699   1.482  12.941  1.00  0.00     0.158 N 
HETATM   17  C17 UNL     1      -4.650   0.321  12.106  1.00  0.00     0.388 C 
HETATM   18  C18 UNL     1      -4.413   0.609  14.059  1.00  0.00     0.447 C 
HETATM   19  C16 UNL     1      -3.580   0.398  11.050  1.00  0.00     0.232 C 
HETATM   20  O4  UNL     1      -4.226  -0.452  13.173  1.00  0.00    -0.325 OA
HETATM   21  O3  UNL     1      -3.544   1.563  10.345  1.00  0.00    -0.377 OA
BRANCH  15  22
HETATM   22  C4  UNL     1      -3.557   3.503  13.461  1.00  0.00     0.254 C 
HETATM   23  N1  UNL     1      -4.653   4.362  13.651  1.00  0.00    -0.359 N 
ATOM     24  H1  UNL     1      -5.512   4.165  13.136  1.00  0.00     0.162 HD
HETATM   25  O1  UNL     1      -2.498   3.758  14.106  1.00  0.00    -0.271 OA
BRANCH  23  26
HETATM   26  C3  UNL     1      -4.636   5.498  14.525  1.00  0.00     0.122 C 
BRANCH  26  27
HETATM   27  C2  UNL     1      -5.967   5.899  15.073  1.00  0.00     0.015 C 
HETATM   28  C1  UNL     1      -7.028   5.941  13.975  1.00  0.00     0.006 C 
ENDBRANCH  26  27
ENDBRANCH  23  26
ENDBRANCH  15  22
ENDBRANCH  13  14
ENDBRANCH  10  13
ENDBRANCH   1   9
TORSDOF 6
ENDMDL
