MODEL 1
REMARK VINA RESULT: -7.337169090      0.000      0.000
REMARK  5 active torsions:
REMARK  status: ('A' for Active; 'I' for Inactive)
REMARK    1  A    between atoms: C2_2  and  C5_5 
REMARK       I    between atoms: C5_5  and  N1_7 
REMARK    2  A    between atoms: N1_7  and  C6_9 
REMARK    3  A    between atoms: C7_12  and  C8_13 
REMARK    4  A    between atoms: C8_13  and  N3_14 
REMARK    5  A    between atoms: C15_23  and  N5_24 
ROOT
HETATM    1  C6  UNL     1      -5.024   3.224  14.841  1.00  0.00     0.701 A 
HETATM    2  N2  UNL     1      -4.974   4.554  15.048  1.00  0.00    -0.174 N 
ATOM      3  H2  UNL     1      -5.548   4.958  15.788  1.00  0.00     0.186 HD
HETATM    4  C7  UNL     1      -4.200   5.360  14.321  1.00  0.00     0.152 A 
HETATM    5  N4  UNL     1      -3.447   4.771  13.339  1.00  0.00    -0.174 N 
ATOM      6  H4  UNL     1      -2.842   5.354  12.760  1.00  0.00     0.186 HD
HETATM    7  C15 UNL     1      -3.484   3.444  13.118  1.00  0.00     0.696 A 
HETATM    8  N6  UNL     1      -4.288   2.643  13.881  1.00  0.00    -0.022 N 
ATOM      9  H6  UNL     1      -4.327   1.636  13.725  1.00  0.00     0.203 HD
ENDROOT
BRANCH   1  10
HETATM   10  N1  UNL     1      -5.791   2.504  15.567  1.00  0.00    -0.158 N 
HETATM   11  C5  UNL     1      -5.348   1.698  16.627  1.00  0.00     0.243 C 
HETATM   12  O1  UNL     1      -4.153   1.362  16.717  1.00  0.00    -0.272 OA
ATOM     13  H1  UNL     1      -6.790   2.516  15.362  1.00  0.00     0.187 HD
BRANCH  11  14
HETATM   14  C2  UNL     1      -6.334   1.260  17.637  1.00  0.00     0.031 C 
HETATM   15  C1  UNL     1      -6.290   2.033  18.920  1.00  0.00     0.025 C 
HETATM   16  C3  UNL     1      -6.044  -0.196  17.967  1.00  0.00     0.025 C 
HETATM   17  C4  UNL     1      -7.708   1.412  17.021  1.00  0.00     0.025 C 
ENDBRANCH  11  14
ENDBRANCH   1  10
BRANCH   4  18
HETATM   18  C8  UNL     1      -4.069   6.816  14.448  1.00  0.00     0.139 C 
BRANCH  18  19
HETATM   19  N3  UNL     1      -2.805   7.387  14.275  1.00  0.00    -0.367 N 
HETATM   20  C9  UNL     1      -2.570   8.325  13.255  1.00  0.00     0.063 C 
HETATM   21  C10 UNL     1      -1.066   8.428  13.037  1.00  0.00     0.044 C 
HETATM   22  C11 UNL     1      -0.335   9.203  14.060  1.00  0.00     0.005 C 
HETATM   23  C12 UNL     1      -1.153   9.971  15.042  1.00  0.00     0.002 C 
HETATM   24  C13 UNL     1      -2.060   9.117  15.880  1.00  0.00     0.020 C 
HETATM   25  C14 UNL     1      -2.057   7.671  15.446  1.00  0.00     0.127 C 
ENDBRANCH  18  19
ENDBRANCH   4  18
BRANCH   7  26
HETATM   26  N5  UNL     1      -2.683   2.939  12.078  1.00  0.00    -0.213 N 
HETATM   27  C16 UNL     1      -1.513   3.657  11.643  1.00  0.00     0.167 C 
HETATM   28  C17 UNL     1      -1.438   3.488  10.123  1.00  0.00     0.188 C 
HETATM   29  O2  UNL     1      -1.350   2.170   9.745  1.00  0.00    -0.388 OA
HETATM   30  C18 UNL     1      -1.777   1.257  10.674  1.00  0.00     0.188 C 
HETATM   31  C19 UNL     1      -3.017   1.699  11.439  1.00  0.00     0.167 C 
ENDBRANCH   7  26
TORSDOF 5
ENDMDL
MODEL 2
REMARK VINA RESULT: -7.328350965      3.850      6.857
REMARK  5 active torsions:
REMARK  status: ('A' for Active; 'I' for Inactive)
REMARK    1  A    between atoms: C2_2  and  C5_5 
REMARK       I    between atoms: C5_5  and  N1_7 
REMARK    2  A    between atoms: N1_7  and  C6_9 
REMARK    3  A    between atoms: C7_12  and  C8_13 
REMARK    4  A    between atoms: C8_13  and  N3_14 
REMARK    5  A    between atoms: C15_23  and  N5_24 
ROOT
HETATM    1  C6  UNL     1      -0.697   4.524  11.906  1.00  0.00     0.701 A 
HETATM    2  N2  UNL     1      -1.487   5.426  11.293  1.00  0.00    -0.174 N 
ATOM      3  H2  UNL     1      -1.124   6.366  11.130  1.00  0.00     0.186 HD
HETATM    4  C7  UNL     1      -2.725   5.136  10.891  1.00  0.00     0.152 A 
HETATM    5  N4  UNL     1      -3.168   3.861  11.132  1.00  0.00    -0.174 N 
ATOM      6  H4  UNL     1      -4.109   3.600  10.840  1.00  0.00     0.186 HD
HETATM    7  C15 UNL     1      -2.393   2.946  11.743  1.00  0.00     0.696 A 
HETATM    8  N6  UNL     1      -1.127   3.274  12.144  1.00  0.00    -0.022 N 
ATOM      9  H6  UNL     1      -0.529   2.592  12.608  1.00  0.00     0.203 HD
ENDROOT
BRANCH   1  10
HETATM   10  N1  UNL     1       0.478   4.864  12.274  1.00  0.00    -0.158 N 
HETATM   11  C5  UNL     1       1.631   4.696  11.493  1.00  0.00     0.243 C 
HETATM   12  O1  UNL     1       1.643   3.897  10.538  1.00  0.00    -0.272 OA
ATOM     13  H1  UNL     1       0.585   5.287  13.196  1.00  0.00     0.187 HD
BRANCH  11  14
HETATM   14  C2  UNL     1       2.830   5.491  11.828  1.00  0.00     0.031 C 
HETATM   15  C1  UNL     1       3.578   5.006  13.033  1.00  0.00     0.025 C 
HETATM   16  C3  UNL     1       2.379   6.916  12.109  1.00  0.00     0.025 C 
HETATM   17  C4  UNL     1       3.753   5.442  10.629  1.00  0.00     0.025 C 
ENDBRANCH  11  14
ENDBRANCH   1  10
BRANCH   4  18
HETATM   18  C8  UNL     1      -3.675   6.033  10.224  1.00  0.00     0.139 C 
BRANCH  18  19
HETATM   19  N3  UNL     1      -4.874   6.334  10.874  1.00  0.00    -0.367 N 
HETATM   20  C9  UNL     1      -4.878   6.825  12.191  1.00  0.00     0.063 C 
HETATM   21  C10 UNL     1      -6.277   6.643  12.766  1.00  0.00     0.044 C 
HETATM   22  C11 UNL     1      -7.283   7.615  12.290  1.00  0.00     0.005 C 
HETATM   23  C12 UNL     1      -6.783   8.776  11.500  1.00  0.00     0.002 C 
HETATM   24  C13 UNL     1      -6.087   8.392  10.226  1.00  0.00     0.020 C 
HETATM   25  C14 UNL     1      -5.912   6.898  10.090  1.00  0.00     0.127 C 
ENDBRANCH  18  19
ENDBRANCH   4  18
BRANCH   7  26
HETATM   26  N5  UNL     1      -2.945   1.670  11.956  1.00  0.00    -0.213 N 
HETATM   27  C16 UNL     1      -2.284   0.496  11.449  1.00  0.00     0.167 C 
HETATM   28  C17 UNL     1      -3.388  -0.459  10.983  1.00  0.00     0.188 C 
HETATM   29  O2  UNL     1      -4.247  -0.803  11.999  1.00  0.00    -0.388 OA
HETATM   30  C18 UNL     1      -4.268   0.049  13.072  1.00  0.00     0.188 C 
HETATM   31  C19 UNL     1      -4.170   1.519  12.687  1.00  0.00     0.167 C 
ENDBRANCH   7  26
TORSDOF 5
ENDMDL
MODEL 3
REMARK VINA RESULT: -7.095067379      2.906      6.350
REMARK  5 active torsions:
REMARK  status: ('A' for Active; 'I' for Inactive)
REMARK    1  A    between atoms: C2_2  and  C5_5 
REMARK       I    between atoms: C5_5  and  N1_7 
REMARK    2  A    between atoms: N1_7  and  C6_9 
REMARK    3  A    between atoms: C7_12  and  C8_13 
REMARK    4  A    between atoms: C8_13  and  N3_14 
REMARK    5  A    between atoms: C15_23  and  N5_24 
ROOT
HETATM    1  C6  UNL     1      -4.433   5.563  12.999  1.00  0.00     0.701 A 
HETATM    2  N2  UNL     1      -3.229   5.284  12.465  1.00  0.00    -0.174 N 
ATOM      3  H2  UNL     1      -2.832   5.930  11.783  1.00  0.00     0.186 HD
HETATM    4  C7  UNL     1      -2.536   4.193  12.796  1.00  0.00     0.152 A 
HETATM    5  N4  UNL     1      -3.111   3.354  13.716  1.00  0.00    -0.174 N 
ATOM      6  H4  UNL     1      -2.613   2.509  13.995  1.00  0.00     0.186 HD
HETATM    7  C15 UNL     1      -4.313   3.617  14.260  1.00  0.00     0.696 A 
HETATM    8  N6  UNL     1      -4.999   4.744  13.900  1.00  0.00    -0.022 N 
ATOM      9  H6  UNL     1      -5.911   4.956  14.303  1.00  0.00     0.203 HD
ENDROOT
BRANCH   1  10
HETATM   10  N1  UNL     1      -5.051   6.620  12.636  1.00  0.00    -0.158 N 
HETATM   11  C5  UNL     1      -5.641   6.799  11.375  1.00  0.00     0.243 C 
HETATM   12  O1  UNL     1      -5.310   6.084  10.410  1.00  0.00    -0.272 OA
ATOM     13  H1  UNL     1      -5.121   7.385  13.307  1.00  0.00     0.187 HD
BRANCH  11  14
HETATM   14  C2  UNL     1      -6.665   7.852  11.219  1.00  0.00     0.031 C 
HETATM   15  C1  UNL     1      -6.124   9.250  11.246  1.00  0.00     0.025 C 
HETATM   16  C3  UNL     1      -7.648   7.717  12.371  1.00  0.00     0.025 C 
HETATM   17  C4  UNL     1      -7.352   7.621   9.890  1.00  0.00     0.025 C 
ENDBRANCH  11  14
ENDBRANCH   1  10
BRANCH   4  18
HETATM   18  C8  UNL     1      -1.226   3.782  12.279  1.00  0.00     0.139 C 
BRANCH  18  19
HETATM   19  N3  UNL     1      -0.491   4.701  11.525  1.00  0.00    -0.367 N 
HETATM   20  C9  UNL     1       0.468   5.530  12.132  1.00  0.00     0.063 C 
HETATM   21  C10 UNL     1       0.772   6.683  11.185  1.00  0.00     0.044 C 
HETATM   22  C11 UNL     1       1.640   6.343  10.039  1.00  0.00     0.005 C 
HETATM   23  C12 UNL     1       2.294   5.004  10.059  1.00  0.00     0.002 C 
HETATM   24  C13 UNL     1       1.327   3.854  10.075  1.00  0.00     0.020 C 
HETATM   25  C14 UNL     1      -0.107   4.306  10.219  1.00  0.00     0.127 C 
ENDBRANCH  18  19
ENDBRANCH   4  18
BRANCH   7  26
HETATM   26  N5  UNL     1      -4.822   2.687  15.184  1.00  0.00    -0.213 N 
HETATM   27  C16 UNL     1      -3.955   1.708  15.786  1.00  0.00     0.167 C 
HETATM   28  C17 UNL     1      -4.772   0.418  15.908  1.00  0.00     0.188 C 
HETATM   29  O2  UNL     1      -5.901   0.583  16.674  1.00  0.00    -0.388 OA
HETATM   30  C18 UNL     1      -6.338   1.873  16.816  1.00  0.00     0.188 C 
HETATM   31  C19 UNL     1      -6.210   2.705  15.547  1.00  0.00     0.167 C 
ENDBRANCH   7  26
TORSDOF 5
ENDMDL
MODEL 4
REMARK VINA RESULT: -7.034892206      2.740      6.405
REMARK  5 active torsions:
REMARK  status: ('A' for Active; 'I' for Inactive)
REMARK    1  A    between atoms: C2_2  and  C5_5 
REMARK       I    between atoms: C5_5  and  N1_7 
REMARK    2  A    between atoms: N1_7  and  C6_9 
REMARK    3  A    between atoms: C7_12  and  C8_13 
REMARK    4  A    between atoms: C8_13  and  N3_14 
REMARK    5  A    between atoms: C15_23  and  N5_24 
ROOT
HETATM    1  C6  UNL     1      -4.646   5.639  13.466  1.00  0.00     0.701 A 
HETATM    2  N2  UNL     1      -3.361   5.575  13.066  1.00  0.00    -0.174 N 
ATOM      3  H2  UNL     1      -2.995   6.315  12.467  1.00  0.00     0.186 HD
HETATM    4  C7  UNL     1      -2.551   4.579  13.425  1.00  0.00     0.152 A 
HETATM    5  N4  UNL     1      -3.087   3.608  14.231  1.00  0.00    -0.174 N 
ATOM      6  H4  UNL     1      -2.500   2.829  14.528  1.00  0.00     0.186 HD
HETATM    7  C15 UNL     1      -4.368   3.656  14.641  1.00  0.00     0.696 A 
HETATM    8  N6  UNL     1      -5.175   4.691  14.255  1.00  0.00    -0.022 N 
ATOM      9  H6  UNL     1      -6.148   4.741  14.557  1.00  0.00     0.203 HD
ENDROOT
BRANCH   1  10
HETATM   10  N1  UNL     1      -5.374   6.616  13.082  1.00  0.00    -0.158 N 
HETATM   11  C5  UNL     1      -5.552   6.992  11.742  1.00  0.00     0.243 C 
HETATM   12  O1  UNL     1      -4.749   6.621  10.865  1.00  0.00    -0.272 OA
ATOM     13  H1  UNL     1      -5.859   7.158  13.797  1.00  0.00     0.187 HD
BRANCH  11  14
HETATM   14  C2  UNL     1      -6.715   7.834  11.395  1.00  0.00     0.031 C 
HETATM   15  C1  UNL     1      -7.325   7.528  10.060  1.00  0.00     0.025 C 
HETATM   16  C3  UNL     1      -6.248   9.281  11.366  1.00  0.00     0.025 C 
HETATM   17  C4  UNL     1      -7.760   7.624  12.469  1.00  0.00     0.025 C 
ENDBRANCH  11  14
ENDBRANCH   1  10
BRANCH   4  18
HETATM   18  C8  UNL     1      -1.144   4.398  13.049  1.00  0.00     0.139 C 
BRANCH  18  19
HETATM   19  N3  UNL     1      -0.835   4.224  11.697  1.00  0.00    -0.367 N 
HETATM   20  C9  UNL     1      -1.631   3.409  10.874  1.00  0.00     0.063 C 
HETATM   21  C10 UNL     1      -0.832   3.067   9.623  1.00  0.00     0.044 C 
HETATM   22  C11 UNL     1      -0.731   4.153   8.627  1.00  0.00     0.005 C 
HETATM   23  C12 UNL     1      -1.590   5.352   8.841  1.00  0.00     0.002 C 
HETATM   24  C13 UNL     1      -1.313   6.077  10.127  1.00  0.00     0.020 C 
HETATM   25  C14 UNL     1      -0.321   5.347  11.001  1.00  0.00     0.127 C 
ENDBRANCH  18  19
ENDBRANCH   4  18
BRANCH   7  26
HETATM   26  N5  UNL     1      -4.827   2.604  15.454  1.00  0.00    -0.213 N 
HETATM   27  C16 UNL     1      -3.914   1.598  15.929  1.00  0.00     0.167 C 
HETATM   28  C17 UNL     1      -4.679   0.270  15.906  1.00  0.00     0.188 C 
HETATM   29  O2  UNL     1      -5.802   0.298  16.696  1.00  0.00    -0.388 OA
HETATM   30  C18 UNL     1      -6.288   1.545  16.992  1.00  0.00     0.188 C 
HETATM   31  C19 UNL     1      -6.210   2.523  15.829  1.00  0.00     0.167 C 
ENDBRANCH   7  26
TORSDOF 5
ENDMDL
MODEL 5
REMARK VINA RESULT: -7.033773618      3.209      6.618
REMARK  5 active torsions:
REMARK  status: ('A' for Active; 'I' for Inactive)
REMARK    1  A    between atoms: C2_2  and  C5_5 
REMARK       I    between atoms: C5_5  and  N1_7 
REMARK    2  A    between atoms: N1_7  and  C6_9 
REMARK    3  A    between atoms: C7_12  and  C8_13 
REMARK    4  A    between atoms: C8_13  and  N3_14 
REMARK    5  A    between atoms: C15_23  and  N5_24 
ROOT
HETATM    1  C6  UNL     1      -3.787   6.034  11.917  1.00  0.00     0.701 A 
HETATM    2  N2  UNL     1      -4.232   4.964  12.603  1.00  0.00    -0.174 N 
ATOM      3  H2  UNL     1      -5.194   4.963  12.942  1.00  0.00     0.186 HD
HETATM    4  C7  UNL     1      -3.460   3.905  12.854  1.00  0.00     0.152 A 
HETATM    5  N4  UNL     1      -2.175   3.953  12.378  1.00  0.00    -0.174 N 
ATOM      6  H4  UNL     1      -1.553   3.163  12.550  1.00  0.00     0.186 HD
HETATM    7  C15 UNL     1      -1.714   5.014  11.691  1.00  0.00     0.696 A 
HETATM    8  N6  UNL     1      -2.530   6.084  11.449  1.00  0.00    -0.022 N 
ATOM      9  H6  UNL     1      -2.194   6.895  10.930  1.00  0.00     0.203 HD
ENDROOT
BRANCH   1  10
HETATM   10  N1  UNL     1      -4.573   7.021  11.715  1.00  0.00    -0.158 N 
HETATM   11  C5  UNL     1      -5.712   6.970  10.897  1.00  0.00     0.243 C 
HETATM   12  O1  UNL     1      -5.846   6.070  10.046  1.00  0.00    -0.272 OA
ATOM     13  H1  UNL     1      -4.359   7.904  12.178  1.00  0.00     0.187 HD
BRANCH  11  14
HETATM   14  C2  UNL     1      -6.750   8.006  11.070  1.00  0.00     0.031 C 
HETATM   15  C1  UNL     1      -6.216   9.399  11.221  1.00  0.00     0.025 C 
HETATM   16  C3  UNL     1      -7.531   7.674  12.333  1.00  0.00     0.025 C 
HETATM   17  C4  UNL     1      -7.646   7.956   9.851  1.00  0.00     0.025 C 
ENDBRANCH  11  14
ENDBRANCH   1  10
BRANCH   4  18
HETATM   18  C8  UNL     1      -3.829   2.693  13.592  1.00  0.00     0.139 C 
BRANCH  18  19
HETATM   19  N3  UNL     1      -4.599   2.828  14.751  1.00  0.00    -0.367 N 
HETATM   20  C9  UNL     1      -6.002   2.892  14.682  1.00  0.00     0.063 C 
HETATM   21  C10 UNL     1      -6.519   3.464  15.995  1.00  0.00     0.044 C 
HETATM   22  C11 UNL     1      -6.515   2.524  17.135  1.00  0.00     0.005 C 
HETATM   23  C12 UNL     1      -6.230   1.093  16.831  1.00  0.00     0.002 C 
HETATM   24  C13 UNL     1      -4.877   0.857  16.222  1.00  0.00     0.020 C 
HETATM   25  C14 UNL     1      -4.151   2.144  15.909  1.00  0.00     0.127 C 
ENDBRANCH  18  19
ENDBRANCH   4  18
BRANCH   7  26
HETATM   26  N5  UNL     1      -0.377   4.971  11.257  1.00  0.00    -0.213 N 
HETATM   27  C16 UNL     1      -0.063   4.634   9.893  1.00  0.00     0.167 C 
HETATM   28  C17 UNL     1       1.217   3.792   9.936  1.00  0.00     0.188 C 
HETATM   29  O2  UNL     1       2.268   4.465  10.509  1.00  0.00    -0.388 OA
HETATM   30  C18 UNL     1       1.929   5.522  11.312  1.00  0.00     0.188 C 
HETATM   31  C19 UNL     1       0.693   5.270  12.165  1.00  0.00     0.167 C 
ENDBRANCH   7  26
TORSDOF 5
ENDMDL
