MODEL 1
REMARK VINA RESULT: -7.421653111      0.000      0.000
REMARK  6 active torsions:
REMARK  status: ('A' for Active; 'I' for Inactive)
REMARK    1  A    between atoms: C1_2  and  O2_3 
REMARK       I    between atoms: C1_2  and  N1_11 
REMARK    2  A    between atoms: O2_3  and  C2_4 
REMARK    3  A    between atoms: C2_4  and  C3_5 
REMARK    4  A    between atoms: N2_17  and  C11_18 
REMARK    5  A    between atoms: C11_18  and  O6_19 
REMARK    6  A    between atoms: C11_18  and  C12_21 
ROOT
HETATM    1  O1  UNL     1      -0.461   7.114  13.008  1.00  0.00    -0.238 OA
HETATM    2  C1  UNL     1      -1.684   7.339  13.249  1.00  0.00     0.362 C 
HETATM    3  N1  UNL     1      -2.673   6.340  13.028  1.00  0.00    -0.323 N 
HETATM    4  C8  UNL     1      -4.090   6.524  13.280  1.00  0.00     0.163 C 
HETATM    5  C9  UNL     1      -4.699   5.552  12.325  1.00  0.00     0.176 C 
HETATM    6  O4  UNL     1      -4.310   5.754  10.973  1.00  0.00    -0.295 OA
HETATM    7  C10 UNL     1      -4.303   4.475  10.429  1.00  0.00     0.365 C 
HETATM    8  O5  UNL     1      -4.398   4.099   9.228  1.00  0.00    -0.238 OA
HETATM    9  N2  UNL     1      -4.158   3.509  11.511  1.00  0.00    -0.292 N 
HETATM   10  C18 UNL     1      -3.818   4.308  12.632  1.00  0.00     0.141 C 
HETATM   11  C19 UNL     1      -2.472   4.993  12.527  1.00  0.00     0.156 C 
ENDROOT
BRANCH   2  12
HETATM   12  O2  UNL     1      -1.990   8.600  13.734  1.00  0.00    -0.304 OA
BRANCH  12  13
HETATM   13  C2  UNL     1      -1.916   8.908  15.131  1.00  0.00     0.185 C 
BRANCH  13  14
HETATM   14  C3  UNL     1      -1.525  10.373  15.233  1.00  0.00     0.014 C 
HETATM   15  C4  UNL     1      -0.085  10.451  15.742  1.00  0.00     0.033 C 
HETATM   16  C5  UNL     1       0.789  10.422  14.487  1.00  0.00     0.168 C 
HETATM   17  O3  UNL     1       0.772  11.699  13.957  1.00  0.00    -0.391 OA
HETATM   18  C6  UNL     1      -0.510  12.169  13.818  1.00  0.00     0.168 C 
HETATM   19  C7  UNL     1      -1.558  11.067  13.898  1.00  0.00     0.033 C 
ENDBRANCH  13  14
ENDBRANCH  12  13
ENDBRANCH   2  12
BRANCH   9  20
HETATM   20  C11 UNL     1      -4.363   2.095  11.404  1.00  0.00     0.229 C 
BRANCH  20  21
HETATM   21  O6  UNL     1      -5.735   1.765  11.430  1.00  0.00    -0.376 OA
ATOM     22  H6  UNL     1      -5.953   1.119  10.768  1.00  0.00     0.212 HD
ENDBRANCH  20  21
BRANCH  20  23
HETATM   23  C12 UNL     1      -3.614   1.216  12.331  1.00  0.00     0.035 C 
HETATM   24  C13 UNL     1      -2.461   0.539  11.552  1.00  0.00     0.014 C 
HETATM   25  C14 UNL     1      -3.155  -0.534  10.782  1.00  0.00    -0.010 A 
HETATM   26  C15 UNL     1      -3.206  -1.887  11.421  1.00  0.00     0.010 A 
HETATM   27  C16 UNL     1      -4.351  -0.959  11.594  1.00  0.00    -0.010 A 
HETATM   28  C17 UNL     1      -4.357  -0.009  12.781  1.00  0.00     0.014 C 
ENDBRANCH  20  23
ENDBRANCH   9  20
TORSDOF 6
ENDMDL
MODEL 2
REMARK VINA RESULT: -7.306061654      4.439      5.801
REMARK  6 active torsions:
REMARK  status: ('A' for Active; 'I' for Inactive)
REMARK    1  A    between atoms: C1_2  and  O2_3 
REMARK       I    between atoms: C1_2  and  N1_11 
REMARK    2  A    between atoms: O2_3  and  C2_4 
REMARK    3  A    between atoms: C2_4  and  C3_5 
REMARK    4  A    between atoms: N2_17  and  C11_18 
REMARK    5  A    between atoms: C11_18  and  O6_19 
REMARK    6  A    between atoms: C11_18  and  C12_21 
ROOT
HETATM    1  O1  UNL     1       0.435   3.884  11.875  1.00  0.00    -0.238 OA
HETATM    2  C1  UNL     1      -0.431   4.050  10.965  1.00  0.00     0.362 C 
HETATM    3  N1  UNL     1      -1.822   3.967  11.250  1.00  0.00    -0.323 N 
HETATM    4  C8  UNL     1      -2.870   4.145  10.261  1.00  0.00     0.163 C 
HETATM    5  C9  UNL     1      -3.983   3.344  10.849  1.00  0.00     0.176 C 
HETATM    6  O4  UNL     1      -3.643   1.989  11.109  1.00  0.00    -0.295 OA
HETATM    7  C10 UNL     1      -4.392   1.661  12.232  1.00  0.00     0.365 C 
HETATM    8  O5  UNL     1      -4.765   0.535  12.664  1.00  0.00    -0.238 OA
HETATM    9  N2  UNL     1      -4.742   2.889  12.935  1.00  0.00    -0.292 N 
HETATM   10  C18 UNL     1      -3.935   3.874  12.310  1.00  0.00     0.141 C 
HETATM   11  C19 UNL     1      -2.447   3.697  12.531  1.00  0.00     0.156 C 
ENDROOT
BRANCH   2  12
HETATM   12  O2  UNL     1       0.059   4.314   9.697  1.00  0.00    -0.304 OA
BRANCH  12  13
HETATM   13  C2  UNL     1       0.467   5.630   9.305  1.00  0.00     0.185 C 
BRANCH  13  14
HETATM   14  C3  UNL     1       1.845   5.491   8.682  1.00  0.00     0.014 C 
HETATM   15  C4  UNL     1       2.841   6.275   9.539  1.00  0.00     0.033 C 
HETATM   16  C5  UNL     1       3.340   5.281  10.589  1.00  0.00     0.168 C 
HETATM   17  O3  UNL     1       4.295   4.492   9.975  1.00  0.00    -0.391 OA
HETATM   18  C6  UNL     1       3.833   3.975   8.789  1.00  0.00     0.168 C 
HETATM   19  C7  UNL     1       2.318   4.062   8.654  1.00  0.00     0.033 C 
ENDBRANCH  13  14
ENDBRANCH  12  13
ENDBRANCH   2  12
BRANCH   9  20
HETATM   20  C11 UNL     1      -5.712   3.009  13.982  1.00  0.00     0.229 C 
BRANCH  20  21
HETATM   21  O6  UNL     1      -6.769   3.870  13.615  1.00  0.00    -0.376 OA
ATOM     22  H6  UNL     1      -7.403   3.963  14.317  1.00  0.00     0.212 HD
ENDBRANCH  20  21
BRANCH  20  23
HETATM   23  C12 UNL     1      -5.227   3.353  15.338  1.00  0.00     0.035 C 
HETATM   24  C13 UNL     1      -4.432   2.152  15.901  1.00  0.00     0.014 C 
HETATM   25  C14 UNL     1      -5.503   1.197  16.312  1.00  0.00    -0.010 A 
HETATM   26  C15 UNL     1      -5.950   1.271  17.740  1.00  0.00     0.010 A 
HETATM   27  C16 UNL     1      -6.703   2.021  16.703  1.00  0.00    -0.010 A 
HETATM   28  C17 UNL     1      -6.297   3.451  16.387  1.00  0.00     0.014 C 
ENDBRANCH  20  23
ENDBRANCH   9  20
TORSDOF 6
ENDMDL
MODEL 3
REMARK VINA RESULT: -7.267744440      4.414      7.318
REMARK  6 active torsions:
REMARK  status: ('A' for Active; 'I' for Inactive)
REMARK    1  A    between atoms: C1_2  and  O2_3 
REMARK       I    between atoms: C1_2  and  N1_11 
REMARK    2  A    between atoms: O2_3  and  C2_4 
REMARK    3  A    between atoms: C2_4  and  C3_5 
REMARK    4  A    between atoms: N2_17  and  C11_18 
REMARK    5  A    between atoms: C11_18  and  O6_19 
REMARK    6  A    between atoms: C11_18  and  C12_21 
ROOT
HETATM    1  O1  UNL     1      -6.376   5.336  13.048  1.00  0.00    -0.238 OA
HETATM    2  C1  UNL     1      -5.434   4.986  13.818  1.00  0.00     0.362 C 
HETATM    3  N1  UNL     1      -4.122   4.756  13.318  1.00  0.00    -0.323 N 
HETATM    4  C8  UNL     1      -2.994   4.353  14.138  1.00  0.00     0.163 C 
HETATM    5  C9  UNL     1      -2.138   3.637  13.148  1.00  0.00     0.176 C 
HETATM    6  O4  UNL     1      -2.797   2.566  12.486  1.00  0.00    -0.295 OA
HETATM    7  C10 UNL     1      -2.223   2.547  11.221  1.00  0.00     0.365 C 
HETATM    8  O5  UNL     1      -2.149   1.616  10.371  1.00  0.00    -0.238 OA
HETATM    9  N2  UNL     1      -1.652   3.860  10.947  1.00  0.00    -0.292 N 
HETATM   10  C18 UNL     1      -2.166   4.673  11.990  1.00  0.00     0.141 C 
HETATM   11  C19 UNL     1      -3.666   4.873  11.946  1.00  0.00     0.156 C 
ENDROOT
BRANCH   2  12
HETATM   12  O2  UNL     1      -5.760   4.844  15.157  1.00  0.00    -0.304 OA
BRANCH  12  13
HETATM   13  C2  UNL     1      -6.576   3.763  15.623  1.00  0.00     0.185 C 
BRANCH  13  14
HETATM   14  C3  UNL     1      -5.661   2.827  16.394  1.00  0.00     0.014 C 
HETATM   15  C4  UNL     1      -6.456   2.230  17.557  1.00  0.00     0.033 C 
HETATM   16  C5  UNL     1      -7.097   0.959  16.997  1.00  0.00     0.168 C 
HETATM   17  O3  UNL     1      -6.119  -0.018  16.997  1.00  0.00    -0.391 OA
HETATM   18  C6  UNL     1      -4.967   0.424  16.392  1.00  0.00     0.168 C 
HETATM   19  C7  UNL     1      -5.181   1.676  15.552  1.00  0.00     0.033 C 
ENDBRANCH  13  14
ENDBRANCH  12  13
ENDBRANCH   2  12
BRANCH   9  20
HETATM   20  C11 UNL     1      -0.756   4.178   9.875  1.00  0.00     0.229 C 
BRANCH  20  21
HETATM   21  O6  UNL     1      -1.285   3.794   8.625  1.00  0.00    -0.376 OA
ATOM     22  H6  UNL     1      -1.902   4.437   8.293  1.00  0.00     0.212 HD
ENDBRANCH  20  21
BRANCH  20  23
HETATM   23  C12 UNL     1       0.648   3.723   9.991  1.00  0.00     0.035 C 
HETATM   24  C13 UNL     1       1.304   4.437  11.197  1.00  0.00     0.014 C 
HETATM   25  C14 UNL     1       1.583   5.805  10.671  1.00  0.00    -0.010 A 
HETATM   26  C15 UNL     1       2.946   6.033  10.094  1.00  0.00     0.010 A 
HETATM   27  C16 UNL     1       1.826   5.669   9.190  1.00  0.00    -0.010 A 
HETATM   28  C17 UNL     1       1.560   4.201   8.898  1.00  0.00     0.014 C 
ENDBRANCH  20  23
ENDBRANCH   9  20
TORSDOF 6
ENDMDL
MODEL 4
REMARK VINA RESULT: -7.248834030      0.673      1.063
REMARK  6 active torsions:
REMARK  status: ('A' for Active; 'I' for Inactive)
REMARK    1  A    between atoms: C1_2  and  O2_3 
REMARK       I    between atoms: C1_2  and  N1_11 
REMARK    2  A    between atoms: O2_3  and  C2_4 
REMARK    3  A    between atoms: C2_4  and  C3_5 
REMARK    4  A    between atoms: N2_17  and  C11_18 
REMARK    5  A    between atoms: C11_18  and  O6_19 
REMARK    6  A    between atoms: C11_18  and  C12_21 
ROOT
HETATM    1  O1  UNL     1      -0.373   7.099  12.833  1.00  0.00    -0.238 OA
HETATM    2  C1  UNL     1      -1.589   7.354  13.079  1.00  0.00     0.362 C 
HETATM    3  N1  UNL     1      -2.599   6.369  12.895  1.00  0.00    -0.323 N 
HETATM    4  C8  UNL     1      -4.010   6.588  13.154  1.00  0.00     0.163 C 
HETATM    5  C9  UNL     1      -4.646   5.601  12.233  1.00  0.00     0.176 C 
HETATM    6  O4  UNL     1      -4.266   5.757  10.872  1.00  0.00    -0.295 OA
HETATM    7  C10 UNL     1      -4.288   4.463  10.366  1.00  0.00     0.365 C 
HETATM    8  O5  UNL     1      -4.402   4.054   9.177  1.00  0.00    -0.238 OA
HETATM    9  N2  UNL     1      -4.153   3.525  11.473  1.00  0.00    -0.292 N 
HETATM   10  C18 UNL     1      -3.787   4.350  12.568  1.00  0.00     0.141 C 
HETATM   11  C19 UNL     1      -2.429   5.005  12.431  1.00  0.00     0.156 C 
ENDROOT
BRANCH   2  12
HETATM   12  O2  UNL     1      -1.865   8.635  13.530  1.00  0.00    -0.304 OA
BRANCH  12  13
HETATM   13  C2  UNL     1      -1.516   9.060  14.852  1.00  0.00     0.185 C 
BRANCH  13  14
HETATM   14  C3  UNL     1      -0.402  10.082  14.700  1.00  0.00     0.014 C 
HETATM   15  C4  UNL     1      -0.775  11.032  13.561  1.00  0.00     0.033 C 
HETATM   16  C5  UNL     1      -1.568  12.162  14.222  1.00  0.00     0.168 C 
HETATM   17  O3  UNL     1      -0.646  13.014  14.802  1.00  0.00    -0.391 OA
HETATM   18  C6  UNL     1       0.246  12.329  15.590  1.00  0.00     0.168 C 
HETATM   19  C7  UNL     1      -0.227  10.923  15.936  1.00  0.00     0.033 C 
ENDBRANCH  13  14
ENDBRANCH  12  13
ENDBRANCH   2  12
BRANCH   9  20
HETATM   20  C11 UNL     1      -4.386   2.113  11.409  1.00  0.00     0.229 C 
BRANCH  20  21
HETATM   21  O6  UNL     1      -5.761   1.809  11.495  1.00  0.00    -0.376 OA
ATOM     22  H6  UNL     1      -5.943   1.207  12.207  1.00  0.00     0.212 HD
ENDBRANCH  20  21
BRANCH  20  23
HETATM   23  C12 UNL     1      -3.617   1.243  12.328  1.00  0.00     0.035 C 
HETATM   24  C13 UNL     1      -2.475   0.567  11.535  1.00  0.00     0.014 C 
HETATM   25  C14 UNL     1      -3.177  -0.514  10.782  1.00  0.00    -0.010 A 
HETATM   26  C15 UNL     1      -3.211  -1.864  11.430  1.00  0.00     0.010 A 
HETATM   27  C16 UNL     1      -4.357  -0.939  11.618  1.00  0.00    -0.010 A 
HETATM   28  C17 UNL     1      -4.347   0.019  12.798  1.00  0.00     0.014 C 
ENDBRANCH  20  23
ENDBRANCH   9  20
TORSDOF 6
ENDMDL
MODEL 5
REMARK VINA RESULT: -7.246931765      1.403      1.897
REMARK  6 active torsions:
REMARK  status: ('A' for Active; 'I' for Inactive)
REMARK    1  A    between atoms: C1_2  and  O2_3 
REMARK       I    between atoms: C1_2  and  N1_11 
REMARK    2  A    between atoms: O2_3  and  C2_4 
REMARK    3  A    between atoms: C2_4  and  C3_5 
REMARK    4  A    between atoms: N2_17  and  C11_18 
REMARK    5  A    between atoms: C11_18  and  O6_19 
REMARK    6  A    between atoms: C11_18  and  C12_21 
ROOT
HETATM    1  O1  UNL     1      -2.725   8.689  12.867  1.00  0.00    -0.238 OA
HETATM    2  C1  UNL     1      -2.329   7.848  13.728  1.00  0.00     0.362 C 
HETATM    3  N1  UNL     1      -2.515   6.451  13.531  1.00  0.00    -0.323 N 
HETATM    4  C8  UNL     1      -2.090   5.430  14.470  1.00  0.00     0.163 C 
HETATM    5  C9  UNL     1      -3.044   4.323  14.170  1.00  0.00     0.176 C 
HETATM    6  O4  UNL     1      -4.411   4.694  14.282  1.00  0.00    -0.295 OA
HETATM    7  C10 UNL     1      -5.052   3.920  13.323  1.00  0.00     0.365 C 
HETATM    8  O5  UNL     1      -6.260   3.566  13.232  1.00  0.00    -0.238 OA
HETATM    9  N2  UNL     1      -4.073   3.513  12.322  1.00  0.00    -0.292 N 
HETATM   10  C18 UNL     1      -2.938   4.310  12.619  1.00  0.00     0.141 C 
HETATM   11  C19 UNL     1      -3.141   5.794  12.399  1.00  0.00     0.156 C 
ENDROOT
BRANCH   2  12
HETATM   12  O2  UNL     1      -1.715   8.369  14.854  1.00  0.00    -0.304 OA
BRANCH  12  13
HETATM   13  C2  UNL     1      -0.579   9.237  14.760  1.00  0.00     0.185 C 
BRANCH  13  14
HETATM   14  C3  UNL     1      -1.023  10.594  15.277  1.00  0.00     0.014 C 
HETATM   15  C4  UNL     1       0.135  11.211  16.063  1.00  0.00     0.033 C 
HETATM   16  C5  UNL     1       0.949  11.996  15.033  1.00  0.00     0.168 C 
HETATM   17  O3  UNL     1       0.287  13.191  14.823  1.00  0.00    -0.391 OA
HETATM   18  C6  UNL     1      -1.043  12.988  14.550  1.00  0.00     0.168 C 
HETATM   19  C7  UNL     1      -1.356  11.549  14.162  1.00  0.00     0.033 C 
ENDBRANCH  13  14
ENDBRANCH  12  13
ENDBRANCH   2  12
BRANCH   9  20
HETATM   20  C11 UNL     1      -4.268   2.507  11.320  1.00  0.00     0.229 C 
BRANCH  20  21
HETATM   21  O6  UNL     1      -4.932   3.023  10.187  1.00  0.00    -0.376 OA
ATOM     22  H6  UNL     1      -4.567   2.679   9.380  1.00  0.00     0.212 HD
ENDBRANCH  20  21
BRANCH  20  23
HETATM   23  C12 UNL     1      -4.893   1.230  11.735  1.00  0.00     0.035 C 
HETATM   24  C13 UNL     1      -3.941   0.505  12.715  1.00  0.00     0.014 C 
HETATM   25  C14 UNL     1      -2.899  -0.070  11.815  1.00  0.00    -0.010 A 
HETATM   26  C15 UNL     1      -3.120  -1.478  11.355  1.00  0.00     0.010 A 
HETATM   27  C16 UNL     1      -3.565  -0.354  10.493  1.00  0.00    -0.010 A 
HETATM   28  C17 UNL     1      -4.976   0.187  10.658  1.00  0.00     0.014 C 
ENDBRANCH  20  23
ENDBRANCH   9  20
TORSDOF 6
ENDMDL
