MODEL 1
REMARK VINA RESULT: -7.423768641      0.000      0.000
REMARK  3 active torsions:
REMARK  status: ('A' for Active; 'I' for Inactive)
REMARK    1  A    between atoms: C2_2  and  C3_3 
REMARK    2  A    between atoms: N3_17  and  C11_18 
REMARK    3  A    between atoms: C11_18  and  C12_19 
ROOT
HETATM    1  C3  UNL     1      -3.654   3.431  13.535  1.00  0.00     0.068 C 
HETATM    2  C4  UNL     1      -4.563   2.187  13.237  1.00  0.00     0.047 C 
HETATM    3  O1  UNL     1      -2.414   3.062  13.117  1.00  0.00    -0.341 OA
HETATM    4  C5  UNL     1      -1.894   3.523  11.970  1.00  0.00     0.220 C 
HETATM    5  C6  UNL     1      -0.473   4.032  12.301  1.00  0.00     0.082 C 
HETATM    6  C7  UNL     1      -1.730   2.564  10.887  1.00  0.00     0.281 C 
HETATM    7  O2  UNL     1      -1.668   1.322  10.992  1.00  0.00    -0.267 OA
HETATM    8  N1  UNL     1      -1.651   3.289   9.679  1.00  0.00    -0.275 N 
ATOM      9  H1  UNL     1      -1.300   2.950   8.783  1.00  0.00     0.173 HD
HETATM   10  C8  UNL     1      -2.159   4.586   9.962  1.00  0.00     0.328 C 
HETATM   11  O3  UNL     1      -2.283   5.573   9.191  1.00  0.00    -0.247 OA
HETATM   12  N2  UNL     1      -2.546   4.652  11.334  1.00  0.00    -0.287 N 
HETATM   13  C9  UNL     1      -3.338   5.473  12.168  1.00  0.00     0.129 C 
HETATM   14  C10 UNL     1      -4.414   6.288  11.493  1.00  0.00     0.298 C 
HETATM   15  N3  UNL     1      -5.186   6.708  12.685  1.00  0.00     0.093 N 
HETATM   16  C18 UNL     1      -5.130   5.535  13.581  1.00  0.00     0.282 C 
HETATM   17  C19 UNL     1      -4.311   4.540  12.876  1.00  0.00     0.073 C 
ENDROOT
BRANCH  15  18
HETATM   18  C11 UNL     1      -6.497   7.097  12.317  1.00  0.00     0.304 C 
BRANCH  18  19
HETATM   19  C12 UNL     1      -6.574   7.886  11.078  1.00  0.00     0.155 C 
HETATM   20  C13 UNL     1      -6.299   9.353  11.128  1.00  0.00     0.060 C 
HETATM   21  C14 UNL     1      -6.581   9.902   9.717  1.00  0.00     0.174 C 
HETATM   22  O4  UNL     1      -6.540   8.798   8.865  1.00  0.00    -0.356 OA
HETATM   23  C15 UNL     1      -7.632   7.956   9.090  1.00  0.00     0.157 C 
HETATM   24  C16 UNL     1      -8.893   8.501   8.435  1.00  0.00     0.078 C 
HETATM   25  C17 UNL     1      -7.315   6.627   8.452  1.00  0.00     0.078 C 
HETATM   26  O5  UNL     1      -7.833   7.744  10.450  1.00  0.00    -0.349 OA
ENDBRANCH  18  19
ENDBRANCH  15  18
BRANCH   1  27
HETATM   27  C2  UNL     1      -3.620   3.416  15.052  1.00  0.00     0.034 C 
HETATM   28  C1  UNL     1      -4.353   2.249  15.617  1.00  0.00     0.008 C 
ENDBRANCH   1  27
TORSDOF 3
ENDMDL
MODEL 2
REMARK VINA RESULT: -7.266871536      1.756      3.819
REMARK  3 active torsions:
REMARK  status: ('A' for Active; 'I' for Inactive)
REMARK    1  A    between atoms: C2_2  and  C3_3 
REMARK    2  A    between atoms: N3_17  and  C11_18 
REMARK    3  A    between atoms: C11_18  and  C12_19 
ROOT
HETATM    1  C3  UNL     1      -2.107   3.430  11.810  1.00  0.00     0.068 C 
HETATM    2  C4  UNL     1      -1.008   4.393  12.385  1.00  0.00     0.047 C 
HETATM    3  O1  UNL     1      -2.490   2.669  12.870  1.00  0.00    -0.341 OA
HETATM    4  C5  UNL     1      -3.651   2.884  13.506  1.00  0.00     0.220 C 
HETATM    5  C6  UNL     1      -4.353   1.513  13.622  1.00  0.00     0.082 C 
HETATM    6  C7  UNL     1      -3.574   3.408  14.862  1.00  0.00     0.281 C 
HETATM    7  O2  UNL     1      -2.594   3.344  15.633  1.00  0.00    -0.267 OA
HETATM    8  N1  UNL     1      -4.815   4.009  15.162  1.00  0.00    -0.275 N 
ATOM      9  H1  UNL     1      -5.172   4.249  16.087  1.00  0.00     0.173 HD
HETATM   10  C8  UNL     1      -5.467   4.213  13.915  1.00  0.00     0.328 C 
HETATM   11  O3  UNL     1      -6.597   4.720  13.687  1.00  0.00    -0.247 OA
HETATM   12  N2  UNL     1      -4.629   3.741  12.862  1.00  0.00    -0.287 N 
HETATM   13  C9  UNL     1      -4.519   3.878  11.459  1.00  0.00     0.129 C 
HETATM   14  C10 UNL     1      -5.131   5.115  10.850  1.00  0.00     0.298 C 
HETATM   15  N3  UNL     1      -4.527   5.048   9.499  1.00  0.00     0.093 N 
HETATM   16  C18 UNL     1      -3.164   4.532   9.742  1.00  0.00     0.282 C 
HETATM   17  C19 UNL     1      -3.081   4.304  11.191  1.00  0.00     0.073 C 
ENDROOT
BRANCH  15  18
HETATM   18  C11 UNL     1      -4.566   6.317   8.873  1.00  0.00     0.304 C 
BRANCH  18  19
HETATM   19  C12 UNL     1      -5.831   7.046   9.049  1.00  0.00     0.155 C 
HETATM   20  C13 UNL     1      -6.986   6.730   8.159  1.00  0.00     0.060 C 
HETATM   21  C14 UNL     1      -8.099   7.735   8.508  1.00  0.00     0.174 C 
HETATM   22  O4  UNL     1      -7.782   8.228   9.775  1.00  0.00    -0.356 OA
HETATM   23  C15 UNL     1      -6.644   9.037   9.721  1.00  0.00     0.157 C 
HETATM   24  C16 UNL     1      -6.977  10.424   9.190  1.00  0.00     0.078 C 
HETATM   25  C17 UNL     1      -6.134   9.191  11.133  1.00  0.00     0.078 C 
HETATM   26  O5  UNL     1      -5.639   8.445   8.963  1.00  0.00    -0.349 OA
ENDBRANCH  18  19
ENDBRANCH  15  18
BRANCH   1  27
HETATM   27  C2  UNL     1      -1.275   2.533  10.913  1.00  0.00     0.034 C 
HETATM   28  C1  UNL     1      -1.865   1.172  10.779  1.00  0.00     0.008 C 
ENDBRANCH   1  27
TORSDOF 3
ENDMDL
MODEL 3
REMARK VINA RESULT: -7.211839761      4.437      6.666
REMARK  3 active torsions:
REMARK  status: ('A' for Active; 'I' for Inactive)
REMARK    1  A    between atoms: C2_2  and  C3_3 
REMARK    2  A    between atoms: N3_17  and  C11_18 
REMARK    3  A    between atoms: C11_18  and  C12_19 
ROOT
HETATM    1  C3  UNL     1      -5.050   6.225  12.233  1.00  0.00     0.068 C 
HETATM    2  C4  UNL     1      -4.730   5.745  10.773  1.00  0.00     0.047 C 
HETATM    3  O1  UNL     1      -5.784   5.218  12.777  1.00  0.00    -0.341 OA
HETATM    4  C5  UNL     1      -5.252   4.358  13.658  1.00  0.00     0.220 C 
HETATM    5  C6  UNL     1      -6.228   4.289  14.853  1.00  0.00     0.082 C 
HETATM    6  C7  UNL     1      -5.072   2.984  13.212  1.00  0.00     0.281 C 
HETATM    7  O2  UNL     1      -5.665   2.420  12.269  1.00  0.00    -0.267 OA
HETATM    8  N1  UNL     1      -4.098   2.387  14.041  1.00  0.00    -0.275 N 
ATOM      9  H1  UNL     1      -3.919   1.390  14.155  1.00  0.00     0.173 HD
HETATM   10  C8  UNL     1      -3.418   3.457  14.685  1.00  0.00     0.328 C 
HETATM   11  O3  UNL     1      -2.472   3.407  15.514  1.00  0.00    -0.247 OA
HETATM   12  N2  UNL     1      -3.973   4.697  14.251  1.00  0.00    -0.287 N 
HETATM   13  C9  UNL     1      -3.625   6.067  14.254  1.00  0.00     0.129 C 
HETATM   14  C10 UNL     1      -2.155   6.392  14.355  1.00  0.00     0.298 C 
HETATM   15  N3  UNL     1      -2.196   7.828  13.994  1.00  0.00     0.093 N 
HETATM   16  C18 UNL     1      -3.245   7.907  12.958  1.00  0.00     0.282 C 
HETATM   17  C19 UNL     1      -3.760   6.539  12.813  1.00  0.00     0.073 C 
ENDROOT
BRANCH  15  18
HETATM   18  C11 UNL     1      -0.921   8.271  13.567  1.00  0.00     0.304 C 
BRANCH  18  19
HETATM   19  C12 UNL     1      -0.295   9.270  14.447  1.00  0.00     0.155 C 
HETATM   20  C13 UNL     1      -1.159  10.122  15.315  1.00  0.00     0.060 C 
HETATM   21  C14 UNL     1      -0.228  11.133  16.008  1.00  0.00     0.174 C 
HETATM   22  O4  UNL     1       1.055  10.591  15.916  1.00  0.00    -0.356 OA
HETATM   23  C15 UNL     1       1.509  10.611  14.595  1.00  0.00     0.157 C 
HETATM   24  C16 UNL     1       1.992  11.999  14.198  1.00  0.00     0.078 C 
HETATM   25  C17 UNL     1       2.683   9.668  14.508  1.00  0.00     0.078 C 
HETATM   26  O5  UNL     1       0.528  10.160  13.718  1.00  0.00    -0.349 OA
ENDBRANCH  18  19
ENDBRANCH  15  18
BRANCH   1  27
HETATM   27  C2  UNL     1      -6.013   7.366  11.966  1.00  0.00     0.034 C 
HETATM   28  C1  UNL     1      -7.328   7.158  12.633  1.00  0.00     0.008 C 
ENDBRANCH   1  27
TORSDOF 3
ENDMDL
MODEL 4
REMARK VINA RESULT: -7.194212987      1.908      3.534
REMARK  3 active torsions:
REMARK  status: ('A' for Active; 'I' for Inactive)
REMARK    1  A    between atoms: C2_2  and  C3_3 
REMARK    2  A    between atoms: N3_17  and  C11_18 
REMARK    3  A    between atoms: C11_18  and  C12_19 
ROOT
HETATM    1  C3  UNL     1      -2.140   3.840  12.374  1.00  0.00     0.068 C 
HETATM    2  C4  UNL     1      -1.193   4.547  13.408  1.00  0.00     0.047 C 
HETATM    3  O1  UNL     1      -2.639   2.765  13.040  1.00  0.00    -0.341 OA
HETATM    4  C5  UNL     1      -3.893   2.753  13.516  1.00  0.00     0.220 C 
HETATM    5  C6  UNL     1      -4.531   1.426  13.049  1.00  0.00     0.082 C 
HETATM    6  C7  UNL     1      -4.050   2.783  14.963  1.00  0.00     0.281 C 
HETATM    7  O2  UNL     1      -3.197   2.458  15.814  1.00  0.00    -0.267 OA
HETATM    8  N1  UNL     1      -5.352   3.249  15.244  1.00  0.00    -0.275 N 
ATOM      9  H1  UNL     1      -5.858   3.160  16.125  1.00  0.00     0.173 HD
HETATM   10  C8  UNL     1      -5.817   3.867  14.051  1.00  0.00     0.328 C 
HETATM   11  O3  UNL     1      -6.924   4.424  13.829  1.00  0.00    -0.247 OA
HETATM   12  N2  UNL     1      -4.805   3.780  13.049  1.00  0.00    -0.287 N 
HETATM   13  C9  UNL     1      -4.491   4.387  11.812  1.00  0.00     0.129 C 
HETATM   14  C10 UNL     1      -5.068   5.759  11.565  1.00  0.00     0.298 C 
HETATM   15  N3  UNL     1      -4.262   6.155  10.386  1.00  0.00     0.093 N 
HETATM   16  C18 UNL     1      -2.928   5.584  10.657  1.00  0.00     0.282 C 
HETATM   17  C19 UNL     1      -3.054   4.875  11.937  1.00  0.00     0.073 C 
ENDROOT
BRANCH  15  18
HETATM   18  C11 UNL     1      -4.273   7.561  10.226  1.00  0.00     0.304 C 
BRANCH  18  19
HETATM   19  C12 UNL     1      -5.220   8.054   9.214  1.00  0.00     0.155 C 
HETATM   20  C13 UNL     1      -5.091   9.454   8.714  1.00  0.00     0.060 C 
HETATM   21  C14 UNL     1      -6.286   9.699   7.775  1.00  0.00     0.174 C 
HETATM   22  O4  UNL     1      -6.747   8.432   7.410  1.00  0.00    -0.356 OA
HETATM   23  C15 UNL     1      -7.339   7.788   8.499  1.00  0.00     0.157 C 
HETATM   24  C16 UNL     1      -8.749   8.305   8.746  1.00  0.00     0.078 C 
HETATM   25  C17 UNL     1      -7.436   6.322   8.156  1.00  0.00     0.078 C 
HETATM   26  O5  UNL     1      -6.559   7.912   9.644  1.00  0.00    -0.349 OA
ENDBRANCH  18  19
ENDBRANCH  15  18
BRANCH   1  27
HETATM   27  C2  UNL     1      -1.136   3.301  11.373  1.00  0.00     0.034 C 
HETATM   28  C1  UNL     1      -1.580   2.013  10.771  1.00  0.00     0.008 C 
ENDBRANCH   1  27
TORSDOF 3
ENDMDL
MODEL 5
REMARK VINA RESULT: -7.102816259      3.120      5.434
REMARK  3 active torsions:
REMARK  status: ('A' for Active; 'I' for Inactive)
REMARK    1  A    between atoms: C2_2  and  C3_3 
REMARK    2  A    between atoms: N3_17  and  C11_18 
REMARK    3  A    between atoms: C11_18  and  C12_19 
ROOT
HETATM    1  C3  UNL     1      -3.216   6.153  13.478  1.00  0.00     0.068 C 
HETATM    2  C4  UNL     1      -4.225   6.859  12.505  1.00  0.00     0.047 C 
HETATM    3  O1  UNL     1      -3.975   5.280  14.191  1.00  0.00    -0.341 OA
HETATM    4  C5  UNL     1      -3.956   3.963  13.939  1.00  0.00     0.220 C 
HETATM    5  C6  UNL     1      -3.755   3.254  15.296  1.00  0.00     0.082 C 
HETATM    6  C7  UNL     1      -5.161   3.384  13.362  1.00  0.00     0.281 C 
HETATM    7  O2  UNL     1      -6.314   3.860  13.406  1.00  0.00    -0.267 OA
HETATM    8  N1  UNL     1      -4.798   2.172  12.736  1.00  0.00    -0.275 N 
ATOM      9  H1  UNL     1      -5.423   1.417  12.456  1.00  0.00     0.173 HD
HETATM   10  C8  UNL     1      -3.387   2.217  12.575  1.00  0.00     0.328 C 
HETATM   11  O3  UNL     1      -2.621   1.358  12.065  1.00  0.00    -0.247 OA
HETATM   12  N2  UNL     1      -2.892   3.449  13.098  1.00  0.00    -0.287 N 
HETATM   13  C9  UNL     1      -1.718   4.233  13.018  1.00  0.00     0.129 C 
HETATM   14  C10 UNL     1      -0.851   4.032  11.800  1.00  0.00     0.298 C 
HETATM   15  N3  UNL     1       0.029   5.217  11.928  1.00  0.00     0.093 N 
HETATM   16  C18 UNL     1      -0.864   6.272  12.448  1.00  0.00     0.282 C 
HETATM   17  C19 UNL     1      -2.174   5.631  12.619  1.00  0.00     0.073 C 
ENDROOT
BRANCH  15  18
HETATM   18  C11 UNL     1       0.632   5.525  10.684  1.00  0.00     0.304 C 
BRANCH  18  19
HETATM   19  C12 UNL     1      -0.060   4.964   9.514  1.00  0.00     0.155 C 
HETATM   20  C13 UNL     1       0.731   4.239   8.476  1.00  0.00     0.060 C 
HETATM   21  C14 UNL     1      -0.248   3.891   7.339  1.00  0.00     0.174 C 
HETATM   22  O4  UNL     1      -1.524   3.975   7.899  1.00  0.00    -0.356 OA
HETATM   23  C15 UNL     1      -1.851   5.302   8.191  1.00  0.00     0.157 C 
HETATM   24  C16 UNL     1      -2.277   6.054   6.937  1.00  0.00     0.078 C 
HETATM   25  C17 UNL     1      -3.025   5.278   9.138  1.00  0.00     0.078 C 
HETATM   26  O5  UNL     1      -0.799   5.954   8.825  1.00  0.00    -0.349 OA
ENDBRANCH  18  19
ENDBRANCH  15  18
BRANCH   1  27
HETATM   27  C2  UNL     1      -2.867   7.291  14.419  1.00  0.00     0.034 C 
HETATM   28  C1  UNL     1      -3.634   7.219  15.694  1.00  0.00     0.008 C 
ENDBRANCH   1  27
TORSDOF 3
ENDMDL
