MODEL 1
REMARK VINA RESULT: -6.876877822      0.000      0.000
REMARK  10 active torsions:
REMARK  status: ('A' for Active; 'I' for Inactive)
REMARK    1  A    between atoms: C2_2  and  C3_3 
REMARK    2  A    between atoms: C3_3  and  N1_4 
REMARK    3  A    between atoms: N1_4  and  C4_5 
REMARK    4  A    between atoms: C6_9  and  O1_10 
REMARK    5  A    between atoms: N3_14  and  C9_15 
REMARK    6  A    between atoms: C9_15  and  O2_16 
REMARK    7  A    between atoms: C9_15  and  C10_18 
REMARK    8  A    between atoms: C10_18  and  C11_19 
REMARK    9  A    between atoms: C13_24  and  C14_25 
REMARK   10  A    between atoms: C14_25  and  N5_26 
ROOT
HETATM    1  C9  UNL     1      -3.977   5.187  10.974  1.00  0.00     0.126 C 
ENDROOT
BRANCH   1   2
HETATM    2  N3  UNL     1      -2.892   4.356  10.891  1.00  0.00    -0.258 N 
HETATM    3  C4  UNL     1      -2.963   2.887  11.034  1.00  0.00     0.258 C 
HETATM    4  N2  UNL     1      -1.623   2.271  10.972  1.00  0.00    -0.347 N 
HETATM    5  C5  UNL     1      -0.577   2.828  11.774  1.00  0.00     0.161 C 
ATOM      6  H2  UNL     1      -1.447   1.465  10.372  1.00  0.00     0.163 HD
HETATM    7  C6  UNL     1      -0.400   4.310  11.500  1.00  0.00     0.185 C 
HETATM    8  C7  UNL     1      -1.550   4.826  10.710  1.00  0.00     0.043 C 
HETATM    9  C8  UNL     1      -1.324   5.725   9.798  1.00  0.00     0.041 C 
BRANCH   3  10
HETATM   10  N1  UNL     1      -3.957   2.249  11.116  1.00  0.00    -0.412 NA
BRANCH  10  11
HETATM   11  C3  UNL     1      -5.083   1.512  11.220  1.00  0.00     0.248 C 
BRANCH  11  12
HETATM   12  C2  UNL     1      -4.671   0.057  10.883  1.00  0.00    -0.004 C 
HETATM   13  C1  UNL     1      -4.009  -0.649  11.643  1.00  0.00     0.009 C 
ENDBRANCH  11  12
ENDBRANCH  10  11
ENDBRANCH   3  10
BRANCH   7  14
HETATM   14  O1  UNL     1      -0.337   5.005  12.690  1.00  0.00    -0.388 OA
ATOM     15  H1  UNL     1      -0.866   5.792  12.634  1.00  0.00     0.210 HD
ENDBRANCH   7  14
ENDBRANCH   1   2
BRANCH   1  16
HETATM   16  O2  UNL     1      -4.925   4.870  10.101  1.00  0.00    -0.349 OA
ATOM     17  H2  UNL     1      -4.568   4.597   9.264  1.00  0.00     0.219 HD
ENDBRANCH   1  16
BRANCH   1  18
HETATM   18  C10 UNL     1      -4.378   6.325  11.759  1.00  0.00     0.091 C 
BRANCH  18  19
HETATM   19  C11 UNL     1      -4.470   6.157  13.223  1.00  0.00     0.021 C 
HETATM   20  C12 UNL     1      -3.884   4.885  13.791  1.00  0.00     0.238 C 
HETATM   21  N4  UNL     1      -4.383   5.060  15.188  1.00  0.00    -0.066 N 
HETATM   22  C13 UNL     1      -5.829   5.112  14.889  1.00  0.00     0.224 C 
ATOM     23  H42 UNL     1      -4.084   4.363  15.870  1.00  0.00     0.278 HD
ATOM     24  H41 UNL     1      -3.997   5.842  15.715  1.00  0.00     0.278 HD
HETATM   25  C19 UNL     1      -5.981   5.763  13.559  1.00  0.00     0.045 C 
BRANCH  22  26
HETATM   26  C14 UNL     1      -6.378   3.745  15.037  1.00  0.00     0.091 C 
BRANCH  26  27
HETATM   27  N5  UNL     1      -5.703   2.822  15.848  1.00  0.00    -0.387 N 
HETATM   28  C15 UNL     1      -6.398   2.450  17.049  1.00  0.00     0.148 C 
HETATM   29  C16 UNL     1      -6.474   0.952  17.181  1.00  0.00     0.187 C 
HETATM   30  O3  UNL     1      -5.200   0.419  17.330  1.00  0.00    -0.388 OA
HETATM   31  C17 UNL     1      -4.303   1.048  16.490  1.00  0.00     0.187 C 
HETATM   32  C18 UNL     1      -5.024   1.722  15.307  1.00  0.00     0.148 C 
ENDBRANCH  26  27
ENDBRANCH  22  26
ENDBRANCH  18  19
ENDBRANCH   1  18
TORSDOF 10
ENDMDL
MODEL 2
REMARK VINA RESULT: -6.746560178      2.556      4.654
REMARK  10 active torsions:
REMARK  status: ('A' for Active; 'I' for Inactive)
REMARK    1  A    between atoms: C2_2  and  C3_3 
REMARK    2  A    between atoms: C3_3  and  N1_4 
REMARK    3  A    between atoms: N1_4  and  C4_5 
REMARK    4  A    between atoms: C6_9  and  O1_10 
REMARK    5  A    between atoms: N3_14  and  C9_15 
REMARK    6  A    between atoms: C9_15  and  O2_16 
REMARK    7  A    between atoms: C9_15  and  C10_18 
REMARK    8  A    between atoms: C10_18  and  C11_19 
REMARK    9  A    between atoms: C13_24  and  C14_25 
REMARK   10  A    between atoms: C14_25  and  N5_26 
ROOT
HETATM    1  C9  UNL     1      -4.691   2.267  12.993  1.00  0.00     0.126 C 
ENDROOT
BRANCH   1   2
HETATM    2  N3  UNL     1      -3.663   2.257  12.089  1.00  0.00    -0.258 N 
HETATM    3  C4  UNL     1      -3.126   1.032  11.461  1.00  0.00     0.258 C 
HETATM    4  N2  UNL     1      -1.972   1.331  10.590  1.00  0.00    -0.347 N 
HETATM    5  C5  UNL     1      -0.926   2.163  11.102  1.00  0.00     0.161 C 
ATOM      6  H2  UNL     1      -1.921   0.952   9.644  1.00  0.00     0.163 HD
HETATM    7  C6  UNL     1      -1.469   3.491  11.596  1.00  0.00     0.185 C 
HETATM    8  C7  UNL     1      -2.952   3.436  11.691  1.00  0.00     0.043 C 
HETATM    9  C8  UNL     1      -3.635   4.497  11.374  1.00  0.00     0.041 C 
BRANCH   3  10
HETATM   10  N1  UNL     1      -3.583  -0.055  11.566  1.00  0.00    -0.412 NA
BRANCH  10  11
HETATM   11  C3  UNL     1      -4.092  -1.300  11.678  1.00  0.00     0.248 C 
BRANCH  11  12
HETATM   12  C2  UNL     1      -2.902  -2.267  11.465  1.00  0.00    -0.004 C 
HETATM   13  C1  UNL     1      -3.028  -3.489  11.407  1.00  0.00     0.009 C 
ENDBRANCH  11  12
ENDBRANCH  10  11
ENDBRANCH   3  10
BRANCH   7  14
HETATM   14  O1  UNL     1      -0.959   3.772  12.847  1.00  0.00    -0.388 OA
ATOM     15  H1  UNL     1      -1.036   4.701  13.027  1.00  0.00     0.210 HD
ENDBRANCH   7  14
ENDBRANCH   1   2
BRANCH   1  16
HETATM   16  O2  UNL     1      -5.880   2.193  12.407  1.00  0.00    -0.349 OA
ATOM     17  H2  UNL     1      -6.437   1.532  12.801  1.00  0.00     0.219 HD
ENDBRANCH   1  16
BRANCH   1  18
HETATM   18  C10 UNL     1      -4.841   2.335  14.423  1.00  0.00     0.091 C 
BRANCH  18  19
HETATM   19  C11 UNL     1      -5.128   3.651  15.026  1.00  0.00     0.021 C 
HETATM   20  C12 UNL     1      -5.881   4.636  14.162  1.00  0.00     0.238 C 
HETATM   21  N4  UNL     1      -5.747   5.816  15.067  1.00  0.00    -0.066 N 
HETATM   22  C13 UNL     1      -4.271   5.881  15.110  1.00  0.00     0.224 C 
ATOM     23  H42 UNL     1      -6.232   6.667  14.783  1.00  0.00     0.278 HD
ATOM     24  H41 UNL     1      -6.227   5.760  15.964  1.00  0.00     0.278 HD
HETATM   25  C19 UNL     1      -3.766   4.483  15.013  1.00  0.00     0.045 C 
BRANCH  22  26
HETATM   26  C14 UNL     1      -3.824   6.833  14.069  1.00  0.00     0.091 C 
BRANCH  26  27
HETATM   27  N5  UNL     1      -3.351   8.096  14.454  1.00  0.00    -0.387 N 
HETATM   28  C15 UNL     1      -3.107   8.247  15.862  1.00  0.00     0.148 C 
HETATM   29  C16 UNL     1      -1.727   8.794  16.110  1.00  0.00     0.187 C 
HETATM   30  O3  UNL     1      -1.622  10.080  15.592  1.00  0.00    -0.388 OA
HETATM   31  C17 UNL     1      -2.248  10.168  14.365  1.00  0.00     0.187 C 
HETATM   32  C18 UNL     1      -2.384   8.782  13.707  1.00  0.00     0.148 C 
ENDBRANCH  26  27
ENDBRANCH  22  26
ENDBRANCH  18  19
ENDBRANCH   1  18
TORSDOF 10
ENDMDL
MODEL 3
REMARK VINA RESULT: -6.425356671      2.708      7.123
REMARK  10 active torsions:
REMARK  status: ('A' for Active; 'I' for Inactive)
REMARK    1  A    between atoms: C2_2  and  C3_3 
REMARK    2  A    between atoms: C3_3  and  N1_4 
REMARK    3  A    between atoms: N1_4  and  C4_5 
REMARK    4  A    between atoms: C6_9  and  O1_10 
REMARK    5  A    between atoms: N3_14  and  C9_15 
REMARK    6  A    between atoms: C9_15  and  O2_16 
REMARK    7  A    between atoms: C9_15  and  C10_18 
REMARK    8  A    between atoms: C10_18  and  C11_19 
REMARK    9  A    between atoms: C13_24  and  C14_25 
REMARK   10  A    between atoms: C14_25  and  N5_26 
ROOT
HETATM    1  C9  UNL     1      -3.085   3.901  13.967  1.00  0.00     0.126 C 
ENDROOT
BRANCH   1   2
HETATM    2  N3  UNL     1      -4.197   3.323  14.516  1.00  0.00    -0.258 N 
HETATM    3  C4  UNL     1      -5.247   4.070  15.239  1.00  0.00     0.258 C 
HETATM    4  N2  UNL     1      -6.280   3.167  15.782  1.00  0.00    -0.347 N 
HETATM    5  C5  UNL     1      -5.861   2.009  16.512  1.00  0.00     0.161 C 
ATOM      6  H2  UNL     1      -7.271   3.363  15.641  1.00  0.00     0.163 HD
HETATM    7  C6  UNL     1      -4.906   1.158  15.696  1.00  0.00     0.185 C 
HETATM    8  C7  UNL     1      -4.441   1.910  14.500  1.00  0.00     0.043 C 
HETATM    9  C8  UNL     1      -4.273   1.263  13.385  1.00  0.00     0.041 C 
BRANCH   3  10
HETATM   10  N1  UNL     1      -5.318   5.249  15.328  1.00  0.00    -0.412 NA
BRANCH  10  11
HETATM   11  C3  UNL     1      -5.415   6.591  15.428  1.00  0.00     0.248 C 
BRANCH  11  12
HETATM   12  C2  UNL     1      -3.966   7.109  15.609  1.00  0.00    -0.004 C 
HETATM   13  C1  UNL     1      -3.304   7.593  14.691  1.00  0.00     0.009 C 
ENDBRANCH  11  12
ENDBRANCH  10  11
ENDBRANCH   3  10
BRANCH   7  14
HETATM   14  O1  UNL     1      -3.807   0.820  16.458  1.00  0.00    -0.388 OA
ATOM     15  H1  UNL     1      -3.068   0.626  15.893  1.00  0.00     0.210 HD
ENDBRANCH   7  14
ENDBRANCH   1   2
BRANCH   1  16
HETATM   16  O2  UNL     1      -2.125   4.102  14.861  1.00  0.00    -0.349 OA
ATOM     17  H2  UNL     1      -1.547   4.816  14.618  1.00  0.00     0.219 HD
ENDBRANCH   1  16
BRANCH   1  18
HETATM   18  C10 UNL     1      -2.663   4.356  12.668  1.00  0.00     0.091 C 
BRANCH  18  19
HETATM   19  C11 UNL     1      -3.650   4.324  11.570  1.00  0.00     0.021 C 
HETATM   20  C12 UNL     1      -3.110   4.544  10.176  1.00  0.00     0.238 C 
HETATM   21  N4  UNL     1      -4.429   4.637   9.481  1.00  0.00    -0.066 N 
HETATM   22  C13 UNL     1      -4.979   5.788  10.227  1.00  0.00     0.224 C 
ATOM     23  H42 UNL     1      -4.404   4.723   8.465  1.00  0.00     0.278 HD
ATOM     24  H41 UNL     1      -4.996   3.790   9.464  1.00  0.00     0.278 HD
HETATM   25  C19 UNL     1      -4.452   5.704  11.617  1.00  0.00     0.045 C 
BRANCH  22  26
HETATM   26  C14 UNL     1      -4.674   7.018   9.463  1.00  0.00     0.091 C 
BRANCH  26  27
HETATM   27  N5  UNL     1      -5.728   7.776   8.935  1.00  0.00    -0.387 N 
HETATM   28  C15 UNL     1      -6.688   7.027   8.173  1.00  0.00     0.148 C 
HETATM   29  C16 UNL     1      -8.088   7.311   8.650  1.00  0.00     0.187 C 
HETATM   30  O3  UNL     1      -8.412   8.642   8.418  1.00  0.00    -0.388 OA
HETATM   31  C17 UNL     1      -7.344   9.466   8.711  1.00  0.00     0.187 C 
HETATM   32  C18 UNL     1      -6.360   8.782   9.679  1.00  0.00     0.148 C 
ENDBRANCH  26  27
ENDBRANCH  22  26
ENDBRANCH  18  19
ENDBRANCH   1  18
TORSDOF 10
ENDMDL
MODEL 4
REMARK VINA RESULT: -6.421254555      1.959      2.229
REMARK  10 active torsions:
REMARK  status: ('A' for Active; 'I' for Inactive)
REMARK    1  A    between atoms: C2_2  and  C3_3 
REMARK    2  A    between atoms: C3_3  and  N1_4 
REMARK    3  A    between atoms: N1_4  and  C4_5 
REMARK    4  A    between atoms: C6_9  and  O1_10 
REMARK    5  A    between atoms: N3_14  and  C9_15 
REMARK    6  A    between atoms: C9_15  and  O2_16 
REMARK    7  A    between atoms: C9_15  and  C10_18 
REMARK    8  A    between atoms: C10_18  and  C11_19 
REMARK    9  A    between atoms: C13_24  and  C14_25 
REMARK   10  A    between atoms: C14_25  and  N5_26 
ROOT
HETATM    1  C9  UNL     1      -1.819   5.121  13.931  1.00  0.00     0.126 C 
ENDROOT
BRANCH   1   2
HETATM    2  N3  UNL     1      -1.190   4.893  12.737  1.00  0.00    -0.258 N 
HETATM    3  C4  UNL     1      -1.425   3.705  11.891  1.00  0.00     0.258 C 
HETATM    4  N2  UNL     1      -0.547   3.701  10.705  1.00  0.00    -0.347 N 
HETATM    5  C5  UNL     1       0.851   3.949  10.888  1.00  0.00     0.161 C 
ATOM      6  H2  UNL     1      -0.928   3.525   9.775  1.00  0.00     0.163 HD
HETATM    7  C6  UNL     1       1.089   5.258  11.615  1.00  0.00     0.185 C 
HETATM    8  C7  UNL     1      -0.185   5.761  12.197  1.00  0.00     0.043 C 
HETATM    9  C8  UNL     1      -0.407   7.043  12.192  1.00  0.00     0.041 C 
BRANCH   3  10
HETATM   10  N1  UNL     1      -2.254   2.880  12.075  1.00  0.00    -0.412 NA
BRANCH  10  11
HETATM   11  C3  UNL     1      -3.188   1.930  12.292  1.00  0.00     0.248 C 
BRANCH  11  12
HETATM   12  C2  UNL     1      -2.837   0.763  11.337  1.00  0.00    -0.004 C 
HETATM   13  C1  UNL     1      -3.617  -0.153  11.077  1.00  0.00     0.009 C 
ENDBRANCH  11  12
ENDBRANCH  10  11
ENDBRANCH   3  10
BRANCH   7  14
HETATM   14  O1  UNL     1       1.995   5.071  12.638  1.00  0.00    -0.388 OA
ATOM     15  H1  UNL     1       2.344   5.908  12.920  1.00  0.00     0.210 HD
ENDBRANCH   7  14
ENDBRANCH   1   2
BRANCH   1  16
HETATM   16  O2  UNL     1      -1.523   4.202  14.842  1.00  0.00    -0.349 OA
ATOM     17  H2  UNL     1      -1.037   4.562  15.574  1.00  0.00     0.219 HD
ENDBRANCH   1  16
BRANCH   1  18
HETATM   18  C10 UNL     1      -2.724   6.097  14.479  1.00  0.00     0.091 C 
BRANCH  18  19
HETATM   19  C11 UNL     1      -4.169   5.908  14.245  1.00  0.00     0.021 C 
HETATM   20  C12 UNL     1      -5.099   6.455  15.303  1.00  0.00     0.238 C 
HETATM   21  N4  UNL     1      -6.360   5.864  14.764  1.00  0.00    -0.066 N 
HETATM   22  C13 UNL     1      -5.966   4.441  14.820  1.00  0.00     0.224 C 
ATOM     23  H42 UNL     1      -7.224   6.118  15.243  1.00  0.00     0.278 HD
ATOM     24  H41 UNL     1      -6.677   6.214  13.860  1.00  0.00     0.278 HD
HETATM   25  C19 UNL     1      -4.502   4.378  14.558  1.00  0.00     0.045 C 
BRANCH  22  26
HETATM   26  C14 UNL     1      -6.447   3.883  16.104  1.00  0.00     0.091 C 
BRANCH  26  27
HETATM   27  N5  UNL     1      -5.953   2.646  16.541  1.00  0.00    -0.387 N 
HETATM   28  C15 UNL     1      -6.609   2.107  17.699  1.00  0.00     0.148 C 
HETATM   29  C16 UNL     1      -7.041   0.686  17.456  1.00  0.00     0.187 C 
HETATM   30  O3  UNL     1      -5.930  -0.127  17.269  1.00  0.00    -0.388 OA
HETATM   31  C17 UNL     1      -4.983   0.507  16.489  1.00  0.00     0.187 C 
HETATM   32  C18 UNL     1      -5.617   1.626  15.641  1.00  0.00     0.148 C 
ENDBRANCH  26  27
ENDBRANCH  22  26
ENDBRANCH  18  19
ENDBRANCH   1  18
TORSDOF 10
ENDMDL
MODEL 5
REMARK VINA RESULT: -6.402589238      2.516      4.365
REMARK  10 active torsions:
REMARK  status: ('A' for Active; 'I' for Inactive)
REMARK    1  A    between atoms: C2_2  and  C3_3 
REMARK    2  A    between atoms: C3_3  and  N1_4 
REMARK    3  A    between atoms: N1_4  and  C4_5 
REMARK    4  A    between atoms: C6_9  and  O1_10 
REMARK    5  A    between atoms: N3_14  and  C9_15 
REMARK    6  A    between atoms: C9_15  and  O2_16 
REMARK    7  A    between atoms: C9_15  and  C10_18 
REMARK    8  A    between atoms: C10_18  and  C11_19 
REMARK    9  A    between atoms: C13_24  and  C14_25 
REMARK   10  A    between atoms: C14_25  and  N5_26 
ROOT
HETATM    1  C9  UNL     1      -3.955   4.281  10.370  1.00  0.00     0.126 C 
ENDROOT
BRANCH   1   2
HETATM    2  N3  UNL     1      -4.120   5.245   9.413  1.00  0.00    -0.258 N 
HETATM    3  C4  UNL     1      -4.955   6.451   9.589  1.00  0.00     0.258 C 
HETATM    4  N2  UNL     1      -4.998   7.265   8.358  1.00  0.00    -0.347 N 
HETATM    5  C5  UNL     1      -5.271   6.611   7.114  1.00  0.00     0.161 C 
ATOM      6  H2  UNL     1      -4.836   8.272   8.393  1.00  0.00     0.163 HD
HETATM    7  C6  UNL     1      -4.300   5.473   6.864  1.00  0.00     0.185 C 
HETATM    8  C7  UNL     1      -3.539   5.164   8.105  1.00  0.00     0.043 C 
HETATM    9  C8  UNL     1      -2.286   4.832   7.999  1.00  0.00     0.041 C 
BRANCH   3  10
HETATM   10  N1  UNL     1      -5.478   6.787  10.596  1.00  0.00    -0.412 NA
BRANCH  10  11
HETATM   11  C3  UNL     1      -6.086   7.161  11.742  1.00  0.00     0.248 C 
BRANCH  11  12
HETATM   12  C2  UNL     1      -7.252   8.089  11.322  1.00  0.00    -0.004 C 
HETATM   13  C1  UNL     1      -7.893   7.939  10.282  1.00  0.00     0.009 C 
ENDBRANCH  11  12
ENDBRANCH  10  11
ENDBRANCH   3  10
BRANCH   7  14
HETATM   14  O1  UNL     1      -4.989   4.342   6.479  1.00  0.00    -0.388 OA
ATOM     15  H1  UNL     1      -5.907   4.550   6.349  1.00  0.00     0.210 HD
ENDBRANCH   7  14
ENDBRANCH   1   2
BRANCH   1  16
HETATM   16  O2  UNL     1      -4.736   3.227  10.165  1.00  0.00    -0.349 OA
ATOM     17  H2  UNL     1      -5.409   3.140  10.831  1.00  0.00     0.219 HD
ENDBRANCH   1  16
BRANCH   1  18
HETATM   18  C10 UNL     1      -3.157   4.091  11.553  1.00  0.00     0.091 C 
BRANCH  18  19
HETATM   19  C11 UNL     1      -3.655   4.659  12.821  1.00  0.00     0.021 C 
HETATM   20  C12 UNL     1      -2.739   4.537  14.017  1.00  0.00     0.238 C 
HETATM   21  N4  UNL     1      -3.708   5.027  15.042  1.00  0.00    -0.066 N 
HETATM   22  C13 UNL     1      -4.762   4.011  14.838  1.00  0.00     0.224 C 
ATOM     23  H42 UNL     1      -3.354   5.131  15.993  1.00  0.00     0.278 HD
ATOM     24  H41 UNL     1      -3.995   6.002  14.969  1.00  0.00     0.278 HD
HETATM   25  C19 UNL     1      -4.751   3.649  13.393  1.00  0.00     0.045 C 
BRANCH  22  26
HETATM   26  C14 UNL     1      -4.538   2.917  15.809  1.00  0.00     0.091 C 
BRANCH  26  27
HETATM   27  N5  UNL     1      -5.603   2.067  16.140  1.00  0.00    -0.387 N 
HETATM   28  C15 UNL     1      -5.219   0.737  16.522  1.00  0.00     0.148 C 
HETATM   29  C16 UNL     1      -5.857   0.351  17.830  1.00  0.00     0.187 C 
HETATM   30  O3  UNL     1      -7.238   0.295  17.691  1.00  0.00    -0.388 OA
HETATM   31  C17 UNL     1      -7.698   1.344  16.919  1.00  0.00     0.187 C 
HETATM   32  C18 UNL     1      -6.691   2.509  16.905  1.00  0.00     0.148 C 
ENDBRANCH  26  27
ENDBRANCH  22  26
ENDBRANCH  18  19
ENDBRANCH   1  18
TORSDOF 10
ENDMDL
