MODEL 1
REMARK VINA RESULT: -7.160619658      0.000      0.000
REMARK  11 active torsions:
REMARK  status: ('A' for Active; 'I' for Inactive)
REMARK    1  A    between atoms: N1_2  and  O1_3 
REMARK    2  A    between atoms: N1_2  and  C2_5 
REMARK    3  A    between atoms: C2_5  and  O2_6 
REMARK    4  A    between atoms: C2_5  and  C3_8 
REMARK    5  A    between atoms: N2_11  and  C6_12 
REMARK    6  A    between atoms: C6_12  and  O3_13 
REMARK    7  A    between atoms: C6_12  and  C7_15 
REMARK    8  A    between atoms: C7_15  and  N3_16 
REMARK    9  A    between atoms: C7_15  and  C8_20 
REMARK   10  A    between atoms: C8_20  and  N4_21 
REMARK   11  A    between atoms: C8_20  and  C9_25 
ROOT
HETATM    1  C7  UNL     1      -3.472   4.047  10.676  1.00  0.00     0.263 C 
ENDROOT
BRANCH   1   2
HETATM    2  C6  UNL     1      -4.619   3.117  10.953  1.00  0.00     0.272 C 
BRANCH   2   3
HETATM    3  N2  UNL     1      -4.717   2.641  12.311  1.00  0.00    -0.272 N 
HETATM    4  C5  UNL     1      -5.085   3.420  13.334  1.00  0.00     0.114 A 
HETATM    5  C4  UNL     1      -5.177   2.995  14.658  1.00  0.00     0.036 A 
HETATM    6  C3  UNL     1      -4.877   1.709  14.958  1.00  0.00     0.035 A 
HETATM    7  C18 UNL     1      -4.491   0.916  13.845  1.00  0.00     0.123 A 
HETATM    8  N6  UNL     1      -4.427   1.393  12.604  1.00  0.00    -0.307 N 
ATOM      9  H6  UNL     1      -4.141   0.766  11.852  1.00  0.00     0.186 HD
BRANCH   6  10
HETATM   10  C2  UNL     1      -4.914   1.100  16.264  1.00  0.00     0.173 C 
BRANCH  10  11
HETATM   11  N1  UNL     1      -5.987   0.765  17.049  1.00  0.00    -0.243 N 
HETATM   12  C1  UNL     1      -7.109   1.539  17.434  1.00  0.00     0.188 C 
BRANCH  11  13
HETATM   13  O1  UNL     1      -5.991  -0.541  17.558  1.00  0.00    -0.286 OA
ATOM     14  H1  UNL     1      -5.630  -0.617  18.432  1.00  0.00     0.244 HD
ENDBRANCH  11  13
ENDBRANCH  10  11
BRANCH  10  15
HETATM   15  O2  UNL     1      -3.741   0.813  16.807  1.00  0.00    -0.344 OA
ATOM     16  H2  UNL     1      -3.121   1.534  16.788  1.00  0.00     0.219 HD
ENDBRANCH  10  15
ENDBRANCH   6  10
ENDBRANCH   2   3
BRANCH   2  17
HETATM   17  O3  UNL     1      -4.484   1.989  10.135  1.00  0.00    -0.373 OA
ATOM     18  H3  UNL     1      -4.663   2.270   9.246  1.00  0.00     0.212 HD
ENDBRANCH   2  17
ENDBRANCH   1   2
BRANCH   1  19
HETATM   19  N3  UNL     1      -2.294   3.203  10.488  1.00  0.00    -0.069 N 
ATOM     20  H33 UNL     1      -1.418   3.726  10.479  1.00  0.00     0.275 HD
ATOM     21  H32 UNL     1      -2.082   2.617  11.296  1.00  0.00     0.275 HD
ATOM     22  H31 UNL     1      -2.455   2.669   9.633  1.00  0.00     0.275 HD
ENDBRANCH   1  19
BRANCH   1  23
HETATM   23  C8  UNL     1      -3.764   4.953   9.552  1.00  0.00     0.223 C 
BRANCH  23  24
HETATM   24  N4  UNL     1      -2.550   5.563   9.062  1.00  0.00    -0.072 N 
ATOM     25  H43 UNL     1      -2.212   6.292   9.690  1.00  0.00     0.274 HD
ATOM     26  H42 UNL     1      -1.755   4.927   9.123  1.00  0.00     0.274 HD
ATOM     27  H41 UNL     1      -2.681   5.913   8.113  1.00  0.00     0.274 HD
ENDBRANCH  23  24
BRANCH  23  28
HETATM   28  C9  UNL     1      -4.841   5.975   9.769  1.00  0.00     0.044 C 
HETATM   29  C10 UNL     1      -4.700   6.593  11.132  1.00  0.00     0.010 C 
HETATM   30  C11 UNL     1      -4.673   8.094  10.962  1.00  0.00     0.028 C 
HETATM   31  C12 UNL     1      -5.961   8.489  10.277  1.00  0.00     0.237 C 
HETATM   32  N5  UNL     1      -6.161   7.807   9.017  1.00  0.00    -0.063 N 
HETATM   33  C13 UNL     1      -7.386   7.053   8.968  1.00  0.00     0.263 C 
HETATM   34  C16 UNL     1      -6.245   8.854   7.994  1.00  0.00     0.263 C 
HETATM   35  C17 UNL     1      -5.018   6.971   8.677  1.00  0.00     0.244 C 
HETATM   36  C14 UNL     1      -8.615   7.890   8.828  1.00  0.00     0.195 C 
HETATM   37  O4  UNL     1      -8.570   8.817   7.808  1.00  0.00    -0.388 OA
HETATM   38  C15 UNL     1      -7.486   9.675   8.106  1.00  0.00     0.195 C 
ENDBRANCH  23  28
ENDBRANCH   1  23
TORSDOF 11
ENDMDL
MODEL 2
REMARK VINA RESULT: -7.086450999      3.074      4.937
REMARK  11 active torsions:
REMARK  status: ('A' for Active; 'I' for Inactive)
REMARK    1  A    between atoms: N1_2  and  O1_3 
REMARK    2  A    between atoms: N1_2  and  C2_5 
REMARK    3  A    between atoms: C2_5  and  O2_6 
REMARK    4  A    between atoms: C2_5  and  C3_8 
REMARK    5  A    between atoms: N2_11  and  C6_12 
REMARK    6  A    between atoms: C6_12  and  O3_13 
REMARK    7  A    between atoms: C6_12  and  C7_15 
REMARK    8  A    between atoms: C7_15  and  N3_16 
REMARK    9  A    between atoms: C7_15  and  C8_20 
REMARK   10  A    between atoms: C8_20  and  N4_21 
REMARK   11  A    between atoms: C8_20  and  C9_25 
ROOT
HETATM    1  C7  UNL     1      -3.109   3.853  10.592  1.00  0.00     0.263 C 
ENDROOT
BRANCH   1   2
HETATM    2  C6  UNL     1      -4.437   3.235  10.925  1.00  0.00     0.272 C 
BRANCH   2   3
HETATM    3  N2  UNL     1      -4.566   2.732  12.272  1.00  0.00    -0.272 N 
HETATM    4  C5  UNL     1      -4.861   3.511  13.318  1.00  0.00     0.114 A 
HETATM    5  C4  UNL     1      -4.980   3.060  14.631  1.00  0.00     0.036 A 
HETATM    6  C3  UNL     1      -4.786   1.746  14.894  1.00  0.00     0.035 A 
HETATM    7  C18 UNL     1      -4.475   0.954  13.758  1.00  0.00     0.123 A 
HETATM    8  N6  UNL     1      -4.379   1.458  12.529  1.00  0.00    -0.307 N 
ATOM      9  H6  UNL     1      -4.152   0.829  11.758  1.00  0.00     0.186 HD
BRANCH   6  10
HETATM   10  C2  UNL     1      -4.866   1.107  16.184  1.00  0.00     0.173 C 
BRANCH  10  11
HETATM   11  N1  UNL     1      -5.963   0.769  16.933  1.00  0.00    -0.243 N 
HETATM   12  C1  UNL     1      -7.121   1.525  17.243  1.00  0.00     0.188 C 
BRANCH  11  13
HETATM   13  O1  UNL     1      -5.957  -0.519  17.484  1.00  0.00    -0.286 OA
ATOM     14  H1  UNL     1      -5.134  -0.763  17.891  1.00  0.00     0.244 HD
ENDBRANCH  11  13
ENDBRANCH  10  11
BRANCH  10  15
HETATM   15  O2  UNL     1      -3.711   0.791  16.750  1.00  0.00    -0.344 OA
ATOM     16  H2  UNL     1      -2.965   0.855  16.165  1.00  0.00     0.219 HD
ENDBRANCH  10  15
ENDBRANCH   6  10
ENDBRANCH   2   3
BRANCH   2  17
HETATM   17  O3  UNL     1      -4.653   2.152  10.065  1.00  0.00    -0.373 OA
ATOM     18  H3  UNL     1      -4.814   2.515   9.202  1.00  0.00     0.212 HD
ENDBRANCH   2  17
ENDBRANCH   1   2
BRANCH   1  19
HETATM   19  N3  UNL     1      -2.224   2.751  10.222  1.00  0.00    -0.069 N 
ATOM     20  H33 UNL     1      -2.537   1.845  10.572  1.00  0.00     0.275 HD
ATOM     21  H32 UNL     1      -2.256   2.521   9.229  1.00  0.00     0.275 HD
ATOM     22  H31 UNL     1      -1.291   3.010  10.546  1.00  0.00     0.275 HD
ENDBRANCH   1  19
BRANCH   1  23
HETATM   23  C8  UNL     1      -3.239   4.905   9.570  1.00  0.00     0.223 C 
BRANCH  23  24
HETATM   24  N4  UNL     1      -4.614   5.033   9.142  1.00  0.00    -0.072 N 
ATOM     25  H43 UNL     1      -4.850   4.351   8.421  1.00  0.00     0.274 HD
ATOM     26  H42 UNL     1      -5.264   4.725   9.864  1.00  0.00     0.274 HD
ATOM     27  H41 UNL     1      -4.809   5.987   8.839  1.00  0.00     0.274 HD
ENDBRANCH  23  24
BRANCH  23  28
HETATM   28  C9  UNL     1      -2.306   4.830   8.397  1.00  0.00     0.044 C 
HETATM   29  C10 UNL     1      -3.043   5.159   7.129  1.00  0.00     0.010 C 
HETATM   30  C11 UNL     1      -2.278   6.248   6.415  1.00  0.00     0.028 C 
HETATM   31  C12 UNL     1      -0.886   5.721   6.156  1.00  0.00     0.237 C 
HETATM   32  N5  UNL     1      -0.213   5.290   7.362  1.00  0.00    -0.063 N 
HETATM   33  C13 UNL     1       0.200   3.912   7.321  1.00  0.00     0.263 C 
HETATM   34  C16 UNL     1       0.997   6.112   7.471  1.00  0.00     0.263 C 
HETATM   35  C17 UNL     1      -1.018   5.560   8.546  1.00  0.00     0.244 C 
HETATM   36  C14 UNL     1       1.382   3.653   6.446  1.00  0.00     0.195 C 
HETATM   37  O4  UNL     1       2.462   4.481   6.674  1.00  0.00    -0.388 OA
HETATM   38  C15 UNL     1       2.007   5.795   6.419  1.00  0.00     0.195 C 
ENDBRANCH  23  28
ENDBRANCH   1  23
TORSDOF 11
ENDMDL
MODEL 3
REMARK VINA RESULT: -7.083289039      4.459      5.528
REMARK  11 active torsions:
REMARK  status: ('A' for Active; 'I' for Inactive)
REMARK    1  A    between atoms: N1_2  and  O1_3 
REMARK    2  A    between atoms: N1_2  and  C2_5 
REMARK    3  A    between atoms: C2_5  and  O2_6 
REMARK    4  A    between atoms: C2_5  and  C3_8 
REMARK    5  A    between atoms: N2_11  and  C6_12 
REMARK    6  A    between atoms: C6_12  and  O3_13 
REMARK    7  A    between atoms: C6_12  and  C7_15 
REMARK    8  A    between atoms: C7_15  and  N3_16 
REMARK    9  A    between atoms: C7_15  and  C8_20 
REMARK   10  A    between atoms: C8_20  and  N4_21 
REMARK   11  A    between atoms: C8_20  and  C9_25 
ROOT
HETATM    1  C7  UNL     1      -2.077   5.590  13.250  1.00  0.00     0.263 C 
ENDROOT
BRANCH   1   2
HETATM    2  C6  UNL     1      -3.096   4.661  12.655  1.00  0.00     0.272 C 
BRANCH   2   3
HETATM    3  N2  UNL     1      -3.646   3.681  13.561  1.00  0.00    -0.272 N 
HETATM    4  C5  UNL     1      -3.912   3.942  14.846  1.00  0.00     0.114 A 
HETATM    5  C4  UNL     1      -4.430   3.016  15.749  1.00  0.00     0.036 A 
HETATM    6  C3  UNL     1      -4.690   1.757  15.323  1.00  0.00     0.035 A 
HETATM    7  C18 UNL     1      -4.394   1.522  13.955  1.00  0.00     0.123 A 
HETATM    8  N6  UNL     1      -3.899   2.459  13.150  1.00  0.00    -0.307 N 
ATOM      9  H6  UNL     1      -3.710   2.220  12.177  1.00  0.00     0.186 HD
BRANCH   6  10
HETATM   10  C2  UNL     1      -5.222   0.675  16.114  1.00  0.00     0.173 C 
BRANCH  10  11
HETATM   11  N1  UNL     1      -6.074   0.706  17.187  1.00  0.00    -0.243 N 
HETATM   12  C1  UNL     1      -7.420   1.139  17.267  1.00  0.00     0.188 C 
BRANCH  11  13
HETATM   13  O1  UNL     1      -5.550   0.239  18.400  1.00  0.00    -0.286 OA
ATOM     14  H1  UNL     1      -4.949   0.843  18.821  1.00  0.00     0.244 HD
ENDBRANCH  11  13
ENDBRANCH  10  11
BRANCH  10  15
HETATM   15  O2  UNL     1      -4.839  -0.544  15.766  1.00  0.00    -0.344 OA
ATOM     16  H2  UNL     1      -4.181  -0.560  15.081  1.00  0.00     0.219 HD
ENDBRANCH  10  15
ENDBRANCH   6  10
ENDBRANCH   2   3
BRANCH   2  17
HETATM   17  O3  UNL     1      -2.494   3.953  11.608  1.00  0.00    -0.373 OA
ATOM     18  H3  UNL     1      -2.880   4.274  10.801  1.00  0.00     0.212 HD
ENDBRANCH   2  17
ENDBRANCH   1   2
BRANCH   1  19
HETATM   19  N3  UNL     1      -0.798   4.883  13.203  1.00  0.00    -0.069 N 
ATOM     20  H33 UNL     1      -0.795   4.016  13.739  1.00  0.00     0.275 HD
ATOM     21  H32 UNL     1      -0.597   4.470  12.293  1.00  0.00     0.275 HD
ATOM     22  H31 UNL     1      -0.089   5.551  13.509  1.00  0.00     0.275 HD
ENDBRANCH   1  19
BRANCH   1  23
HETATM   23  C8  UNL     1      -2.078   6.901  12.581  1.00  0.00     0.223 C 
BRANCH  23  24
HETATM   24  N4  UNL     1      -1.024   6.971  11.594  1.00  0.00    -0.072 N 
ATOM     25  H43 UNL     1      -0.286   6.293  11.782  1.00  0.00     0.274 HD
ATOM     26  H42 UNL     1      -1.331   6.618  10.688  1.00  0.00     0.274 HD
ATOM     27  H41 UNL     1      -0.658   7.920  11.526  1.00  0.00     0.274 HD
ENDBRANCH  23  24
BRANCH  23  28
HETATM   28  C9  UNL     1      -2.080   8.113  13.465  1.00  0.00     0.044 C 
HETATM   29  C10 UNL     1      -3.043   7.920  14.604  1.00  0.00     0.010 C 
HETATM   30  C11 UNL     1      -2.303   8.193  15.892  1.00  0.00     0.028 C 
HETATM   31  C12 UNL     1      -1.775   9.607  15.813  1.00  0.00     0.237 C 
HETATM   32  N5  UNL     1      -0.941   9.833  14.653  1.00  0.00    -0.063 N 
HETATM   33  C13 UNL     1      -1.422  10.894  13.807  1.00  0.00     0.263 C 
HETATM   34  C16 UNL     1       0.372  10.237  15.165  1.00  0.00     0.263 C 
HETATM   35  C17 UNL     1      -0.742   8.607  13.892  1.00  0.00     0.244 C 
HETATM   36  C14 UNL     1      -1.204  12.264  14.358  1.00  0.00     0.195 C 
HETATM   37  O4  UNL     1       0.085  12.519  14.779  1.00  0.00    -0.388 OA
HETATM   38  C15 UNL     1       0.354  11.585  15.805  1.00  0.00     0.195 C 
ENDBRANCH  23  28
ENDBRANCH   1  23
TORSDOF 11
ENDMDL
MODEL 4
REMARK VINA RESULT: -7.082739421      3.345      4.954
REMARK  11 active torsions:
REMARK  status: ('A' for Active; 'I' for Inactive)
REMARK    1  A    between atoms: N1_2  and  O1_3 
REMARK    2  A    between atoms: N1_2  and  C2_5 
REMARK    3  A    between atoms: C2_5  and  O2_6 
REMARK    4  A    between atoms: C2_5  and  C3_8 
REMARK    5  A    between atoms: N2_11  and  C6_12 
REMARK    6  A    between atoms: C6_12  and  O3_13 
REMARK    7  A    between atoms: C6_12  and  C7_15 
REMARK    8  A    between atoms: C7_15  and  N3_16 
REMARK    9  A    between atoms: C7_15  and  C8_20 
REMARK   10  A    between atoms: C8_20  and  N4_21 
REMARK   11  A    between atoms: C8_20  and  C9_25 
ROOT
HETATM    1  C7  UNL     1      -3.651   3.890  10.457  1.00  0.00     0.263 C 
ENDROOT
BRANCH   1   2
HETATM    2  C6  UNL     1      -3.916   4.638  11.732  1.00  0.00     0.272 C 
BRANCH   2   3
HETATM    3  N2  UNL     1      -4.158   3.816  12.894  1.00  0.00    -0.272 N 
HETATM    4  C5  UNL     1      -4.249   4.311  14.133  1.00  0.00     0.114 A 
HETATM    5  C4  UNL     1      -4.468   3.545  15.275  1.00  0.00     0.036 A 
HETATM    6  C3  UNL     1      -4.600   2.202  15.151  1.00  0.00     0.035 A 
HETATM    7  C18 UNL     1      -4.496   1.718  13.821  1.00  0.00     0.123 A 
HETATM    8  N6  UNL     1      -4.286   2.514  12.775  1.00  0.00    -0.307 N 
ATOM      9  H6  UNL     1      -4.222   2.097  11.847  1.00  0.00     0.186 HD
BRANCH   6  10
HETATM   10  C2  UNL     1      -4.826   1.259  16.217  1.00  0.00     0.173 C 
BRANCH  10  11
HETATM   11  N1  UNL     1      -5.996   0.881  16.825  1.00  0.00    -0.243 N 
HETATM   12  C1  UNL     1      -7.187   1.618  17.044  1.00  0.00     0.188 C 
BRANCH  11  13
HETATM   13  O1  UNL     1      -6.039  -0.433  17.310  1.00  0.00    -0.286 OA
ATOM     14  H1  UNL     1      -5.523  -1.050  16.805  1.00  0.00     0.244 HD
ENDBRANCH  11  13
ENDBRANCH  10  11
BRANCH  10  15
HETATM   15  O2  UNL     1      -3.752   0.654  16.699  1.00  0.00    -0.344 OA
ATOM     16  H2  UNL     1      -3.175   0.303  16.030  1.00  0.00     0.219 HD
ENDBRANCH  10  15
ENDBRANCH   6  10
ENDBRANCH   2   3
BRANCH   2  17
HETATM   17  O3  UNL     1      -5.054   5.433  11.553  1.00  0.00    -0.373 OA
ATOM     18  H3  UNL     1      -4.824   6.105  10.922  1.00  0.00     0.212 HD
ENDBRANCH   2  17
ENDBRANCH   1   2
BRANCH   1  19
HETATM   19  N3  UNL     1      -4.406   4.578   9.411  1.00  0.00    -0.069 N 
ATOM     20  H33 UNL     1      -4.654   3.974   8.628  1.00  0.00     0.275 HD
ATOM     21  H32 UNL     1      -5.357   4.819   9.690  1.00  0.00     0.275 HD
ATOM     22  H31 UNL     1      -3.847   5.387   9.138  1.00  0.00     0.275 HD
ENDBRANCH   1  19
BRANCH   1  23
HETATM   23  C8  UNL     1      -2.209   3.762  10.189  1.00  0.00     0.223 C 
BRANCH  23  24
HETATM   24  N4  UNL     1      -1.818   2.371  10.150  1.00  0.00    -0.072 N 
ATOM     25  H43 UNL     1      -1.284   2.152   9.309  1.00  0.00     0.274 HD
ATOM     26  H42 UNL     1      -1.103   2.160  10.845  1.00  0.00     0.274 HD
ATOM     27  H41 UNL     1      -2.633   1.766  10.249  1.00  0.00     0.274 HD
ENDBRANCH  23  24
BRANCH  23  28
HETATM   28  C9  UNL     1      -1.285   4.565  11.058  1.00  0.00     0.044 C 
HETATM   29  C10 UNL     1      -0.355   3.650  11.806  1.00  0.00     0.010 C 
HETATM   30  C11 UNL     1       1.059   4.121  11.558  1.00  0.00     0.028 C 
HETATM   31  C12 UNL     1       1.144   5.552  12.037  1.00  0.00     0.237 C 
HETATM   32  N5  UNL     1       0.169   6.416  11.408  1.00  0.00    -0.063 N 
HETATM   33  C13 UNL     1      -0.702   7.069  12.349  1.00  0.00     0.263 C 
HETATM   34  C16 UNL     1       0.933   7.458  10.715  1.00  0.00     0.263 C 
HETATM   35  C17 UNL     1      -0.597   5.704  10.393  1.00  0.00     0.244 C 
HETATM   36  C14 UNL     1      -0.057   8.181  13.111  1.00  0.00     0.195 C 
HETATM   37  O4  UNL     1       0.605   9.107  12.332  1.00  0.00    -0.388 OA
HETATM   38  C15 UNL     1       1.620   8.393  11.654  1.00  0.00     0.195 C 
ENDBRANCH  23  28
ENDBRANCH   1  23
TORSDOF 11
ENDMDL
MODEL 5
REMARK VINA RESULT: -7.021070150      2.925      5.436
REMARK  11 active torsions:
REMARK  status: ('A' for Active; 'I' for Inactive)
REMARK    1  A    between atoms: N1_2  and  O1_3 
REMARK    2  A    between atoms: N1_2  and  C2_5 
REMARK    3  A    between atoms: C2_5  and  O2_6 
REMARK    4  A    between atoms: C2_5  and  C3_8 
REMARK    5  A    between atoms: N2_11  and  C6_12 
REMARK    6  A    between atoms: C6_12  and  O3_13 
REMARK    7  A    between atoms: C6_12  and  C7_15 
REMARK    8  A    between atoms: C7_15  and  N3_16 
REMARK    9  A    between atoms: C7_15  and  C8_20 
REMARK   10  A    between atoms: C8_20  and  N4_21 
REMARK   11  A    between atoms: C8_20  and  C9_25 
ROOT
HETATM    1  C7  UNL     1      -4.553   6.072  11.949  1.00  0.00     0.263 C 
ENDROOT
BRANCH   1   2
HETATM    2  C6  UNL     1      -5.218   6.168  13.293  1.00  0.00     0.272 C 
BRANCH   2   3
HETATM    3  N2  UNL     1      -5.072   5.009  14.141  1.00  0.00    -0.272 N 
HETATM    4  C5  UNL     1      -3.983   4.779  14.882  1.00  0.00     0.114 A 
HETATM    5  C4  UNL     1      -3.806   3.665  15.700  1.00  0.00     0.036 A 
HETATM    6  C3  UNL     1      -4.788   2.734  15.766  1.00  0.00     0.035 A 
HETATM    7  C18 UNL     1      -5.925   3.016  14.964  1.00  0.00     0.123 A 
HETATM    8  N6  UNL     1      -6.024   4.106  14.206  1.00  0.00    -0.307 N 
ATOM      9  H6  UNL     1      -6.871   4.245  13.655  1.00  0.00     0.186 HD
BRANCH   6  10
HETATM   10  C2  UNL     1      -4.776   1.526  16.551  1.00  0.00     0.173 C 
BRANCH  10  11
HETATM   11  N1  UNL     1      -5.736   1.004  17.380  1.00  0.00    -0.243 N 
HETATM   12  C1  UNL     1      -6.507   1.635  18.388  1.00  0.00     0.188 C 
BRANCH  11  13
HETATM   13  O1  UNL     1      -6.009  -0.361  17.221  1.00  0.00    -0.286 OA
ATOM     14  H1  UNL     1      -6.095  -0.837  18.038  1.00  0.00     0.244 HD
ENDBRANCH  11  13
ENDBRANCH  10  11
BRANCH  10  15
HETATM   15  O2  UNL     1      -3.676   0.792  16.475  1.00  0.00    -0.344 OA
ATOM     16  H2  UNL     1      -2.880   1.301  16.376  1.00  0.00     0.219 HD
ENDBRANCH  10  15
ENDBRANCH   6  10
ENDBRANCH   2   3
BRANCH   2  17
HETATM   17  O3  UNL     1      -6.590   6.358  13.097  1.00  0.00    -0.373 OA
ATOM     18  H3  UNL     1      -6.910   5.595  12.631  1.00  0.00     0.212 HD
ENDBRANCH   2  17
ENDBRANCH   1   2
BRANCH   1  19
HETATM   19  N3  UNL     1      -4.343   7.445  11.494  1.00  0.00    -0.069 N 
ATOM     20  H33 UNL     1      -3.504   7.876  11.881  1.00  0.00     0.275 HD
ATOM     21  H32 UNL     1      -4.077   7.509  10.512  1.00  0.00     0.275 HD
ATOM     22  H31 UNL     1      -5.200   7.955  11.714  1.00  0.00     0.275 HD
ENDBRANCH   1  19
BRANCH   1  23
HETATM   23  C8  UNL     1      -3.331   5.251  12.004  1.00  0.00     0.223 C 
BRANCH  23  24
HETATM   24  N4  UNL     1      -2.176   6.030  11.622  1.00  0.00    -0.072 N 
ATOM     25  H43 UNL     1      -1.577   5.524  10.969  1.00  0.00     0.274 HD
ATOM     26  H42 UNL     1      -2.430   6.814  11.022  1.00  0.00     0.274 HD
ATOM     27  H41 UNL     1      -1.661   6.337  12.447  1.00  0.00     0.274 HD
ENDBRANCH  23  24
BRANCH  23  28
HETATM   28  C9  UNL     1      -3.366   3.936  11.282  1.00  0.00     0.044 C 
HETATM   29  C10 UNL     1      -2.566   4.023  10.012  1.00  0.00     0.010 C 
HETATM   30  C11 UNL     1      -1.575   2.882  10.007  1.00  0.00     0.028 C 
HETATM   31  C12 UNL     1      -2.369   1.600  10.105  1.00  0.00     0.237 C 
HETATM   32  N5  UNL     1      -3.233   1.559  11.264  1.00  0.00    -0.063 N 
HETATM   33  C13 UNL     1      -4.620   1.370  10.932  1.00  0.00     0.263 C 
HETATM   34  C16 UNL     1      -2.805   0.400  12.053  1.00  0.00     0.263 C 
HETATM   35  C17 UNL     1      -3.053   2.736  12.105  1.00  0.00     0.244 C 
HETATM   36  C14 UNL     1      -4.963  -0.018  10.501  1.00  0.00     0.195 C 
HETATM   37  O4  UNL     1      -4.523  -1.012  11.350  1.00  0.00    -0.388 OA
HETATM   38  C15 UNL     1      -3.114  -0.899  11.388  1.00  0.00     0.195 C 
ENDBRANCH  23  28
ENDBRANCH   1  23
TORSDOF 11
ENDMDL
