MODEL 1
REMARK VINA RESULT: -7.626677824      0.000      0.000
REMARK  9 active torsions:
REMARK  status: ('A' for Active; 'I' for Inactive)
REMARK    1  A    between atoms: C3_3  and  O1_4 
REMARK    2  A    between atoms: C4_6  and  C5_7 
REMARK    3  A    between atoms: C5_7  and  O3_9 
REMARK    4  A    between atoms: O3_9  and  C6_10 
REMARK    5  A    between atoms: C7_11  and  N1_12 
REMARK    6  A    between atoms: N1_12  and  N2_14 
REMARK    7  A    between atoms: N2_14  and  N3_15 
REMARK    8  A    between atoms: C10_20  and  O4_21 
REMARK    9  A    between atoms: C18_31  and  O6_32 
ROOT
HETATM    1  C1  UNL     1      -7.067   3.110  17.102  1.00  0.00     0.105 C 
HETATM    2  C2  UNL     1      -6.490   2.040  16.960  1.00  0.00    -0.124 C 
HETATM    3  C3  UNL     1      -5.838   0.786  16.816  1.00  0.00     0.112 C 
HETATM    4  C4  UNL     1      -4.799   0.669  16.045  1.00  0.00     0.127 C 
ENDROOT
BRANCH   3   5
HETATM    5  O1  UNL     1      -6.318  -0.309  17.502  1.00  0.00    -0.353 OA
ATOM      6  H1  UNL     1      -6.109  -0.410  18.424  1.00  0.00     0.218 HD
ENDBRANCH   3   5
BRANCH   4   7
HETATM    7  C5  UNL     1      -4.190   1.733  15.267  1.00  0.00     0.286 C 
HETATM    8  O2  UNL     1      -3.323   2.483  15.789  1.00  0.00    -0.260 OA
BRANCH   7   9
HETATM    9  O3  UNL     1      -4.484   2.014  13.947  1.00  0.00    -0.305 OA
BRANCH   9  10
HETATM   10  C6  UNL     1      -3.467   2.311  12.976  1.00  0.00     0.220 C 
HETATM   11  C7  UNL     1      -3.899   1.660  11.683  1.00  0.00     0.150 C 
HETATM   12  C8  UNL     1      -4.531   2.746  10.849  1.00  0.00     0.049 C 
HETATM   13  C9  UNL     1      -3.834   3.977  11.326  1.00  0.00     0.054 C 
HETATM   14  C10 UNL     1      -4.359   5.280  10.863  1.00  0.00     0.141 C 
HETATM   15  C18 UNL     1      -3.377   3.795  12.720  1.00  0.00     0.202 C 
HETATM   16  C19 UNL     1      -2.551   4.339  10.640  1.00  0.00     0.046 C 
HETATM   17  C11 UNL     1      -3.233   5.398   9.863  1.00  0.00    -0.009 C 
HETATM   18  C12 UNL     1      -3.607   4.942   8.449  1.00  0.00     0.018 C 
HETATM   19  C13 UNL     1      -2.392   6.623   9.887  1.00  0.00     0.016 C 
HETATM   20  C14 UNL     1      -0.886   6.316  10.039  1.00  0.00     0.037 C 
HETATM   21  C15 UNL     1      -0.665   5.588  11.326  1.00  0.00    -0.060 C 
HETATM   22  C16 UNL     1       0.497   5.460  11.880  1.00  0.00     0.017 C 
HETATM   23  C17 UNL     1      -1.900   5.064  11.841  1.00  0.00     0.159 C 
HETATM   24  O5  UNL     1      -1.988   4.107  12.767  1.00  0.00    -0.342 OA
BRANCH  11  25
HETATM   25  N1  UNL     1      -4.763   0.545  11.930  1.00  0.00    -0.245 N 
ATOM     26  H1  UNL     1      -5.713   0.735  12.251  1.00  0.00     0.197 HD
BRANCH  25  27
HETATM   27  N2  UNL     1      -4.431  -0.612  11.781  1.00  0.00    -0.248 NA
BRANCH  27  28
HETATM   28  N3  UNL     1      -3.765  -1.614  11.519  1.00  0.00    -0.261 N 
ATOM     29  H32 UNL     1      -3.011  -1.110  11.050  1.00  0.00     0.193 HD
ATOM     30  H31 UNL     1      -3.459  -2.585  11.453  1.00  0.00     0.193 HD
ENDBRANCH  27  28
ENDBRANCH  25  27
ENDBRANCH  11  25
BRANCH  14  31
HETATM   31  O4  UNL     1      -5.567   5.091  10.155  1.00  0.00    -0.394 OA
ATOM     32  H4  UNL     1      -5.390   5.027   9.223  1.00  0.00     0.210 HD
ENDBRANCH  14  31
BRANCH  15  33
HETATM   33  O6  UNL     1      -4.073   4.523  13.668  1.00  0.00    -0.362 OA
ATOM     34  H6  UNL     1      -4.695   3.983  14.140  1.00  0.00     0.213 HD
ENDBRANCH  15  33
ENDBRANCH   9  10
ENDBRANCH   7   9
ENDBRANCH   4   7
TORSDOF 9
ENDMDL
MODEL 2
REMARK VINA RESULT: -7.620952939      2.135      2.436
REMARK  9 active torsions:
REMARK  status: ('A' for Active; 'I' for Inactive)
REMARK    1  A    between atoms: C3_3  and  O1_4 
REMARK    2  A    between atoms: C4_6  and  C5_7 
REMARK    3  A    between atoms: C5_7  and  O3_9 
REMARK    4  A    between atoms: O3_9  and  C6_10 
REMARK    5  A    between atoms: C7_11  and  N1_12 
REMARK    6  A    between atoms: N1_12  and  N2_14 
REMARK    7  A    between atoms: N2_14  and  N3_15 
REMARK    8  A    between atoms: C10_20  and  O4_21 
REMARK    9  A    between atoms: C18_31  and  O6_32 
ROOT
HETATM    1  C1  UNL     1      -7.052   3.579  17.133  1.00  0.00     0.105 C 
HETATM    2  C2  UNL     1      -6.659   2.435  16.944  1.00  0.00    -0.124 C 
HETATM    3  C3  UNL     1      -6.227   1.098  16.740  1.00  0.00     0.112 C 
HETATM    4  C4  UNL     1      -5.082   0.854  16.175  1.00  0.00     0.127 C 
ENDROOT
BRANCH   3   5
HETATM    5  O1  UNL     1      -7.034   0.057  17.145  1.00  0.00    -0.353 OA
ATOM      6  H1  UNL     1      -7.897  -0.041  16.760  1.00  0.00     0.218 HD
ENDBRANCH   3   5
BRANCH   4   7
HETATM    7  C5  UNL     1      -4.137   1.848  15.702  1.00  0.00     0.286 C 
HETATM    8  O2  UNL     1      -3.054   2.039  16.318  1.00  0.00    -0.260 OA
BRANCH   7   9
HETATM    9  O3  UNL     1      -4.318   2.643  14.587  1.00  0.00    -0.305 OA
BRANCH   9  10
HETATM   10  C6  UNL     1      -3.381   3.662  14.203  1.00  0.00     0.220 C 
HETATM   11  C7  UNL     1      -2.837   3.266  12.851  1.00  0.00     0.150 C 
HETATM   12  C8  UNL     1      -3.605   4.068  11.831  1.00  0.00     0.049 C 
HETATM   13  C9  UNL     1      -3.979   5.297  12.590  1.00  0.00     0.054 C 
HETATM   14  C10 UNL     1      -4.931   6.231  11.951  1.00  0.00     0.141 C 
HETATM   15  C18 UNL     1      -4.066   4.996  14.035  1.00  0.00     0.202 C 
HETATM   16  C19 UNL     1      -2.991   6.426  12.585  1.00  0.00     0.046 C 
HETATM   17  C11 UNL     1      -3.801   7.166  11.591  1.00  0.00    -0.009 C 
HETATM   18  C12 UNL     1      -3.281   6.991  10.160  1.00  0.00     0.018 C 
HETATM   19  C13 UNL     1      -3.895   8.587  12.017  1.00  0.00     0.016 C 
HETATM   20  C14 UNL     1      -2.679   9.048  12.849  1.00  0.00     0.037 C 
HETATM   21  C15 UNL     1      -2.586   8.208  14.082  1.00  0.00    -0.060 C 
HETATM   22  C16 UNL     1      -1.873   8.534  15.112  1.00  0.00     0.017 C 
HETATM   23  C17 UNL     1      -3.382   7.018  13.958  1.00  0.00     0.159 C 
HETATM   24  O5  UNL     1      -3.248   5.935  14.726  1.00  0.00    -0.342 OA
BRANCH  11  25
HETATM   25  N1  UNL     1      -2.925   1.849  12.655  1.00  0.00    -0.245 N 
ATOM     26  H1  UNL     1      -3.620   1.332  13.192  1.00  0.00     0.197 HD
BRANCH  25  27
HETATM   27  N2  UNL     1      -2.218   1.230  11.888  1.00  0.00    -0.248 NA
BRANCH  27  28
HETATM   28  N3  UNL     1      -1.745   0.758  10.853  1.00  0.00    -0.261 N 
ATOM     29  H32 UNL     1      -1.736   1.640  10.340  1.00  0.00     0.193 HD
ATOM     30  H31 UNL     1      -1.362   0.101  10.173  1.00  0.00     0.193 HD
ENDBRANCH  27  28
ENDBRANCH  25  27
ENDBRANCH  11  25
BRANCH  14  31
HETATM   31  O4  UNL     1      -5.438   5.664  10.760  1.00  0.00    -0.394 OA
ATOM     32  H4  UNL     1      -6.362   5.865  10.672  1.00  0.00     0.210 HD
ENDBRANCH  14  31
BRANCH  15  33
HETATM   33  O6  UNL     1      -5.346   4.986  14.559  1.00  0.00    -0.362 OA
ATOM     34  H6  UNL     1      -5.722   5.858  14.588  1.00  0.00     0.213 HD
ENDBRANCH  15  33
ENDBRANCH   9  10
ENDBRANCH   7   9
ENDBRANCH   4   7
TORSDOF 9
ENDMDL
MODEL 3
REMARK VINA RESULT: -7.439532694      2.818      4.512
REMARK  9 active torsions:
REMARK  status: ('A' for Active; 'I' for Inactive)
REMARK    1  A    between atoms: C3_3  and  O1_4 
REMARK    2  A    between atoms: C4_6  and  C5_7 
REMARK    3  A    between atoms: C5_7  and  O3_9 
REMARK    4  A    between atoms: O3_9  and  C6_10 
REMARK    5  A    between atoms: C7_11  and  N1_12 
REMARK    6  A    between atoms: N1_12  and  N2_14 
REMARK    7  A    between atoms: N2_14  and  N3_15 
REMARK    8  A    between atoms: C10_20  and  O4_21 
REMARK    9  A    between atoms: C18_31  and  O6_32 
ROOT
HETATM    1  C1  UNL     1      -3.467   7.300  12.621  1.00  0.00     0.105 C 
HETATM    2  C2  UNL     1      -3.797   7.206  13.796  1.00  0.00    -0.124 C 
HETATM    3  C3  UNL     1      -4.158   7.115  15.167  1.00  0.00     0.112 C 
HETATM    4  C4  UNL     1      -5.091   6.296  15.550  1.00  0.00     0.127 C 
ENDROOT
BRANCH   3   5
HETATM    5  O1  UNL     1      -3.509   7.906  16.091  1.00  0.00    -0.353 OA
ATOM      6  H1  UNL     1      -3.446   7.613  16.993  1.00  0.00     0.218 HD
ENDBRANCH   3   5
BRANCH   4   7
HETATM    7  C5  UNL     1      -5.852   5.410  14.689  1.00  0.00     0.286 C 
HETATM    8  O2  UNL     1      -6.789   5.864  13.979  1.00  0.00    -0.260 OA
BRANCH   7   9
HETATM    9  O3  UNL     1      -5.638   4.051  14.567  1.00  0.00    -0.305 OA
BRANCH   9  10
HETATM   10  C6  UNL     1      -4.341   3.494  14.300  1.00  0.00     0.220 C 
HETATM   11  C7  UNL     1      -4.379   2.059  14.768  1.00  0.00     0.150 C 
HETATM   12  C8  UNL     1      -4.616   1.216  13.541  1.00  0.00     0.049 C 
HETATM   13  C9  UNL     1      -4.015   2.041  12.452  1.00  0.00     0.054 C 
HETATM   14  C10 UNL     1      -4.254   1.609  11.058  1.00  0.00     0.141 C 
HETATM   15  C18 UNL     1      -4.052   3.472  12.819  1.00  0.00     0.202 C 
HETATM   16  C19 UNL     1      -2.553   1.845  12.180  1.00  0.00     0.046 C 
HETATM   17  C11 UNL     1      -2.858   1.036  10.978  1.00  0.00    -0.009 C 
HETATM   18  C12 UNL     1      -2.787  -0.470  11.249  1.00  0.00     0.018 C 
HETATM   19  C13 UNL     1      -1.974   1.481   9.868  1.00  0.00     0.016 C 
HETATM   20  C14 UNL     1      -0.630   2.057  10.364  1.00  0.00     0.037 C 
HETATM   21  C15 UNL     1      -0.899   3.243  11.233  1.00  0.00    -0.060 C 
HETATM   22  C16 UNL     1       0.006   4.112  11.549  1.00  0.00     0.017 C 
HETATM   23  C17 UNL     1      -2.272   3.272  11.655  1.00  0.00     0.159 C 
HETATM   24  O5  UNL     1      -2.734   3.992  12.679  1.00  0.00    -0.342 OA
BRANCH  11  25
HETATM   25  N1  UNL     1      -5.364   1.876  15.792  1.00  0.00    -0.245 N 
ATOM     26  H1  UNL     1      -5.923   2.683  16.071  1.00  0.00     0.197 HD
BRANCH  25  27
HETATM   27  N2  UNL     1      -5.571   0.819  16.348  1.00  0.00    -0.248 NA
BRANCH  27  28
HETATM   28  N3  UNL     1      -5.817  -0.020  17.217  1.00  0.00    -0.261 N 
ATOM     29  H32 UNL     1      -5.137   0.337  17.890  1.00  0.00     0.193 HD
ATOM     30  H31 UNL     1      -6.228  -0.811  17.713  1.00  0.00     0.193 HD
ENDBRANCH  27  28
ENDBRANCH  25  27
ENDBRANCH  11  25
BRANCH  14  31
HETATM   31  O4  UNL     1      -5.176   0.539  11.035  1.00  0.00    -0.394 OA
ATOM     32  H4  UNL     1      -5.959   0.795  10.561  1.00  0.00     0.210 HD
ENDBRANCH  14  31
BRANCH  15  33
HETATM   33  O6  UNL     1      -4.957   4.240  12.108  1.00  0.00    -0.362 OA
ATOM     34  H6  UNL     1      -4.654   4.415  11.225  1.00  0.00     0.213 HD
ENDBRANCH  15  33
ENDBRANCH   9  10
ENDBRANCH   7   9
ENDBRANCH   4   7
TORSDOF 9
ENDMDL
MODEL 4
REMARK VINA RESULT: -7.352627952      2.987      4.942
REMARK  9 active torsions:
REMARK  status: ('A' for Active; 'I' for Inactive)
REMARK    1  A    between atoms: C3_3  and  O1_4 
REMARK    2  A    between atoms: C4_6  and  C5_7 
REMARK    3  A    between atoms: C5_7  and  O3_9 
REMARK    4  A    between atoms: O3_9  and  C6_10 
REMARK    5  A    between atoms: C7_11  and  N1_12 
REMARK    6  A    between atoms: N1_12  and  N2_14 
REMARK    7  A    between atoms: N2_14  and  N3_15 
REMARK    8  A    between atoms: C10_20  and  O4_21 
REMARK    9  A    between atoms: C18_31  and  O6_32 
ROOT
HETATM    1  C1  UNL     1      -1.381   1.124  10.752  1.00  0.00     0.105 C 
HETATM    2  C2  UNL     1      -2.192   0.274  11.098  1.00  0.00    -0.124 C 
HETATM    3  C3  UNL     1      -3.113  -0.734  11.490  1.00  0.00     0.112 C 
HETATM    4  C4  UNL     1      -4.302  -0.414  11.905  1.00  0.00     0.127 C 
ENDROOT
BRANCH   3   5
HETATM    5  O1  UNL     1      -2.735  -2.058  11.427  1.00  0.00    -0.353 OA
ATOM      6  H1  UNL     1      -3.267  -2.672  10.934  1.00  0.00     0.218 HD
ENDBRANCH   3   5
BRANCH   4   7
HETATM    7  C5  UNL     1      -4.830   0.933  12.021  1.00  0.00     0.286 C 
HETATM    8  O2  UNL     1      -5.573   1.403  11.119  1.00  0.00    -0.260 OA
BRANCH   7   9
HETATM    9  O3  UNL     1      -4.585   1.789  13.078  1.00  0.00    -0.305 OA
BRANCH   9  10
HETATM   10  C6  UNL     1      -5.160   3.103  13.156  1.00  0.00     0.220 C 
HETATM   11  C7  UNL     1      -5.210   3.469  14.620  1.00  0.00     0.150 C 
HETATM   12  C8  UNL     1      -4.014   4.349  14.882  1.00  0.00     0.049 C 
HETATM   13  C9  UNL     1      -3.782   4.994  13.556  1.00  0.00     0.054 C 
HETATM   14  C10 UNL     1      -2.539   5.777  13.387  1.00  0.00     0.141 C 
HETATM   15  C18 UNL     1      -4.282   4.122  12.472  1.00  0.00     0.202 C 
HETATM   16  C19 UNL     1      -4.528   6.265  13.280  1.00  0.00     0.046 C 
HETATM   17  C11 UNL     1      -3.311   7.067  13.538  1.00  0.00    -0.009 C 
HETATM   18  C12 UNL     1      -3.279   7.649  14.955  1.00  0.00     0.018 C 
HETATM   19  C13 UNL     1      -3.184   8.096  12.472  1.00  0.00     0.016 C 
HETATM   20  C14 UNL     1      -4.545   8.518  11.878  1.00  0.00     0.037 C 
HETATM   21  C15 UNL     1      -5.207   7.320  11.278  1.00  0.00    -0.060 C 
HETATM   22  C16 UNL     1      -6.199   7.397  10.450  1.00  0.00     0.017 C 
HETATM   23  C17 UNL     1      -4.597   6.106  11.743  1.00  0.00     0.159 C 
HETATM   24  O5  UNL     1      -5.158   4.897  11.659  1.00  0.00    -0.342 OA
BRANCH  11  25
HETATM   25  N1  UNL     1      -5.256   2.297  15.443  1.00  0.00    -0.245 N 
ATOM     26  H1  UNL     1      -4.608   1.537  15.234  1.00  0.00     0.197 HD
BRANCH  25  27
HETATM   27  N2  UNL     1      -6.020   2.156  16.374  1.00  0.00    -0.248 NA
BRANCH  27  28
HETATM   28  N3  UNL     1      -7.052   2.109  17.045  1.00  0.00    -0.261 N 
ATOM     29  H32 UNL     1      -7.685   2.276  16.262  1.00  0.00     0.193 HD
ATOM     30  H31 UNL     1      -7.693   2.019  17.834  1.00  0.00     0.193 HD
ENDBRANCH  27  28
ENDBRANCH  25  27
ENDBRANCH  11  25
BRANCH  14  31
HETATM   31  O4  UNL     1      -1.710   5.620  14.521  1.00  0.00    -0.394 OA
ATOM     32  H4  UNL     1      -1.987   6.211  15.211  1.00  0.00     0.210 HD
ENDBRANCH  14  31
BRANCH  15  33
HETATM   33  O6  UNL     1      -3.304   3.522  11.700  1.00  0.00    -0.362 OA
ATOM     34  H6  UNL     1      -2.432   3.712  12.025  1.00  0.00     0.213 HD
ENDBRANCH  15  33
ENDBRANCH   9  10
ENDBRANCH   7   9
ENDBRANCH   4   7
TORSDOF 9
ENDMDL
MODEL 5
REMARK VINA RESULT: -7.294037144      3.068      4.842
REMARK  9 active torsions:
REMARK  status: ('A' for Active; 'I' for Inactive)
REMARK    1  A    between atoms: C3_3  and  O1_4 
REMARK    2  A    between atoms: C4_6  and  C5_7 
REMARK    3  A    between atoms: C5_7  and  O3_9 
REMARK    4  A    between atoms: O3_9  and  C6_10 
REMARK    5  A    between atoms: C7_11  and  N1_12 
REMARK    6  A    between atoms: N1_12  and  N2_14 
REMARK    7  A    between atoms: N2_14  and  N3_15 
REMARK    8  A    between atoms: C10_20  and  O4_21 
REMARK    9  A    between atoms: C18_31  and  O6_32 
ROOT
HETATM    1  C1  UNL     1      -1.394   1.216  10.738  1.00  0.00     0.105 C 
HETATM    2  C2  UNL     1      -2.316   0.459  11.016  1.00  0.00    -0.124 C 
HETATM    3  C3  UNL     1      -3.369  -0.441  11.326  1.00  0.00     0.112 C 
HETATM    4  C4  UNL     1      -4.505   0.002  11.774  1.00  0.00     0.127 C 
ENDROOT
BRANCH   3   5
HETATM    5  O1  UNL     1      -3.176  -1.795  11.148  1.00  0.00    -0.353 OA
ATOM      6  H1  UNL     1      -2.810  -2.110  10.330  1.00  0.00     0.218 HD
ENDBRANCH   3   5
BRANCH   4   7
HETATM    7  C5  UNL     1      -4.844   1.394  12.008  1.00  0.00     0.286 C 
HETATM    8  O2  UNL     1      -5.819   1.919  11.408  1.00  0.00    -0.260 OA
BRANCH   7   9
HETATM    9  O3  UNL     1      -4.167   2.238  12.867  1.00  0.00    -0.305 OA
BRANCH   9  10
HETATM   10  C6  UNL     1      -4.628   3.565  13.168  1.00  0.00     0.220 C 
HETATM   11  C7  UNL     1      -4.000   3.955  14.486  1.00  0.00     0.150 C 
HETATM   12  C8  UNL     1      -2.807   4.813  14.153  1.00  0.00     0.049 C 
HETATM   13  C9  UNL     1      -3.197   5.433  12.853  1.00  0.00     0.054 C 
HETATM   14  C10 UNL     1      -2.160   6.188  12.118  1.00  0.00     0.141 C 
HETATM   15  C18 UNL     1      -4.147   4.555  12.136  1.00  0.00     0.202 C 
HETATM   16  C19 UNL     1      -3.973   6.715  12.917  1.00  0.00     0.046 C 
HETATM   17  C11 UNL     1      -2.764   7.496  12.574  1.00  0.00    -0.009 C 
HETATM   18  C12 UNL     1      -2.083   8.099  13.807  1.00  0.00     0.018 C 
HETATM   19  C13 UNL     1      -3.125   8.505  11.544  1.00  0.00     0.016 C 
HETATM   20  C14 UNL     1      -4.603   8.946  11.626  1.00  0.00     0.037 C 
HETATM   21  C15 UNL     1      -5.479   7.753  11.421  1.00  0.00    -0.060 C 
HETATM   22  C16 UNL     1      -6.738   7.837  11.135  1.00  0.00     0.017 C 
HETATM   23  C17 UNL     1      -4.738   6.533  11.586  1.00  0.00     0.159 C 
HETATM   24  O5  UNL     1      -5.288   5.335  11.794  1.00  0.00    -0.342 OA
BRANCH  11  25
HETATM   25  N1  UNL     1      -3.679   2.797  15.265  1.00  0.00    -0.245 N 
ATOM     26  H1  UNL     1      -2.827   2.285  15.038  1.00  0.00     0.197 HD
BRANCH  25  27
HETATM   27  N2  UNL     1      -4.362   2.389  16.181  1.00  0.00    -0.248 NA
BRANCH  27  28
HETATM   28  N3  UNL     1      -5.151   1.712  16.843  1.00  0.00    -0.261 N 
ATOM     29  H32 UNL     1      -5.986   2.023  16.346  1.00  0.00     0.193 HD
ATOM     30  H31 UNL     1      -5.530   1.066  17.535  1.00  0.00     0.193 HD
ENDBRANCH  27  28
ENDBRANCH  25  27
ENDBRANCH  11  25
BRANCH  14  31
HETATM   31  O4  UNL     1      -0.907   6.031  12.752  1.00  0.00    -0.394 OA
ATOM     32  H4  UNL     1      -0.419   5.329  12.337  1.00  0.00     0.210 HD
ENDBRANCH  14  31
BRANCH  15  33
HETATM   33  O6  UNL     1      -3.636   3.923  11.017  1.00  0.00    -0.362 OA
ATOM     34  H6  UNL     1      -2.744   4.195  10.835  1.00  0.00     0.213 HD
ENDBRANCH  15  33
ENDBRANCH   9  10
ENDBRANCH   7   9
ENDBRANCH   4   7
TORSDOF 9
ENDMDL
