MODEL 1
REMARK VINA RESULT: -8.141642092      0.000      0.000
REMARK  3 active torsions:
REMARK  status: ('A' for Active; 'I' for Inactive)
REMARK    1  A    between atoms: C2_2  and  N1_3 
REMARK    2  A    between atoms: N2_6  and  C5_7 
REMARK    3  A    between atoms: C7_16  and  N6_17 
REMARK       I    between atoms: N8_29  and  C17_30 
ROOT
HETATM    1  C5  UNL     1      -2.798   2.608  12.738  1.00  0.00     0.709 A 
HETATM    2  N3  UNL     1      -3.067   1.442  12.095  1.00  0.00    -0.022 N 
ATOM      3  H3  UNL     1      -2.555   1.221  11.241  1.00  0.00     0.203 HD
HETATM    4  C6  UNL     1      -3.979   0.572  12.544  1.00  0.00     0.705 A 
HETATM    5  N4  UNL     1      -4.270  -0.528  11.971  1.00  0.00    -0.234 N 
ATOM      6  H41 UNL     1      -4.966  -1.190  12.313  1.00  0.00     0.174 HD
ATOM      7  H42 UNL     1      -3.791  -0.801  11.112  1.00  0.00     0.174 HD
HETATM    8  N5  UNL     1      -4.622   0.939  13.695  1.00  0.00    -0.022 N 
ATOM      9  H5  UNL     1      -5.326   0.306  14.074  1.00  0.00     0.203 HD
HETATM   10  C7  UNL     1      -4.384   2.067  14.346  1.00  0.00     0.709 A 
HETATM   11  N7  UNL     1      -3.460   2.908  13.858  1.00  0.00    -0.021 N 
ATOM     12  H7  UNL     1      -3.262   3.781  14.345  1.00  0.00     0.203 HD
ENDROOT
BRANCH   1  13
HETATM   13  N2  UNL     1      -1.804   3.446  12.143  1.00  0.00    -0.214 N 
HETATM   14  C4  UNL     1      -1.081   2.775  11.078  1.00  0.00     0.161 C 
HETATM   15  C3  UNL     1      -0.048   3.767  10.580  1.00  0.00     0.147 C 
HETATM   16  N1  UNL     1      -0.609   4.800   9.796  1.00  0.00    -0.372 N 
HETATM   17  C15 UNL     1      -1.580   5.637  10.344  1.00  0.00     0.077 C 
HETATM   18  C14 UNL     1      -1.379   5.870  11.813  1.00  0.00     0.041 C 
HETATM   19  C13 UNL     1      -1.727   4.746  12.712  1.00  0.00     0.159 C 
HETATM   20  C16 UNL     1      -2.153   7.119  12.229  1.00  0.00     0.144 C 
HETATM   21  C19 UNL     1      -0.137   6.637  12.194  1.00  0.00     0.144 C 
HETATM   22  N8  UNL     1      -0.942   7.677  12.815  1.00  0.00    -0.350 N 
HETATM   23  C17 UNL     1      -0.716   8.799  13.640  1.00  0.00     0.215 C 
HETATM   24  C18 UNL     1      -1.845   9.657  14.058  1.00  0.00     0.117 C 
HETATM   25  O1  UNL     1       0.445   9.068  14.019  1.00  0.00    -0.274 OA
BRANCH  16  26
HETATM   26  C2  UNL     1      -0.191   4.918   8.471  1.00  0.00     0.059 C 
HETATM   27  C1  UNL     1      -0.333   3.747   7.570  1.00  0.00     0.055 C 
ENDBRANCH  16  26
ENDBRANCH   1  13
BRANCH  10  28
HETATM   28  N6  UNL     1      -5.099   2.341  15.524  1.00  0.00    -0.217 N 
HETATM   29  C8  UNL     1      -4.752   1.615  16.761  1.00  0.00     0.141 C 
HETATM   30  C9  UNL     1      -5.925   0.646  16.953  1.00  0.00     0.020 C 
HETATM   31  C10 UNL     1      -7.166   1.485  17.147  1.00  0.00     0.003 C 
HETATM   32  C11 UNL     1      -6.962   2.945  16.911  1.00  0.00     0.020 C 
HETATM   33  C12 UNL     1      -6.185   3.282  15.663  1.00  0.00     0.141 C 
ENDBRANCH  10  28
TORSDOF 3
ENDMDL
MODEL 2
REMARK VINA RESULT: -8.046229956      2.259      2.514
REMARK  3 active torsions:
REMARK  status: ('A' for Active; 'I' for Inactive)
REMARK    1  A    between atoms: C2_2  and  N1_3 
REMARK    2  A    between atoms: N2_6  and  C5_7 
REMARK    3  A    between atoms: C7_16  and  N6_17 
REMARK       I    between atoms: N8_29  and  C17_30 
ROOT
HETATM    1  C5  UNL     1      -3.592   2.888  12.254  1.00  0.00     0.709 A 
HETATM    2  N3  UNL     1      -3.565   1.617  11.778  1.00  0.00    -0.022 N 
ATOM      3  H3  UNL     1      -3.155   1.443  10.860  1.00  0.00     0.203 HD
HETATM    4  C6  UNL     1      -4.058   0.584  12.472  1.00  0.00     0.705 A 
HETATM    5  N4  UNL     1      -4.063  -0.623  12.062  1.00  0.00    -0.234 N 
ATOM      6  H41 UNL     1      -4.438  -1.410  12.591  1.00  0.00     0.174 HD
ATOM      7  H42 UNL     1      -3.666  -0.857  11.151  1.00  0.00     0.174 HD
HETATM    8  N5  UNL     1      -4.589   0.897  13.693  1.00  0.00    -0.022 N 
ATOM      9  H5  UNL     1      -4.977   0.141  14.256  1.00  0.00     0.203 HD
HETATM   10  C7  UNL     1      -4.631   2.125  14.186  1.00  0.00     0.709 A 
HETATM   11  N7  UNL     1      -4.124   3.129  13.455  1.00  0.00    -0.021 N 
ATOM     12  H7  UNL     1      -4.146   4.081  13.818  1.00  0.00     0.203 HD
ENDROOT
BRANCH   1  13
HETATM   13  N2  UNL     1      -3.036   3.896  11.405  1.00  0.00    -0.214 N 
HETATM   14  C4  UNL     1      -1.853   3.434  10.701  1.00  0.00     0.161 C 
HETATM   15  C3  UNL     1      -1.364   4.613   9.882  1.00  0.00     0.147 C 
HETATM   16  N1  UNL     1      -2.165   4.865   8.746  1.00  0.00    -0.372 N 
HETATM   17  C15 UNL     1      -3.519   5.159   8.903  1.00  0.00     0.077 C 
HETATM   18  C14 UNL     1      -3.803   5.909  10.171  1.00  0.00     0.041 C 
HETATM   19  C13 UNL     1      -3.745   5.127  11.427  1.00  0.00     0.159 C 
HETATM   20  C16 UNL     1      -5.165   6.590  10.052  1.00  0.00     0.144 C 
HETATM   21  C19 UNL     1      -3.229   7.302  10.255  1.00  0.00     0.144 C 
HETATM   22  N8  UNL     1      -4.560   7.867  10.405  1.00  0.00    -0.350 N 
HETATM   23  C17 UNL     1      -5.115   9.121  10.736  1.00  0.00     0.215 C 
HETATM   24  C18 UNL     1      -6.581   9.305  10.761  1.00  0.00     0.117 C 
HETATM   25  O1  UNL     1      -4.362  10.082  11.008  1.00  0.00    -0.274 OA
BRANCH  16  26
HETATM   26  C2  UNL     1      -1.569   4.770   7.489  1.00  0.00     0.059 C 
HETATM   27  C1  UNL     1      -0.421   3.845   7.311  1.00  0.00     0.055 C 
ENDBRANCH  16  26
ENDBRANCH   1  13
BRANCH  10  28
HETATM   28  N6  UNL     1      -5.195   2.334  15.456  1.00  0.00    -0.217 N 
HETATM   29  C8  UNL     1      -4.678   1.568  16.607  1.00  0.00     0.141 C 
HETATM   30  C9  UNL     1      -5.797   0.562  16.904  1.00  0.00     0.020 C 
HETATM   31  C10 UNL     1      -7.020   1.360  17.289  1.00  0.00     0.003 C 
HETATM   32  C11 UNL     1      -6.878   2.833  17.092  1.00  0.00     0.020 C 
HETATM   33  C12 UNL     1      -6.273   3.239  15.772  1.00  0.00     0.141 C 
ENDBRANCH  10  28
TORSDOF 3
ENDMDL
MODEL 3
REMARK VINA RESULT: -8.042633800      2.130      2.964
REMARK  3 active torsions:
REMARK  status: ('A' for Active; 'I' for Inactive)
REMARK    1  A    between atoms: C2_2  and  N1_3 
REMARK    2  A    between atoms: N2_6  and  C5_7 
REMARK    3  A    between atoms: C7_16  and  N6_17 
REMARK       I    between atoms: N8_29  and  C17_30 
ROOT
HETATM    1  C5  UNL     1      -3.267   2.623  11.969  1.00  0.00     0.709 A 
HETATM    2  N3  UNL     1      -3.353   1.327  11.570  1.00  0.00    -0.022 N 
ATOM      3  H3  UNL     1      -2.940   1.059  10.677  1.00  0.00     0.203 HD
HETATM    4  C6  UNL     1      -3.962   0.391  12.308  1.00  0.00     0.705 A 
HETATM    5  N4  UNL     1      -4.075  -0.832  11.970  1.00  0.00    -0.234 N 
ATOM      6  H41 UNL     1      -4.538  -1.545  12.533  1.00  0.00     0.174 HD
ATOM      7  H42 UNL     1      -3.681  -1.159  11.087  1.00  0.00     0.174 HD
HETATM    8  N5  UNL     1      -4.490   0.830  13.492  1.00  0.00    -0.022 N 
ATOM      9  H5  UNL     1      -4.963   0.150  14.086  1.00  0.00     0.203 HD
HETATM   10  C7  UNL     1      -4.423   2.083  13.910  1.00  0.00     0.709 A 
HETATM   11  N7  UNL     1      -3.803   2.987  13.136  1.00  0.00    -0.021 N 
ATOM     12  H7  UNL     1      -3.741   3.958  13.442  1.00  0.00     0.203 HD
ENDROOT
BRANCH   1  13
HETATM   13  N2  UNL     1      -2.595   3.518  11.079  1.00  0.00    -0.214 N 
HETATM   14  C4  UNL     1      -3.490   4.082  10.084  1.00  0.00     0.161 C 
HETATM   15  C3  UNL     1      -2.632   4.968   9.201  1.00  0.00     0.147 C 
HETATM   16  N1  UNL     1      -2.268   6.182   9.827  1.00  0.00    -0.372 N 
HETATM   17  C15 UNL     1      -1.540   6.158  11.015  1.00  0.00     0.077 C 
HETATM   18  C14 UNL     1      -0.598   4.992  11.092  1.00  0.00     0.041 C 
HETATM   19  C13 UNL     1      -1.208   3.667  11.346  1.00  0.00     0.159 C 
HETATM   20  C16 UNL     1       0.465   5.279  12.149  1.00  0.00     0.144 C 
HETATM   21  C19 UNL     1       0.537   4.996  10.097  1.00  0.00     0.144 C 
HETATM   22  N8  UNL     1       1.513   5.004  11.175  1.00  0.00    -0.350 N 
HETATM   23  C17 UNL     1       2.908   4.837  11.303  1.00  0.00     0.215 C 
HETATM   24  C18 UNL     1       3.553   4.941  12.628  1.00  0.00     0.117 C 
HETATM   25  O1  UNL     1       3.600   4.599  10.290  1.00  0.00    -0.274 OA
BRANCH  16  26
HETATM   26  C2  UNL     1      -2.693   7.374   9.242  1.00  0.00     0.059 C 
HETATM   27  C1  UNL     1      -4.122   7.757   9.359  1.00  0.00     0.055 C 
ENDBRANCH  16  26
ENDBRANCH   1  13
BRANCH  10  28
HETATM   28  N6  UNL     1      -4.995   2.424  15.147  1.00  0.00    -0.217 N 
HETATM   29  C8  UNL     1      -4.467   1.804  16.378  1.00  0.00     0.141 C 
HETATM   30  C9  UNL     1      -5.566   0.816  16.787  1.00  0.00     0.020 C 
HETATM   31  C10 UNL     1      -6.806   1.628  17.078  1.00  0.00     0.003 C 
HETATM   32  C11 UNL     1      -6.692   3.072  16.715  1.00  0.00     0.020 C 
HETATM   33  C12 UNL     1      -6.092   3.338  15.358  1.00  0.00     0.141 C 
ENDBRANCH  10  28
TORSDOF 3
ENDMDL
MODEL 4
REMARK VINA RESULT: -8.042331932      1.341      1.429
REMARK  3 active torsions:
REMARK  status: ('A' for Active; 'I' for Inactive)
REMARK    1  A    between atoms: C2_2  and  N1_3 
REMARK    2  A    between atoms: N2_6  and  C5_7 
REMARK    3  A    between atoms: C7_16  and  N6_17 
REMARK       I    between atoms: N8_29  and  C17_30 
ROOT
HETATM    1  C5  UNL     1      -2.952   2.304  12.156  1.00  0.00     0.709 A 
HETATM    2  N3  UNL     1      -3.215   1.056  11.689  1.00  0.00    -0.022 N 
ATOM      3  H3  UNL     1      -2.779   0.756  10.816  1.00  0.00     0.203 HD
HETATM    4  C6  UNL     1      -4.025   0.208  12.332  1.00  0.00     0.705 A 
HETATM    5  N4  UNL     1      -4.307  -0.967  11.927  1.00  0.00    -0.234 N 
ATOM      6  H41 UNL     1      -4.924  -1.614  12.417  1.00  0.00     0.174 HD
ATOM      7  H42 UNL     1      -3.901  -1.322  11.060  1.00  0.00     0.174 HD
HETATM    8  N5  UNL     1      -4.570   0.684  13.493  1.00  0.00    -0.022 N 
ATOM      9  H5  UNL     1      -5.193   0.071  14.017  1.00  0.00     0.203 HD
HETATM   10  C7  UNL     1      -4.335   1.893  13.977  1.00  0.00     0.709 A 
HETATM   11  N7  UNL     1      -3.516   2.709  13.298  1.00  0.00    -0.021 N 
ATOM     12  H7  UNL     1      -3.322   3.644  13.654  1.00  0.00     0.203 HD
ENDROOT
BRANCH   1  13
HETATM   13  N2  UNL     1      -2.074   3.108  11.364  1.00  0.00    -0.214 N 
HETATM   14  C4  UNL     1      -1.168   2.307  10.560  1.00  0.00     0.161 C 
HETATM   15  C3  UNL     1      -0.285   3.290   9.816  1.00  0.00     0.147 C 
HETATM   16  N1  UNL     1      -0.954   3.934   8.751  1.00  0.00    -0.372 N 
HETATM   17  C15 UNL     1      -2.092   4.698   9.006  1.00  0.00     0.077 C 
HETATM   18  C14 UNL     1      -2.046   5.372  10.347  1.00  0.00     0.041 C 
HETATM   19  C13 UNL     1      -2.263   4.506  11.528  1.00  0.00     0.159 C 
HETATM   20  C16 UNL     1      -3.050   6.521  10.360  1.00  0.00     0.144 C 
HETATM   21  C19 UNL     1      -0.985   6.432  10.514  1.00  0.00     0.144 C 
HETATM   22  N8  UNL     1      -2.000   7.438  10.783  1.00  0.00    -0.350 N 
HETATM   23  C17 UNL     1      -2.032   8.770  11.248  1.00  0.00     0.215 C 
HETATM   24  C18 UNL     1      -3.319   9.486  11.370  1.00  0.00     0.117 C 
HETATM   25  O1  UNL     1      -0.966   9.346  11.557  1.00  0.00    -0.274 OA
BRANCH  16  26
HETATM   26  C2  UNL     1      -0.463   3.746   7.459  1.00  0.00     0.059 C 
HETATM   27  C1  UNL     1       1.007   3.738   7.248  1.00  0.00     0.055 C 
ENDBRANCH  16  26
ENDBRANCH   1  13
BRANCH  10  28
HETATM   28  N6  UNL     1      -4.943   2.278  15.184  1.00  0.00    -0.217 N 
HETATM   29  C8  UNL     1      -4.488   1.663  16.446  1.00  0.00     0.141 C 
HETATM   30  C9  UNL     1      -5.638   0.724  16.827  1.00  0.00     0.020 C 
HETATM   31  C10 UNL     1      -6.858   1.586  17.053  1.00  0.00     0.003 C 
HETATM   32  C11 UNL     1      -6.677   3.017  16.669  1.00  0.00     0.020 C 
HETATM   33  C12 UNL     1      -6.013   3.234  15.332  1.00  0.00     0.141 C 
ENDBRANCH  10  28
TORSDOF 3
ENDMDL
MODEL 5
REMARK VINA RESULT: -7.915887181      2.371      2.834
REMARK  3 active torsions:
REMARK  status: ('A' for Active; 'I' for Inactive)
REMARK    1  A    between atoms: C2_2  and  N1_3 
REMARK    2  A    between atoms: N2_6  and  C5_7 
REMARK    3  A    between atoms: C7_16  and  N6_17 
REMARK       I    between atoms: N8_29  and  C17_30 
ROOT
HETATM    1  C5  UNL     1      -2.975   2.630  12.237  1.00  0.00     0.709 A 
HETATM    2  N3  UNL     1      -3.178   1.399  11.702  1.00  0.00    -0.022 N 
ATOM      3  H3  UNL     1      -2.730   1.167  10.815  1.00  0.00     0.203 HD
HETATM    4  C6  UNL     1      -3.946   0.479  12.297  1.00  0.00     0.705 A 
HETATM    5  N4  UNL     1      -4.173  -0.684  11.829  1.00  0.00    -0.234 N 
ATOM      6  H41 UNL     1      -4.758  -1.385  12.283  1.00  0.00     0.174 HD
ATOM      7  H42 UNL     1      -3.752  -0.972  10.944  1.00  0.00     0.174 HD
HETATM    8  N5  UNL     1      -4.511   0.865  13.482  1.00  0.00    -0.022 N 
ATOM      9  H5  UNL     1      -5.105   0.195  13.971  1.00  0.00     0.203 HD
HETATM   10  C7  UNL     1      -4.333   2.056  14.032  1.00  0.00     0.709 A 
HETATM   11  N7  UNL     1      -3.555   2.945  13.398  1.00  0.00    -0.021 N 
ATOM     12  H7  UNL     1      -3.404   3.868  13.805  1.00  0.00     0.203 HD
ENDROOT
BRANCH   1  13
HETATM   13  N2  UNL     1      -2.136   3.516  11.490  1.00  0.00    -0.214 N 
HETATM   14  C4  UNL     1      -0.731   3.170  11.600  1.00  0.00     0.161 C 
HETATM   15  C3  UNL     1       0.023   4.211  10.797  1.00  0.00     0.147 C 
HETATM   16  N1  UNL     1      -0.101   4.027   9.401  1.00  0.00    -0.372 N 
HETATM   17  C15 UNL     1      -1.362   4.055   8.807  1.00  0.00     0.077 C 
HETATM   18  C14 UNL     1      -2.306   4.993   9.502  1.00  0.00     0.041 C 
HETATM   19  C13 UNL     1      -2.842   4.542  10.806  1.00  0.00     0.159 C 
HETATM   20  C16 UNL     1      -3.460   5.325   8.559  1.00  0.00     0.144 C 
HETATM   21  C19 UNL     1      -1.955   6.458   9.424  1.00  0.00     0.144 C 
HETATM   22  N8  UNL     1      -3.212   6.748   8.752  1.00  0.00    -0.350 N 
HETATM   23  C17 UNL     1      -3.946   7.897   8.390  1.00  0.00     0.215 C 
HETATM   24  C18 UNL     1      -5.228   7.767   7.668  1.00  0.00     0.117 C 
HETATM   25  O1  UNL     1      -3.507   9.031   8.682  1.00  0.00    -0.274 OA
BRANCH  16  26
HETATM   26  C2  UNL     1       1.059   3.782   8.666  1.00  0.00     0.059 C 
HETATM   27  C1  UNL     1       2.364   3.777   9.374  1.00  0.00     0.055 C 
ENDBRANCH  16  26
ENDBRANCH   1  13
BRANCH  10  28
HETATM   28  N6  UNL     1      -4.957   2.345  15.257  1.00  0.00    -0.217 N 
HETATM   29  C8  UNL     1      -4.483   1.672  16.481  1.00  0.00     0.141 C 
HETATM   30  C9  UNL     1      -5.600   0.671  16.800  1.00  0.00     0.020 C 
HETATM   31  C10 UNL     1      -6.850   1.475  17.073  1.00  0.00     0.003 C 
HETATM   32  C11 UNL     1      -6.718   2.932  16.777  1.00  0.00     0.020 C 
HETATM   33  C12 UNL     1      -6.060   3.253  15.459  1.00  0.00     0.141 C 
ENDBRANCH  10  28
TORSDOF 3
ENDMDL
