MODEL 1
REMARK VINA RESULT: -6.381634981      0.000      0.000
REMARK  6 active torsions:
REMARK  status: ('A' for Active; 'I' for Inactive)
REMARK    1  A    between atoms: O1_2  and  C2_3 
REMARK    2  A    between atoms: C2_3  and  C3_4 
REMARK    3  A    between atoms: C4_6  and  C5_7 
REMARK    4  A    between atoms: C5_7  and  C6_8 
REMARK    5  A    between atoms: C6_8  and  O3_10 
REMARK    6  A    between atoms: C10_14  and  O4_15 
ROOT
HETATM    1  C3  UNL     1      -4.588   5.849  10.037  1.00  0.00     0.188 C 
HETATM    2  O2  UNL     1      -5.042   4.955  10.965  1.00  0.00    -0.342 OA
HETATM    3  C4  UNL     1      -4.098   4.748  11.962  1.00  0.00     0.269 C 
HETATM    4  C8  UNL     1      -4.423   5.550  13.134  1.00  0.00     0.065 C 
HETATM    5  C9  UNL     1      -5.417   4.972  14.120  1.00  0.00     0.042 C 
HETATM    6  C10 UNL     1      -5.603   6.262  14.963  1.00  0.00     0.119 C 
HETATM    7  C11 UNL     1      -4.145   6.528  15.268  1.00  0.00     0.043 C 
HETATM    8  C12 UNL     1      -3.354   6.045  14.034  1.00  0.00    -0.012 C 
HETATM    9  C13 UNL     1      -2.379   5.040  14.519  1.00  0.00     0.018 C 
HETATM   10  C14 UNL     1      -2.598   7.255  13.579  1.00  0.00     0.180 C 
HETATM   11  O5  UNL     1      -1.625   7.049  12.642  1.00  0.00    -0.360 OA
HETATM   12  C15 UNL     1      -1.782   7.957  11.595  1.00  0.00     0.262 C 
HETATM   13  C16 UNL     1      -3.141   7.756  10.912  1.00  0.00     0.106 C 
HETATM   14  C17 UNL     1      -3.276   6.348  10.489  1.00  0.00     0.203 C 
HETATM   15  C18 UNL     1      -2.088   5.998   9.611  1.00  0.00     0.080 C 
HETATM   16  C19 UNL     1      -0.788   6.504  10.105  1.00  0.00     0.180 C 
HETATM   17  O6  UNL     1      -0.827   7.786  10.628  1.00  0.00    -0.361 OA
HETATM   18  C20 UNL     1      -2.363   4.611  10.221  1.00  0.00     0.287 C 
HETATM   19  N1  UNL     1      -2.852   5.329  11.382  1.00  0.00     0.137 N 
ENDROOT
BRANCH   3  20
HETATM   20  C5  UNL     1      -3.872   3.294  12.080  1.00  0.00     0.103 C 
BRANCH  20  21
HETATM   21  C6  UNL     1      -4.968   2.335  11.886  1.00  0.00     0.118 C 
HETATM   22  C7  UNL     1      -4.525   1.041  12.619  1.00  0.00     0.039 C 
BRANCH  21  23
HETATM   23  O3  UNL     1      -5.176   1.925  10.574  1.00  0.00    -0.396 OA
ATOM     24  H3  UNL     1      -5.350   2.622   9.952  1.00  0.00     0.210 HD
ENDBRANCH  21  23
ENDBRANCH  20  21
ENDBRANCH   3  20
BRANCH   1  25
HETATM   25  C2  UNL     1      -5.660   6.896   9.866  1.00  0.00     0.201 C 
BRANCH  25  26
HETATM   26  O1  UNL     1      -6.707   6.804  10.731  1.00  0.00    -0.393 OA
HETATM   27  C1  UNL     1      -6.869   7.927  11.522  1.00  0.00     0.201 C 
ENDBRANCH  25  26
ENDBRANCH   1  25
BRANCH   6  28
HETATM   28  O4  UNL     1      -6.381   6.048  16.065  1.00  0.00    -0.396 OA
ATOM     29  H4  UNL     1      -6.377   6.793  16.655  1.00  0.00     0.210 HD
ENDBRANCH   6  28
TORSDOF 6
ENDMDL
MODEL 2
REMARK VINA RESULT: -5.759718065      1.195      1.531
REMARK  6 active torsions:
REMARK  status: ('A' for Active; 'I' for Inactive)
REMARK    1  A    between atoms: O1_2  and  C2_3 
REMARK    2  A    between atoms: C2_3  and  C3_4 
REMARK    3  A    between atoms: C4_6  and  C5_7 
REMARK    4  A    between atoms: C5_7  and  C6_8 
REMARK    5  A    between atoms: C6_8  and  O3_10 
REMARK    6  A    between atoms: C10_14  and  O4_15 
ROOT
HETATM    1  C3  UNL     1      -4.989   5.940   9.868  1.00  0.00     0.188 C 
HETATM    2  O2  UNL     1      -5.084   5.238  11.036  1.00  0.00    -0.342 OA
HETATM    3  C4  UNL     1      -3.833   5.040  11.603  1.00  0.00     0.269 C 
HETATM    4  C8  UNL     1      -3.599   6.019  12.656  1.00  0.00     0.065 C 
HETATM    5  C9  UNL     1      -4.142   5.704  14.034  1.00  0.00     0.042 C 
HETATM    6  C10 UNL     1      -3.883   7.104  14.652  1.00  0.00     0.119 C 
HETATM    7  C11 UNL     1      -2.413   7.217  14.313  1.00  0.00     0.043 C 
HETATM    8  C12 UNL     1      -2.226   6.484  12.968  1.00  0.00    -0.012 C 
HETATM    9  C13 UNL     1      -1.207   5.432  13.194  1.00  0.00     0.018 C 
HETATM   10  C14 UNL     1      -1.642   7.519  12.056  1.00  0.00     0.180 C 
HETATM   11  O5  UNL     1      -1.150   7.072  10.863  1.00  0.00    -0.360 OA
HETATM   12  C15 UNL     1      -1.659   7.852   9.824  1.00  0.00     0.262 C 
HETATM   13  C16 UNL     1      -3.188   7.742   9.772  1.00  0.00     0.106 C 
HETATM   14  C17 UNL     1      -3.576   6.320   9.680  1.00  0.00     0.203 C 
HETATM   15  C18 UNL     1      -2.874   5.712   8.478  1.00  0.00     0.080 C 
HETATM   16  C19 UNL     1      -1.456   6.106   8.332  1.00  0.00     0.180 C 
HETATM   17  O6  UNL     1      -1.193   7.438   8.605  1.00  0.00    -0.361 OA
HETATM   18  C20 UNL     1      -2.969   4.461   9.371  1.00  0.00     0.287 C 
HETATM   19  N1  UNL     1      -2.894   5.377  10.493  1.00  0.00     0.137 N 
ENDROOT
BRANCH   3  20
HETATM   20  C5  UNL     1      -3.675   3.595  11.866  1.00  0.00     0.103 C 
BRANCH  20  21
HETATM   21  C6  UNL     1      -4.842   2.710  11.976  1.00  0.00     0.118 C 
HETATM   22  C7  UNL     1      -4.371   1.504  12.832  1.00  0.00     0.039 C 
BRANCH  21  23
HETATM   23  O3  UNL     1      -5.268   2.134  10.785  1.00  0.00    -0.396 OA
ATOM     24  H3  UNL     1      -4.889   2.503   9.996  1.00  0.00     0.210 HD
ENDBRANCH  21  23
ENDBRANCH  20  21
ENDBRANCH   3  20
BRANCH   1  25
HETATM   25  C2  UNL     1      -5.966   7.086   9.957  1.00  0.00     0.201 C 
BRANCH  25  26
HETATM   26  O1  UNL     1      -7.245   6.790   9.598  1.00  0.00    -0.393 OA
HETATM   27  C1  UNL     1      -7.388   6.506   8.252  1.00  0.00     0.201 C 
ENDBRANCH  25  26
ENDBRANCH   1  25
BRANCH   6  28
HETATM   28  O4  UNL     1      -4.159   7.134  15.990  1.00  0.00    -0.396 OA
ATOM     29  H4  UNL     1      -5.051   6.866  16.177  1.00  0.00     0.210 HD
ENDBRANCH   6  28
TORSDOF 6
ENDMDL
MODEL 3
REMARK VINA RESULT: -5.672737779      2.105      4.905
REMARK  6 active torsions:
REMARK  status: ('A' for Active; 'I' for Inactive)
REMARK    1  A    between atoms: O1_2  and  C2_3 
REMARK    2  A    between atoms: C2_3  and  C3_4 
REMARK    3  A    between atoms: C4_6  and  C5_7 
REMARK    4  A    between atoms: C5_7  and  C6_8 
REMARK    5  A    between atoms: C6_8  and  O3_10 
REMARK    6  A    between atoms: C10_14  and  O4_15 
ROOT
HETATM    1  C3  UNL     1      -1.535   5.814  12.563  1.00  0.00     0.188 C 
HETATM    2  O2  UNL     1      -1.982   5.748  13.852  1.00  0.00    -0.342 OA
HETATM    3  C4  UNL     1      -3.345   5.485  13.895  1.00  0.00     0.269 C 
HETATM    4  C8  UNL     1      -3.573   4.068  14.147  1.00  0.00     0.065 C 
HETATM    5  C9  UNL     1      -3.560   3.606  15.588  1.00  0.00     0.042 C 
HETATM    6  C10 UNL     1      -3.566   2.083  15.287  1.00  0.00     0.119 C 
HETATM    7  C11 UNL     1      -4.781   2.050  14.386  1.00  0.00     0.043 C 
HETATM    8  C12 UNL     1      -4.783   3.390  13.620  1.00  0.00    -0.012 C 
HETATM    9  C13 UNL     1      -6.083   4.041  13.904  1.00  0.00     0.018 C 
HETATM   10  C14 UNL     1      -4.758   2.995  12.176  1.00  0.00     0.180 C 
HETATM   11  O5  UNL     1      -4.998   3.987  11.268  1.00  0.00    -0.360 OA
HETATM   12  C15 UNL     1      -4.012   3.970  10.282  1.00  0.00     0.262 C 
HETATM   13  C16 UNL     1      -2.632   4.224  10.900  1.00  0.00     0.106 C 
HETATM   14  C17 UNL     1      -2.662   5.482  11.673  1.00  0.00     0.203 C 
HETATM   15  C18 UNL     1      -3.139   6.593  10.754  1.00  0.00     0.080 C 
HETATM   16  C19 UNL     1      -4.280   6.226   9.887  1.00  0.00     0.180 C 
HETATM   17  O6  UNL     1      -4.212   4.952   9.348  1.00  0.00    -0.361 OA
HETATM   18  C20 UNL     1      -3.669   7.134  12.095  1.00  0.00     0.287 C 
HETATM   19  N1  UNL     1      -3.790   5.745  12.494  1.00  0.00     0.137 N 
ENDROOT
BRANCH   3  20
HETATM   20  C5  UNL     1      -3.982   6.514  14.740  1.00  0.00     0.103 C 
BRANCH  20  21
HETATM   21  C6  UNL     1      -3.180   7.398  15.596  1.00  0.00     0.118 C 
HETATM   22  C7  UNL     1      -4.160   7.934  16.675  1.00  0.00     0.039 C 
BRANCH  21  23
HETATM   23  O3  UNL     1      -2.695   8.546  14.981  1.00  0.00    -0.396 OA
ATOM     24  H3  UNL     1      -3.347   9.207  14.781  1.00  0.00     0.210 HD
ENDBRANCH  21  23
ENDBRANCH  20  21
ENDBRANCH   3  20
BRANCH   1  25
HETATM   25  C2  UNL     1      -0.335   4.905  12.462  1.00  0.00     0.201 C 
BRANCH  25  26
HETATM   26  O1  UNL     1       0.652   5.333  11.627  1.00  0.00    -0.393 OA
HETATM   27  C1  UNL     1       1.130   4.344  10.787  1.00  0.00     0.201 C 
ENDBRANCH  25  26
ENDBRANCH   1  25
BRANCH   6  28
HETATM   28  O4  UNL     1      -3.685   1.334  16.424  1.00  0.00    -0.396 OA
ATOM     29  H4  UNL     1      -3.549   0.409  16.258  1.00  0.00     0.210 HD
ENDBRANCH   6  28
TORSDOF 6
ENDMDL
MODEL 4
REMARK VINA RESULT: -5.621351881      1.993      5.303
REMARK  6 active torsions:
REMARK  status: ('A' for Active; 'I' for Inactive)
REMARK    1  A    between atoms: O1_2  and  C2_3 
REMARK    2  A    between atoms: C2_3  and  C3_4 
REMARK    3  A    between atoms: C4_6  and  C5_7 
REMARK    4  A    between atoms: C5_7  and  C6_8 
REMARK    5  A    between atoms: C6_8  and  O3_10 
REMARK    6  A    between atoms: C10_14  and  O4_15 
ROOT
HETATM    1  C3  UNL     1      -2.640   6.494  14.718  1.00  0.00     0.188 C 
HETATM    2  O2  UNL     1      -2.116   6.885  13.519  1.00  0.00    -0.342 OA
HETATM    3  C4  UNL     1      -2.886   6.419  12.462  1.00  0.00     0.269 C 
HETATM    4  C8  UNL     1      -3.773   7.471  11.985  1.00  0.00     0.065 C 
HETATM    5  C9  UNL     1      -3.209   8.456  10.983  1.00  0.00     0.042 C 
HETATM    6  C10 UNL     1      -4.395   9.457  11.029  1.00  0.00     0.119 C 
HETATM    7  C11 UNL     1      -5.510   8.477  10.736  1.00  0.00     0.043 C 
HETATM    8  C12 UNL     1      -5.087   7.140  11.381  1.00  0.00    -0.012 C 
HETATM    9  C13 UNL     1      -5.081   6.128  10.299  1.00  0.00     0.018 C 
HETATM   10  C14 UNL     1      -6.200   6.813  12.328  1.00  0.00     0.180 C 
HETATM   11  O5  UNL     1      -6.198   5.554  12.858  1.00  0.00    -0.360 OA
HETATM   12  C15 UNL     1      -6.350   5.627  14.242  1.00  0.00     0.262 C 
HETATM   13  C16 UNL     1      -5.183   6.401  14.868  1.00  0.00     0.106 C 
HETATM   14  C17 UNL     1      -3.906   5.786  14.453  1.00  0.00     0.203 C 
HETATM   15  C18 UNL     1      -3.941   4.315  14.828  1.00  0.00     0.080 C 
HETATM   16  C19 UNL     1      -5.223   3.637  14.533  1.00  0.00     0.180 C 
HETATM   17  O6  UNL     1      -6.353   4.385  14.819  1.00  0.00    -0.361 OA
HETATM   18  C20 UNL     1      -3.024   4.236  13.593  1.00  0.00     0.287 C 
HETATM   19  N1  UNL     1      -3.756   5.387  13.099  1.00  0.00     0.137 N 
ENDROOT
BRANCH   3  20
HETATM   20  C5  UNL     1      -1.993   5.703  11.529  1.00  0.00     0.103 C 
BRANCH  20  21
HETATM   21  C6  UNL     1      -0.541   5.921  11.548  1.00  0.00     0.118 C 
HETATM   22  C7  UNL     1       0.008   5.177  10.301  1.00  0.00     0.039 C 
BRANCH  21  23
HETATM   23  O3  UNL     1       0.136   5.340  12.614  1.00  0.00    -0.396 OA
ATOM     24  H3  UNL     1      -0.256   4.548  12.961  1.00  0.00     0.210 HD
ENDBRANCH  21  23
ENDBRANCH  20  21
ENDBRANCH   3  20
BRANCH   1  25
HETATM   25  C2  UNL     1      -2.752   7.729  15.578  1.00  0.00     0.201 C 
BRANCH  25  26
HETATM   26  O1  UNL     1      -2.394   8.895  14.973  1.00  0.00    -0.393 OA
HETATM   27  C1  UNL     1      -1.437   9.607  15.673  1.00  0.00     0.201 C 
ENDBRANCH  25  26
ENDBRANCH   1  25
BRANCH   6  28
HETATM   28  O4  UNL     1      -4.263  10.455  10.106  1.00  0.00    -0.396 OA
ATOM     29  H4  UNL     1      -4.795  11.212  10.319  1.00  0.00     0.210 HD
ENDBRANCH   6  28
TORSDOF 6
ENDMDL
MODEL 5
REMARK VINA RESULT: -5.549753545      1.777      3.727
REMARK  6 active torsions:
REMARK  status: ('A' for Active; 'I' for Inactive)
REMARK    1  A    between atoms: O1_2  and  C2_3 
REMARK    2  A    between atoms: C2_3  and  C3_4 
REMARK    3  A    between atoms: C4_6  and  C5_7 
REMARK    4  A    between atoms: C5_7  and  C6_8 
REMARK    5  A    between atoms: C6_8  and  O3_10 
REMARK    6  A    between atoms: C10_14  and  O4_15 
ROOT
HETATM    1  C3  UNL     1      -5.199   7.200  11.710  1.00  0.00     0.188 C 
HETATM    2  O2  UNL     1      -4.989   6.190  10.815  1.00  0.00    -0.342 OA
HETATM    3  C4  UNL     1      -3.801   5.524  11.083  1.00  0.00     0.269 C 
HETATM    4  C8  UNL     1      -4.069   4.298  11.823  1.00  0.00     0.065 C 
HETATM    5  C9  UNL     1      -4.439   3.068  11.023  1.00  0.00     0.042 C 
HETATM    6  C10 UNL     1      -4.868   2.192  12.230  1.00  0.00     0.119 C 
HETATM    7  C11 UNL     1      -3.607   2.333  13.054  1.00  0.00     0.043 C 
HETATM    8  C12 UNL     1      -3.071   3.754  12.776  1.00  0.00    -0.012 C 
HETATM    9  C13 UNL     1      -1.689   3.596  12.269  1.00  0.00     0.018 C 
HETATM   10  C14 UNL     1      -3.008   4.400  14.127  1.00  0.00     0.180 C 
HETATM   11  O5  UNL     1      -2.337   5.587  14.203  1.00  0.00    -0.360 OA
HETATM   12  C15 UNL     1      -3.123   6.528  14.869  1.00  0.00     0.262 C 
HETATM   13  C16 UNL     1      -4.428   6.774  14.102  1.00  0.00     0.106 C 
HETATM   14  C17 UNL     1      -4.116   7.155  12.709  1.00  0.00     0.203 C 
HETATM   15  C18 UNL     1      -3.185   8.354  12.741  1.00  0.00     0.080 C 
HETATM   16  C19 UNL     1      -2.103   8.265  13.747  1.00  0.00     0.180 C 
HETATM   17  O6  UNL     1      -2.490   7.738  14.968  1.00  0.00    -0.361 OA
HETATM   18  C20 UNL     1      -2.714   7.707  11.425  1.00  0.00     0.287 C 
HETATM   19  N1  UNL     1      -3.096   6.443  12.025  1.00  0.00     0.137 N 
ENDROOT
BRANCH   3  20
HETATM   20  C5  UNL     1      -3.002   5.497   9.842  1.00  0.00     0.103 C 
BRANCH  20  21
HETATM   21  C6  UNL     1      -3.641   5.613   8.524  1.00  0.00     0.118 C 
HETATM   22  C7  UNL     1      -2.535   5.263   7.493  1.00  0.00     0.039 C 
BRANCH  21  23
HETATM   23  O3  UNL     1      -4.043   6.894   8.167  1.00  0.00    -0.396 OA
ATOM     24  H3  UNL     1      -4.096   7.518   8.880  1.00  0.00     0.210 HD
ENDBRANCH  21  23
ENDBRANCH  20  21
ENDBRANCH   3  20
BRANCH   1  25
HETATM   25  C2  UNL     1      -6.596   7.029  12.254  1.00  0.00     0.201 C 
BRANCH  25  26
HETATM   26  O1  UNL     1      -7.486   7.991  11.886  1.00  0.00    -0.393 OA
HETATM   27  C1  UNL     1      -6.942   8.959  11.063  1.00  0.00     0.201 C 
ENDBRANCH  25  26
ENDBRANCH   1  25
BRANCH   6  28
HETATM   28  O4  UNL     1      -5.159   0.910  11.857  1.00  0.00    -0.396 OA
ATOM     29  H4  UNL     1      -5.959   0.594  12.259  1.00  0.00     0.210 HD
ENDBRANCH   6  28
TORSDOF 6
ENDMDL
