MODEL 1
REMARK VINA RESULT: -6.618128834      0.000      0.000
REMARK  7 active torsions:
REMARK  status: ('A' for Active; 'I' for Inactive)
REMARK    1  A    between atoms: C2_2  and  C3_3 
REMARK    2  A    between atoms: C2_2  and  C4_6 
REMARK    3  A    between atoms: C3_3  and  O1_4 
REMARK    4  A    between atoms: C9_11  and  O2_12 
REMARK    5  A    between atoms: C15_19  and  O4_20 
REMARK    6  A    between atoms: C15_19  and  C16_22 
REMARK    7  A    between atoms: C16_22  and  O6_24 
ROOT
HETATM    1  C4  UNL     1      -5.021   3.422  13.099  1.00  0.00     0.023 C 
HETATM    2  C5  UNL     1      -6.171   3.553  14.071  1.00  0.00     0.010 C 
HETATM    3  C6  UNL     1      -5.591   4.193  15.283  1.00  0.00     0.006 C 
HETATM    4  C7  UNL     1      -4.422   5.022  14.772  1.00  0.00    -0.005 C 
HETATM    5  C8  UNL     1      -4.944   6.293  14.217  1.00  0.00     0.037 C 
HETATM    6  C9  UNL     1      -3.969   6.942  13.210  1.00  0.00     0.132 C 
HETATM    7  C11 UNL     1      -2.716   6.197  13.353  1.00  0.00     0.075 C 
HETATM    8  C12 UNL     1      -1.557   6.550  12.541  1.00  0.00    -0.038 C 
HETATM    9  C13 UNL     1      -1.043   7.537  11.847  1.00  0.00     0.005 C 
HETATM   10  C14 UNL     1       0.246   7.478  11.122  1.00  0.00     0.200 C 
HETATM   11  O3  UNL     1       0.994   6.407  11.476  1.00  0.00    -0.341 OA
HETATM   12  C15 UNL     1       0.302   5.228  11.576  1.00  0.00     0.284 C 
HETATM   13  C18 UNL     1      -0.772   5.252  12.610  1.00  0.00     0.224 C 
HETATM   14  O7  UNL     1      -1.709   4.258  12.558  1.00  0.00    -0.369 OA
HETATM   15  C19 UNL     1      -2.954   4.785  12.791  1.00  0.00     0.138 C 
HETATM   16  C20 UNL     1      -3.831   4.067  13.746  1.00  0.00     0.028 C 
ENDROOT
BRANCH  12  17
HETATM   17  O4  UNL     1       1.258   4.277  12.041  1.00  0.00    -0.355 OA
ATOM     18  H4  UNL     1       1.336   3.643  11.339  1.00  0.00     0.213 HD
ENDBRANCH  12  17
BRANCH  12  19
HETATM   19  C16 UNL     1      -0.115   4.732  10.258  1.00  0.00     0.325 C 
HETATM   20  O5  UNL     1       0.687   4.082   9.550  1.00  0.00    -0.259 OA
BRANCH  19  21
HETATM   21  O6  UNL     1      -1.382   4.932   9.708  1.00  0.00    -0.322 OA
HETATM   22  C17 UNL     1      -1.663   4.817   8.342  1.00  0.00     0.213 C 
ENDBRANCH  19  21
ENDBRANCH  12  19
BRANCH   6  23
HETATM   23  O2  UNL     1      -4.620   6.827  11.989  1.00  0.00    -0.390 OA
HETATM   24  C10 UNL     1      -5.973   7.037  12.200  1.00  0.00     0.202 C 
ENDBRANCH   6  23
BRANCH   1  25
HETATM   25  C2  UNL     1      -4.849   2.004  12.724  1.00  0.00    -0.061 C 
HETATM   26  C1  UNL     1      -4.312   1.088  13.499  1.00  0.00     0.017 C 
BRANCH  25  27
HETATM   27  C3  UNL     1      -5.324   1.582  11.366  1.00  0.00     0.198 C 
BRANCH  27  28
HETATM   28  O1  UNL     1      -4.959   2.514  10.396  1.00  0.00    -0.397 OA
ATOM     29  H1  UNL     1      -5.636   2.602   9.736  1.00  0.00     0.209 HD
ENDBRANCH  27  28
ENDBRANCH  25  27
ENDBRANCH   1  25
TORSDOF 7
ENDMDL
MODEL 2
REMARK VINA RESULT: -6.603616883      1.512      1.719
REMARK  7 active torsions:
REMARK  status: ('A' for Active; 'I' for Inactive)
REMARK    1  A    between atoms: C2_2  and  C3_3 
REMARK    2  A    between atoms: C2_2  and  C4_6 
REMARK    3  A    between atoms: C3_3  and  O1_4 
REMARK    4  A    between atoms: C9_11  and  O2_12 
REMARK    5  A    between atoms: C15_19  and  O4_20 
REMARK    6  A    between atoms: C15_19  and  C16_22 
REMARK    7  A    between atoms: C16_22  and  O6_24 
ROOT
HETATM    1  C4  UNL     1      -5.255   3.138  13.991  1.00  0.00     0.023 C 
HETATM    2  C5  UNL     1      -6.465   3.220  14.894  1.00  0.00     0.010 C 
HETATM    3  C6  UNL     1      -6.175   4.330  15.841  1.00  0.00     0.006 C 
HETATM    4  C7  UNL     1      -5.246   5.266  15.081  1.00  0.00    -0.005 C 
HETATM    5  C8  UNL     1      -6.055   6.109  14.170  1.00  0.00     0.037 C 
HETATM    6  C9  UNL     1      -5.226   6.677  12.998  1.00  0.00     0.132 C 
HETATM    7  C11 UNL     1      -3.830   6.398  13.344  1.00  0.00     0.075 C 
HETATM    8  C12 UNL     1      -2.757   6.807  12.445  1.00  0.00    -0.038 C 
HETATM    9  C13 UNL     1      -2.486   7.645  11.473  1.00  0.00     0.005 C 
HETATM   10  C14 UNL     1      -1.181   7.743  10.782  1.00  0.00     0.200 C 
HETATM   11  O3  UNL     1      -0.195   7.086  11.436  1.00  0.00    -0.341 OA
HETATM   12  C15 UNL     1      -0.539   5.845  11.905  1.00  0.00     0.284 C 
HETATM   13  C18 UNL     1      -1.651   5.870  12.898  1.00  0.00     0.224 C 
HETATM   14  O7  UNL     1      -2.271   4.682  13.169  1.00  0.00    -0.369 OA
HETATM   15  C19 UNL     1      -3.627   4.876  13.247  1.00  0.00     0.138 C 
HETATM   16  C20 UNL     1      -4.340   4.257  14.390  1.00  0.00     0.028 C 
ENDROOT
BRANCH  12  17
HETATM   17  O4  UNL     1       0.605   5.391  12.625  1.00  0.00    -0.355 OA
ATOM     18  H4  UNL     1       0.286   4.684  13.173  1.00  0.00     0.213 HD
ENDBRANCH  12  17
BRANCH  12  19
HETATM   19  C16 UNL     1      -0.705   4.880  10.810  1.00  0.00     0.325 C 
HETATM   20  O5  UNL     1       0.283   4.244  10.379  1.00  0.00    -0.259 OA
BRANCH  19  21
HETATM   21  O6  UNL     1      -1.922   4.601  10.186  1.00  0.00    -0.322 OA
HETATM   22  C17 UNL     1      -2.174   4.849   8.832  1.00  0.00     0.213 C 
ENDBRANCH  19  21
ENDBRANCH  12  19
BRANCH   6  23
HETATM   23  O2  UNL     1      -5.729   6.021  11.881  1.00  0.00    -0.390 OA
HETATM   24  C10 UNL     1      -6.159   6.977  10.977  1.00  0.00     0.202 C 
ENDBRANCH   6  23
BRANCH   1  25
HETATM   25  C2  UNL     1      -4.671   1.783  14.068  1.00  0.00    -0.061 C 
HETATM   26  C1  UNL     1      -4.251   1.093  13.030  1.00  0.00     0.017 C 
BRANCH  25  27
HETATM   27  C3  UNL     1      -4.547   1.155  15.423  1.00  0.00     0.198 C 
BRANCH  27  28
HETATM   28  O1  UNL     1      -4.923  -0.186  15.389  1.00  0.00    -0.397 OA
ATOM     29  H1  UNL     1      -4.262  -0.736  15.793  1.00  0.00     0.209 HD
ENDBRANCH  27  28
ENDBRANCH  25  27
ENDBRANCH   1  25
TORSDOF 7
ENDMDL
MODEL 3
REMARK VINA RESULT: -6.479882708      1.867      5.865
REMARK  7 active torsions:
REMARK  status: ('A' for Active; 'I' for Inactive)
REMARK    1  A    between atoms: C2_2  and  C3_3 
REMARK    2  A    between atoms: C2_2  and  C4_6 
REMARK    3  A    between atoms: C3_3  and  O1_4 
REMARK    4  A    between atoms: C9_11  and  O2_12 
REMARK    5  A    between atoms: C15_19  and  O4_20 
REMARK    6  A    between atoms: C15_19  and  C16_22 
REMARK    7  A    between atoms: C16_22  and  O6_24 
ROOT
HETATM    1  C4  UNL     1      -0.101   6.440  12.321  1.00  0.00     0.023 C 
HETATM    2  C5  UNL     1       0.512   7.796  12.056  1.00  0.00     0.010 C 
HETATM    3  C6  UNL     1      -0.539   8.570  11.341  1.00  0.00     0.006 C 
HETATM    4  C7  UNL     1      -1.858   7.982  11.820  1.00  0.00    -0.005 C 
HETATM    5  C8  UNL     1      -2.184   8.556  13.146  1.00  0.00     0.037 C 
HETATM    6  C9  UNL     1      -3.158   7.668  13.951  1.00  0.00     0.132 C 
HETATM    7  C11 UNL     1      -3.646   6.670  12.996  1.00  0.00     0.075 C 
HETATM    8  C12 UNL     1      -4.602   5.654  13.424  1.00  0.00    -0.038 C 
HETATM    9  C13 UNL     1      -5.500   5.403  14.346  1.00  0.00     0.005 C 
HETATM   10  C14 UNL     1      -6.305   4.164  14.425  1.00  0.00     0.200 C 
HETATM   11  O3  UNL     1      -6.242   3.429  13.291  1.00  0.00    -0.341 OA
HETATM   12  C15 UNL     1      -4.987   3.301  12.754  1.00  0.00     0.284 C 
HETATM   13  C18 UNL     1      -4.374   4.600  12.355  1.00  0.00     0.224 C 
HETATM   14  O7  UNL     1      -3.027   4.607  12.121  1.00  0.00    -0.369 OA
HETATM   15  C19 UNL     1      -2.469   5.735  12.666  1.00  0.00     0.138 C 
HETATM   16  C20 UNL     1      -1.515   6.499  11.827  1.00  0.00     0.028 C 
ENDROOT
BRANCH  12  17
HETATM   17  O4  UNL     1      -5.176   2.579  11.539  1.00  0.00    -0.355 OA
ATOM     18  H4  UNL     1      -4.361   2.112  11.401  1.00  0.00     0.213 HD
ENDBRANCH  12  17
BRANCH  12  19
HETATM   19  C16 UNL     1      -4.132   2.437  13.578  1.00  0.00     0.325 C 
HETATM   20  O5  UNL     1      -3.674   1.372  13.106  1.00  0.00    -0.259 OA
BRANCH  19  21
HETATM   21  O6  UNL     1      -3.774   2.715  14.899  1.00  0.00    -0.322 OA
HETATM   22  C17 UNL     1      -4.096   1.890  15.981  1.00  0.00     0.213 C 
ENDBRANCH  19  21
ENDBRANCH  12  19
BRANCH   6  23
HETATM   23  O2  UNL     1      -2.387   7.192  15.004  1.00  0.00    -0.390 OA
HETATM   24  C10 UNL     1      -1.673   8.254  15.531  1.00  0.00     0.202 C 
ENDBRANCH   6  23
BRANCH   1  25
HETATM   25  C2  UNL     1       0.740   5.389  11.714  1.00  0.00    -0.061 C 
HETATM   26  C1  UNL     1       0.284   4.408  10.966  1.00  0.00     0.017 C 
BRANCH  25  27
HETATM   27  C3  UNL     1       2.217   5.449  11.965  1.00  0.00     0.198 C 
BRANCH  27  28
HETATM   28  O1  UNL     1       2.716   4.195  12.314  1.00  0.00    -0.397 OA
ATOM     29  H1  UNL     1       2.408   3.933  13.174  1.00  0.00     0.209 HD
ENDBRANCH  27  28
ENDBRANCH  25  27
ENDBRANCH   1  25
TORSDOF 7
ENDMDL
MODEL 4
REMARK VINA RESULT: -6.447261152      1.224      1.393
REMARK  7 active torsions:
REMARK  status: ('A' for Active; 'I' for Inactive)
REMARK    1  A    between atoms: C2_2  and  C3_3 
REMARK    2  A    between atoms: C2_2  and  C4_6 
REMARK    3  A    between atoms: C3_3  and  O1_4 
REMARK    4  A    between atoms: C9_11  and  O2_12 
REMARK    5  A    between atoms: C15_19  and  O4_20 
REMARK    6  A    between atoms: C15_19  and  C16_22 
REMARK    7  A    between atoms: C16_22  and  O6_24 
ROOT
HETATM    1  C4  UNL     1      -5.314   3.417  14.040  1.00  0.00     0.023 C 
HETATM    2  C5  UNL     1      -6.537   3.569  14.915  1.00  0.00     0.010 C 
HETATM    3  C6  UNL     1      -6.259   4.749  15.778  1.00  0.00     0.006 C 
HETATM    4  C7  UNL     1      -5.318   5.622  14.962  1.00  0.00    -0.005 C 
HETATM    5  C8  UNL     1      -6.112   6.393  13.977  1.00  0.00     0.037 C 
HETATM    6  C9  UNL     1      -5.264   6.868  12.776  1.00  0.00     0.132 C 
HETATM    7  C11 UNL     1      -3.874   6.616  13.164  1.00  0.00     0.075 C 
HETATM    8  C12 UNL     1      -2.787   6.954  12.252  1.00  0.00    -0.038 C 
HETATM    9  C13 UNL     1      -2.500   7.714  11.222  1.00  0.00     0.005 C 
HETATM   10  C14 UNL     1      -1.185   7.757  10.545  1.00  0.00     0.200 C 
HETATM   11  O3  UNL     1      -0.210   7.153  11.263  1.00  0.00    -0.341 OA
HETATM   12  C15 UNL     1      -0.563   5.952  11.821  1.00  0.00     0.284 C 
HETATM   13  C18 UNL     1      -1.690   6.054  12.792  1.00  0.00     0.224 C 
HETATM   14  O7  UNL     1      -2.316   4.891  13.145  1.00  0.00    -0.369 OA
HETATM   15  C19 UNL     1      -3.672   5.091  13.188  1.00  0.00     0.138 C 
HETATM   16  C20 UNL     1      -4.403   4.563  14.364  1.00  0.00     0.028 C 
ENDROOT
BRANCH  12  17
HETATM   17  O4  UNL     1       0.569   5.555  12.591  1.00  0.00    -0.355 OA
ATOM     18  H4  UNL     1       0.871   4.750  12.187  1.00  0.00     0.213 HD
ENDBRANCH  12  17
BRANCH  12  19
HETATM   19  C16 UNL     1      -0.714   4.905  10.802  1.00  0.00     0.325 C 
HETATM   20  O5  UNL     1       0.277   4.229  10.445  1.00  0.00    -0.259 OA
BRANCH  19  21
HETATM   21  O6  UNL     1      -1.920   4.589  10.173  1.00  0.00    -0.322 OA
HETATM   22  C17 UNL     1      -2.149   4.762   8.803  1.00  0.00     0.213 C 
ENDBRANCH  19  21
ENDBRANCH  12  19
BRANCH   6  23
HETATM   23  O2  UNL     1      -5.751   6.128  11.706  1.00  0.00    -0.390 OA
HETATM   24  C10 UNL     1      -6.170   7.011  10.725  1.00  0.00     0.202 C 
ENDBRANCH   6  23
BRANCH   1  25
HETATM   25  C2  UNL     1      -4.733   2.072  14.230  1.00  0.00    -0.061 C 
HETATM   26  C1  UNL     1      -4.642   1.456  15.388  1.00  0.00     0.017 C 
BRANCH  25  27
HETATM   27  C3  UNL     1      -4.216   1.360  13.016  1.00  0.00     0.198 C 
BRANCH  27  28
HETATM   28  O1  UNL     1      -2.950   1.826  12.665  1.00  0.00    -0.397 OA
ATOM     29  H1  UNL     1      -2.983   2.327  11.858  1.00  0.00     0.209 HD
ENDBRANCH  27  28
ENDBRANCH  25  27
ENDBRANCH   1  25
TORSDOF 7
ENDMDL
MODEL 5
REMARK VINA RESULT: -6.431181538      3.073      5.774
REMARK  7 active torsions:
REMARK  status: ('A' for Active; 'I' for Inactive)
REMARK    1  A    between atoms: C2_2  and  C3_3 
REMARK    2  A    between atoms: C2_2  and  C4_6 
REMARK    3  A    between atoms: C3_3  and  O1_4 
REMARK    4  A    between atoms: C9_11  and  O2_12 
REMARK    5  A    between atoms: C15_19  and  O4_20 
REMARK    6  A    between atoms: C15_19  and  C16_22 
REMARK    7  A    between atoms: C16_22  and  O6_24 
ROOT
HETATM    1  C4  UNL     1      -6.809   8.571   8.965  1.00  0.00     0.023 C 
HETATM    2  C5  UNL     1      -6.950  10.007   8.514  1.00  0.00     0.010 C 
HETATM    3  C6  UNL     1      -6.905  10.818   9.761  1.00  0.00     0.006 C 
HETATM    4  C7  UNL     1      -6.071   9.999  10.735  1.00  0.00    -0.005 C 
HETATM    5  C8  UNL     1      -4.636  10.200  10.423  1.00  0.00     0.037 C 
HETATM    6  C9  UNL     1      -3.751   9.048  10.948  1.00  0.00     0.132 C 
HETATM    7  C11 UNL     1      -4.621   8.265  11.828  1.00  0.00     0.075 C 
HETATM    8  C12 UNL     1      -4.103   7.084  12.508  1.00  0.00    -0.038 C 
HETATM    9  C13 UNL     1      -2.983   6.526  12.902  1.00  0.00     0.005 C 
HETATM   10  C14 UNL     1      -2.888   5.229  13.608  1.00  0.00     0.200 C 
HETATM   11  O3  UNL     1      -4.084   4.800  14.072  1.00  0.00    -0.341 OA
HETATM   12  C15 UNL     1      -5.127   4.935  13.192  1.00  0.00     0.284 C 
HETATM   13  C18 UNL     1      -5.398   6.348  12.801  1.00  0.00     0.224 C 
HETATM   14  O7  UNL     1      -6.185   6.550  11.701  1.00  0.00    -0.369 OA
HETATM   15  C19 UNL     1      -5.664   7.564  10.940  1.00  0.00     0.138 C 
HETATM   16  C20 UNL     1      -6.602   8.602  10.450  1.00  0.00     0.028 C 
ENDROOT
BRANCH  12  17
HETATM   17  O4  UNL     1      -6.280   4.512  13.917  1.00  0.00    -0.355 OA
ATOM     18  H4  UNL     1      -7.000   4.594  13.304  1.00  0.00     0.213 HD
ENDBRANCH  12  17
BRANCH  12  19
HETATM   19  C16 UNL     1      -5.017   3.990  12.073  1.00  0.00     0.325 C 
HETATM   20  O5  UNL     1      -5.081   2.758  12.283  1.00  0.00    -0.259 OA
BRANCH  19  21
HETATM   21  O6  UNL     1      -4.838   4.368  10.741  1.00  0.00    -0.322 OA
HETATM   22  C17 UNL     1      -3.621   4.255  10.058  1.00  0.00     0.213 C 
ENDBRANCH  19  21
ENDBRANCH  12  19
BRANCH   6  23
HETATM   23  O2  UNL     1      -3.306   8.414   9.795  1.00  0.00    -0.390 OA
HETATM   24  C10 UNL     1      -2.988   9.387   8.863  1.00  0.00     0.202 C 
ENDBRANCH   6  23
BRANCH   1  25
HETATM   25  C2  UNL     1      -7.974   7.790   8.503  1.00  0.00    -0.061 C 
HETATM   26  C1  UNL     1      -9.218   8.216   8.535  1.00  0.00     0.017 C 
BRANCH  25  27
HETATM   27  C3  UNL     1      -7.718   6.418   7.956  1.00  0.00     0.198 C 
BRANCH  27  28
HETATM   28  O1  UNL     1      -6.920   5.675   8.824  1.00  0.00    -0.397 OA
ATOM     29  H1  UNL     1      -7.201   4.768   8.854  1.00  0.00     0.209 HD
ENDBRANCH  27  28
ENDBRANCH  25  27
ENDBRANCH   1  25
TORSDOF 7
ENDMDL
