MODEL 1
REMARK VINA RESULT: -8.286021818      0.000      0.000
REMARK  7 active torsions:
REMARK  status: ('A' for Active; 'I' for Inactive)
REMARK    1  A    between atoms: N1_1  and  C1_5 
REMARK    2  A    between atoms: C1_5  and  C2_6 
REMARK    3  A    between atoms: C2_6  and  O1_7 
REMARK    4  A    between atoms: C4_13  and  C5_14 
REMARK       I    between atoms: C5_14  and  N4_16 
REMARK    5  A    between atoms: C13_25  and  O5_26 
REMARK    6  A    between atoms: C13_25  and  C14_28 
REMARK    7  A    between atoms: C14_28  and  C15_29 
ROOT
HETATM    1  C2  UNL     1      -4.573   0.091  10.706  1.00  0.00     0.148 C 
HETATM    2  N2  UNL     1      -4.051   1.194  11.312  1.00  0.00    -0.272 N 
HETATM    3  C3  UNL     1      -2.746   1.585  11.857  1.00  0.00     0.330 C 
HETATM    4  O2  UNL     1      -1.673   0.962  11.709  1.00  0.00    -0.246 OA
HETATM    5  N3  UNL     1      -2.987   2.800  12.559  1.00  0.00    -0.286 N 
HETATM    6  C4  UNL     1      -2.353   4.060  12.512  1.00  0.00     0.184 C 
HETATM    7  C10 UNL     1      -3.356   4.681  11.468  1.00  0.00     0.037 C 
HETATM    8  C11 UNL     1      -4.276   3.661  10.916  1.00  0.00     0.033 C 
HETATM    9  C12 UNL     1      -4.801   2.494  11.616  1.00  0.00     0.152 C 
HETATM   10  C13 UNL     1      -4.322   2.515  13.103  1.00  0.00     0.159 C 
ENDROOT
BRANCH  10  11
HETATM   11  O5  UNL     1      -4.337   1.240  13.616  1.00  0.00    -0.368 OA
ATOM     12  H5  UNL     1      -5.201   1.055  13.966  1.00  0.00     0.212 HD
ENDBRANCH  10  11
BRANCH  10  13
HETATM   13  C14 UNL     1      -4.977   3.438  13.972  1.00  0.00     0.068 C 
BRANCH  13  14
HETATM   14  C15 UNL     1      -5.747   2.787  15.097  1.00  0.00    -0.010 C 
HETATM   15  C16 UNL     1      -6.743   3.577  15.820  1.00  0.00     0.005 C 
HETATM   16  C17 UNL     1      -6.943   2.900  17.191  1.00  0.00     0.000 C 
HETATM   17  C18 UNL     1      -6.736   1.418  17.086  1.00  0.00     0.000 C 
HETATM   18  C19 UNL     1      -5.235   1.186  16.949  1.00  0.00     0.000 C 
HETATM   19  C20 UNL     1      -4.687   2.350  16.129  1.00  0.00     0.005 C 
ENDBRANCH  13  14
ENDBRANCH  10  13
BRANCH   6  20
HETATM   20  C5  UNL     1      -2.070   4.861  13.634  1.00  0.00     0.243 C 
HETATM   21  O3  UNL     1      -1.888   4.271  14.775  1.00  0.00    -0.271 OA
HETATM   22  N4  UNL     1      -1.967   6.261  13.644  1.00  0.00    -0.346 N 
HETATM   23  C6  UNL     1      -1.630   6.953  14.867  1.00  0.00     0.152 C 
HETATM   24  C9  UNL     1      -2.215   7.039  12.465  1.00  0.00     0.152 C 
HETATM   25  C7  UNL     1      -2.579   8.122  15.011  1.00  0.00     0.187 C 
HETATM   26  O4  UNL     1      -2.285   8.971  13.935  1.00  0.00    -0.388 OA
HETATM   27  C8  UNL     1      -2.706   8.439  12.733  1.00  0.00     0.187 C 
ENDBRANCH   6  20
BRANCH   1  28
HETATM   28  C1  UNL     1      -3.966  -1.189  10.388  1.00  0.00     0.313 C 
BRANCH  28  29
HETATM   29  N1  UNL     1      -3.297  -1.922  11.394  1.00  0.00    -0.072 N 
ATOM     30  H13 UNL     1      -2.382  -1.498  11.548  1.00  0.00     0.274 HD
ATOM     31  H12 UNL     1      -3.758  -1.741  12.285  1.00  0.00     0.274 HD
ATOM     32  H11 UNL     1      -3.174  -2.930  11.292  1.00  0.00     0.274 HD
ENDBRANCH  28  29
ENDBRANCH   1  28
BRANCH   1  33
HETATM   33  O1  UNL     1      -5.826   0.180  10.345  1.00  0.00    -0.348 OA
ATOM     34  H1  UNL     1      -6.277   0.929  10.717  1.00  0.00     0.219 HD
ENDBRANCH   1  33
TORSDOF 7
ENDMDL
MODEL 2
REMARK VINA RESULT: -7.878572014      2.617      4.886
REMARK  7 active torsions:
REMARK  status: ('A' for Active; 'I' for Inactive)
REMARK    1  A    between atoms: N1_1  and  C1_5 
REMARK    2  A    between atoms: C1_5  and  C2_6 
REMARK    3  A    between atoms: C2_6  and  O1_7 
REMARK    4  A    between atoms: C4_13  and  C5_14 
REMARK       I    between atoms: C5_14  and  N4_16 
REMARK    5  A    between atoms: C13_25  and  O5_26 
REMARK    6  A    between atoms: C13_25  and  C14_28 
REMARK    7  A    between atoms: C14_28  and  C15_29 
ROOT
HETATM    1  C2  UNL     1      -4.063   1.683  11.907  1.00  0.00     0.148 C 
HETATM    2  N2  UNL     1      -3.517   2.932  11.901  1.00  0.00    -0.272 N 
HETATM    3  C3  UNL     1      -2.987   3.860  12.906  1.00  0.00     0.330 C 
HETATM    4  O2  UNL     1      -2.754   3.590  14.103  1.00  0.00    -0.246 OA
HETATM    5  N3  UNL     1      -2.804   5.090  12.212  1.00  0.00    -0.286 N 
HETATM    6  C4  UNL     1      -1.698   5.962  12.112  1.00  0.00     0.184 C 
HETATM    7  C10 UNL     1      -1.152   5.339  10.772  1.00  0.00     0.037 C 
HETATM    8  C11 UNL     1      -1.873   4.099  10.408  1.00  0.00     0.033 C 
HETATM    9  C12 UNL     1      -3.279   3.804  10.666  1.00  0.00     0.152 C 
HETATM   10  C13 UNL     1      -3.966   5.048  11.314  1.00  0.00     0.159 C 
ENDROOT
BRANCH  10  11
HETATM   11  O5  UNL     1      -5.072   4.652  12.026  1.00  0.00    -0.368 OA
ATOM     12  H5  UNL     1      -5.733   4.331  11.423  1.00  0.00     0.212 HD
ENDBRANCH  10  11
BRANCH  10  13
HETATM   13  C14 UNL     1      -4.265   6.138  10.444  1.00  0.00     0.068 C 
BRANCH  13  14
HETATM   14  C15 UNL     1      -5.453   5.898   9.541  1.00  0.00    -0.010 C 
HETATM   15  C16 UNL     1      -5.224   5.341   8.208  1.00  0.00     0.005 C 
HETATM   16  C17 UNL     1      -6.446   5.720   7.348  1.00  0.00     0.000 C 
HETATM   17  C18 UNL     1      -7.684   5.802   8.192  1.00  0.00     0.000 C 
HETATM   18  C19 UNL     1      -7.585   7.089   9.004  1.00  0.00     0.000 C 
HETATM   19  C20 UNL     1      -6.110   7.280   9.341  1.00  0.00     0.005 C 
ENDBRANCH  13  14
ENDBRANCH  10  13
BRANCH   6  20
HETATM   20  C5  UNL     1      -1.775   7.367  12.142  1.00  0.00     0.243 C 
HETATM   21  O3  UNL     1      -1.567   8.013  11.036  1.00  0.00    -0.271 OA
HETATM   22  N4  UNL     1      -2.056   8.154  13.269  1.00  0.00    -0.346 N 
HETATM   23  C6  UNL     1      -2.143   9.591  13.145  1.00  0.00     0.152 C 
HETATM   24  C9  UNL     1      -2.236   7.568  14.566  1.00  0.00     0.152 C 
HETATM   25  C7  UNL     1      -1.354  10.201  14.282  1.00  0.00     0.187 C 
HETATM   26  O4  UNL     1      -2.033   9.823  15.447  1.00  0.00    -0.388 OA
HETATM   27  C8  UNL     1      -1.880   8.477  15.716  1.00  0.00     0.187 C 
ENDBRANCH   6  20
BRANCH   1  28
HETATM   28  C1  UNL     1      -4.349   0.782  13.009  1.00  0.00     0.313 C 
BRANCH  28  29
HETATM   29  N1  UNL     1      -4.516   1.295  14.314  1.00  0.00    -0.072 N 
ATOM     30  H13 UNL     1      -4.353   0.540  14.981  1.00  0.00     0.274 HD
ATOM     31  H12 UNL     1      -3.735   1.918  14.518  1.00  0.00     0.274 HD
ATOM     32  H11 UNL     1      -5.383   1.770  14.569  1.00  0.00     0.274 HD
ENDBRANCH  28  29
ENDBRANCH   1  28
BRANCH   1  33
HETATM   33  O1  UNL     1      -4.390   1.200  10.737  1.00  0.00    -0.348 OA
ATOM     34  H1  UNL     1      -4.315   1.831  10.031  1.00  0.00     0.219 HD
ENDBRANCH   1  33
TORSDOF 7
ENDMDL
MODEL 3
REMARK VINA RESULT: -7.873693973      3.127      5.372
REMARK  7 active torsions:
REMARK  status: ('A' for Active; 'I' for Inactive)
REMARK    1  A    between atoms: N1_1  and  C1_5 
REMARK    2  A    between atoms: C1_5  and  C2_6 
REMARK    3  A    between atoms: C2_6  and  O1_7 
REMARK    4  A    between atoms: C4_13  and  C5_14 
REMARK       I    between atoms: C5_14  and  N4_16 
REMARK    5  A    between atoms: C13_25  and  O5_26 
REMARK    6  A    between atoms: C13_25  and  C14_28 
REMARK    7  A    between atoms: C14_28  and  C15_29 
ROOT
HETATM    1  C2  UNL     1      -5.757   2.396  16.480  1.00  0.00     0.148 C 
HETATM    2  N2  UNL     1      -5.347   3.231  15.483  1.00  0.00    -0.272 N 
HETATM    3  C3  UNL     1      -5.864   4.443  14.838  1.00  0.00     0.330 C 
HETATM    4  O2  UNL     1      -6.830   5.130  15.234  1.00  0.00    -0.246 OA
HETATM    5  N3  UNL     1      -5.029   4.642  13.703  1.00  0.00    -0.286 N 
HETATM    6  C4  UNL     1      -4.315   5.770  13.241  1.00  0.00     0.184 C 
HETATM    7  C10 UNL     1      -2.960   5.369  13.936  1.00  0.00     0.037 C 
HETATM    8  C11 UNL     1      -3.128   4.214  14.845  1.00  0.00     0.033 C 
HETATM    9  C12 UNL     1      -4.055   3.100  14.673  1.00  0.00     0.152 C 
HETATM   10  C13 UNL     1      -4.802   3.245  13.309  1.00  0.00     0.159 C 
ENDROOT
BRANCH  10  11
HETATM   11  O5  UNL     1      -5.994   2.564  13.355  1.00  0.00    -0.368 OA
ATOM     12  H5  UNL     1      -5.917   1.764  12.847  1.00  0.00     0.212 HD
ENDBRANCH  10  11
BRANCH  10  13
HETATM   13  C14 UNL     1      -4.058   2.921  12.136  1.00  0.00     0.068 C 
BRANCH  13  14
HETATM   14  C15 UNL     1      -3.778   1.445  11.970  1.00  0.00    -0.010 C 
HETATM   15  C16 UNL     1      -2.397   1.007  11.772  1.00  0.00     0.005 C 
HETATM   16  C17 UNL     1      -2.459  -0.378  11.095  1.00  0.00     0.000 C 
HETATM   17  C18 UNL     1      -3.686  -1.125  11.528  1.00  0.00     0.000 C 
HETATM   18  C19 UNL     1      -4.872  -0.484  10.815  1.00  0.00     0.000 C 
HETATM   19  C20 UNL     1      -4.570   1.008  10.721  1.00  0.00     0.005 C 
ENDBRANCH  13  14
ENDBRANCH  10  13
BRANCH   6  20
HETATM   20  C5  UNL     1      -4.215   6.163  11.893  1.00  0.00     0.243 C 
HETATM   21  O3  UNL     1      -3.062   6.052  11.310  1.00  0.00    -0.271 OA
HETATM   22  N4  UNL     1      -5.255   6.676  11.103  1.00  0.00    -0.346 N 
HETATM   23  C6  UNL     1      -5.017   7.003   9.716  1.00  0.00     0.152 C 
HETATM   24  C9  UNL     1      -6.561   6.915  11.647  1.00  0.00     0.152 C 
HETATM   25  C7  UNL     1      -5.626   8.362   9.451  1.00  0.00     0.187 C 
HETATM   26  O4  UNL     1      -7.005   8.189   9.627  1.00  0.00    -0.388 OA
HETATM   27  C8  UNL     1      -7.333   8.010  10.956  1.00  0.00     0.187 C 
ENDBRANCH   6  20
BRANCH   1  28
HETATM   28  C1  UNL     1      -6.959   2.415  17.293  1.00  0.00     0.313 C 
BRANCH  28  29
HETATM   29  N1  UNL     1      -7.709   1.231  17.471  1.00  0.00    -0.072 N 
ATOM     30  H13 UNL     1      -8.690   1.440  17.288  1.00  0.00     0.274 HD
ATOM     31  H12 UNL     1      -7.490   0.593  16.705  1.00  0.00     0.274 HD
ATOM     32  H11 UNL     1      -7.646   0.715  18.349  1.00  0.00     0.274 HD
ENDBRANCH  28  29
ENDBRANCH   1  28
BRANCH   1  33
HETATM   33  O1  UNL     1      -4.947   1.410  16.763  1.00  0.00    -0.348 OA
ATOM     34  H1  UNL     1      -4.314   1.228  16.078  1.00  0.00     0.219 HD
ENDBRANCH   1  33
TORSDOF 7
ENDMDL
MODEL 4
REMARK VINA RESULT: -7.864713203      3.040      5.832
REMARK  7 active torsions:
REMARK  status: ('A' for Active; 'I' for Inactive)
REMARK    1  A    between atoms: N1_1  and  C1_5 
REMARK    2  A    between atoms: C1_5  and  C2_6 
REMARK    3  A    between atoms: C2_6  and  O1_7 
REMARK    4  A    between atoms: C4_13  and  C5_14 
REMARK       I    between atoms: C5_14  and  N4_16 
REMARK    5  A    between atoms: C13_25  and  O5_26 
REMARK    6  A    between atoms: C13_25  and  C14_28 
REMARK    7  A    between atoms: C14_28  and  C15_29 
ROOT
HETATM    1  C2  UNL     1      -5.986   8.086  10.009  1.00  0.00     0.148 C 
HETATM    2  N2  UNL     1      -5.290   6.979  10.393  1.00  0.00    -0.272 N 
HETATM    3  C3  UNL     1      -5.270   5.560  10.021  1.00  0.00     0.330 C 
HETATM    4  O2  UNL     1      -5.850   5.051   9.039  1.00  0.00    -0.246 OA
HETATM    5  N3  UNL     1      -4.456   4.932  11.005  1.00  0.00    -0.286 N 
HETATM    6  C4  UNL     1      -3.348   4.063  10.900  1.00  0.00     0.184 C 
HETATM    7  C10 UNL     1      -2.267   5.203  11.002  1.00  0.00     0.037 C 
HETATM    8  C11 UNL     1      -2.880   6.549  10.942  1.00  0.00     0.033 C 
HETATM    9  C12 UNL     1      -4.190   6.931  11.457  1.00  0.00     0.152 C 
HETATM   10  C13 UNL     1      -4.842   5.713  12.188  1.00  0.00     0.159 C 
ENDROOT
BRANCH  10  11
HETATM   11  O5  UNL     1      -6.209   5.857  12.207  1.00  0.00    -0.368 OA
ATOM     12  H5  UNL     1      -6.487   6.297  11.412  1.00  0.00     0.212 HD
ENDBRANCH  10  11
BRANCH  10  13
HETATM   13  C14 UNL     1      -4.331   5.396  13.481  1.00  0.00     0.068 C 
BRANCH  13  14
HETATM   14  C15 UNL     1      -5.257   4.548  14.320  1.00  0.00    -0.010 C 
HETATM   15  C16 UNL     1      -6.200   5.211  15.220  1.00  0.00     0.005 C 
HETATM   16  C17 UNL     1      -6.584   4.183  16.305  1.00  0.00     0.000 C 
HETATM   17  C18 UNL     1      -6.552   2.789  15.749  1.00  0.00     0.000 C 
HETATM   18  C19 UNL     1      -5.085   2.403  15.596  1.00  0.00     0.000 C 
HETATM   19  C20 UNL     1      -4.339   3.673  15.200  1.00  0.00     0.005 C 
ENDBRANCH  13  14
ENDBRANCH  10  13
BRANCH   6  20
HETATM   20  C5  UNL     1      -3.126   2.939  11.719  1.00  0.00     0.243 C 
HETATM   21  O3  UNL     1      -2.172   3.003  12.596  1.00  0.00    -0.271 OA
HETATM   22  N4  UNL     1      -3.842   1.733  11.679  1.00  0.00    -0.346 N 
HETATM   23  C6  UNL     1      -3.529   0.673  12.609  1.00  0.00     0.152 C 
HETATM   24  C9  UNL     1      -4.875   1.508  10.708  1.00  0.00     0.152 C 
HETATM   25  C7  UNL     1      -3.458  -0.620  11.829  1.00  0.00     0.187 C 
HETATM   26  O4  UNL     1      -4.756  -0.833  11.347  1.00  0.00    -0.388 OA
HETATM   27  C8  UNL     1      -5.084   0.059  10.346  1.00  0.00     0.187 C 
ENDBRANCH   6  20
BRANCH   1  28
HETATM   28  C1  UNL     1      -7.050   8.243   9.035  1.00  0.00     0.313 C 
BRANCH  28  29
HETATM   29  N1  UNL     1      -6.901   7.711   7.735  1.00  0.00    -0.072 N 
ATOM     30  H13 UNL     1      -7.675   8.042   7.159  1.00  0.00     0.274 HD
ATOM     31  H12 UNL     1      -6.105   8.167   7.290  1.00  0.00     0.274 HD
ATOM     32  H11 UNL     1      -6.810   6.703   7.604  1.00  0.00     0.274 HD
ENDBRANCH  28  29
ENDBRANCH   1  28
BRANCH   1  33
HETATM   33  O1  UNL     1      -5.656   9.200  10.608  1.00  0.00    -0.348 OA
ATOM     34  H1  UNL     1      -4.799   9.173  11.017  1.00  0.00     0.219 HD
ENDBRANCH   1  33
TORSDOF 7
ENDMDL
MODEL 5
REMARK VINA RESULT: -7.836988271      2.886      5.230
REMARK  7 active torsions:
REMARK  status: ('A' for Active; 'I' for Inactive)
REMARK    1  A    between atoms: N1_1  and  C1_5 
REMARK    2  A    between atoms: C1_5  and  C2_6 
REMARK    3  A    between atoms: C2_6  and  O1_7 
REMARK    4  A    between atoms: C4_13  and  C5_14 
REMARK       I    between atoms: C5_14  and  N4_16 
REMARK    5  A    between atoms: C13_25  and  O5_26 
REMARK    6  A    between atoms: C13_25  and  C14_28 
REMARK    7  A    between atoms: C14_28  and  C15_29 
ROOT
HETATM    1  C2  UNL     1      -5.047   1.369  16.682  1.00  0.00     0.148 C 
HETATM    2  N2  UNL     1      -5.183   2.502  15.935  1.00  0.00    -0.272 N 
HETATM    3  C3  UNL     1      -6.194   3.554  15.784  1.00  0.00     0.330 C 
HETATM    4  O2  UNL     1      -7.186   3.729  16.523  1.00  0.00    -0.246 OA
HETATM    5  N3  UNL     1      -5.782   4.300  14.644  1.00  0.00    -0.286 N 
HETATM    6  C4  UNL     1      -5.592   5.684  14.439  1.00  0.00     0.184 C 
HETATM    7  C10 UNL     1      -4.047   5.658  14.748  1.00  0.00     0.037 C 
HETATM    8  C11 UNL     1      -3.614   4.345  15.276  1.00  0.00     0.033 C 
HETATM    9  C12 UNL     1      -4.168   3.042  14.925  1.00  0.00     0.152 C 
HETATM   10  C13 UNL     1      -5.250   3.214  13.811  1.00  0.00     0.159 C 
ENDROOT
BRANCH  10  11
HETATM   11  O5  UNL     1      -6.122   2.153  13.840  1.00  0.00    -0.368 OA
ATOM     12  H5  UNL     1      -5.643   1.350  13.674  1.00  0.00     0.212 HD
ENDBRANCH  10  11
BRANCH  10  13
HETATM   13  C14 UNL     1      -4.772   3.463  12.490  1.00  0.00     0.068 C 
BRANCH  13  14
HETATM   14  C15 UNL     1      -3.502   2.722  12.143  1.00  0.00    -0.010 C 
HETATM   15  C16 UNL     1      -2.371   3.476  11.602  1.00  0.00     0.005 C 
HETATM   16  C17 UNL     1      -1.482   2.469  10.844  1.00  0.00     0.000 C 
HETATM   17  C18 UNL     1      -1.560   1.111  11.478  1.00  0.00     0.000 C 
HETATM   18  C19 UNL     1      -2.917   0.523  11.107  1.00  0.00     0.000 C 
HETATM   19  C20 UNL     1      -3.902   1.687  11.072  1.00  0.00     0.005 C 
ENDBRANCH  13  14
ENDBRANCH  10  13
BRANCH   6  20
HETATM   20  C5  UNL     1      -5.968   6.386  13.278  1.00  0.00     0.243 C 
HETATM   21  O3  UNL     1      -7.224   6.401  12.955  1.00  0.00    -0.271 OA
HETATM   22  N4  UNL     1      -5.104   7.079  12.416  1.00  0.00    -0.346 N 
HETATM   23  C6  UNL     1      -5.636   7.791  11.277  1.00  0.00     0.152 C 
HETATM   24  C9  UNL     1      -3.684   7.080  12.621  1.00  0.00     0.152 C 
HETATM   25  C7  UNL     1      -4.776   7.453  10.079  1.00  0.00     0.187 C 
HETATM   26  O4  UNL     1      -3.512   7.981  10.371  1.00  0.00    -0.388 OA
HETATM   27  C8  UNL     1      -2.873   7.263  11.362  1.00  0.00     0.187 C 
ENDBRANCH   6  20
BRANCH   1  28
HETATM   28  C1  UNL     1      -5.943   0.759  17.646  1.00  0.00     0.313 C 
BRANCH  28  29
HETATM   29  N1  UNL     1      -7.341   0.908  17.502  1.00  0.00    -0.072 N 
ATOM     30  H13 UNL     1      -7.582   1.883  17.678  1.00  0.00     0.274 HD
ATOM     31  H12 UNL     1      -7.575   0.815  16.514  1.00  0.00     0.274 HD
ATOM     32  H11 UNL     1      -7.974   0.316  18.041  1.00  0.00     0.274 HD
ENDBRANCH  28  29
ENDBRANCH   1  28
BRANCH   1  33
HETATM   33  O1  UNL     1      -3.930   0.710  16.514  1.00  0.00    -0.348 OA
ATOM     34  H1  UNL     1      -3.160   1.187  16.798  1.00  0.00     0.219 HD
ENDBRANCH   1  33
TORSDOF 7
ENDMDL
