MODEL 1
REMARK VINA RESULT: -5.851115353      0.000      0.000
REMARK  5 active torsions:
REMARK  status: ('A' for Active; 'I' for Inactive)
REMARK    1  A    between atoms: N1_2  and  C3_4 
REMARK    2  A    between atoms: C3_4  and  C4_5 
REMARK       I    between atoms: C4_5  and  N2_7 
REMARK    3  A    between atoms: N4_14  and  C8_15 
REMARK    4  A    between atoms: C8_15  and  C11_18 
REMARK    5  A    between atoms: C11_18  and  C12_19 
ROOT
HETATM    1  C4  UNL     1      -3.482   2.159  11.919  1.00  0.00     0.248 C 
HETATM    2  O1  UNL     1      -2.966   2.298  10.780  1.00  0.00    -0.271 OA
HETATM    3  N2  UNL     1      -3.483   3.194  12.890  1.00  0.00    -0.347 N 
HETATM    4  C5  UNL     1      -2.857   4.450  12.524  1.00  0.00     0.145 C 
HETATM    5  C6  UNL     1      -3.475   5.024  11.241  1.00  0.00     0.144 C 
HETATM    6  N3  UNL     1      -3.580   6.439  11.405  1.00  0.00    -0.341 N 
ATOM      7  H3  UNL     1      -3.331   6.825  12.315  1.00  0.00     0.164 HD
HETATM    8  C7  UNL     1      -4.009   7.365  10.389  1.00  0.00     0.319 C 
HETATM    9  O2  UNL     1      -3.300   8.412  10.320  1.00  0.00    -0.247 OA
HETATM   10  N4  UNL     1      -5.106   7.171   9.526  1.00  0.00    -0.324 N 
HETATM   11  C13 UNL     1      -6.366   6.608  10.026  1.00  0.00     0.154 C 
HETATM   12  C14 UNL     1      -6.862   7.324  11.261  1.00  0.00     0.187 C 
HETATM   13  O3  UNL     1      -6.371   6.864  12.447  1.00  0.00    -0.387 OA
HETATM   14  C15 UNL     1      -7.333   6.427  13.345  1.00  0.00     0.193 C 
HETATM   15  C16 UNL     1      -6.770   5.363  14.286  1.00  0.00     0.193 C 
HETATM   16  O4  UNL     1      -5.764   4.641  13.652  1.00  0.00    -0.387 OA
HETATM   17  C17 UNL     1      -5.505   3.448  14.272  1.00  0.00     0.187 C 
HETATM   18  C18 UNL     1      -4.078   2.993  14.170  1.00  0.00     0.152 C 
ENDROOT
BRANCH   1  19
HETATM   19  C3  UNL     1      -4.107   0.863  12.245  1.00  0.00     0.373 C 
BRANCH  19  20
HETATM   20  N1  UNL     1      -3.917  -0.098  11.167  1.00  0.00     0.088 N 
HETATM   21  C1  UNL     1      -5.084  -0.211  10.345  1.00  0.00     0.310 C 
HETATM   22  C2  UNL     1      -3.583  -1.412  11.682  1.00  0.00     0.310 C 
ENDBRANCH  19  20
ENDBRANCH   1  19
BRANCH  10  23
HETATM   23  C8  UNL     1      -4.983   7.550   8.123  1.00  0.00     0.030 C 
HETATM   24  C9  UNL     1      -3.569   7.281   7.623  1.00  0.00     0.038 C 
HETATM   25  C10 UNL     1      -5.818   6.564   7.263  1.00  0.00     0.038 C 
BRANCH  23  26
HETATM   26  C11 UNL     1      -5.365   8.946   7.813  1.00  0.00     0.041 C 
BRANCH  26  27
HETATM   27  C12 UNL     1      -6.640   9.165   7.078  1.00  0.00     0.088 C 
HETATM   28  S1  UNL     1      -8.084   9.504   8.095  1.00  0.00    -0.098 SA
ENDBRANCH  26  27
ENDBRANCH  23  26
ENDBRANCH  10  23
TORSDOF 5
ENDMDL
MODEL 2
REMARK VINA RESULT: -5.773981557      3.407      7.112
REMARK  5 active torsions:
REMARK  status: ('A' for Active; 'I' for Inactive)
REMARK    1  A    between atoms: N1_2  and  C3_4 
REMARK    2  A    between atoms: C3_4  and  C4_5 
REMARK       I    between atoms: C4_5  and  N2_7 
REMARK    3  A    between atoms: N4_14  and  C8_15 
REMARK    4  A    between atoms: C8_15  and  C11_18 
REMARK    5  A    between atoms: C11_18  and  C12_19 
ROOT
HETATM    1  C4  UNL     1      -5.747   6.810   9.010  1.00  0.00     0.248 C 
HETATM    2  O1  UNL     1      -6.695   6.117   9.461  1.00  0.00    -0.271 OA
HETATM    3  N2  UNL     1      -4.981   7.682   9.825  1.00  0.00    -0.347 N 
HETATM    4  C5  UNL     1      -5.328   7.754  11.231  1.00  0.00     0.145 C 
HETATM    5  C6  UNL     1      -5.289   6.364  11.883  1.00  0.00     0.144 C 
HETATM    6  N3  UNL     1      -4.728   6.512  13.188  1.00  0.00    -0.341 N 
ATOM      7  H3  UNL     1      -4.378   7.435  13.446  1.00  0.00     0.164 HD
HETATM    8  C7  UNL     1      -4.616   5.465  14.169  1.00  0.00     0.319 C 
HETATM    9  O2  UNL     1      -4.943   5.823  15.339  1.00  0.00    -0.247 OA
HETATM   10  N4  UNL     1      -4.189   4.147  13.905  1.00  0.00    -0.324 N 
HETATM   11  C13 UNL     1      -3.061   3.889  13.003  1.00  0.00     0.154 C 
HETATM   12  C14 UNL     1      -1.845   4.714  13.358  1.00  0.00     0.187 C 
HETATM   13  O3  UNL     1      -1.794   5.959  12.806  1.00  0.00    -0.387 OA
HETATM   14  C15 UNL     1      -0.680   6.202  12.016  1.00  0.00     0.193 C 
HETATM   15  C16 UNL     1      -0.979   7.249  10.944  1.00  0.00     0.193 C 
HETATM   16  O4  UNL     1      -2.321   7.203  10.584  1.00  0.00    -0.387 OA
HETATM   17  C17 UNL     1      -2.562   7.813   9.382  1.00  0.00     0.187 C 
HETATM   18  C18 UNL     1      -3.916   8.452   9.270  1.00  0.00     0.152 C 
ENDROOT
BRANCH   1  19
HETATM   19  C3  UNL     1      -5.432   6.703   7.572  1.00  0.00     0.373 C 
BRANCH  19  20
HETATM   20  N1  UNL     1      -4.817   5.418   7.264  1.00  0.00     0.088 N 
HETATM   21  C1  UNL     1      -3.518   5.578   6.685  1.00  0.00     0.310 C 
HETATM   22  C2  UNL     1      -5.638   4.644   6.354  1.00  0.00     0.310 C 
ENDBRANCH  19  20
ENDBRANCH   1  19
BRANCH  10  23
HETATM   23  C8  UNL     1      -4.876   3.034  14.551  1.00  0.00     0.030 C 
HETATM   24  C9  UNL     1      -6.373   3.305  14.624  1.00  0.00     0.038 C 
HETATM   25  C10 UNL     1      -4.821   1.800  13.612  1.00  0.00     0.038 C 
BRANCH  23  26
HETATM   26  C11 UNL     1      -4.367   2.676  15.894  1.00  0.00     0.041 C 
BRANCH  26  27
HETATM   27  C12 UNL     1      -4.587   1.282  16.365  1.00  0.00     0.088 C 
HETATM   28  S1  UNL     1      -5.927   1.053  17.543  1.00  0.00    -0.098 SA
ENDBRANCH  26  27
ENDBRANCH  23  26
ENDBRANCH  10  23
TORSDOF 5
ENDMDL
MODEL 3
REMARK VINA RESULT: -5.750247070      1.696      2.108
REMARK  5 active torsions:
REMARK  status: ('A' for Active; 'I' for Inactive)
REMARK    1  A    between atoms: N1_2  and  C3_4 
REMARK    2  A    between atoms: C3_4  and  C4_5 
REMARK       I    between atoms: C4_5  and  N2_7 
REMARK    3  A    between atoms: N4_14  and  C8_15 
REMARK    4  A    between atoms: C8_15  and  C11_18 
REMARK    5  A    between atoms: C11_18  and  C12_19 
ROOT
HETATM    1  C4  UNL     1      -3.349   2.136  11.887  1.00  0.00     0.248 C 
HETATM    2  O1  UNL     1      -2.749   2.204  10.783  1.00  0.00    -0.271 OA
HETATM    3  N2  UNL     1      -3.357   3.205  12.819  1.00  0.00    -0.347 N 
HETATM    4  C5  UNL     1      -2.637   4.411  12.456  1.00  0.00     0.145 C 
HETATM    5  C6  UNL     1      -3.133   4.969  11.114  1.00  0.00     0.144 C 
HETATM    6  N3  UNL     1      -3.168   6.393  11.221  1.00  0.00    -0.341 N 
ATOM      7  H3  UNL     1      -2.960   6.799  12.133  1.00  0.00     0.164 HD
HETATM    8  C7  UNL     1      -3.473   7.301  10.147  1.00  0.00     0.319 C 
HETATM    9  O2  UNL     1      -2.703   8.305  10.093  1.00  0.00    -0.247 OA
HETATM   10  N4  UNL     1      -4.518   7.135   9.216  1.00  0.00    -0.324 N 
HETATM   11  C13 UNL     1      -5.839   6.660   9.645  1.00  0.00     0.154 C 
HETATM   12  C14 UNL     1      -6.377   7.448  10.818  1.00  0.00     0.187 C 
HETATM   13  O3  UNL     1      -5.995   7.008  12.050  1.00  0.00    -0.387 OA
HETATM   14  C15 UNL     1      -7.040   6.658  12.893  1.00  0.00     0.193 C 
HETATM   15  C16 UNL     1      -6.603   5.601  13.906  1.00  0.00     0.193 C 
HETATM   16  O4  UNL     1      -5.599   4.803  13.369  1.00  0.00    -0.387 OA
HETATM   17  C17 UNL     1      -5.451   3.622  14.046  1.00  0.00     0.187 C 
HETATM   18  C18 UNL     1      -4.048   3.086  14.061  1.00  0.00     0.152 C 
ENDROOT
BRANCH   1  19
HETATM   19  C3  UNL     1      -4.068   0.890  12.212  1.00  0.00     0.373 C 
BRANCH  19  20
HETATM   20  N1  UNL     1      -3.967  -0.074  11.123  1.00  0.00     0.088 N 
HETATM   21  C1  UNL     1      -5.162  -0.109  10.336  1.00  0.00     0.310 C 
HETATM   22  C2  UNL     1      -3.701  -1.409  11.621  1.00  0.00     0.310 C 
ENDBRANCH  19  20
ENDBRANCH   1  19
BRANCH  10  23
HETATM   23  C8  UNL     1      -4.278   7.453   7.813  1.00  0.00     0.030 C 
HETATM   24  C9  UNL     1      -5.263   6.706   6.923  1.00  0.00     0.038 C 
HETATM   25  C10 UNL     1      -4.679   8.931   7.560  1.00  0.00     0.038 C 
BRANCH  23  26
HETATM   26  C11 UNL     1      -2.897   7.211   7.341  1.00  0.00     0.041 C 
BRANCH  26  27
HETATM   27  C12 UNL     1      -2.541   5.825   6.934  1.00  0.00     0.088 C 
HETATM   28  S1  UNL     1      -1.157   5.081   7.809  1.00  0.00    -0.098 SA
ENDBRANCH  26  27
ENDBRANCH  23  26
ENDBRANCH  10  23
TORSDOF 5
ENDMDL
MODEL 4
REMARK VINA RESULT: -5.747452316      2.482      3.402
REMARK  5 active torsions:
REMARK  status: ('A' for Active; 'I' for Inactive)
REMARK    1  A    between atoms: N1_2  and  C3_4 
REMARK    2  A    between atoms: C3_4  and  C4_5 
REMARK       I    between atoms: C4_5  and  N2_7 
REMARK    3  A    between atoms: N4_14  and  C8_15 
REMARK    4  A    between atoms: C8_15  and  C11_18 
REMARK    5  A    between atoms: C11_18  and  C12_19 
ROOT
HETATM    1  C4  UNL     1      -4.433   3.379  13.745  1.00  0.00     0.248 C 
HETATM    2  O1  UNL     1      -5.390   2.995  13.025  1.00  0.00    -0.271 OA
HETATM    3  N2  UNL     1      -3.236   3.914  13.203  1.00  0.00    -0.347 N 
HETATM    4  C5  UNL     1      -3.143   4.010  11.759  1.00  0.00     0.145 C 
HETATM    5  C6  UNL     1      -4.312   4.822  11.181  1.00  0.00     0.144 C 
HETATM    6  N3  UNL     1      -3.797   5.633  10.124  1.00  0.00    -0.341 N 
ATOM      7  H3  UNL     1      -2.788   5.623   9.975  1.00  0.00     0.164 HD
HETATM    8  C7  UNL     1      -4.586   6.462   9.252  1.00  0.00     0.319 C 
HETATM    9  O2  UNL     1      -4.253   6.383   8.032  1.00  0.00    -0.247 OA
HETATM   10  N4  UNL     1      -5.641   7.301   9.665  1.00  0.00    -0.324 N 
HETATM   11  C13 UNL     1      -5.527   8.105  10.887  1.00  0.00     0.154 C 
HETATM   12  C14 UNL     1      -4.247   8.907  10.928  1.00  0.00     0.187 C 
HETATM   13  O3  UNL     1      -3.161   8.263  11.442  1.00  0.00    -0.387 OA
HETATM   14  C15 UNL     1      -2.586   8.878  12.544  1.00  0.00     0.193 C 
HETATM   15  C16 UNL     1      -1.883   7.861  13.441  1.00  0.00     0.193 C 
HETATM   16  O4  UNL     1      -2.509   6.622  13.351  1.00  0.00    -0.387 OA
HETATM   17  C17 UNL     1      -2.195   5.799  14.399  1.00  0.00     0.187 C 
HETATM   18  C18 UNL     1      -2.174   4.337  14.056  1.00  0.00     0.152 C 
ENDROOT
BRANCH   1  19
HETATM   19  C3  UNL     1      -4.573   3.263  15.209  1.00  0.00     0.373 C 
BRANCH  19  20
HETATM   20  N1  UNL     1      -5.415   2.128  15.568  1.00  0.00     0.088 N 
HETATM   21  C1  UNL     1      -6.508   2.523  16.402  1.00  0.00     0.310 C 
HETATM   22  C2  UNL     1      -4.654   1.102  16.253  1.00  0.00     0.310 C 
ENDBRANCH  19  20
ENDBRANCH   1  19
BRANCH  10  23
HETATM   23  C8  UNL     1      -6.851   7.374   8.854  1.00  0.00     0.030 C 
HETATM   24  C9  UNL     1      -7.290   5.979   8.429  1.00  0.00     0.038 C 
HETATM   25  C10 UNL     1      -8.031   7.819   9.757  1.00  0.00     0.038 C 
BRANCH  23  26
HETATM   26  C11 UNL     1      -6.759   8.251   7.665  1.00  0.00     0.041 C 
BRANCH  26  27
HETATM   27  C12 UNL     1      -7.122   9.684   7.836  1.00  0.00     0.088 C 
HETATM   28  S1  UNL     1      -8.469  10.281   6.804  1.00  0.00    -0.098 SA
ENDBRANCH  26  27
ENDBRANCH  23  26
ENDBRANCH  10  23
TORSDOF 5
ENDMDL
MODEL 5
REMARK VINA RESULT: -5.716233316      2.880      5.203
REMARK  5 active torsions:
REMARK  status: ('A' for Active; 'I' for Inactive)
REMARK    1  A    between atoms: N1_2  and  C3_4 
REMARK    2  A    between atoms: C3_4  and  C4_5 
REMARK       I    between atoms: C4_5  and  N2_7 
REMARK    3  A    between atoms: N4_14  and  C8_15 
REMARK    4  A    between atoms: C8_15  and  C11_18 
REMARK    5  A    between atoms: C11_18  and  C12_19 
ROOT
HETATM    1  C4  UNL     1      -2.291   4.871  12.313  1.00  0.00     0.248 C 
HETATM    2  O1  UNL     1      -3.239   5.366  12.975  1.00  0.00    -0.271 OA
HETATM    3  N2  UNL     1      -2.498   4.076  11.157  1.00  0.00    -0.347 N 
HETATM    4  C5  UNL     1      -3.870   3.845  10.746  1.00  0.00     0.145 C 
HETATM    5  C6  UNL     1      -4.615   5.171  10.532  1.00  0.00     0.144 C 
HETATM    6  N3  UNL     1      -5.450   5.019   9.383  1.00  0.00    -0.341 N 
ATOM      7  H3  UNL     1      -5.370   4.149   8.857  1.00  0.00     0.164 HD
HETATM    8  C7  UNL     1      -6.395   5.995   8.907  1.00  0.00     0.319 C 
HETATM    9  O2  UNL     1      -7.511   5.502   8.567  1.00  0.00    -0.247 OA
HETATM   10  N4  UNL     1      -6.152   7.380   8.808  1.00  0.00    -0.324 N 
HETATM   11  C13 UNL     1      -4.865   7.884   8.314  1.00  0.00     0.154 C 
HETATM   12  C14 UNL     1      -4.464   7.243   7.005  1.00  0.00     0.187 C 
HETATM   13  O3  UNL     1      -3.783   6.067   7.106  1.00  0.00    -0.387 OA
HETATM   14  C15 UNL     1      -2.527   6.068   6.517  1.00  0.00     0.193 C 
HETATM   15  C16 UNL     1      -1.595   5.068   7.199  1.00  0.00     0.193 C 
HETATM   16  O4  UNL     1      -1.939   4.923   8.539  1.00  0.00    -0.387 OA
HETATM   17  C17 UNL     1      -0.929   4.373   9.282  1.00  0.00     0.187 C 
HETATM   18  C18 UNL     1      -1.394   3.533  10.436  1.00  0.00     0.152 C 
ENDROOT
BRANCH   1  19
HETATM   19  C3  UNL     1      -0.912   5.134  12.769  1.00  0.00     0.373 C 
BRANCH  19  20
HETATM   20  N1  UNL     1      -0.416   6.399  12.240  1.00  0.00     0.088 N 
HETATM   21  C1  UNL     1       0.975   6.325  11.912  1.00  0.00     0.310 C 
HETATM   22  C2  UNL     1      -0.615   7.481  13.183  1.00  0.00     0.310 C 
ENDBRANCH  19  20
ENDBRANCH   1  19
BRANCH  10  23
HETATM   23  C8  UNL     1      -7.202   8.316   9.192  1.00  0.00     0.030 C 
HETATM   24  C9  UNL     1      -7.683   8.022  10.608  1.00  0.00     0.038 C 
HETATM   25  C10 UNL     1      -6.578   9.728   9.355  1.00  0.00     0.038 C 
BRANCH  23  26
HETATM   26  C11 UNL     1      -8.361   8.373   8.273  1.00  0.00     0.041 C 
BRANCH  26  27
HETATM   27  C12 UNL     1      -8.573   9.632   7.509  1.00  0.00     0.088 C 
HETATM   28  S1  UNL     1     -10.268  10.229   7.436  1.00  0.00    -0.098 SA
ENDBRANCH  26  27
ENDBRANCH  23  26
ENDBRANCH  10  23
TORSDOF 5
ENDMDL
