MODEL 1
REMARK VINA RESULT: -6.798026488      0.000      0.000
REMARK  7 active torsions:
REMARK  status: ('A' for Active; 'I' for Inactive)
REMARK    1  A    between atoms: O1_2  and  C2_3 
REMARK    2  A    between atoms: C2_3  and  C3_4 
REMARK    3  A    between atoms: C5_6  and  C6_7 
REMARK    4  A    between atoms: C6_7  and  C7_9 
REMARK    5  A    between atoms: C7_9  and  N1_10 
REMARK    6  A    between atoms: C12_15  and  O3_16 
REMARK    7  A    between atoms: C17_22  and  O4_23 
ROOT
HETATM    1  C3  UNL     1      -2.399   4.008  12.674  1.00  0.00     0.003 C 
HETATM    2  C4  UNL     1      -3.611   4.432  12.430  1.00  0.00    -0.063 C 
HETATM    3  C5  UNL     1      -4.813   3.934  13.162  1.00  0.00     0.119 C 
HETATM    4  C12 UNL     1      -5.392   5.077  13.949  1.00  0.00     0.134 C 
HETATM    5  C13 UNL     1      -4.792   6.397  13.559  1.00  0.00     0.042 C 
HETATM    6  C14 UNL     1      -4.659   6.629  12.092  1.00  0.00    -0.032 C 
HETATM    7  C15 UNL     1      -3.890   7.944  11.940  1.00  0.00     0.016 C 
HETATM    8  C16 UNL     1      -5.923   6.758  11.328  1.00  0.00     0.041 C 
HETATM    9  C17 UNL     1      -5.495   6.313   9.930  1.00  0.00     0.119 C 
HETATM   10  C18 UNL     1      -4.764   5.019  10.275  1.00  0.00     0.041 C 
HETATM   11  C19 UNL     1      -3.890   5.475  11.428  1.00  0.00     0.026 C 
ENDROOT
BRANCH   3  12
HETATM   12  C6  UNL     1      -4.632   2.764  13.993  1.00  0.00     0.175 C 
HETATM   13  O2  UNL     1      -4.620   1.680  13.425  1.00  0.00    -0.291 OA
BRANCH  12  14
HETATM   14  C7  UNL     1      -4.458   2.699  15.465  1.00  0.00     0.136 C 
BRANCH  14  15
HETATM   15  N1  UNL     1      -5.475   2.012  16.147  1.00  0.00    -0.387 N 
HETATM   16  C8  UNL     1      -6.666   2.680  16.499  1.00  0.00     0.122 C 
HETATM   17  C9  UNL     1      -7.454   1.551  17.189  1.00  0.00     0.021 C 
HETATM   18  C10 UNL     1      -6.450   0.509  17.568  1.00  0.00     0.021 C 
HETATM   19  C11 UNL     1      -5.113   1.120  17.196  1.00  0.00     0.122 C 
ENDBRANCH  14  15
ENDBRANCH  12  14
ENDBRANCH   3  12
BRANCH   4  20
HETATM   20  O3  UNL     1      -6.793   5.088  13.904  1.00  0.00    -0.394 OA
ATOM     21  H3  UNL     1      -7.149   5.942  14.120  1.00  0.00     0.210 HD
ENDBRANCH   4  20
BRANCH   1  22
HETATM   22  C2  UNL     1      -1.208   4.481  11.965  1.00  0.00     0.194 C 
BRANCH  22  23
HETATM   23  O1  UNL     1      -0.269   3.441  11.762  1.00  0.00    -0.392 OA
HETATM   24  C1  UNL     1      -1.033   2.382  11.225  1.00  0.00     0.201 C 
ENDBRANCH  22  23
ENDBRANCH   1  22
BRANCH   9  25
HETATM   25  O4  UNL     1      -6.642   6.071   9.181  1.00  0.00    -0.396 OA
ATOM     26  H4  UNL     1      -6.828   5.141   9.215  1.00  0.00     0.210 HD
ENDBRANCH   9  25
TORSDOF 7
ENDMDL
MODEL 2
REMARK VINA RESULT: -6.628224317      1.483      3.961
REMARK  7 active torsions:
REMARK  status: ('A' for Active; 'I' for Inactive)
REMARK    1  A    between atoms: O1_2  and  C2_3 
REMARK    2  A    between atoms: C2_3  and  C3_4 
REMARK    3  A    between atoms: C5_6  and  C6_7 
REMARK    4  A    between atoms: C6_7  and  C7_9 
REMARK    5  A    between atoms: C7_9  and  N1_10 
REMARK    6  A    between atoms: C12_15  and  O3_16 
REMARK    7  A    between atoms: C17_22  and  O4_23 
ROOT
HETATM    1  C3  UNL     1      -5.006   4.620  13.721  1.00  0.00     0.003 C 
HETATM    2  C4  UNL     1      -3.862   4.187  13.260  1.00  0.00    -0.063 C 
HETATM    3  C5  UNL     1      -3.422   2.765  13.374  1.00  0.00     0.119 C 
HETATM    4  C12 UNL     1      -3.327   2.190  11.987  1.00  0.00     0.134 C 
HETATM    5  C13 UNL     1      -3.417   3.248  10.926  1.00  0.00     0.042 C 
HETATM    6  C14 UNL     1      -2.599   4.470  11.172  1.00  0.00    -0.032 C 
HETATM    7  C15 UNL     1      -2.967   5.457  10.061  1.00  0.00     0.016 C 
HETATM    8  C16 UNL     1      -1.127   4.294  11.145  1.00  0.00     0.041 C 
HETATM    9  C17 UNL     1      -0.654   5.437  12.043  1.00  0.00     0.119 C 
HETATM   10  C18 UNL     1      -1.577   5.233  13.241  1.00  0.00     0.041 C 
HETATM   11  C19 UNL     1      -2.919   5.068  12.552  1.00  0.00     0.026 C 
ENDROOT
BRANCH   3  12
HETATM   12  C6  UNL     1      -4.197   1.909  14.244  1.00  0.00     0.175 C 
HETATM   13  O2  UNL     1      -4.895   1.060  13.704  1.00  0.00    -0.291 OA
BRANCH  12  14
HETATM   14  C7  UNL     1      -4.264   1.920  15.726  1.00  0.00     0.136 C 
BRANCH  14  15
HETATM   15  N1  UNL     1      -5.547   1.719  16.259  1.00  0.00    -0.387 N 
HETATM   16  C8  UNL     1      -6.437   2.806  16.384  1.00  0.00     0.122 C 
HETATM   17  C9  UNL     1      -7.678   2.114  16.979  1.00  0.00     0.021 C 
HETATM   18  C10 UNL     1      -7.200   0.820  17.557  1.00  0.00     0.021 C 
HETATM   19  C11 UNL     1      -5.694   0.863  17.386  1.00  0.00     0.122 C 
ENDBRANCH  14  15
ENDBRANCH  12  14
ENDBRANCH   3  12
BRANCH   4  20
HETATM   20  O3  UNL     1      -2.200   1.369  11.837  1.00  0.00    -0.394 OA
ATOM     21  H3  UNL     1      -2.385   0.466  12.067  1.00  0.00     0.210 HD
ENDBRANCH   4  20
BRANCH   1  22
HETATM   22  C2  UNL     1      -5.456   6.011  13.623  1.00  0.00     0.194 C 
BRANCH  22  23
HETATM   23  O1  UNL     1      -6.605   6.135  12.805  1.00  0.00    -0.392 OA
HETATM   24  C1  UNL     1      -6.259   7.132  11.867  1.00  0.00     0.201 C 
ENDBRANCH  22  23
ENDBRANCH   1  22
BRANCH   9  25
HETATM   25  O4  UNL     1       0.677   5.207  12.374  1.00  0.00    -0.396 OA
ATOM     26  H4  UNL     1       1.198   5.917  12.019  1.00  0.00     0.210 HD
ENDBRANCH   9  25
TORSDOF 7
ENDMDL
MODEL 3
REMARK VINA RESULT: -6.585211317      2.132      3.268
REMARK  7 active torsions:
REMARK  status: ('A' for Active; 'I' for Inactive)
REMARK    1  A    between atoms: O1_2  and  C2_3 
REMARK    2  A    between atoms: C2_3  and  C3_4 
REMARK    3  A    between atoms: C5_6  and  C6_7 
REMARK    4  A    between atoms: C6_7  and  C7_9 
REMARK    5  A    between atoms: C7_9  and  N1_10 
REMARK    6  A    between atoms: C12_15  and  O3_16 
REMARK    7  A    between atoms: C17_22  and  O4_23 
ROOT
HETATM    1  C3  UNL     1      -4.004   1.429  12.474  1.00  0.00     0.003 C 
HETATM    2  C4  UNL     1      -3.735   2.694  12.281  1.00  0.00    -0.063 C 
HETATM    3  C5  UNL     1      -3.689   3.696  13.385  1.00  0.00     0.119 C 
HETATM    4  C12 UNL     1      -2.277   4.202  13.503  1.00  0.00     0.134 C 
HETATM    5  C13 UNL     1      -1.426   3.786  12.338  1.00  0.00     0.042 C 
HETATM    6  C14 UNL     1      -2.057   3.947  10.997  1.00  0.00    -0.032 C 
HETATM    7  C15 UNL     1      -1.085   3.321   9.993  1.00  0.00     0.016 C 
HETATM    8  C16 UNL     1      -2.321   5.338  10.556  1.00  0.00     0.041 C 
HETATM    9  C17 UNL     1      -3.488   5.147   9.587  1.00  0.00     0.119 C 
HETATM   10  C18 UNL     1      -4.400   4.270  10.439  1.00  0.00     0.041 C 
HETATM   11  C19 UNL     1      -3.417   3.232  10.947  1.00  0.00     0.026 C 
ENDROOT
BRANCH   3  12
HETATM   12  C6  UNL     1      -4.203   3.276  14.670  1.00  0.00     0.175 C 
HETATM   13  O2  UNL     1      -3.383   3.101  15.562  1.00  0.00    -0.291 OA
BRANCH  12  14
HETATM   14  C7  UNL     1      -5.612   3.025  15.060  1.00  0.00     0.136 C 
BRANCH  14  15
HETATM   15  N1  UNL     1      -5.772   2.324  16.266  1.00  0.00    -0.387 N 
HETATM   16  C8  UNL     1      -5.516   0.937  16.316  1.00  0.00     0.122 C 
HETATM   17  C9  UNL     1      -5.801   0.631  17.798  1.00  0.00     0.021 C 
HETATM   18  C10 UNL     1      -6.630   1.766  18.310  1.00  0.00     0.021 C 
HETATM   19  C11 UNL     1      -6.896   2.622  17.087  1.00  0.00     0.122 C 
ENDBRANCH  14  15
ENDBRANCH  12  14
ENDBRANCH   3  12
BRANCH   4  20
HETATM   20  O3  UNL     1      -2.233   5.584  13.736  1.00  0.00    -0.394 OA
ATOM     21  H3  UNL     1      -1.396   5.959  13.490  1.00  0.00     0.210 HD
ENDBRANCH   4  20
BRANCH   1  22
HETATM   22  C2  UNL     1      -4.057   0.430  11.404  1.00  0.00     0.194 C 
BRANCH  22  23
HETATM   23  O1  UNL     1      -4.395  -0.853  11.899  1.00  0.00    -0.392 OA
HETATM   24  C1  UNL     1      -3.318  -1.674  11.500  1.00  0.00     0.201 C 
ENDBRANCH  22  23
ENDBRANCH   1  22
BRANCH   9  25
HETATM   25  O4  UNL     1      -4.056   6.393   9.341  1.00  0.00    -0.396 OA
ATOM     26  H4  UNL     1      -4.110   6.513   8.401  1.00  0.00     0.210 HD
ENDBRANCH   9  25
TORSDOF 7
ENDMDL
MODEL 4
REMARK VINA RESULT: -6.576162727      1.902      3.060
REMARK  7 active torsions:
REMARK  status: ('A' for Active; 'I' for Inactive)
REMARK    1  A    between atoms: O1_2  and  C2_3 
REMARK    2  A    between atoms: C2_3  and  C3_4 
REMARK    3  A    between atoms: C5_6  and  C6_7 
REMARK    4  A    between atoms: C6_7  and  C7_9 
REMARK    5  A    between atoms: C7_9  and  N1_10 
REMARK    6  A    between atoms: C12_15  and  O3_16 
REMARK    7  A    between atoms: C17_22  and  O4_23 
ROOT
HETATM    1  C3  UNL     1      -4.891   2.238  12.848  1.00  0.00     0.003 C 
HETATM    2  C4  UNL     1      -4.433   3.446  12.648  1.00  0.00    -0.063 C 
HETATM    3  C5  UNL     1      -4.820   4.615  13.490  1.00  0.00     0.119 C 
HETATM    4  C12 UNL     1      -3.594   5.097  14.218  1.00  0.00     0.134 C 
HETATM    5  C13 UNL     1      -2.337   4.472  13.686  1.00  0.00     0.042 C 
HETATM    6  C14 UNL     1      -2.225   4.426  12.201  1.00  0.00    -0.032 C 
HETATM    7  C15 UNL     1      -0.961   3.618  11.895  1.00  0.00     0.016 C 
HETATM    8  C16 UNL     1      -2.099   5.732  11.509  1.00  0.00     0.041 C 
HETATM    9  C17 UNL     1      -2.670   5.414  10.126  1.00  0.00     0.119 C 
HETATM   10  C18 UNL     1      -3.965   4.714  10.528  1.00  0.00     0.041 C 
HETATM   11  C19 UNL     1      -3.460   3.749  11.585  1.00  0.00     0.026 C 
ENDROOT
BRANCH   3  12
HETATM   12  C6  UNL     1      -5.928   4.427  14.399  1.00  0.00     0.175 C 
HETATM   13  O2  UNL     1      -7.053   4.494  13.920  1.00  0.00    -0.291 OA
BRANCH  12  14
HETATM   14  C7  UNL     1      -5.887   4.161  15.858  1.00  0.00     0.136 C 
BRANCH  14  15
HETATM   15  N1  UNL     1      -6.066   2.815  16.216  1.00  0.00    -0.387 N 
HETATM   16  C8  UNL     1      -7.058   2.460  17.154  1.00  0.00     0.122 C 
HETATM   17  C9  UNL     1      -6.892   0.930  17.206  1.00  0.00     0.021 C 
HETATM   18  C10 UNL     1      -5.531   0.637  16.657  1.00  0.00     0.021 C 
HETATM   19  C11 UNL     1      -4.915   2.003  16.423  1.00  0.00     0.122 C 
ENDBRANCH  14  15
ENDBRANCH  12  14
ENDBRANCH   3  12
BRANCH   4  20
HETATM   20  O3  UNL     1      -3.525   6.496  14.259  1.00  0.00    -0.394 OA
ATOM     21  H3  UNL     1      -4.051   6.857  14.963  1.00  0.00     0.210 HD
ENDBRANCH   4  20
BRANCH   1  22
HETATM   22  C2  UNL     1      -4.527   1.078  12.031  1.00  0.00     0.194 C 
BRANCH  22  23
HETATM   23  O1  UNL     1      -4.587  -0.126  12.773  1.00  0.00    -0.392 OA
HETATM   24  C1  UNL     1      -4.230  -1.127  11.842  1.00  0.00     0.201 C 
ENDBRANCH  22  23
ENDBRANCH   1  22
BRANCH   9  25
HETATM   25  O4  UNL     1      -2.918   6.616   9.472  1.00  0.00    -0.396 OA
ATOM     26  H4  UNL     1      -2.097   6.933   9.114  1.00  0.00     0.210 HD
ENDBRANCH   9  25
TORSDOF 7
ENDMDL
MODEL 5
REMARK VINA RESULT: -6.550714247      2.077      4.189
REMARK  7 active torsions:
REMARK  status: ('A' for Active; 'I' for Inactive)
REMARK    1  A    between atoms: O1_2  and  C2_3 
REMARK    2  A    between atoms: C2_3  and  C3_4 
REMARK    3  A    between atoms: C5_6  and  C6_7 
REMARK    4  A    between atoms: C6_7  and  C7_9 
REMARK    5  A    between atoms: C7_9  and  N1_10 
REMARK    6  A    between atoms: C12_15  and  O3_16 
REMARK    7  A    between atoms: C17_22  and  O4_23 
ROOT
HETATM    1  C3  UNL     1      -5.823   5.088  13.800  1.00  0.00     0.003 C 
HETATM    2  C4  UNL     1      -4.587   5.377  14.113  1.00  0.00    -0.063 C 
HETATM    3  C5  UNL     1      -3.571   4.341  14.460  1.00  0.00     0.119 C 
HETATM    4  C12 UNL     1      -2.501   4.359  13.403  1.00  0.00     0.134 C 
HETATM    5  C13 UNL     1      -2.611   5.556  12.504  1.00  0.00     0.042 C 
HETATM    6  C14 UNL     1      -2.851   6.854  13.197  1.00  0.00    -0.032 C 
HETATM    7  C15 UNL     1      -3.084   7.888  12.092  1.00  0.00     0.016 C 
HETATM    8  C16 UNL     1      -1.751   7.357  14.055  1.00  0.00     0.041 C 
HETATM    9  C17 UNL     1      -2.506   8.224  15.063  1.00  0.00     0.119 C 
HETATM   10  C18 UNL     1      -3.613   7.255  15.470  1.00  0.00     0.041 C 
HETATM   11  C19 UNL     1      -4.081   6.760  14.114  1.00  0.00     0.026 C 
ENDROOT
BRANCH   3  12
HETATM   12  C6  UNL     1      -4.058   2.999  14.689  1.00  0.00     0.175 C 
HETATM   13  O2  UNL     1      -4.490   2.395  13.715  1.00  0.00    -0.291 OA
BRANCH  12  14
HETATM   14  C7  UNL     1      -4.106   2.242  15.964  1.00  0.00     0.136 C 
BRANCH  14  15
HETATM   15  N1  UNL     1      -5.396   1.883  16.386  1.00  0.00    -0.387 N 
HETATM   16  C8  UNL     1      -6.415   2.856  16.450  1.00  0.00     0.122 C 
HETATM   17  C9  UNL     1      -7.610   2.013  16.931  1.00  0.00     0.021 C 
HETATM   18  C10 UNL     1      -7.033   0.770  17.532  1.00  0.00     0.021 C 
HETATM   19  C11 UNL     1      -5.532   0.991  17.487  1.00  0.00     0.122 C 
ENDBRANCH  14  15
ENDBRANCH  12  14
ENDBRANCH   3  12
BRANCH   4  20
HETATM   20  O3  UNL     1      -1.219   4.212  13.952  1.00  0.00    -0.394 OA
ATOM     21  H3  UNL     1      -1.251   3.926  14.857  1.00  0.00     0.210 HD
ENDBRANCH   4  20
BRANCH   1  22
HETATM   22  C2  UNL     1      -6.837   6.090  13.459  1.00  0.00     0.194 C 
BRANCH  22  23
HETATM   23  O1  UNL     1      -6.746   6.490  12.105  1.00  0.00    -0.392 OA
HETATM   24  C1  UNL     1      -7.367   7.758  12.073  1.00  0.00     0.201 C 
ENDBRANCH  22  23
ENDBRANCH   1  22
BRANCH   9  25
HETATM   25  O4  UNL     1      -1.650   8.501  16.123  1.00  0.00    -0.396 OA
ATOM     26  H4  UNL     1      -0.922   7.893  16.084  1.00  0.00     0.210 HD
ENDBRANCH   9  25
TORSDOF 7
ENDMDL
