MODEL 1
REMARK VINA RESULT: -6.555080599      0.000      0.000
REMARK  9 active torsions:
REMARK  status: ('A' for Active; 'I' for Inactive)
REMARK    1  A    between atoms: C2_2  and  C3_3 
REMARK    2  A    between atoms: C4_4  and  C5_5 
REMARK    3  A    between atoms: C5_5  and  N1_6 
REMARK    4  A    between atoms: N1_6  and  C6_8 
REMARK    5  A    between atoms: C7_13  and  C8_14 
REMARK    6  A    between atoms: C8_14  and  N4_16 
REMARK    7  A    between atoms: N5_20  and  N6_21 
REMARK    8  A    between atoms: C11_27  and  N8_28 
REMARK    9  A    between atoms: N10_33  and  O1_34 
ROOT
HETATM    1  C5  UNL     1      14.841  51.881 -49.021  1.00  0.00     0.197 C 
ENDROOT
BRANCH   1   2
HETATM    2  C4  UNL     1      13.408  51.708 -48.665  1.00  0.00     0.054 A 
HETATM    3  C3  UNL     1      12.933  50.666 -47.891  1.00  0.00     0.064 A 
HETATM    4  N11 UNL     1      11.600  50.782 -47.740  1.00  0.00    -0.197 N 
HETATM    5  C10 UNL     1      11.244  51.893 -48.419  1.00  0.00     0.177 A 
HETATM    6  N10 UNL     1      10.496  50.255 -47.202  1.00  0.00    -0.084 N 
HETATM    7  N7  UNL     1      12.340  52.448 -48.975  1.00  0.00    -0.338 N 
HETATM    8  C11 UNL     1       9.874  52.017 -48.269  1.00  0.00     0.164 A 
ATOM      9  H7  UNL     1      12.352  53.296 -49.540  1.00  0.00     0.167 HD
HETATM   10  N9  UNL     1       9.442  50.995 -47.515  1.00  0.00    -0.240 N 
ATOM     11  H9  UNL     1       8.479  50.819 -47.233  1.00  0.00     0.193 HD
BRANCH   3  12
HETATM   12  C2  UNL     1      13.734  49.556 -47.292  1.00  0.00     0.057 C 
HETATM   13  C1  UNL     1      14.254  49.941 -45.921  1.00  0.00     0.011 C 
ENDBRANCH   3  12
BRANCH   8  14
HETATM   14  N8  UNL     1       9.177  52.979 -48.789  1.00  0.00    -0.381 N 
ATOM     15  H82 UNL     1       9.290  53.984 -48.654  1.00  0.00     0.157 HD
ATOM     16  H81 UNL     1       8.396  52.830 -49.428  1.00  0.00     0.157 HD
ENDBRANCH   8  14
BRANCH   6  17
HETATM   17  O1  UNL     1      10.518  49.102 -46.440  1.00  0.00    -0.253 OA
ATOM     18  H1  UNL     1      11.274  48.684 -46.045  1.00  0.00     0.248 HD
ENDBRANCH   6  17
ENDBRANCH   1   2
BRANCH   1  19
HETATM   19  N1  UNL     1      15.083  51.746 -50.424  1.00  0.00    -0.217 N 
ATOM     20  H1  UNL     1      15.263  52.608 -50.941  1.00  0.00     0.178 HD
BRANCH  19  21
HETATM   21  C6  UNL     1      15.100  50.659 -51.102  1.00  0.00     0.715 A 
HETATM   22  N2  UNL     1      15.998  49.672 -51.146  1.00  0.00    -0.129 N 
HETATM   23  N3  UNL     1      15.564  48.760 -52.008  1.00  0.00    -0.271 N 
ATOM     24  H2  UNL     1      16.865  49.627 -50.612  1.00  0.00     0.205 HD
HETATM   25  C7  UNL     1      14.386  49.151 -52.524  1.00  0.00     0.166 A 
ATOM     26  H3  UNL     1      16.050  47.895 -52.243  1.00  0.00     0.189 HD
HETATM   27  N5  UNL     1      14.104  50.331 -51.957  1.00  0.00    -0.076 N 
BRANCH  25  28
HETATM   28  C8  UNL     1      13.526  48.436 -53.535  1.00  0.00     0.250 C 
HETATM   29  C9  UNL     1      14.150  48.455 -54.900  1.00  0.00     0.048 C 
BRANCH  28  30
HETATM   30  N4  UNL     1      13.287  47.105 -53.069  1.00  0.00    -0.068 N 
ATOM     31  H43 UNL     1      14.103  46.501 -53.175  1.00  0.00     0.275 HD
ATOM     32  H42 UNL     1      13.207  47.054 -52.054  1.00  0.00     0.275 HD
ATOM     33  H41 UNL     1      12.464  46.737 -53.545  1.00  0.00     0.275 HD
ENDBRANCH  28  30
ENDBRANCH  25  28
BRANCH  27  34
HETATM   34  N6  UNL     1      12.942  51.068 -52.242  1.00  0.00    -0.323 N 
ATOM     35  H62 UNL     1      12.865  52.074 -52.093  1.00  0.00     0.178 HD
ATOM     36  H61 UNL     1      12.061  50.719 -52.617  1.00  0.00     0.178 HD
ENDBRANCH  27  34
ENDBRANCH  19  21
ENDBRANCH   1  19
TORSDOF 9
ENDMDL
MODEL 2
REMARK VINA RESULT: -6.286694066      2.319      6.137
REMARK  9 active torsions:
REMARK  status: ('A' for Active; 'I' for Inactive)
REMARK    1  A    between atoms: C2_2  and  C3_3 
REMARK    2  A    between atoms: C4_4  and  C5_5 
REMARK    3  A    between atoms: C5_5  and  N1_6 
REMARK    4  A    between atoms: N1_6  and  C6_8 
REMARK    5  A    between atoms: C7_13  and  C8_14 
REMARK    6  A    between atoms: C8_14  and  N4_16 
REMARK    7  A    between atoms: N5_20  and  N6_21 
REMARK    8  A    between atoms: C11_27  and  N8_28 
REMARK    9  A    between atoms: N10_33  and  O1_34 
ROOT
HETATM    1  C5  UNL     1      14.858  53.198 -50.667  1.00  0.00     0.197 C 
ENDROOT
BRANCH   1   2
HETATM    2  C4  UNL     1      14.670  51.863 -51.294  1.00  0.00     0.054 A 
HETATM    3  C3  UNL     1      13.468  51.426 -51.817  1.00  0.00     0.064 A 
HETATM    4  N11 UNL     1      13.612  50.183 -52.314  1.00  0.00    -0.197 N 
HETATM    5  C10 UNL     1      14.902  49.846 -52.102  1.00  0.00     0.177 A 
HETATM    6  N10 UNL     1      13.012  49.157 -52.925  1.00  0.00    -0.084 N 
HETATM    7  N7  UNL     1      15.536  50.864 -51.487  1.00  0.00    -0.338 N 
HETATM    8  C11 UNL     1      15.057  48.568 -52.612  1.00  0.00     0.164 A 
ATOM      9  H7  UNL     1      16.518  50.871 -51.213  1.00  0.00     0.167 HD
HETATM   10  N9  UNL     1      13.877  48.172 -53.111  1.00  0.00    -0.240 N 
ATOM     11  H9  UNL     1      13.681  47.275 -53.554  1.00  0.00     0.193 HD
BRANCH   3  12
HETATM   12  C2  UNL     1      12.177  52.178 -51.846  1.00  0.00     0.057 C 
HETATM   13  C1  UNL     1      12.321  53.472 -52.623  1.00  0.00     0.011 C 
ENDBRANCH   3  12
BRANCH   8  14
HETATM   14  N8  UNL     1      16.177  47.914 -52.585  1.00  0.00    -0.381 N 
ATOM     15  H82 UNL     1      16.966  48.041 -51.952  1.00  0.00     0.157 HD
ATOM     16  H81 UNL     1      16.405  47.156 -53.229  1.00  0.00     0.157 HD
ENDBRANCH   8  14
BRANCH   6  17
HETATM   17  O1  UNL     1      11.677  49.183 -53.282  1.00  0.00    -0.253 OA
ATOM     18  H1  UNL     1      11.140  49.947 -53.456  1.00  0.00     0.248 HD
ENDBRANCH   6  17
ENDBRANCH   1   2
BRANCH   1  19
HETATM   19  N1  UNL     1      14.660  53.178 -49.251  1.00  0.00    -0.217 N 
ATOM     20  H1  UNL     1      15.391  53.606 -48.683  1.00  0.00     0.178 HD
BRANCH  19  21
HETATM   21  C6  UNL     1      13.663  52.681 -48.620  1.00  0.00     0.715 A 
HETATM   22  N2  UNL     1      12.415  53.130 -48.467  1.00  0.00    -0.129 N 
HETATM   23  N3  UNL     1      11.751  52.255 -47.720  1.00  0.00    -0.271 N 
ATOM     24  H2  UNL     1      12.037  53.994 -48.855  1.00  0.00     0.205 HD
HETATM   25  C7  UNL     1      12.564  51.237 -47.388  1.00  0.00     0.166 A 
ATOM     26  H3  UNL     1      10.774  52.341 -47.442  1.00  0.00     0.189 HD
HETATM   27  N5  UNL     1      13.749  51.508 -47.950  1.00  0.00    -0.076 N 
BRANCH  25  28
HETATM   28  C8  UNL     1      12.246  50.021 -46.557  1.00  0.00     0.250 C 
HETATM   29  C9  UNL     1      12.807  50.139 -45.169  1.00  0.00     0.048 C 
BRANCH  28  30
HETATM   30  N4  UNL     1      10.827  49.832 -46.550  1.00  0.00    -0.068 N 
ATOM     31  H43 UNL     1      10.318  50.700 -46.377  1.00  0.00     0.275 HD
ATOM     32  H42 UNL     1      10.455  49.635 -47.479  1.00  0.00     0.275 HD
ATOM     33  H41 UNL     1      10.600  49.104 -45.874  1.00  0.00     0.275 HD
ENDBRANCH  28  30
ENDBRANCH  25  28
BRANCH  27  34
HETATM   34  N6  UNL     1      14.872  50.672 -47.830  1.00  0.00    -0.323 N 
ATOM     35  H62 UNL     1      15.800  51.010 -47.574  1.00  0.00     0.178 HD
ATOM     36  H61 UNL     1      14.913  49.663 -47.975  1.00  0.00     0.178 HD
ENDBRANCH  27  34
ENDBRANCH  19  21
ENDBRANCH   1  19
TORSDOF 9
ENDMDL
MODEL 3
REMARK VINA RESULT: -6.281072089      1.440      2.093
REMARK  9 active torsions:
REMARK  status: ('A' for Active; 'I' for Inactive)
REMARK    1  A    between atoms: C2_2  and  C3_3 
REMARK    2  A    between atoms: C4_4  and  C5_5 
REMARK    3  A    between atoms: C5_5  and  N1_6 
REMARK    4  A    between atoms: N1_6  and  C6_8 
REMARK    5  A    between atoms: C7_13  and  C8_14 
REMARK    6  A    between atoms: C8_14  and  N4_16 
REMARK    7  A    between atoms: N5_20  and  N6_21 
REMARK    8  A    between atoms: C11_27  and  N8_28 
REMARK    9  A    between atoms: N10_33  and  O1_34 
ROOT
HETATM    1  C5  UNL     1      13.247  53.330 -48.833  1.00  0.00     0.197 C 
ENDROOT
BRANCH   1   2
HETATM    2  C4  UNL     1      11.940  52.669 -48.578  1.00  0.00     0.054 A 
HETATM    3  C3  UNL     1      11.816  51.389 -48.073  1.00  0.00     0.064 A 
HETATM    4  N11 UNL     1      10.514  51.071 -47.951  1.00  0.00    -0.197 N 
HETATM    5  C10 UNL     1       9.826  52.152 -48.380  1.00  0.00     0.177 A 
HETATM    6  N10 UNL     1       9.630  50.138 -47.585  1.00  0.00    -0.084 N 
HETATM    7  N7  UNL     1      10.693  53.113 -48.756  1.00  0.00    -0.338 N 
HETATM    8  C11 UNL     1       8.485  51.831 -48.257  1.00  0.00     0.164 A 
ATOM      9  H7  UNL     1      10.437  54.032 -49.118  1.00  0.00     0.167 HD
HETATM   10  N9  UNL     1       8.397  50.586 -47.765  1.00  0.00    -0.240 N 
ATOM     11  H9  UNL     1       7.536  50.077 -47.566  1.00  0.00     0.193 HD
BRANCH   3  12
HETATM   12  C2  UNL     1      12.927  50.458 -47.707  1.00  0.00     0.057 C 
HETATM   13  C1  UNL     1      13.133  50.426 -46.205  1.00  0.00     0.011 C 
ENDBRANCH   3  12
BRANCH   8  14
HETATM   14  N8  UNL     1       7.521  52.637 -48.576  1.00  0.00    -0.381 N 
ATOM     15  H82 UNL     1       6.678  52.854 -48.043  1.00  0.00     0.157 HD
ATOM     16  H81 UNL     1       7.495  53.174 -49.443  1.00  0.00     0.157 HD
ENDBRANCH   8  14
BRANCH   6  17
HETATM   17  O1  UNL     1      10.014  48.902 -47.098  1.00  0.00    -0.253 OA
ATOM     18  H1  UNL     1       9.778  48.048 -47.438  1.00  0.00     0.248 HD
ENDBRANCH   6  17
ENDBRANCH   1   2
BRANCH   1  19
HETATM   19  N1  UNL     1      13.638  53.274 -50.209  1.00  0.00    -0.217 N 
ATOM     20  H1  UNL     1      14.064  54.116 -50.596  1.00  0.00     0.178 HD
BRANCH  19  21
HETATM   21  C6  UNL     1      13.510  52.280 -51.005  1.00  0.00     0.715 A 
HETATM   22  N2  UNL     1      12.552  51.986 -51.888  1.00  0.00    -0.129 N 
HETATM   23  N3  UNL     1      12.871  50.838 -52.474  1.00  0.00    -0.271 N 
ATOM     24  H2  UNL     1      11.722  52.546 -52.079  1.00  0.00     0.205 HD
HETATM   25  C7  UNL     1      14.034  50.385 -51.975  1.00  0.00     0.166 A 
ATOM     26  H3  UNL     1      12.319  50.372 -53.194  1.00  0.00     0.189 HD
HETATM   27  N5  UNL     1      14.425  51.284 -51.064  1.00  0.00    -0.076 N 
BRANCH  25  28
HETATM   28  C8  UNL     1      14.779  49.127 -52.341  1.00  0.00     0.250 C 
HETATM   29  C9  UNL     1      13.847  48.055 -52.828  1.00  0.00     0.048 C 
BRANCH  28  30
HETATM   30  N4  UNL     1      15.778  49.454 -53.312  1.00  0.00    -0.068 N 
ATOM     31  H43 UNL     1      16.705  49.558 -52.899  1.00  0.00     0.275 HD
ATOM     32  H42 UNL     1      15.988  48.674 -53.934  1.00  0.00     0.275 HD
ATOM     33  H41 UNL     1      15.479  50.288 -53.816  1.00  0.00     0.275 HD
ENDBRANCH  28  30
ENDBRANCH  25  28
BRANCH  27  34
HETATM   34  N6  UNL     1      15.607  51.164 -50.315  1.00  0.00    -0.323 N 
ATOM     35  H62 UNL     1      16.124  50.290 -50.217  1.00  0.00     0.178 HD
ATOM     36  H61 UNL     1      16.088  51.895 -49.792  1.00  0.00     0.178 HD
ENDBRANCH  27  34
ENDBRANCH  19  21
ENDBRANCH   1  19
TORSDOF 9
ENDMDL
MODEL 4
REMARK VINA RESULT: -6.140778965      2.455      3.243
REMARK  9 active torsions:
REMARK  status: ('A' for Active; 'I' for Inactive)
REMARK    1  A    between atoms: C2_2  and  C3_3 
REMARK    2  A    between atoms: C4_4  and  C5_5 
REMARK    3  A    between atoms: C5_5  and  N1_6 
REMARK    4  A    between atoms: N1_6  and  C6_8 
REMARK    5  A    between atoms: C7_13  and  C8_14 
REMARK    6  A    between atoms: C8_14  and  N4_16 
REMARK    7  A    between atoms: N5_20  and  N6_21 
REMARK    8  A    between atoms: C11_27  and  N8_28 
REMARK    9  A    between atoms: N10_33  and  O1_34 
ROOT
HETATM    1  C5  UNL     1      14.782  48.900 -51.324  1.00  0.00     0.197 C 
ENDROOT
BRANCH   1   2
HETATM    2  C4  UNL     1      13.984  49.867 -50.525  1.00  0.00     0.054 A 
HETATM    3  C3  UNL     1      13.748  49.730 -49.170  1.00  0.00     0.064 A 
HETATM    4  N11 UNL     1      13.000  50.759 -48.731  1.00  0.00    -0.197 N 
HETATM    5  C10 UNL     1      12.769  51.537 -49.809  1.00  0.00     0.177 A 
HETATM    6  N10 UNL     1      12.398  51.322 -47.679  1.00  0.00    -0.084 N 
HETATM    7  N7  UNL     1      13.366  50.994 -50.889  1.00  0.00    -0.338 N 
HETATM    8  C11 UNL     1      11.999  52.597 -49.364  1.00  0.00     0.164 A 
ATOM      9  H7  UNL     1      13.348  51.381 -51.832  1.00  0.00     0.167 HD
HETATM   10  N9  UNL     1      11.788  52.437 -48.049  1.00  0.00    -0.240 N 
ATOM     11  H9  UNL     1      11.254  53.061 -47.444  1.00  0.00     0.193 HD
BRANCH   3  12
HETATM   12  C2  UNL     1      14.226  48.624 -48.285  1.00  0.00     0.057 C 
HETATM   13  C1  UNL     1      15.356  49.097 -47.390  1.00  0.00     0.011 C 
ENDBRANCH   3  12
BRANCH   8  14
HETATM   14  N8  UNL     1      11.582  53.556 -50.132  1.00  0.00    -0.381 N 
ATOM     15  H82 UNL     1      11.857  53.759 -51.093  1.00  0.00     0.157 HD
ATOM     16  H81 UNL     1      10.893  54.252 -49.845  1.00  0.00     0.157 HD
ENDBRANCH   8  14
BRANCH   6  17
HETATM   17  O1  UNL     1      12.443  50.768 -46.413  1.00  0.00    -0.253 OA
ATOM     18  H1  UNL     1      12.310  49.858 -46.175  1.00  0.00     0.248 HD
ENDBRANCH   6  17
ENDBRANCH   1   2
BRANCH   1  19
HETATM   19  N1  UNL     1      14.508  48.980 -52.725  1.00  0.00    -0.217 N 
ATOM     20  H1  UNL     1      13.582  48.677 -53.027  1.00  0.00     0.178 HD
BRANCH  19  21
HETATM   21  C6  UNL     1      15.302  49.391 -53.642  1.00  0.00     0.715 A 
HETATM   22  N2  UNL     1      16.423  50.113 -53.567  1.00  0.00    -0.129 N 
HETATM   23  N3  UNL     1      16.886  50.284 -54.799  1.00  0.00    -0.271 N 
ATOM     24  H2  UNL     1      16.849  50.471 -52.712  1.00  0.00     0.205 HD
HETATM   25  C7  UNL     1      16.069  49.674 -55.676  1.00  0.00     0.166 A 
ATOM     26  H3  UNL     1      17.731  50.799 -55.044  1.00  0.00     0.189 HD
HETATM   27  N5  UNL     1      15.089  49.122 -54.951  1.00  0.00    -0.076 N 
BRANCH  25  28
HETATM   28  C8  UNL     1      16.198  49.603 -57.176  1.00  0.00     0.250 C 
HETATM   29  C9  UNL     1      15.987  50.946 -57.813  1.00  0.00     0.048 C 
BRANCH  28  30
HETATM   30  N4  UNL     1      17.476  49.048 -57.499  1.00  0.00    -0.068 N 
ATOM     31  H43 UNL     1      18.181  49.765 -57.672  1.00  0.00     0.275 HD
ATOM     32  H42 UNL     1      17.923  48.603 -56.697  1.00  0.00     0.275 HD
ATOM     33  H41 UNL     1      17.364  48.410 -58.287  1.00  0.00     0.275 HD
ENDBRANCH  28  30
ENDBRANCH  25  28
BRANCH  27  34
HETATM   34  N6  UNL     1      14.029  48.389 -55.512  1.00  0.00    -0.323 N 
ATOM     35  H62 UNL     1      13.555  47.627 -55.028  1.00  0.00     0.178 HD
ATOM     36  H61 UNL     1      13.610  48.511 -56.434  1.00  0.00     0.178 HD
ENDBRANCH  27  34
ENDBRANCH  19  21
ENDBRANCH   1  19
TORSDOF 9
ENDMDL
MODEL 5
REMARK VINA RESULT: -6.119442676      2.041      3.124
REMARK  9 active torsions:
REMARK  status: ('A' for Active; 'I' for Inactive)
REMARK    1  A    between atoms: C2_2  and  C3_3 
REMARK    2  A    between atoms: C4_4  and  C5_5 
REMARK    3  A    between atoms: C5_5  and  N1_6 
REMARK    4  A    between atoms: N1_6  and  C6_8 
REMARK    5  A    between atoms: C7_13  and  C8_14 
REMARK    6  A    between atoms: C8_14  and  N4_16 
REMARK    7  A    between atoms: N5_20  and  N6_21 
REMARK    8  A    between atoms: C11_27  and  N8_28 
REMARK    9  A    between atoms: N10_33  and  O1_34 
ROOT
HETATM    1  C5  UNL     1      14.620  50.411 -50.362  1.00  0.00     0.197 C 
ENDROOT
BRANCH   1   2
HETATM    2  C4  UNL     1      13.377  50.610 -49.572  1.00  0.00     0.054 A 
HETATM    3  C3  UNL     1      12.437  51.583 -49.856  1.00  0.00     0.064 A 
HETATM    4  N11 UNL     1      11.426  51.513 -48.969  1.00  0.00    -0.197 N 
HETATM    5  C10 UNL     1      11.735  50.500 -48.132  1.00  0.00     0.177 A 
HETATM    6  N10 UNL     1      10.257  52.029 -48.579  1.00  0.00    -0.084 N 
HETATM    7  N7  UNL     1      12.914  49.959 -48.502  1.00  0.00    -0.338 N 
HETATM    8  C11 UNL     1      10.700  50.424 -47.217  1.00  0.00     0.164 A 
ATOM      9  H7  UNL     1      13.376  49.176 -48.039  1.00  0.00     0.167 HD
HETATM   10  N9  UNL     1       9.805  51.377 -47.518  1.00  0.00    -0.240 N 
ATOM     11  H9  UNL     1       8.936  51.565 -47.021  1.00  0.00     0.193 HD
BRANCH   3  12
HETATM   12  C2  UNL     1      12.489  52.583 -50.965  1.00  0.00     0.057 C 
HETATM   13  C1  UNL     1      13.215  53.840 -50.526  1.00  0.00     0.011 C 
ENDBRANCH   3  12
BRANCH   8  14
HETATM   14  N8  UNL     1      10.654  49.557 -46.254  1.00  0.00    -0.381 N 
ATOM     15  H82 UNL     1       9.836  49.077 -45.876  1.00  0.00     0.157 HD
ATOM     16  H81 UNL     1      11.475  49.240 -45.737  1.00  0.00     0.157 HD
ENDBRANCH   8  14
BRANCH   6  17
HETATM   17  O1  UNL     1       9.658  53.090 -49.232  1.00  0.00    -0.253 OA
ATOM     18  H1  UNL     1       9.016  53.696 -48.882  1.00  0.00     0.248 HD
ENDBRANCH   6  17
ENDBRANCH   1   2
BRANCH   1  19
HETATM   19  N1  UNL     1      14.709  49.103 -50.935  1.00  0.00    -0.217 N 
ATOM     20  H1  UNL     1      14.988  48.349 -50.308  1.00  0.00     0.178 HD
BRANCH  19  21
HETATM   21  C6  UNL     1      14.475  48.779 -52.152  1.00  0.00     0.715 A 
HETATM   22  N2  UNL     1      13.487  48.059 -52.689  1.00  0.00    -0.129 N 
HETATM   23  N3  UNL     1      13.687  48.000 -54.000  1.00  0.00    -0.271 N 
ATOM     24  H2  UNL     1      12.714  47.630 -52.181  1.00  0.00     0.205 HD
HETATM   25  C7  UNL     1      14.802  48.680 -54.318  1.00  0.00     0.166 A 
ATOM     26  H3  UNL     1      13.086  47.513 -54.665  1.00  0.00     0.189 HD
HETATM   27  N5  UNL     1      15.286  49.161 -53.166  1.00  0.00    -0.076 N 
BRANCH  25  28
HETATM   28  C8  UNL     1      15.415  48.884 -55.679  1.00  0.00     0.250 C 
HETATM   29  C9  UNL     1      16.590  47.975 -55.897  1.00  0.00     0.048 C 
BRANCH  28  30
HETATM   30  N4  UNL     1      14.399  48.698 -56.669  1.00  0.00    -0.068 N 
ATOM     31  H43 UNL     1      13.785  47.910 -56.456  1.00  0.00     0.275 HD
ATOM     32  H42 UNL     1      13.694  49.434 -56.648  1.00  0.00     0.275 HD
ATOM     33  H41 UNL     1      14.846  48.610 -57.581  1.00  0.00     0.275 HD
ENDBRANCH  28  30
ENDBRANCH  25  28
BRANCH  27  34
HETATM   34  N6  UNL     1      16.456  49.934 -53.080  1.00  0.00    -0.323 N 
ATOM     35  H62 UNL     1      17.106  49.885 -52.296  1.00  0.00     0.178 HD
ATOM     36  H61 UNL     1      16.800  50.616 -53.756  1.00  0.00     0.178 HD
ENDBRANCH  27  34
ENDBRANCH  19  21
ENDBRANCH   1  19
TORSDOF 9
ENDMDL
