MODEL 1
REMARK VINA RESULT: -6.788957576      0.000      0.000
REMARK  6 active torsions:
REMARK  status: ('A' for Active; 'I' for Inactive)
REMARK    1  A    between atoms: C2_2  and  C3_3 
REMARK    2  A    between atoms: C3_3  and  N1_4 
REMARK    3  A    between atoms: C3_3  and  C4_8 
REMARK       I    between atoms: C4_8  and  N2_10 
REMARK    4  A    between atoms: N2_10  and  N3_11 
REMARK       I    between atoms: N3_11  and  C5_13 
REMARK    5  A    between atoms: C5_13  and  C6_15 
REMARK    6  A    between atoms: C8_23  and  C9_24 
ROOT
HETATM    1  C6  UNL     1      11.612  51.298 -48.003  1.00  0.00     0.143 A 
HETATM    2  N4  UNL     1      10.275  51.381 -48.072  1.00  0.00    -0.253 N 
ATOM      3  H4  UNL     1       9.735  52.041 -48.631  1.00  0.00     0.195 HD
HETATM    4  O3  UNL     1       9.803  50.465 -47.293  1.00  0.00    -0.219 OA
HETATM    5  C7  UNL     1      10.729  49.765 -46.699  1.00  0.00     0.180 A 
HETATM    6  N5  UNL     1      10.612  48.783 -45.865  1.00  0.00    -0.377 N 
ATOM      7  H51 UNL     1      11.336  48.235 -45.400  1.00  0.00     0.158 HD
ATOM      8  H52 UNL     1       9.716  48.412 -45.548  1.00  0.00     0.158 HD
HETATM    9  C8  UNL     1      11.939  50.266 -47.128  1.00  0.00     0.098 A 
ENDROOT
BRANCH   1  10
HETATM   10  C5  UNL     1      12.574  52.079 -48.754  1.00  0.00     0.299 C 
HETATM   11  N3  UNL     1      13.440  52.972 -48.058  1.00  0.00    -0.194 N 
ATOM     12  H3  UNL     1      13.370  53.038 -47.042  1.00  0.00     0.205 HD
HETATM   13  O2  UNL     1      12.669  52.008 -50.005  1.00  0.00    -0.263 OA
BRANCH  11  14
HETATM   14  N2  UNL     1      14.340  53.728 -48.697  1.00  0.00    -0.282 NA
HETATM   15  C4  UNL     1      15.245  54.486 -49.333  1.00  0.00     0.342 C 
HETATM   16  O1  UNL     1      16.117  55.216 -48.731  1.00  0.00    -0.253 OA
BRANCH  15  17
HETATM   17  C3  UNL     1      15.352  54.576 -50.849  1.00  0.00     0.291 C 
BRANCH  17  18
HETATM   18  C2  UNL     1      16.133  53.405 -51.330  1.00  0.00     0.039 C 
HETATM   19  C1  UNL     1      17.606  53.526 -51.408  1.00  0.00     0.007 C 
ENDBRANCH  17  18
BRANCH  17  20
HETATM   20  N1  UNL     1      14.001  54.442 -51.411  1.00  0.00    -0.065 N 
ATOM     21  H13 UNL     1      13.292  54.946 -50.879  1.00  0.00     0.275 HD
ATOM     22  H12 UNL     1      13.879  54.942 -52.292  1.00  0.00     0.275 HD
ATOM     23  H11 UNL     1      13.813  53.442 -51.485  1.00  0.00     0.275 HD
ENDBRANCH  17  20
ENDBRANCH  15  17
ENDBRANCH  11  14
ENDBRANCH   1  10
BRANCH   9  24
HETATM   24  C9  UNL     1      13.296  49.866 -46.754  1.00  0.00     0.156 A 
HETATM   25  N6  UNL     1      13.929  50.149 -45.576  1.00  0.00    -0.268 N 
HETATM   26  N7  UNL     1      15.140  49.661 -45.623  1.00  0.00    -0.226 N 
ATOM     27  H6  UNL     1      13.522  50.658 -44.790  1.00  0.00     0.190 HD
HETATM   28  N8  UNL     1      15.295  49.078 -46.785  1.00  0.00    -0.225 N 
ATOM     29  H7  UNL     1      15.841  49.724 -44.884  1.00  0.00     0.210 HD
HETATM   30  N9  UNL     1      14.169  49.187 -47.506  1.00  0.00    -0.263 N 
ATOM     31  H8  UNL     1      16.146  48.609 -47.096  1.00  0.00     0.210 HD
HETATM   32  C10 UNL     1      13.996  48.670 -48.850  1.00  0.00     0.181 C 
ENDBRANCH   9  24
TORSDOF 6
ENDMDL
MODEL 2
REMARK VINA RESULT: -6.786883077      3.492      5.181
REMARK  6 active torsions:
REMARK  status: ('A' for Active; 'I' for Inactive)
REMARK    1  A    between atoms: C2_2  and  C3_3 
REMARK    2  A    between atoms: C3_3  and  N1_4 
REMARK    3  A    between atoms: C3_3  and  C4_8 
REMARK       I    between atoms: C4_8  and  N2_10 
REMARK    4  A    between atoms: N2_10  and  N3_11 
REMARK       I    between atoms: N3_11  and  C5_13 
REMARK    5  A    between atoms: C5_13  and  C6_15 
REMARK    6  A    between atoms: C8_23  and  C9_24 
ROOT
HETATM    1  C6  UNL     1      13.878  49.853 -48.294  1.00  0.00     0.143 A 
HETATM    2  N4  UNL     1      14.767  49.163 -47.565  1.00  0.00    -0.253 N 
ATOM      3  H4  UNL     1      15.499  48.548 -47.921  1.00  0.00     0.195 HD
HETATM    4  O3  UNL     1      14.520  49.427 -46.325  1.00  0.00    -0.219 OA
HETATM    5  C7  UNL     1      13.521  50.249 -46.162  1.00  0.00     0.180 A 
HETATM    6  N5  UNL     1      13.011  50.721 -45.071  1.00  0.00    -0.377 N 
ATOM      7  H51 UNL     1      12.230  51.365 -44.943  1.00  0.00     0.158 HD
ATOM      8  H52 UNL     1      13.353  50.487 -44.138  1.00  0.00     0.158 HD
HETATM    9  C8  UNL     1      13.060  50.565 -47.422  1.00  0.00     0.098 A 
ENDROOT
BRANCH   1  10
HETATM   10  C5  UNL     1      13.805  49.925 -49.739  1.00  0.00     0.299 C 
HETATM   11  N3  UNL     1      13.782  48.716 -50.495  1.00  0.00    -0.194 N 
ATOM     12  H3  UNL     1      13.810  47.823 -50.002  1.00  0.00     0.205 HD
HETATM   13  O2  UNL     1      13.772  51.018 -50.359  1.00  0.00    -0.263 OA
BRANCH  11  14
HETATM   14  N2  UNL     1      13.727  48.718 -51.832  1.00  0.00    -0.282 NA
HETATM   15  C4  UNL     1      13.665  48.722 -53.171  1.00  0.00     0.342 C 
HETATM   16  O1  UNL     1      12.565  48.769 -53.838  1.00  0.00    -0.253 OA
BRANCH  15  17
HETATM   17  C3  UNL     1      14.893  48.668 -54.071  1.00  0.00     0.291 C 
BRANCH  17  18
HETATM   18  C2  UNL     1      14.437  48.413 -55.463  1.00  0.00     0.039 C 
HETATM   19  C1  UNL     1      15.456  48.336 -56.535  1.00  0.00     0.007 C 
ENDBRANCH  17  18
BRANCH  17  20
HETATM   20  N1  UNL     1      15.519  49.997 -54.068  1.00  0.00    -0.065 N 
ATOM     21  H13 UNL     1      15.281  50.556 -54.887  1.00  0.00     0.275 HD
ATOM     22  H12 UNL     1      15.126  50.626 -53.367  1.00  0.00     0.275 HD
ATOM     23  H11 UNL     1      16.522  49.849 -53.959  1.00  0.00     0.275 HD
ENDBRANCH  17  20
ENDBRANCH  15  17
ENDBRANCH  11  14
ENDBRANCH   1  10
BRANCH   9  24
HETATM   24  C9  UNL     1      11.942  51.423 -47.814  1.00  0.00     0.156 A 
HETATM   25  N6  UNL     1      12.021  52.734 -48.196  1.00  0.00    -0.268 N 
HETATM   26  N7  UNL     1      10.814  53.175 -48.433  1.00  0.00    -0.226 N 
ATOM     27  H6  UNL     1      12.880  53.277 -48.282  1.00  0.00     0.190 HD
HETATM   28  N8  UNL     1       9.975  52.192 -48.217  1.00  0.00    -0.225 N 
ATOM     29  H7  UNL     1      10.568  54.118 -48.733  1.00  0.00     0.210 HD
HETATM   30  N9  UNL     1      10.645  51.094 -47.834  1.00  0.00    -0.263 N 
ATOM     31  H8  UNL     1       8.963  52.251 -48.325  1.00  0.00     0.210 HD
HETATM   32  C10 UNL     1      10.028  49.826 -47.496  1.00  0.00     0.181 C 
ENDBRANCH   9  24
TORSDOF 6
ENDMDL
MODEL 3
REMARK VINA RESULT: -6.778547945      3.890      6.051
REMARK  6 active torsions:
REMARK  status: ('A' for Active; 'I' for Inactive)
REMARK    1  A    between atoms: C2_2  and  C3_3 
REMARK    2  A    between atoms: C3_3  and  N1_4 
REMARK    3  A    between atoms: C3_3  and  C4_8 
REMARK       I    between atoms: C4_8  and  N2_10 
REMARK    4  A    between atoms: N2_10  and  N3_11 
REMARK       I    between atoms: N3_11  and  C5_13 
REMARK    5  A    between atoms: C5_13  and  C6_15 
REMARK    6  A    between atoms: C8_23  and  C9_24 
ROOT
HETATM    1  C6  UNL     1      12.607  50.988 -49.696  1.00  0.00     0.143 A 
HETATM    2  N4  UNL     1      12.337  50.538 -48.462  1.00  0.00    -0.253 N 
ATOM      3  H4  UNL     1      12.538  49.608 -48.096  1.00  0.00     0.195 HD
HETATM    4  O3  UNL     1      11.771  51.510 -47.826  1.00  0.00    -0.219 OA
HETATM    5  C7  UNL     1      11.638  52.589 -48.545  1.00  0.00     0.180 A 
HETATM    6  N5  UNL     1      11.122  53.733 -48.228  1.00  0.00    -0.377 N 
ATOM      7  H51 UNL     1      11.018  54.578 -48.790  1.00  0.00     0.158 HD
ATOM      8  H52 UNL     1      10.727  53.942 -47.311  1.00  0.00     0.158 HD
HETATM    9  C8  UNL     1      12.171  52.307 -49.784  1.00  0.00     0.098 A 
ENDROOT
BRANCH   1  10
HETATM   10  C5  UNL     1      13.301  50.275 -50.750  1.00  0.00     0.299 C 
HETATM   11  N3  UNL     1      12.544  49.515 -51.689  1.00  0.00    -0.194 N 
ATOM     12  H3  UNL     1      11.527  49.494 -51.605  1.00  0.00     0.205 HD
HETATM   13  O2  UNL     1      14.552  50.292 -50.865  1.00  0.00    -0.263 OA
BRANCH  11  14
HETATM   14  N2  UNL     1      13.128  48.828 -52.677  1.00  0.00    -0.282 NA
HETATM   15  C4  UNL     1      13.708  48.135 -53.668  1.00  0.00     0.342 C 
HETATM   16  O1  UNL     1      13.229  47.045 -54.157  1.00  0.00    -0.253 OA
BRANCH  15  17
HETATM   17  C3  UNL     1      15.011  48.554 -54.337  1.00  0.00     0.291 C 
BRANCH  17  18
HETATM   18  C2  UNL     1      14.807  48.519 -55.810  1.00  0.00     0.039 C 
HETATM   19  C1  UNL     1      16.000  48.527 -56.686  1.00  0.00     0.007 C 
ENDBRANCH  17  18
BRANCH  17  20
HETATM   20  N1  UNL     1      15.278  49.954 -53.980  1.00  0.00    -0.065 N 
ATOM     21  H13 UNL     1      14.621  50.326 -53.296  1.00  0.00     0.275 HD
ATOM     22  H12 UNL     1      16.124  50.073 -53.423  1.00  0.00     0.275 HD
ATOM     23  H11 UNL     1      15.292  50.481 -54.853  1.00  0.00     0.275 HD
ENDBRANCH  17  20
ENDBRANCH  15  17
ENDBRANCH  11  14
ENDBRANCH   1  10
BRANCH   9  24
HETATM   24  C9  UNL     1      12.255  53.153 -50.974  1.00  0.00     0.156 A 
HETATM   25  N6  UNL     1      11.348  53.208 -51.995  1.00  0.00    -0.268 N 
HETATM   26  N7  UNL     1      11.782  54.047 -52.898  1.00  0.00    -0.226 N 
ATOM     27  H6  UNL     1      10.475  52.680 -52.044  1.00  0.00     0.190 HD
HETATM   28  N8  UNL     1      12.929  54.526 -52.485  1.00  0.00    -0.225 N 
ATOM     29  H7  UNL     1      11.311  54.286 -53.770  1.00  0.00     0.210 HD
HETATM   30  N9  UNL     1      13.247  53.991 -51.296  1.00  0.00    -0.263 N 
ATOM     31  H8  UNL     1      13.497  55.205 -52.991  1.00  0.00     0.210 HD
HETATM   32  C10 UNL     1      14.459  54.285 -50.556  1.00  0.00     0.181 C 
ENDBRANCH   9  24
TORSDOF 6
ENDMDL
MODEL 4
REMARK VINA RESULT: -6.661972136      4.279      6.787
REMARK  6 active torsions:
REMARK  status: ('A' for Active; 'I' for Inactive)
REMARK    1  A    between atoms: C2_2  and  C3_3 
REMARK    2  A    between atoms: C3_3  and  N1_4 
REMARK    3  A    between atoms: C3_3  and  C4_8 
REMARK       I    between atoms: C4_8  and  N2_10 
REMARK    4  A    between atoms: N2_10  and  N3_11 
REMARK       I    between atoms: N3_11  and  C5_13 
REMARK    5  A    between atoms: C5_13  and  C6_15 
REMARK    6  A    between atoms: C8_23  and  C9_24 
ROOT
HETATM    1  C6  UNL     1      13.962  48.548 -52.632  1.00  0.00     0.143 A 
HETATM    2  N4  UNL     1      13.131  47.603 -53.097  1.00  0.00    -0.253 N 
ATOM      3  H4  UNL     1      12.467  47.055 -52.551  1.00  0.00     0.195 HD
HETATM    4  O3  UNL     1      13.334  47.521 -54.370  1.00  0.00    -0.219 OA
HETATM    5  C7  UNL     1      14.247  48.345 -54.802  1.00  0.00     0.180 A 
HETATM    6  N5  UNL     1      14.694  48.526 -56.002  1.00  0.00    -0.377 N 
ATOM      7  H51 UNL     1      15.409  49.171 -56.340  1.00  0.00     0.158 HD
ATOM      8  H52 UNL     1      14.363  48.006 -56.815  1.00  0.00     0.158 HD
HETATM    9  C8  UNL     1      14.695  49.048 -53.704  1.00  0.00     0.098 A 
ENDROOT
BRANCH   1  10
HETATM   10  C5  UNL     1      14.048  49.038 -51.271  1.00  0.00     0.299 C 
HETATM   11  N3  UNL     1      12.977  49.818 -50.744  1.00  0.00    -0.194 N 
ATOM     12  H3  UNL     1      12.167  50.009 -51.334  1.00  0.00     0.205 HD
HETATM   13  O2  UNL     1      15.041  48.811 -50.535  1.00  0.00    -0.263 OA
BRANCH  11  14
HETATM   14  N2  UNL     1      13.004  50.307 -49.500  1.00  0.00    -0.282 NA
HETATM   15  C4  UNL     1      13.029  50.803 -48.254  1.00  0.00     0.342 C 
HETATM   16  O1  UNL     1      12.875  52.050 -47.976  1.00  0.00    -0.253 OA
BRANCH  15  17
HETATM   17  C3  UNL     1      13.245  49.948 -47.011  1.00  0.00     0.291 C 
BRANCH  17  18
HETATM   18  C2  UNL     1      14.655  49.476 -47.013  1.00  0.00     0.039 C 
HETATM   19  C1  UNL     1      15.421  49.541 -45.748  1.00  0.00     0.007 C 
ENDBRANCH  17  18
BRANCH  17  20
HETATM   20  N1  UNL     1      13.089  50.810 -45.832  1.00  0.00    -0.065 N 
ATOM     21  H13 UNL     1      13.351  50.351 -44.961  1.00  0.00     0.275 HD
ATOM     22  H12 UNL     1      13.776  51.564 -45.791  1.00  0.00     0.275 HD
ATOM     23  H11 UNL     1      12.126  51.144 -45.839  1.00  0.00     0.275 HD
ENDBRANCH  17  20
ENDBRANCH  15  17
ENDBRANCH  11  14
ENDBRANCH   1  10
BRANCH   9  24
HETATM   24  C9  UNL     1      15.733  50.076 -53.618  1.00  0.00     0.156 A 
HETATM   25  N6  UNL     1      15.558  51.420 -53.797  1.00  0.00    -0.268 N 
HETATM   26  N7  UNL     1      16.717  52.013 -53.682  1.00  0.00    -0.226 N 
ATOM     27  H6  UNL     1      14.670  51.884 -53.989  1.00  0.00     0.190 HD
HETATM   28  N8  UNL     1      17.617  51.093 -53.434  1.00  0.00    -0.225 N 
ATOM     29  H7  UNL     1      16.891  53.014 -53.770  1.00  0.00     0.210 HD
HETATM   30  N9  UNL     1      17.036  49.885 -53.388  1.00  0.00    -0.263 N 
ATOM     31  H8  UNL     1      18.612  51.270 -53.297  1.00  0.00     0.210 HD
HETATM   32  C10 UNL     1      17.740  48.639 -53.152  1.00  0.00     0.181 C 
ENDBRANCH   9  24
TORSDOF 6
ENDMDL
MODEL 5
REMARK VINA RESULT: -6.609724222      7.864      9.525
REMARK  6 active torsions:
REMARK  status: ('A' for Active; 'I' for Inactive)
REMARK    1  A    between atoms: C2_2  and  C3_3 
REMARK    2  A    between atoms: C3_3  and  N1_4 
REMARK    3  A    between atoms: C3_3  and  C4_8 
REMARK       I    between atoms: C4_8  and  N2_10 
REMARK    4  A    between atoms: N2_10  and  N3_11 
REMARK       I    between atoms: N3_11  and  C5_13 
REMARK    5  A    between atoms: C5_13  and  C6_15 
REMARK    6  A    between atoms: C8_23  and  C9_24 
ROOT
HETATM    1  C6  UNL     1      15.969  49.025 -56.381  1.00  0.00     0.143 A 
HETATM    2  N4  UNL     1      14.671  48.835 -56.660  1.00  0.00    -0.253 N 
ATOM      3  H4  UNL     1      14.220  48.957 -57.567  1.00  0.00     0.195 HD
HETATM    4  O3  UNL     1      14.102  48.468 -55.561  1.00  0.00    -0.219 OA
HETATM    5  C7  UNL     1      14.924  48.396 -54.552  1.00  0.00     0.180 A 
HETATM    6  N5  UNL     1      14.695  48.065 -53.323  1.00  0.00    -0.377 N 
ATOM      7  H51 UNL     1      15.339  48.009 -52.533  1.00  0.00     0.158 HD
ATOM      8  H52 UNL     1      13.774  47.804 -52.969  1.00  0.00     0.158 HD
HETATM    9  C8  UNL     1      16.168  48.750 -55.031  1.00  0.00     0.098 A 
ENDROOT
BRANCH   1  10
HETATM   10  C5  UNL     1      17.019  49.379 -57.315  1.00  0.00     0.299 C 
HETATM   11  N3  UNL     1      17.530  50.710 -57.313  1.00  0.00    -0.194 N 
ATOM     12  H3  UNL     1      17.152  51.385 -56.649  1.00  0.00     0.205 HD
HETATM   13  O2  UNL     1      17.493  48.557 -58.138  1.00  0.00    -0.263 OA
BRANCH  11  14
HETATM   14  N2  UNL     1      18.491  51.099 -58.158  1.00  0.00    -0.282 NA
HETATM   15  C4  UNL     1      19.454  51.484 -59.009  1.00  0.00     0.342 C 
HETATM   16  O1  UNL     1      19.943  50.727 -59.928  1.00  0.00    -0.253 OA
BRANCH  15  17
HETATM   17  C3  UNL     1      20.090  52.868 -58.990  1.00  0.00     0.291 C 
BRANCH  17  18
HETATM   18  C2  UNL     1      20.630  53.149 -60.347  1.00  0.00     0.039 C 
HETATM   19  C1  UNL     1      19.832  53.998 -61.260  1.00  0.00     0.007 C 
ENDBRANCH  17  18
BRANCH  17  20
HETATM   20  N1  UNL     1      19.029  53.854 -58.745  1.00  0.00    -0.065 N 
ATOM     21  H13 UNL     1      19.361  54.694 -58.271  1.00  0.00     0.275 HD
ATOM     22  H12 UNL     1      18.698  54.310 -59.596  1.00  0.00     0.275 HD
ATOM     23  H11 UNL     1      18.291  53.370 -58.235  1.00  0.00     0.275 HD
ENDBRANCH  17  20
ENDBRANCH  15  17
ENDBRANCH  11  14
ENDBRANCH   1  10
BRANCH   9  24
HETATM   24  C9  UNL     1      17.440  48.863 -54.318  1.00  0.00     0.156 A 
HETATM   25  N6  UNL     1      18.465  47.958 -54.341  1.00  0.00    -0.268 N 
HETATM   26  N7  UNL     1      19.417  48.383 -53.553  1.00  0.00    -0.226 N 
ATOM     27  H6  UNL     1      18.483  47.094 -54.883  1.00  0.00     0.190 HD
HETATM   28  N8  UNL     1      19.033  49.524 -53.035  1.00  0.00    -0.225 N 
ATOM     29  H7  UNL     1      20.302  47.910 -53.373  1.00  0.00     0.210 HD
HETATM   30  N9  UNL     1      17.814  49.846 -53.492  1.00  0.00    -0.263 N 
ATOM     31  H8  UNL     1      19.581  50.084 -52.382  1.00  0.00     0.210 HD
HETATM   32  C10 UNL     1      17.077  51.036 -53.110  1.00  0.00     0.181 C 
ENDBRANCH   9  24
TORSDOF 6
ENDMDL
