MODEL 1
REMARK VINA RESULT: -5.699575508      0.000      0.000
REMARK  9 active torsions:
REMARK  status: ('A' for Active; 'I' for Inactive)
REMARK    1  A    between atoms: C3_5  and  C4_6 
REMARK       I    between atoms: C4_6  and  N2_8 
REMARK    2  A    between atoms: N2_8  and  C5_10 
REMARK    3  A    between atoms: C6_15  and  C7_16 
REMARK    4  A    between atoms: C7_16  and  N5_17 
REMARK    5  A    between atoms: C7_16  and  C8_21 
REMARK    6  A    between atoms: C8_21  and  O2_22 
REMARK    7  A    between atoms: N6_24  and  N7_25 
REMARK    8  A    between atoms: C9_28  and  C10_29 
REMARK    9  A    between atoms: C10_29  and  N8_30 
ROOT
HETATM    1  C5  UNL     1      18.114  50.694 -57.314  1.00  0.00     0.722 A 
HETATM    2  N3  UNL     1      19.413  50.393 -57.148  1.00  0.00    -0.129 N 
ATOM      3  H3  UNL     1      19.767  49.715 -56.473  1.00  0.00     0.205 HD
HETATM    4  N4  UNL     1      20.165  51.085 -57.968  1.00  0.00    -0.271 N 
ATOM      5  H4  UNL     1      21.181  51.042 -58.042  1.00  0.00     0.189 HD
HETATM    6  C6  UNL     1      19.331  51.871 -58.702  1.00  0.00     0.169 A 
HETATM    7  N6  UNL     1      18.091  51.622 -58.293  1.00  0.00    -0.075 N 
ENDROOT
BRANCH   1   8
HETATM    8  N2  UNL     1      17.072  50.245 -56.717  1.00  0.00    -0.151 N 
HETATM    9  C4  UNL     1      17.062  48.949 -56.119  1.00  0.00     0.287 C 
HETATM   10  O1  UNL     1      17.492  47.987 -56.765  1.00  0.00    -0.265 OA
ATOM     11  H2  UNL     1      16.235  50.825 -56.668  1.00  0.00     0.188 HD
BRANCH   9  12
HETATM   12  C3  UNL     1      16.549  48.725 -54.740  1.00  0.00     0.117 A 
HETATM   13  N1  UNL     1      15.295  48.469 -54.509  1.00  0.00    -0.349 N 
HETATM   14  C2  UNL     1      14.873  48.275 -53.277  1.00  0.00     0.048 A 
ATOM     15  H1  UNL     1      14.635  48.419 -55.285  1.00  0.00     0.166 HD
HETATM   16  C1  UNL     1      13.471  47.968 -52.795  1.00  0.00     0.076 C 
HETATM   17  S1  UNL     1      16.307  48.456 -52.363  1.00  0.00    -0.078 SA
HETATM   18  C9  UNL     1      17.382  48.778 -53.649  1.00  0.00     0.042 A 
BRANCH  18  19
HETATM   19  C10 UNL     1      18.866  49.052 -53.613  1.00  0.00     0.278 C 
BRANCH  19  20
HETATM   20  N8  UNL     1      19.561  47.926 -54.207  1.00  0.00    -0.075 N 
ATOM     21  H83 UNL     1      19.096  47.038 -54.019  1.00  0.00     0.274 HD
ATOM     22  H82 UNL     1      19.485  47.913 -55.224  1.00  0.00     0.274 HD
ATOM     23  H81 UNL     1      20.529  47.934 -53.887  1.00  0.00     0.274 HD
ENDBRANCH  19  20
ENDBRANCH  18  19
ENDBRANCH   9  12
ENDBRANCH   1   8
BRANCH   7  24
HETATM   24  N7  UNL     1      16.933  52.231 -58.802  1.00  0.00    -0.323 N 
ATOM     25  H72 UNL     1      16.001  52.149 -58.397  1.00  0.00     0.178 HD
ATOM     26  H71 UNL     1      16.897  52.821 -59.632  1.00  0.00     0.178 HD
ENDBRANCH   7  24
BRANCH   6  27
HETATM   27  C7  UNL     1      19.835  52.797 -59.743  1.00  0.00     0.277 C 
BRANCH  27  28
HETATM   28  N5  UNL     1      20.950  53.521 -59.219  1.00  0.00    -0.066 N 
ATOM     29  H53 UNL     1      21.542  53.909 -59.953  1.00  0.00     0.275 HD
ATOM     30  H52 UNL     1      20.672  54.399 -58.781  1.00  0.00     0.275 HD
ATOM     31  H51 UNL     1      21.467  52.915 -58.581  1.00  0.00     0.275 HD
ENDBRANCH  27  28
BRANCH  27  32
HETATM   32  C8  UNL     1      20.163  52.025 -61.003  1.00  0.00     0.205 C 
BRANCH  32  33
HETATM   33  O2  UNL     1      20.159  50.664 -60.808  1.00  0.00    -0.398 OA
ATOM     34  H2  UNL     1      20.251  50.177 -61.618  1.00  0.00     0.209 HD
ENDBRANCH  32  33
ENDBRANCH  27  32
ENDBRANCH   6  27
TORSDOF 9
ENDMDL
MODEL 2
REMARK VINA RESULT: -5.697016908      4.795      7.495
REMARK  9 active torsions:
REMARK  status: ('A' for Active; 'I' for Inactive)
REMARK    1  A    between atoms: C3_5  and  C4_6 
REMARK       I    between atoms: C4_6  and  N2_8 
REMARK    2  A    between atoms: N2_8  and  C5_10 
REMARK    3  A    between atoms: C6_15  and  C7_16 
REMARK    4  A    between atoms: C7_16  and  N5_17 
REMARK    5  A    between atoms: C7_16  and  C8_21 
REMARK    6  A    between atoms: C8_21  and  O2_22 
REMARK    7  A    between atoms: N6_24  and  N7_25 
REMARK    8  A    between atoms: C9_28  and  C10_29 
REMARK    9  A    between atoms: C10_29  and  N8_30 
ROOT
HETATM    1  C5  UNL     1      13.478  49.367 -52.593  1.00  0.00     0.722 A 
HETATM    2  N3  UNL     1      13.314  48.100 -53.011  1.00  0.00    -0.129 N 
ATOM      3  H3  UNL     1      12.608  47.459 -52.648  1.00  0.00     0.205 HD
HETATM    4  N4  UNL     1      14.181  47.797 -53.945  1.00  0.00    -0.271 N 
ATOM      5  H4  UNL     1      14.267  46.901 -54.426  1.00  0.00     0.189 HD
HETATM    6  C6  UNL     1      14.945  48.905 -54.151  1.00  0.00     0.169 A 
HETATM    7  N6  UNL     1      14.505  49.847 -53.324  1.00  0.00    -0.075 N 
ENDROOT
BRANCH   1   8
HETATM    8  N2  UNL     1      12.842  50.040 -51.706  1.00  0.00    -0.151 N 
HETATM    9  C4  UNL     1      13.291  50.093 -50.353  1.00  0.00     0.287 C 
HETATM   10  O1  UNL     1      13.605  49.042 -49.783  1.00  0.00    -0.265 OA
ATOM     11  H2  UNL     1      11.998  50.547 -51.973  1.00  0.00     0.188 HD
BRANCH   9  12
HETATM   12  C3  UNL     1      13.394  51.379 -49.610  1.00  0.00     0.117 A 
HETATM   13  N1  UNL     1      14.383  52.202 -49.797  1.00  0.00    -0.349 N 
HETATM   14  C2  UNL     1      14.444  53.332 -49.124  1.00  0.00     0.048 A 
ATOM     15  H1  UNL     1      15.116  51.970 -50.468  1.00  0.00     0.166 HD
HETATM   16  C1  UNL     1      15.498  54.416 -49.191  1.00  0.00     0.076 C 
HETATM   17  S1  UNL     1      13.033  53.262 -48.160  1.00  0.00    -0.078 SA
HETATM   18  C9  UNL     1      12.442  51.753 -48.693  1.00  0.00     0.042 A 
BRANCH  18  19
HETATM   19  C10 UNL     1      11.197  51.009 -48.274  1.00  0.00     0.278 C 
BRANCH  19  20
HETATM   20  N8  UNL     1      11.450  50.357 -47.004  1.00  0.00    -0.075 N 
ATOM     21  H83 UNL     1      12.400  49.993 -46.934  1.00  0.00     0.274 HD
ATOM     22  H82 UNL     1      11.495  51.017 -46.228  1.00  0.00     0.274 HD
ATOM     23  H81 UNL     1      10.745  49.634 -46.861  1.00  0.00     0.274 HD
ENDBRANCH  19  20
ENDBRANCH  18  19
ENDBRANCH   9  12
ENDBRANCH   1   8
BRANCH   7  24
HETATM   24  N7  UNL     1      15.029  51.145 -53.224  1.00  0.00    -0.323 N 
ATOM     25  H72 UNL     1      15.112  51.806 -53.997  1.00  0.00     0.178 HD
ATOM     26  H71 UNL     1      15.384  51.571 -52.368  1.00  0.00     0.178 HD
ENDBRANCH   7  24
BRANCH   6  27
HETATM   27  C7  UNL     1      16.040  48.932 -55.149  1.00  0.00     0.277 C 
BRANCH  27  28
HETATM   28  N5  UNL     1      17.235  48.441 -54.539  1.00  0.00    -0.066 N 
ATOM     29  H53 UNL     1      17.198  47.437 -54.363  1.00  0.00     0.275 HD
ATOM     30  H52 UNL     1      18.028  48.444 -55.179  1.00  0.00     0.275 HD
ATOM     31  H51 UNL     1      17.418  48.978 -53.691  1.00  0.00     0.275 HD
ENDBRANCH  27  28
BRANCH  27  32
HETATM   32  C8  UNL     1      15.633  48.150 -56.380  1.00  0.00     0.205 C 
BRANCH  32  33
HETATM   33  O2  UNL     1      14.350  48.430 -56.787  1.00  0.00    -0.398 OA
ATOM     34  H2  UNL     1      13.901  47.668 -57.134  1.00  0.00     0.209 HD
ENDBRANCH  32  33
ENDBRANCH  27  32
ENDBRANCH   6  27
TORSDOF 9
ENDMDL
MODEL 3
REMARK VINA RESULT: -5.654093884      1.100      2.272
REMARK  9 active torsions:
REMARK  status: ('A' for Active; 'I' for Inactive)
REMARK    1  A    between atoms: C3_5  and  C4_6 
REMARK       I    between atoms: C4_6  and  N2_8 
REMARK    2  A    between atoms: N2_8  and  C5_10 
REMARK    3  A    between atoms: C6_15  and  C7_16 
REMARK    4  A    between atoms: C7_16  and  N5_17 
REMARK    5  A    between atoms: C7_16  and  C8_21 
REMARK    6  A    between atoms: C8_21  and  O2_22 
REMARK    7  A    between atoms: N6_24  and  N7_25 
REMARK    8  A    between atoms: C9_28  and  C10_29 
REMARK    9  A    between atoms: C10_29  and  N8_30 
ROOT
HETATM    1  C5  UNL     1      18.178  50.661 -57.233  1.00  0.00     0.722 A 
HETATM    2  N3  UNL     1      19.483  50.356 -57.127  1.00  0.00    -0.129 N 
ATOM      3  H3  UNL     1      19.865  49.673 -56.472  1.00  0.00     0.205 HD
HETATM    4  N4  UNL     1      20.200  51.051 -57.975  1.00  0.00    -0.271 N 
ATOM      5  H4  UNL     1      21.212  51.006 -58.094  1.00  0.00     0.189 HD
HETATM    6  C6  UNL     1      19.336  51.844 -58.666  1.00  0.00     0.169 A 
HETATM    7  N6  UNL     1      18.115  51.595 -58.204  1.00  0.00    -0.075 N 
ENDROOT
BRANCH   1   8
HETATM    8  N2  UNL     1      17.163  50.211 -56.593  1.00  0.00    -0.151 N 
HETATM    9  C4  UNL     1      17.161  48.896 -56.038  1.00  0.00     0.287 C 
HETATM   10  O1  UNL     1      17.537  47.949 -56.736  1.00  0.00    -0.265 OA
ATOM     11  H2  UNL     1      16.341  50.803 -56.480  1.00  0.00     0.188 HD
BRANCH   9  12
HETATM   12  C3  UNL     1      16.720  48.636 -54.640  1.00  0.00     0.117 A 
HETATM   13  N1  UNL     1      17.569  48.550 -53.658  1.00  0.00    -0.349 N 
HETATM   14  C2  UNL     1      17.146  48.320 -52.433  1.00  0.00     0.048 A 
ATOM     15  H1  UNL     1      18.566  48.662 -53.839  1.00  0.00     0.166 HD
HETATM   16  C1  UNL     1      17.958  48.185 -51.163  1.00  0.00     0.076 C 
HETATM   17  S1  UNL     1      15.452  48.213 -52.642  1.00  0.00    -0.078 SA
HETATM   18  C9  UNL     1      15.392  48.476 -54.326  1.00  0.00     0.042 A 
BRANCH  18  19
HETATM   19  C10 UNL     1      14.198  48.524 -55.248  1.00  0.00     0.278 C 
BRANCH  19  20
HETATM   20  N8  UNL     1      12.991  48.414 -54.451  1.00  0.00    -0.075 N 
ATOM     21  H83 UNL     1      12.678  47.449 -54.349  1.00  0.00     0.274 HD
ATOM     22  H82 UNL     1      13.154  48.615 -53.465  1.00  0.00     0.274 HD
ATOM     23  H81 UNL     1      12.274  49.015 -54.858  1.00  0.00     0.274 HD
ENDBRANCH  19  20
ENDBRANCH  18  19
ENDBRANCH   9  12
ENDBRANCH   1   8
BRANCH   7  24
HETATM   24  N7  UNL     1      16.938  52.210 -58.657  1.00  0.00    -0.323 N 
ATOM     25  H72 UNL     1      16.243  52.660 -58.061  1.00  0.00     0.178 HD
ATOM     26  H71 UNL     1      16.647  52.275 -59.633  1.00  0.00     0.178 HD
ENDBRANCH   7  24
BRANCH   6  27
HETATM   27  C7  UNL     1      19.796  52.776 -59.722  1.00  0.00     0.277 C 
BRANCH  27  28
HETATM   28  N5  UNL     1      20.879  53.556 -59.211  1.00  0.00    -0.066 N 
ATOM     29  H53 UNL     1      20.744  54.556 -59.364  1.00  0.00     0.275 HD
ATOM     30  H52 UNL     1      20.902  53.570 -58.192  1.00  0.00     0.275 HD
ATOM     31  H51 UNL     1      21.752  53.215 -59.616  1.00  0.00     0.275 HD
ENDBRANCH  27  28
BRANCH  27  32
HETATM   32  C8  UNL     1      20.157  52.000 -60.971  1.00  0.00     0.205 C 
BRANCH  32  33
HETATM   33  O2  UNL     1      20.112  50.639 -60.782  1.00  0.00    -0.398 OA
ATOM     34  H2  UNL     1      19.266  50.265 -61.000  1.00  0.00     0.209 HD
ENDBRANCH  32  33
ENDBRANCH  27  32
ENDBRANCH   6  27
TORSDOF 9
ENDMDL
MODEL 4
REMARK VINA RESULT: -5.637878426      4.977      7.432
REMARK  9 active torsions:
REMARK  status: ('A' for Active; 'I' for Inactive)
REMARK    1  A    between atoms: C3_5  and  C4_6 
REMARK       I    between atoms: C4_6  and  N2_8 
REMARK    2  A    between atoms: N2_8  and  C5_10 
REMARK    3  A    between atoms: C6_15  and  C7_16 
REMARK    4  A    between atoms: C7_16  and  N5_17 
REMARK    5  A    between atoms: C7_16  and  C8_21 
REMARK    6  A    between atoms: C8_21  and  O2_22 
REMARK    7  A    between atoms: N6_24  and  N7_25 
REMARK    8  A    between atoms: C9_28  and  C10_29 
REMARK    9  A    between atoms: C10_29  and  N8_30 
ROOT
HETATM    1  C5  UNL     1      14.814  49.998 -51.953  1.00  0.00     0.722 A 
HETATM    2  N3  UNL     1      14.813  48.672 -52.172  1.00  0.00    -0.129 N 
ATOM      3  H3  UNL     1      14.536  47.974 -51.482  1.00  0.00     0.205 HD
HETATM    4  N4  UNL     1      15.215  48.395 -53.387  1.00  0.00    -0.271 N 
ATOM      5  H4  UNL     1      15.305  47.467 -53.801  1.00  0.00     0.189 HD
HETATM    6  C6  UNL     1      15.492  49.583 -53.993  1.00  0.00     0.169 A 
HETATM    7  N6  UNL     1      15.242  50.544 -53.110  1.00  0.00    -0.075 N 
ENDROOT
BRANCH   1   8
HETATM    8  N2  UNL     1      14.492  50.671 -50.910  1.00  0.00    -0.151 N 
HETATM    9  C4  UNL     1      13.409  50.267 -50.073  1.00  0.00     0.287 C 
HETATM   10  O1  UNL     1      12.330  49.962 -50.594  1.00  0.00    -0.265 OA
ATOM     11  H2  UNL     1      15.021  51.510 -50.674  1.00  0.00     0.188 HD
BRANCH   9  12
HETATM   12  C3  UNL     1      13.544  50.203 -48.592  1.00  0.00     0.117 A 
HETATM   13  N1  UNL     1      14.653  49.838 -48.020  1.00  0.00    -0.349 N 
HETATM   14  C2  UNL     1      14.739  49.793 -46.707  1.00  0.00     0.048 A 
ATOM     15  H1  UNL     1      15.459  49.586 -48.591  1.00  0.00     0.166 HD
HETATM   16  C1  UNL     1      15.924  49.399 -45.851  1.00  0.00     0.076 C 
HETATM   17  S1  UNL     1      13.177  50.290 -46.218  1.00  0.00    -0.078 SA
HETATM   18  C9  UNL     1      12.497  50.530 -47.764  1.00  0.00     0.042 A 
BRANCH  18  19
HETATM   19  C10 UNL     1      11.108  50.982 -48.141  1.00  0.00     0.278 C 
BRANCH  19  20
HETATM   20  N8  UNL     1      10.165  50.439 -47.182  1.00  0.00    -0.075 N 
ATOM     21  H83 UNL     1      10.490  50.531 -46.220  1.00  0.00     0.274 HD
ATOM     22  H82 UNL     1       9.321  51.005 -47.100  1.00  0.00     0.274 HD
ATOM     23  H81 UNL     1       9.964  49.471 -47.433  1.00  0.00     0.274 HD
ENDBRANCH  19  20
ENDBRANCH  18  19
ENDBRANCH   9  12
ENDBRANCH   1   8
BRANCH   7  24
HETATM   24  N7  UNL     1      15.401  51.919 -53.344  1.00  0.00    -0.323 N 
ATOM     25  H72 UNL     1      14.648  52.607 -53.337  1.00  0.00     0.178 HD
ATOM     26  H71 UNL     1      16.287  52.381 -53.548  1.00  0.00     0.178 HD
ENDBRANCH   7  24
BRANCH   6  27
HETATM   27  C7  UNL     1      15.976  49.659 -55.391  1.00  0.00     0.277 C 
BRANCH  27  28
HETATM   28  N5  UNL     1      17.394  49.833 -55.381  1.00  0.00    -0.066 N 
ATOM     29  H53 UNL     1      17.821  49.502 -54.516  1.00  0.00     0.275 HD
ATOM     30  H52 UNL     1      17.868  49.200 -56.025  1.00  0.00     0.275 HD
ATOM     31  H51 UNL     1      17.609  50.813 -55.571  1.00  0.00     0.275 HD
ENDBRANCH  27  28
BRANCH  27  32
HETATM   32  C8  UNL     1      15.530  48.432 -56.158  1.00  0.00     0.205 C 
BRANCH  32  33
HETATM   33  O2  UNL     1      14.196  48.468 -56.488  1.00  0.00    -0.398 OA
ATOM     34  H2  UNL     1      13.841  47.608 -56.675  1.00  0.00     0.209 HD
ENDBRANCH  32  33
ENDBRANCH  27  32
ENDBRANCH   6  27
TORSDOF 9
ENDMDL
MODEL 5
REMARK VINA RESULT: -5.565594270      5.517      9.862
REMARK  9 active torsions:
REMARK  status: ('A' for Active; 'I' for Inactive)
REMARK    1  A    between atoms: C3_5  and  C4_6 
REMARK       I    between atoms: C4_6  and  N2_8 
REMARK    2  A    between atoms: N2_8  and  C5_10 
REMARK    3  A    between atoms: C6_15  and  C7_16 
REMARK    4  A    between atoms: C7_16  and  N5_17 
REMARK    5  A    between atoms: C7_16  and  C8_21 
REMARK    6  A    between atoms: C8_21  and  O2_22 
REMARK    7  A    between atoms: N6_24  and  N7_25 
REMARK    8  A    between atoms: C9_28  and  C10_29 
REMARK    9  A    between atoms: C10_29  and  N8_30 
ROOT
HETATM    1  C5  UNL     1      13.550  49.881 -50.062  1.00  0.00     0.722 A 
HETATM    2  N3  UNL     1      12.650  50.876 -49.984  1.00  0.00    -0.129 N 
ATOM      3  H3  UNL     1      12.364  51.460 -50.770  1.00  0.00     0.205 HD
HETATM    4  N4  UNL     1      12.188  50.998 -48.764  1.00  0.00    -0.271 N 
ATOM      5  H4  UNL     1      11.497  51.675 -48.440  1.00  0.00     0.189 HD
HETATM    6  C6  UNL     1      12.806  50.048 -48.010  1.00  0.00     0.169 A 
HETATM    7  N6  UNL     1      13.628  49.380 -48.813  1.00  0.00    -0.075 N 
ENDROOT
BRANCH   1   8
HETATM    8  N2  UNL     1      14.224  49.445 -51.062  1.00  0.00    -0.151 N 
HETATM    9  C4  UNL     1      13.962  49.901 -52.388  1.00  0.00     0.287 C 
HETATM   10  O1  UNL     1      12.793  49.937 -52.790  1.00  0.00    -0.265 OA
ATOM     11  H2  UNL     1      14.962  48.759 -50.906  1.00  0.00     0.188 HD
BRANCH   9  12
HETATM   12  C3  UNL     1      15.055  50.336 -53.299  1.00  0.00     0.117 A 
HETATM   13  N1  UNL     1      15.798  51.370 -53.034  1.00  0.00    -0.349 N 
HETATM   14  C2  UNL     1      16.758  51.728 -53.861  1.00  0.00     0.048 A 
ATOM     15  H1  UNL     1      15.636  51.907 -52.183  1.00  0.00     0.166 HD
HETATM   16  C1  UNL     1      17.725  52.886 -53.742  1.00  0.00     0.076 C 
HETATM   17  S1  UNL     1      16.635  50.554 -55.099  1.00  0.00    -0.078 SA
HETATM   18  C9  UNL     1      15.329  49.659 -54.463  1.00  0.00     0.042 A 
BRANCH  18  19
HETATM   19  C10 UNL     1      14.641  48.437 -55.022  1.00  0.00     0.278 C 
BRANCH  19  20
HETATM   20  N8  UNL     1      14.655  48.517 -56.470  1.00  0.00    -0.075 N 
ATOM     21  H83 UNL     1      13.817  48.961 -56.845  1.00  0.00     0.274 HD
ATOM     22  H82 UNL     1      15.339  49.190 -56.817  1.00  0.00     0.274 HD
ATOM     23  H81 UNL     1      14.802  47.581 -56.848  1.00  0.00     0.274 HD
ENDBRANCH  19  20
ENDBRANCH  18  19
ENDBRANCH   9  12
ENDBRANCH   1   8
BRANCH   7  24
HETATM   24  N7  UNL     1      14.453  48.314 -48.420  1.00  0.00    -0.323 N 
ATOM     25  H72 UNL     1      15.455  48.250 -48.599  1.00  0.00     0.178 HD
ATOM     26  H71 UNL     1      14.141  47.485 -47.913  1.00  0.00     0.178 HD
ENDBRANCH   7  24
BRANCH   6  27
HETATM   27  C7  UNL     1      12.527  49.885 -46.564  1.00  0.00     0.277 C 
BRANCH  27  28
HETATM   28  N5  UNL     1      13.160  50.948 -45.848  1.00  0.00    -0.066 N 
ATOM     29  H53 UNL     1      14.150  51.033 -46.074  1.00  0.00     0.275 HD
ATOM     30  H52 UNL     1      12.860  51.867 -46.171  1.00  0.00     0.275 HD
ATOM     31  H51 UNL     1      12.998  50.815 -44.849  1.00  0.00     0.275 HD
ENDBRANCH  27  28
BRANCH  27  32
HETATM   32  C8  UNL     1      11.032  49.816 -46.333  1.00  0.00     0.205 C 
BRANCH  32  33
HETATM   33  O2  UNL     1      10.390  49.017 -47.248  1.00  0.00    -0.398 OA
ATOM     34  H2  UNL     1      10.035  49.508 -47.980  1.00  0.00     0.209 HD
ENDBRANCH  32  33
ENDBRANCH  27  32
ENDBRANCH   6  27
TORSDOF 9
ENDMDL
