MODEL 1
REMARK VINA RESULT: -7.109338739      0.000      0.000
REMARK  7 active torsions:
REMARK  status: ('A' for Active; 'I' for Inactive)
REMARK    1  A    between atoms: N1_1  and  C1_4 
REMARK    2  A    between atoms: C4_11  and  C5_12 
REMARK    3  A    between atoms: C5_12  and  N4_13 
REMARK    4  A    between atoms: N4_13  and  C6_15 
REMARK    5  A    between atoms: C6_15  and  N5_17 
REMARK    6  A    between atoms: N5_17  and  C7_19 
REMARK    7  A    between atoms: C7_19  and  C8_20 
ROOT
HETATM    1  C5  UNL     1      13.942  48.887 -51.109  1.00  0.00     0.184 C 
ENDROOT
BRANCH   1   2
HETATM    2  C4  UNL     1      13.908  48.693 -52.567  1.00  0.00     0.091 A 
HETATM    3  C3  UNL     1      15.002  48.656 -53.413  1.00  0.00     0.173 A 
HETATM    4  N3  UNL     1      16.335  48.763 -53.150  1.00  0.00    -0.334 N 
HETATM    5  N12 UNL     1      14.514  48.483 -54.644  1.00  0.00    -0.053 N 
HETATM    6  C2  UNL     1      17.201  48.690 -54.172  1.00  0.00     0.199 A 
ATOM      7  H3  UNL     1      16.668  48.897 -52.195  1.00  0.00     0.168 HD
HETATM    8  N2  UNL     1      16.733  48.516 -55.417  1.00  0.00    -0.186 N 
HETATM    9  C1  UNL     1      15.424  48.414 -55.651  1.00  0.00     0.701 A 
ATOM     10  H2  UNL     1      17.389  48.461 -56.196  1.00  0.00     0.185 HD
HETATM   11  N11 UNL     1      13.219  48.418 -54.565  1.00  0.00    -0.220 N 
HETATM   12  N10 UNL     1      12.833  48.543 -53.322  1.00  0.00    -0.284 N 
ATOM     13  H11 UNL     1      12.593  48.288 -55.359  1.00  0.00     0.209 HD
ATOM     14  H10 UNL     1      11.868  48.528 -52.991  1.00  0.00     0.188 HD
BRANCH   9  15
HETATM   15  N1  UNL     1      14.982  48.247 -56.850  1.00  0.00    -0.233 N 
ATOM     16  H12 UNL     1      15.610  48.465 -57.624  1.00  0.00     0.174 HD
ATOM     17  H11 UNL     1      14.034  47.907 -57.013  1.00  0.00     0.174 HD
ENDBRANCH   9  15
ENDBRANCH   1   2
BRANCH   1  18
HETATM   18  N4  UNL     1      14.322  50.236 -50.797  1.00  0.00    -0.361 N 
ATOM     19  H4  UNL     1      15.303  50.514 -50.844  1.00  0.00     0.162 HD
BRANCH  18  20
HETATM   20  C6  UNL     1      13.334  51.182 -50.423  1.00  0.00     0.168 C 
HETATM   21  S1  UNL     1      12.642  52.096 -51.578  1.00  0.00    -0.041 SA
BRANCH  20  22
HETATM   22  N5  UNL     1      12.936  51.308 -49.069  1.00  0.00    -0.360 N 
ATOM     23  H5  UNL     1      13.638  51.582 -48.380  1.00  0.00     0.162 HD
BRANCH  22  24
HETATM   24  C7  UNL     1      11.602  51.072 -48.621  1.00  0.00     0.201 C 
BRANCH  24  25
HETATM   25  C8  UNL     1      11.504  50.549 -47.234  1.00  0.00     0.131 A 
HETATM   26  N6  UNL     1      10.513  49.911 -46.604  1.00  0.00    -0.271 N 
HETATM   27  N7  UNL     1      10.929  49.661 -45.379  1.00  0.00    -0.227 N 
ATOM     28  H6  UNL     1       9.605  49.664 -46.998  1.00  0.00     0.190 HD
HETATM   29  N8  UNL     1      12.149  50.119 -45.215  1.00  0.00    -0.227 N 
ATOM     30  H7  UNL     1      10.382  49.182 -44.663  1.00  0.00     0.210 HD
HETATM   31  N9  UNL     1      12.508  50.666 -46.354  1.00  0.00    -0.271 N 
ATOM     32  H8  UNL     1      12.711  50.060 -44.366  1.00  0.00     0.210 HD
ATOM     33  H9  UNL     1      13.408  51.110 -46.539  1.00  0.00     0.190 HD
ENDBRANCH  24  25
ENDBRANCH  22  24
ENDBRANCH  20  22
ENDBRANCH  18  20
ENDBRANCH   1  18
TORSDOF 7
ENDMDL
MODEL 2
REMARK VINA RESULT: -7.000529810      1.242      1.549
REMARK  7 active torsions:
REMARK  status: ('A' for Active; 'I' for Inactive)
REMARK    1  A    between atoms: N1_1  and  C1_4 
REMARK    2  A    between atoms: C4_11  and  C5_12 
REMARK    3  A    between atoms: C5_12  and  N4_13 
REMARK    4  A    between atoms: N4_13  and  C6_15 
REMARK    5  A    between atoms: C6_15  and  N5_17 
REMARK    6  A    between atoms: N5_17  and  C7_19 
REMARK    7  A    between atoms: C7_19  and  C8_20 
ROOT
HETATM    1  C5  UNL     1      13.881  48.826 -51.064  1.00  0.00     0.184 C 
ENDROOT
BRANCH   1   2
HETATM    2  C4  UNL     1      13.859  48.655 -52.525  1.00  0.00     0.091 A 
HETATM    3  C3  UNL     1      14.958  48.656 -53.365  1.00  0.00     0.173 A 
HETATM    4  N3  UNL     1      16.287  48.791 -53.093  1.00  0.00    -0.334 N 
HETATM    5  N12 UNL     1      14.481  48.490 -54.601  1.00  0.00    -0.053 N 
HETATM    6  C2  UNL     1      17.159  48.754 -54.111  1.00  0.00     0.199 A 
ATOM      7  H3  UNL     1      16.611  48.917 -52.134  1.00  0.00     0.168 HD
HETATM    8  N2  UNL     1      16.702  48.589 -55.361  1.00  0.00    -0.186 N 
HETATM    9  C1  UNL     1      15.397  48.460 -55.604  1.00  0.00     0.701 A 
ATOM     10  H2  UNL     1      17.363  48.561 -56.137  1.00  0.00     0.185 HD
HETATM   11  N11 UNL     1      13.187  48.394 -54.530  1.00  0.00    -0.220 N 
HETATM   12  N10 UNL     1      12.792  48.491 -53.288  1.00  0.00    -0.284 N 
ATOM     13  H11 UNL     1      12.568  48.262 -55.330  1.00  0.00     0.209 HD
ATOM     14  H10 UNL     1      11.826  48.448 -52.963  1.00  0.00     0.188 HD
BRANCH   9  15
HETATM   15  N1  UNL     1      14.966  48.301 -56.808  1.00  0.00    -0.233 N 
ATOM     16  H12 UNL     1      15.575  47.825 -57.474  1.00  0.00     0.174 HD
ATOM     17  H11 UNL     1      14.044  48.641 -57.080  1.00  0.00     0.174 HD
ENDBRANCH   9  15
ENDBRANCH   1   2
BRANCH   1  18
HETATM   18  N4  UNL     1      13.443  50.148 -50.714  1.00  0.00    -0.361 N 
ATOM     19  H4  UNL     1      12.629  50.555 -51.174  1.00  0.00     0.162 HD
BRANCH  18  20
HETATM   20  C6  UNL     1      14.145  50.888 -49.727  1.00  0.00     0.168 C 
HETATM   21  S1  UNL     1      15.629  51.455 -50.076  1.00  0.00    -0.041 SA
BRANCH  20  22
HETATM   22  N5  UNL     1      13.549  51.151 -48.468  1.00  0.00    -0.360 N 
ATOM     23  H5  UNL     1      13.744  52.045 -48.016  1.00  0.00     0.162 HD
BRANCH  22  24
HETATM   24  C7  UNL     1      12.689  50.227 -47.801  1.00  0.00     0.201 C 
BRANCH  24  25
HETATM   25  C8  UNL     1      11.285  50.689 -47.659  1.00  0.00     0.131 A 
HETATM   26  N6  UNL     1      10.237  50.136 -47.042  1.00  0.00    -0.271 N 
HETATM   27  N7  UNL     1       9.214  50.949 -47.208  1.00  0.00    -0.227 N 
ATOM     28  H6  UNL     1      10.230  49.250 -46.536  1.00  0.00     0.190 HD
HETATM   29  N8  UNL     1       9.582  51.998 -47.909  1.00  0.00    -0.227 N 
ATOM     30  H7  UNL     1       8.274  50.787 -46.846  1.00  0.00     0.210 HD
HETATM   31  N9  UNL     1      10.856  51.843 -48.190  1.00  0.00    -0.271 N 
ATOM     32  H8  UNL     1       8.990  52.782 -48.184  1.00  0.00     0.210 HD
ATOM     33  H9  UNL     1      11.427  52.497 -48.725  1.00  0.00     0.190 HD
ENDBRANCH  24  25
ENDBRANCH  22  24
ENDBRANCH  20  22
ENDBRANCH  18  20
ENDBRANCH   1  18
TORSDOF 7
ENDMDL
MODEL 3
REMARK VINA RESULT: -6.987860769      0.922      1.046
REMARK  7 active torsions:
REMARK  status: ('A' for Active; 'I' for Inactive)
REMARK    1  A    between atoms: N1_1  and  C1_4 
REMARK    2  A    between atoms: C4_11  and  C5_12 
REMARK    3  A    between atoms: C5_12  and  N4_13 
REMARK    4  A    between atoms: N4_13  and  C6_15 
REMARK    5  A    between atoms: C6_15  and  N5_17 
REMARK    6  A    between atoms: N5_17  and  C7_19 
REMARK    7  A    between atoms: C7_19  and  C8_20 
ROOT
HETATM    1  C5  UNL     1      13.854  48.982 -51.030  1.00  0.00     0.184 C 
ENDROOT
BRANCH   1   2
HETATM    2  C4  UNL     1      13.837  48.756 -52.484  1.00  0.00     0.091 A 
HETATM    3  C3  UNL     1      14.938  48.722 -53.320  1.00  0.00     0.173 A 
HETATM    4  N3  UNL     1      16.266  48.863 -53.050  1.00  0.00    -0.334 N 
HETATM    5  N12 UNL     1      14.464  48.511 -54.550  1.00  0.00    -0.053 N 
HETATM    6  C2  UNL     1      17.141  48.786 -54.063  1.00  0.00     0.199 A 
ATOM      7  H3  UNL     1      16.588  49.024 -52.095  1.00  0.00     0.168 HD
HETATM    8  N2  UNL     1      16.687  48.574 -55.307  1.00  0.00    -0.186 N 
HETATM    9  C1  UNL     1      15.382  48.440 -55.549  1.00  0.00     0.701 A 
ATOM     10  H2  UNL     1      17.350  48.516 -56.079  1.00  0.00     0.185 HD
HETATM   11  N11 UNL     1      13.169  48.422 -54.480  1.00  0.00    -0.220 N 
HETATM   12  N10 UNL     1      12.771  48.567 -53.244  1.00  0.00    -0.284 N 
ATOM     13  H11 UNL     1      12.552  48.261 -55.276  1.00  0.00     0.209 HD
ATOM     14  H10 UNL     1      11.803  48.539 -52.920  1.00  0.00     0.188 HD
BRANCH   9  15
HETATM   15  N1  UNL     1      14.954  48.237 -56.748  1.00  0.00    -0.233 N 
ATOM     16  H12 UNL     1      15.238  47.376 -57.216  1.00  0.00     0.174 HD
ATOM     17  H11 UNL     1      14.350  48.918 -57.207  1.00  0.00     0.174 HD
ENDBRANCH   9  15
ENDBRANCH   1   2
BRANCH   1  18
HETATM   18  N4  UNL     1      13.211  50.226 -50.715  1.00  0.00    -0.361 N 
ATOM     19  H4  UNL     1      12.222  50.360 -50.931  1.00  0.00     0.162 HD
BRANCH  18  20
HETATM   20  C6  UNL     1      13.950  51.270 -50.102  1.00  0.00     0.168 C 
HETATM   21  S1  UNL     1      15.187  51.943 -50.917  1.00  0.00    -0.041 SA
BRANCH  20  22
HETATM   22  N5  UNL     1      13.598  51.738 -48.811  1.00  0.00    -0.360 N 
ATOM     23  H5  UNL     1      13.322  52.715 -48.707  1.00  0.00     0.162 HD
BRANCH  22  24
HETATM   24  C7  UNL     1      13.609  50.910 -47.649  1.00  0.00     0.201 C 
BRANCH  24  25
HETATM   25  C8  UNL     1      12.262  50.576 -47.120  1.00  0.00     0.131 A 
HETATM   26  N6  UNL     1      11.047  50.724 -47.657  1.00  0.00    -0.271 N 
HETATM   27  N7  UNL     1      10.177  50.270 -46.778  1.00  0.00    -0.227 N 
ATOM     28  H6  UNL     1      10.834  51.114 -48.575  1.00  0.00     0.190 HD
HETATM   29  N8  UNL     1      10.801  49.841 -45.706  1.00  0.00    -0.227 N 
ATOM     30  H7  UNL     1       9.165  50.256 -46.912  1.00  0.00     0.210 HD
HETATM   31  N9  UNL     1      12.086  50.027 -45.911  1.00  0.00    -0.271 N 
ATOM     32  H8  UNL     1      10.371  49.439 -44.872  1.00  0.00     0.210 HD
ATOM     33  H9  UNL     1      12.830  49.790 -45.254  1.00  0.00     0.190 HD
ENDBRANCH  24  25
ENDBRANCH  22  24
ENDBRANCH  20  22
ENDBRANCH  18  20
ENDBRANCH   1  18
TORSDOF 7
ENDMDL
MODEL 4
REMARK VINA RESULT: -6.908817017      1.400      1.798
REMARK  7 active torsions:
REMARK  status: ('A' for Active; 'I' for Inactive)
REMARK    1  A    between atoms: N1_1  and  C1_4 
REMARK    2  A    between atoms: C4_11  and  C5_12 
REMARK    3  A    between atoms: C5_12  and  N4_13 
REMARK    4  A    between atoms: N4_13  and  C6_15 
REMARK    5  A    between atoms: C6_15  and  N5_17 
REMARK    6  A    between atoms: N5_17  and  C7_19 
REMARK    7  A    between atoms: C7_19  and  C8_20 
ROOT
HETATM    1  C5  UNL     1      13.337  48.482 -52.672  1.00  0.00     0.184 C 
ENDROOT
BRANCH   1   2
HETATM    2  C4  UNL     1      14.178  48.447 -53.878  1.00  0.00     0.091 A 
HETATM    3  C3  UNL     1      15.560  48.439 -53.912  1.00  0.00     0.173 A 
HETATM    4  N3  UNL     1      16.476  48.443 -52.903  1.00  0.00    -0.334 N 
HETATM    5  N12 UNL     1      15.900  48.425 -55.203  1.00  0.00    -0.053 N 
HETATM    6  C2  UNL     1      17.780  48.430 -53.217  1.00  0.00     0.199 A 
ATOM      7  H3  UNL     1      16.176  48.454 -51.928  1.00  0.00     0.168 HD
HETATM    8  N2  UNL     1      18.145  48.416 -54.507  1.00  0.00    -0.186 N 
HETATM    9  C1  UNL     1      17.231  48.414 -55.479  1.00  0.00     0.701 A 
ATOM     10  H2  UNL     1      19.135  48.408 -54.748  1.00  0.00     0.185 HD
HETATM   11  N11 UNL     1      14.812  48.425 -55.913  1.00  0.00    -0.220 N 
HETATM   12  N10 UNL     1      13.762  48.439 -55.134  1.00  0.00    -0.284 N 
ATOM     13  H11 UNL     1      14.781  48.416 -56.932  1.00  0.00     0.209 HD
ATOM     14  H10 UNL     1      12.789  48.443 -55.442  1.00  0.00     0.188 HD
BRANCH   9  15
HETATM   15  N1  UNL     1      17.589  48.400 -56.717  1.00  0.00    -0.233 N 
ATOM     16  H12 UNL     1      18.524  48.739 -56.946  1.00  0.00     0.174 HD
ATOM     17  H11 UNL     1      16.954  48.060 -57.439  1.00  0.00     0.174 HD
ENDBRANCH   9  15
ENDBRANCH   1   2
BRANCH   1  18
HETATM   18  N4  UNL     1      13.185  49.834 -52.213  1.00  0.00    -0.361 N 
ATOM     19  H4  UNL     1      12.999  50.582 -52.881  1.00  0.00     0.162 HD
BRANCH  18  20
HETATM   20  C6  UNL     1      13.292  50.129 -50.830  1.00  0.00     0.168 C 
HETATM   21  S1  UNL     1      14.354  49.290 -49.926  1.00  0.00    -0.041 SA
BRANCH  20  22
HETATM   22  N5  UNL     1      12.506  51.157 -50.251  1.00  0.00    -0.360 N 
ATOM     23  H5  UNL     1      11.825  51.637 -50.839  1.00  0.00     0.162 HD
BRANCH  22  24
HETATM   24  C7  UNL     1      12.622  51.554 -48.885  1.00  0.00     0.201 C 
BRANCH  24  25
HETATM   25  C8  UNL     1      11.508  51.096 -48.017  1.00  0.00     0.131 A 
HETATM   26  N6  UNL     1      10.204  51.386 -48.035  1.00  0.00    -0.271 N 
HETATM   27  N7  UNL     1       9.642  50.717 -47.050  1.00  0.00    -0.227 N 
ATOM     28  H6  UNL     1       9.732  52.011 -48.690  1.00  0.00     0.190 HD
HETATM   29  N8  UNL     1      10.548  50.012 -46.411  1.00  0.00    -0.227 N 
ATOM     30  H7  UNL     1       8.649  50.742 -46.817  1.00  0.00     0.210 HD
HETATM   31  N9  UNL     1      11.698  50.241 -47.002  1.00  0.00    -0.271 N 
ATOM     32  H8  UNL     1      10.388  49.402 -45.608  1.00  0.00     0.210 HD
ATOM     33  H9  UNL     1      12.594  49.834 -46.732  1.00  0.00     0.190 HD
ENDBRANCH  24  25
ENDBRANCH  22  24
ENDBRANCH  20  22
ENDBRANCH  18  20
ENDBRANCH   1  18
TORSDOF 7
ENDMDL
MODEL 5
REMARK VINA RESULT: -6.809070179      1.861      2.603
REMARK  7 active torsions:
REMARK  status: ('A' for Active; 'I' for Inactive)
REMARK    1  A    between atoms: N1_1  and  C1_4 
REMARK    2  A    between atoms: C4_11  and  C5_12 
REMARK    3  A    between atoms: C5_12  and  N4_13 
REMARK    4  A    between atoms: N4_13  and  C6_15 
REMARK    5  A    between atoms: C6_15  and  N5_17 
REMARK    6  A    between atoms: N5_17  and  C7_19 
REMARK    7  A    between atoms: C7_19  and  C8_20 
ROOT
HETATM    1  C5  UNL     1      13.984  52.859 -51.616  1.00  0.00     0.184 C 
ENDROOT
BRANCH   1   2
HETATM    2  C4  UNL     1      13.596  51.458 -51.845  1.00  0.00     0.091 A 
HETATM    3  C3  UNL     1      14.247  50.553 -52.663  1.00  0.00     0.173 A 
HETATM    4  N3  UNL     1      15.368  50.686 -53.425  1.00  0.00    -0.334 N 
HETATM    5  N12 UNL     1      13.548  49.417 -52.590  1.00  0.00    -0.053 N 
HETATM    6  C2  UNL     1      15.795  49.631 -54.135  1.00  0.00     0.199 A 
ATOM      7  H3  UNL     1      15.874  51.572 -53.455  1.00  0.00     0.168 HD
HETATM    8  N2  UNL     1      15.108  48.481 -54.077  1.00  0.00    -0.186 N 
HETATM    9  C1  UNL     1      14.012  48.372 -53.324  1.00  0.00     0.701 A 
ATOM     10  H2  UNL     1      15.429  47.677 -54.616  1.00  0.00     0.185 HD
HETATM   11  N11 UNL     1      12.543  49.607 -51.788  1.00  0.00    -0.220 N 
HETATM   12  N10 UNL     1      12.553  50.830 -51.329  1.00  0.00    -0.284 N 
ATOM     13  H11 UNL     1      11.845  48.902 -51.552  1.00  0.00     0.209 HD
ATOM     14  H10 UNL     1      11.872  51.233 -50.683  1.00  0.00     0.188 HD
BRANCH   9  15
HETATM   15  N1  UNL     1      13.357  47.263 -53.273  1.00  0.00    -0.233 N 
ATOM     16  H12 UNL     1      13.526  46.576 -54.008  1.00  0.00     0.174 HD
ATOM     17  H11 UNL     1      12.694  47.084 -52.519  1.00  0.00     0.174 HD
ENDBRANCH   9  15
ENDBRANCH   1   2
BRANCH   1  18
HETATM   18  N4  UNL     1      13.307  53.378 -50.460  1.00  0.00    -0.361 N 
ATOM     19  H4  UNL     1      12.345  53.708 -50.538  1.00  0.00     0.162 HD
BRANCH  18  20
HETATM   20  C6  UNL     1      13.977  53.430 -49.211  1.00  0.00     0.168 C 
HETATM   21  S1  UNL     1      15.384  54.241 -49.106  1.00  0.00    -0.041 SA
BRANCH  20  22
HETATM   22  N5  UNL     1      13.415  52.809 -48.068  1.00  0.00    -0.360 N 
ATOM     23  H5  UNL     1      12.985  53.400 -47.356  1.00  0.00     0.162 HD
BRANCH  22  24
HETATM   24  C7  UNL     1      13.422  51.396 -47.863  1.00  0.00     0.201 C 
BRANCH  24  25
HETATM   25  C8  UNL     1      12.157  50.852 -47.306  1.00  0.00     0.131 A 
HETATM   26  N6  UNL     1      10.905  50.890 -47.771  1.00  0.00    -0.271 N 
HETATM   27  N7  UNL     1      10.147  50.257 -46.900  1.00  0.00    -0.227 N 
ATOM     28  H6  UNL     1      10.594  51.327 -48.640  1.00  0.00     0.190 HD
HETATM   29  N8  UNL     1      10.878  49.820 -45.900  1.00  0.00    -0.227 N 
ATOM     30  H7  UNL     1       9.139  50.126 -46.988  1.00  0.00     0.210 HD
HETATM   31  N9  UNL     1      12.117  50.184 -46.145  1.00  0.00    -0.271 N 
ATOM     32  H8  UNL     1      10.548  49.299 -45.088  1.00  0.00     0.210 HD
ATOM     33  H9  UNL     1      12.920  49.988 -45.547  1.00  0.00     0.190 HD
ENDBRANCH  24  25
ENDBRANCH  22  24
ENDBRANCH  20  22
ENDBRANCH  18  20
ENDBRANCH   1  18
TORSDOF 7
ENDMDL
