MODEL 1
REMARK VINA RESULT: -6.340046535      0.000      0.000
REMARK  10 active torsions:
REMARK  status: ('A' for Active; 'I' for Inactive)
REMARK    1  A    between atoms: C2_2  and  N1_3 
REMARK    2  A    between atoms: C4_8  and  C5_9 
REMARK    3  A    between atoms: C5_9  and  N2_10 
REMARK    4  A    between atoms: N2_10  and  C6_13 
REMARK    5  A    between atoms: C6_13  and  C7_14 
REMARK    6  A    between atoms: C13_20  and  C14_21 
REMARK    7  A    between atoms: C13_20  and  N3_24 
REMARK    8  A    between atoms: C14_21  and  O1_22 
REMARK    9  A    between atoms: C17_27  and  N4_28 
REMARK   10  A    between atoms: C18_33  and  N6_34 
ROOT
HETATM    1  C1  UNL     1       9.301  -7.511  35.330  1.00  0.00     0.049 C 
HETATM    2  C2  UNL     1       7.927  -7.932  35.840  1.00  0.00     0.149 C 
HETATM    3  C3  UNL     1       7.460  -9.048  34.882  1.00  0.00     0.050 C 
HETATM    4  C4  UNL     1       6.074  -8.442  34.979  1.00  0.00     0.048 C 
HETATM    5  C13 UNL     1       6.787  -7.151  35.408  1.00  0.00     0.113 C 
ENDROOT
BRANCH   5   6
HETATM    6  C14 UNL     1       7.109  -6.395  34.093  1.00  0.00     0.199 C 
BRANCH   6   7
HETATM    7  O1  UNL     1       6.925  -5.026  34.283  1.00  0.00    -0.398 OA
ATOM      8  H1  UNL     1       6.243  -4.712  33.702  1.00  0.00     0.209 HD
ENDBRANCH   6   7
ENDBRANCH   5   6
BRANCH   5   9
HETATM    9  N3  UNL     1       5.939  -6.364  36.204  1.00  0.00    -0.179 N 
HETATM   10  C15 UNL     1       4.605  -6.485  36.004  1.00  0.00     0.114 A 
HETATM   11  C16 UNL     1       3.680  -5.745  36.736  1.00  0.00     0.066 A 
HETATM   12  C17 UNL     1       4.124  -4.859  37.695  1.00  0.00     0.116 A 
HETATM   13  N5  UNL     1       5.435  -4.763  37.867  1.00  0.00    -0.177 N 
HETATM   14  C18 UNL     1       6.315  -5.489  37.147  1.00  0.00     0.680 A 
ATOM     15  H5  UNL     1       5.792  -4.115  38.569  1.00  0.00     0.185 HD
BRANCH  12  16
HETATM   16  N4  UNL     1       3.305  -4.136  38.415  1.00  0.00    -0.385 N 
ATOM     17  H42 UNL     1       3.190  -4.325  39.411  1.00  0.00     0.157 HD
ATOM     18  H41 UNL     1       2.759  -3.371  38.020  1.00  0.00     0.157 HD
ENDBRANCH  12  16
BRANCH  14  19
HETATM   19  N6  UNL     1       7.540  -5.297  37.378  1.00  0.00    -0.234 N 
ATOM     20  H62 UNL     1       8.157  -6.106  37.304  1.00  0.00     0.174 HD
ATOM     21  H61 UNL     1       7.870  -4.369  37.644  1.00  0.00     0.174 HD
ENDBRANCH  14  19
ENDBRANCH   5   9
BRANCH   2  22
HETATM   22  N1  UNL     1       8.057  -8.509  37.132  1.00  0.00    -0.068 N 
ATOM     23  H13 UNL     1       9.022  -8.759  37.347  1.00  0.00     0.275 HD
ATOM     24  H12 UNL     1       7.915  -7.825  37.876  1.00  0.00     0.275 HD
ATOM     25  H11 UNL     1       7.425  -9.305  37.214  1.00  0.00     0.275 HD
ENDBRANCH   2  22
BRANCH   4  26
HETATM   26  C5  UNL     1       5.299  -9.182  36.004  1.00  0.00     0.239 C 
BRANCH  26  27
HETATM   27  N2  UNL     1       4.194  -9.855  35.275  1.00  0.00    -0.071 N 
ATOM     28  H22 UNL     1       3.367  -9.262  35.193  1.00  0.00     0.277 HD
ATOM     29  H21 UNL     1       4.395  -9.961  34.280  1.00  0.00     0.277 HD
BRANCH  27  30
HETATM   30  C6  UNL     1       3.896 -11.130  35.916  1.00  0.00     0.270 C 
BRANCH  30  31
HETATM   31  C7  UNL     1       2.513 -11.036  36.431  1.00  0.00    -0.033 A 
HETATM   32  C8  UNL     1       2.233 -10.592  37.700  1.00  0.00     0.009 A 
HETATM   33  C9  UNL     1       0.921 -10.512  38.166  1.00  0.00     0.001 A 
HETATM   34  C10 UNL     1      -0.118 -10.886  37.331  1.00  0.00     0.000 A 
HETATM   35  C11 UNL     1       0.151 -11.330  36.065  1.00  0.00     0.001 A 
HETATM   36  C12 UNL     1       1.468 -11.403  35.619  1.00  0.00     0.009 A 
ENDBRANCH  30  31
ENDBRANCH  27  30
ENDBRANCH  26  27
ENDBRANCH   4  26
TORSDOF 10
ENDMDL
MODEL 2
REMARK VINA RESULT: -6.136596753      0.673      1.256
REMARK  10 active torsions:
REMARK  status: ('A' for Active; 'I' for Inactive)
REMARK    1  A    between atoms: C2_2  and  N1_3 
REMARK    2  A    between atoms: C4_8  and  C5_9 
REMARK    3  A    between atoms: C5_9  and  N2_10 
REMARK    4  A    between atoms: N2_10  and  C6_13 
REMARK    5  A    between atoms: C6_13  and  C7_14 
REMARK    6  A    between atoms: C13_20  and  C14_21 
REMARK    7  A    between atoms: C13_20  and  N3_24 
REMARK    8  A    between atoms: C14_21  and  O1_22 
REMARK    9  A    between atoms: C17_27  and  N4_28 
REMARK   10  A    between atoms: C18_33  and  N6_34 
ROOT
HETATM    1  C1  UNL     1       9.051  -7.519  35.448  1.00  0.00     0.049 C 
HETATM    2  C2  UNL     1       7.682  -7.892  36.008  1.00  0.00     0.149 C 
HETATM    3  C3  UNL     1       7.169  -9.034  35.107  1.00  0.00     0.050 C 
HETATM    4  C4  UNL     1       5.798  -8.396  35.216  1.00  0.00     0.048 C 
HETATM    5  C13 UNL     1       6.548  -7.105  35.575  1.00  0.00     0.113 C 
ENDROOT
BRANCH   5   6
HETATM    6  C14 UNL     1       6.850  -6.406  34.225  1.00  0.00     0.199 C 
BRANCH   6   7
HETATM    7  O1  UNL     1       6.737  -5.024  34.376  1.00  0.00    -0.398 OA
ATOM      8  H1  UNL     1       7.225  -4.587  33.689  1.00  0.00     0.209 HD
ENDBRANCH   6   7
ENDBRANCH   5   6
BRANCH   5   9
HETATM    9  N3  UNL     1       5.736  -6.270  36.361  1.00  0.00    -0.179 N 
HETATM   10  C15 UNL     1       4.396  -6.356  36.186  1.00  0.00     0.114 A 
HETATM   11  C16 UNL     1       3.506  -5.569  36.910  1.00  0.00     0.066 A 
HETATM   12  C17 UNL     1       3.991  -4.671  37.837  1.00  0.00     0.116 A 
HETATM   13  N5  UNL     1       5.307  -4.609  37.986  1.00  0.00    -0.177 N 
HETATM   14  C18 UNL     1       6.154  -5.381  37.273  1.00  0.00     0.680 A 
ATOM     15  H5  UNL     1       5.694  -3.953  38.664  1.00  0.00     0.185 HD
BRANCH  12  16
HETATM   16  N4  UNL     1       3.206  -3.904  38.549  1.00  0.00    -0.385 N 
ATOM     17  H42 UNL     1       2.228  -3.780  38.287  1.00  0.00     0.157 HD
ATOM     18  H41 UNL     1       3.532  -3.407  39.378  1.00  0.00     0.157 HD
ENDBRANCH  12  16
BRANCH  14  19
HETATM   19  N6  UNL     1       7.386  -5.220  37.480  1.00  0.00    -0.234 N 
ATOM     20  H62 UNL     1       7.935  -6.055  37.680  1.00  0.00     0.174 HD
ATOM     21  H61 UNL     1       7.789  -4.282  37.462  1.00  0.00     0.174 HD
ENDBRANCH  14  19
ENDBRANCH   5   9
BRANCH   2  22
HETATM   22  N1  UNL     1       7.836  -8.421  37.318  1.00  0.00    -0.068 N 
ATOM     23  H13 UNL     1       7.014  -8.256  37.899  1.00  0.00     0.275 HD
ATOM     24  H12 UNL     1       7.817  -9.441  37.327  1.00  0.00     0.275 HD
ATOM     25  H11 UNL     1       8.687  -8.047  37.738  1.00  0.00     0.275 HD
ENDBRANCH   2  22
BRANCH   4  26
HETATM   26  C5  UNL     1       5.036  -9.080  36.288  1.00  0.00     0.239 C 
BRANCH  26  27
HETATM   27  N2  UNL     1       3.797  -9.592  35.648  1.00  0.00    -0.071 N 
ATOM     28  H22 UNL     1       3.155  -8.841  35.394  1.00  0.00     0.277 HD
ATOM     29  H21 UNL     1       3.970  -9.959  34.711  1.00  0.00     0.277 HD
BRANCH  27  30
HETATM   30  C6  UNL     1       3.174 -10.580  36.520  1.00  0.00     0.270 C 
BRANCH  30  31
HETATM   31  C7  UNL     1       1.822 -10.835  35.977  1.00  0.00    -0.033 A 
HETATM   32  C8  UNL     1       1.583 -10.951  34.631  1.00  0.00     0.009 A 
HETATM   33  C9  UNL     1       0.299 -11.190  34.140  1.00  0.00     0.001 A 
HETATM   34  C10 UNL     1      -0.752 -11.315  35.031  1.00  0.00     0.000 A 
HETATM   35  C11 UNL     1      -0.525 -11.201  36.376  1.00  0.00     0.001 A 
HETATM   36  C12 UNL     1       0.764 -10.961  36.844  1.00  0.00     0.009 A 
ENDBRANCH  30  31
ENDBRANCH  27  30
ENDBRANCH  26  27
ENDBRANCH   4  26
TORSDOF 10
ENDMDL
MODEL 3
REMARK VINA RESULT: -6.125059184      2.695      5.386
REMARK  10 active torsions:
REMARK  status: ('A' for Active; 'I' for Inactive)
REMARK    1  A    between atoms: C2_2  and  N1_3 
REMARK    2  A    between atoms: C4_8  and  C5_9 
REMARK    3  A    between atoms: C5_9  and  N2_10 
REMARK    4  A    between atoms: N2_10  and  C6_13 
REMARK    5  A    between atoms: C6_13  and  C7_14 
REMARK    6  A    between atoms: C13_20  and  C14_21 
REMARK    7  A    between atoms: C13_20  and  N3_24 
REMARK    8  A    between atoms: C14_21  and  O1_22 
REMARK    9  A    between atoms: C17_27  and  N4_28 
REMARK   10  A    between atoms: C18_33  and  N6_34 
ROOT
HETATM    1  C1  UNL     1       9.950  -9.799  33.924  1.00  0.00     0.049 C 
HETATM    2  C2  UNL     1       8.926  -8.771  34.392  1.00  0.00     0.149 C 
HETATM    3  C3  UNL     1       9.703  -7.814  35.320  1.00  0.00     0.050 C 
HETATM    4  C4  UNL     1       8.467  -7.792  36.198  1.00  0.00     0.048 C 
HETATM    5  C13 UNL     1       8.098  -9.122  35.525  1.00  0.00     0.113 C 
ENDROOT
BRANCH   5   6
HETATM    6  C14 UNL     1       8.778 -10.225  36.378  1.00  0.00     0.199 C 
BRANCH   6   7
HETATM    7  O1  UNL     1       8.078 -11.423  36.239  1.00  0.00    -0.398 OA
ATOM      8  H1  UNL     1       7.144 -11.251  36.258  1.00  0.00     0.209 HD
ENDBRANCH   6   7
ENDBRANCH   5   6
BRANCH   5   9
HETATM    9  N3  UNL     1       6.707  -9.311  35.542  1.00  0.00    -0.179 N 
HETATM   10  C15 UNL     1       5.991  -8.601  36.447  1.00  0.00     0.114 A 
HETATM   11  C16 UNL     1       4.608  -8.719  36.550  1.00  0.00     0.066 A 
HETATM   12  C17 UNL     1       3.936  -9.582  35.710  1.00  0.00     0.116 A 
HETATM   13  N5  UNL     1       4.663 -10.263  34.836  1.00  0.00    -0.177 N 
HETATM   14  C18 UNL     1       6.004 -10.134  34.753  1.00  0.00     0.680 A 
ATOM     15  H5  UNL     1       4.192 -10.909  34.203  1.00  0.00     0.185 HD
BRANCH  12  16
HETATM   16  N4  UNL     1       2.637  -9.737  35.757  1.00  0.00    -0.385 N 
ATOM     17  H42 UNL     1       2.051  -9.049  36.229  1.00  0.00     0.157 HD
ATOM     18  H41 UNL     1       2.166 -10.536  35.332  1.00  0.00     0.157 HD
ENDBRANCH  12  16
BRANCH  14  19
HETATM   19  N6  UNL     1       6.595 -10.850  33.901  1.00  0.00    -0.234 N 
ATOM     20  H62 UNL     1       7.436 -10.461  33.474  1.00  0.00     0.174 HD
ATOM     21  H61 UNL     1       6.218 -11.765  33.652  1.00  0.00     0.174 HD
ENDBRANCH  14  19
ENDBRANCH   5   9
BRANCH   2  22
HETATM   22  N1  UNL     1       8.477  -8.011  33.278  1.00  0.00    -0.068 N 
ATOM     23  H13 UNL     1       8.785  -7.039  33.325  1.00  0.00     0.275 HD
ATOM     24  H12 UNL     1       8.953  -8.273  32.415  1.00  0.00     0.275 HD
ATOM     25  H11 UNL     1       7.463  -8.091  33.200  1.00  0.00     0.275 HD
ENDBRANCH   2  22
BRANCH   4  26
HETATM   26  C5  UNL     1       7.662  -6.594  35.859  1.00  0.00     0.239 C 
BRANCH  26  27
HETATM   27  N2  UNL     1       7.695  -5.724  37.063  1.00  0.00    -0.071 N 
ATOM     28  H22 UNL     1       7.247  -6.162  37.869  1.00  0.00     0.277 HD
ATOM     29  H21 UNL     1       8.635  -5.636  37.451  1.00  0.00     0.277 HD
BRANCH  27  30
HETATM   30  C6  UNL     1       7.108  -4.429  36.742  1.00  0.00     0.270 C 
BRANCH  30  31
HETATM   31  C7  UNL     1       5.640  -4.611  36.759  1.00  0.00    -0.033 A 
HETATM   32  C8  UNL     1       4.882  -4.558  35.616  1.00  0.00     0.009 A 
HETATM   33  C9  UNL     1       3.499  -4.731  35.655  1.00  0.00     0.001 A 
HETATM   34  C10 UNL     1       2.880  -4.961  36.872  1.00  0.00     0.000 A 
HETATM   35  C11 UNL     1       3.627  -5.015  38.017  1.00  0.00     0.001 A 
HETATM   36  C12 UNL     1       5.007  -4.839  37.956  1.00  0.00     0.009 A 
ENDBRANCH  30  31
ENDBRANCH  27  30
ENDBRANCH  26  27
ENDBRANCH   4  26
TORSDOF 10
ENDMDL
MODEL 4
REMARK VINA RESULT: -6.108818358      2.788      4.189
REMARK  10 active torsions:
REMARK  status: ('A' for Active; 'I' for Inactive)
REMARK    1  A    between atoms: C2_2  and  N1_3 
REMARK    2  A    between atoms: C4_8  and  C5_9 
REMARK    3  A    between atoms: C5_9  and  N2_10 
REMARK    4  A    between atoms: N2_10  and  C6_13 
REMARK    5  A    between atoms: C6_13  and  C7_14 
REMARK    6  A    between atoms: C13_20  and  C14_21 
REMARK    7  A    between atoms: C13_20  and  N3_24 
REMARK    8  A    between atoms: C14_21  and  O1_22 
REMARK    9  A    between atoms: C17_27  and  N4_28 
REMARK   10  A    between atoms: C18_33  and  N6_34 
ROOT
HETATM    1  C1  UNL     1       6.706  -4.597  35.985  1.00  0.00     0.049 C 
HETATM    2  C2  UNL     1       6.668  -6.108  36.188  1.00  0.00     0.149 C 
HETATM    3  C3  UNL     1       6.897  -6.715  34.788  1.00  0.00     0.050 C 
HETATM    4  C4  UNL     1       5.867  -7.763  35.161  1.00  0.00     0.048 C 
HETATM    5  C13 UNL     1       5.369  -6.747  36.199  1.00  0.00     0.113 C 
ENDROOT
BRANCH   5   6
HETATM    6  C14 UNL     1       4.323  -5.872  35.460  1.00  0.00     0.199 C 
BRANCH   6   7
HETATM    7  O1  UNL     1       3.348  -5.446  36.361  1.00  0.00    -0.398 OA
ATOM      8  H1  UNL     1       2.999  -4.608  36.081  1.00  0.00     0.209 HD
ENDBRANCH   6   7
ENDBRANCH   5   6
BRANCH   5   9
HETATM    9  N3  UNL     1       4.750  -7.406  37.273  1.00  0.00    -0.179 N 
HETATM   10  C15 UNL     1       4.076  -8.550  37.000  1.00  0.00     0.114 A 
HETATM   11  C16 UNL     1       3.423  -9.276  37.992  1.00  0.00     0.066 A 
HETATM   12  C17 UNL     1       3.456  -8.827  39.295  1.00  0.00     0.116 A 
HETATM   13  N5  UNL     1       4.121  -7.706  39.532  1.00  0.00    -0.177 N 
HETATM   14  C18 UNL     1       4.748  -7.016  38.555  1.00  0.00     0.680 A 
ATOM     15  H5  UNL     1       4.161  -7.350  40.486  1.00  0.00     0.185 HD
BRANCH  12  16
HETATM   16  N4  UNL     1       2.862  -9.464  40.272  1.00  0.00    -0.385 N 
ATOM     17  H42 UNL     1       2.565 -10.433  40.152  1.00  0.00     0.157 HD
ATOM     18  H41 UNL     1       2.675  -9.029  41.175  1.00  0.00     0.157 HD
ENDBRANCH  12  16
BRANCH  14  19
HETATM   19  N6  UNL     1       5.329  -5.949  38.891  1.00  0.00    -0.234 N 
ATOM     20  H62 UNL     1       4.966  -5.463  39.710  1.00  0.00     0.174 HD
ATOM     21  H61 UNL     1       6.113  -5.599  38.340  1.00  0.00     0.174 HD
ENDBRANCH  14  19
ENDBRANCH   5   9
BRANCH   2  22
HETATM   22  N1  UNL     1       7.760  -6.504  37.006  1.00  0.00    -0.068 N 
ATOM     23  H13 UNL     1       8.658  -6.223  36.613  1.00  0.00     0.275 HD
ATOM     24  H12 UNL     1       7.807  -5.967  37.873  1.00  0.00     0.275 HD
ATOM     25  H11 UNL     1       7.710  -7.508  37.177  1.00  0.00     0.275 HD
ENDBRANCH   2  22
BRANCH   4  26
HETATM   26  C5  UNL     1       6.572  -8.972  35.654  1.00  0.00     0.239 C 
BRANCH  26  27
HETATM   27  N2  UNL     1       6.381 -10.011  34.609  1.00  0.00    -0.071 N 
ATOM     28  H22 UNL     1       5.428 -10.377  34.598  1.00  0.00     0.277 HD
ATOM     29  H21 UNL     1       6.396  -9.619  33.667  1.00  0.00     0.277 HD
BRANCH  27  30
HETATM   30  C6  UNL     1       7.374 -11.063  34.785  1.00  0.00     0.270 C 
BRANCH  30  31
HETATM   31  C7  UNL     1       6.732 -12.330  34.374  1.00  0.00    -0.033 A 
HETATM   32  C8  UNL     1       7.375 -13.257  33.593  1.00  0.00     0.009 A 
HETATM   33  C9  UNL     1       6.750 -14.446  33.216  1.00  0.00     0.001 A 
HETATM   34  C10 UNL     1       5.456 -14.693  33.640  1.00  0.00     0.000 A 
HETATM   35  C11 UNL     1       4.806 -13.774  34.419  1.00  0.00     0.001 A 
HETATM   36  C12 UNL     1       5.448 -12.594  34.783  1.00  0.00     0.009 A 
ENDBRANCH  30  31
ENDBRANCH  27  30
ENDBRANCH  26  27
ENDBRANCH   4  26
TORSDOF 10
ENDMDL
MODEL 5
REMARK VINA RESULT: -6.104903440      2.142      3.017
REMARK  10 active torsions:
REMARK  status: ('A' for Active; 'I' for Inactive)
REMARK    1  A    between atoms: C2_2  and  N1_3 
REMARK    2  A    between atoms: C4_8  and  C5_9 
REMARK    3  A    between atoms: C5_9  and  N2_10 
REMARK    4  A    between atoms: N2_10  and  C6_13 
REMARK    5  A    between atoms: C6_13  and  C7_14 
REMARK    6  A    between atoms: C13_20  and  C14_21 
REMARK    7  A    between atoms: C13_20  and  N3_24 
REMARK    8  A    between atoms: C14_21  and  O1_22 
REMARK    9  A    between atoms: C17_27  and  N4_28 
REMARK   10  A    between atoms: C18_33  and  N6_34 
ROOT
HETATM    1  C1  UNL     1       6.953  -4.885  36.046  1.00  0.00     0.049 C 
HETATM    2  C2  UNL     1       6.758  -6.390  36.195  1.00  0.00     0.149 C 
HETATM    3  C3  UNL     1       6.864  -6.960  34.765  1.00  0.00     0.050 C 
HETATM    4  C4  UNL     1       5.742  -7.906  35.145  1.00  0.00     0.048 C 
HETATM    5  C13 UNL     1       5.399  -6.885  36.240  1.00  0.00     0.113 C 
ENDROOT
BRANCH   5   6
HETATM    6  C14 UNL     1       4.426  -5.873  35.580  1.00  0.00     0.199 C 
BRANCH   6   7
HETATM    7  O1  UNL     1       3.439  -5.508  36.494  1.00  0.00    -0.398 OA
ATOM      8  H1  UNL     1       3.655  -4.667  36.879  1.00  0.00     0.209 HD
ENDBRANCH   6   7
ENDBRANCH   5   6
BRANCH   5   9
HETATM    9  N3  UNL     1       4.754  -7.518  37.315  1.00  0.00    -0.179 N 
HETATM   10  C15 UNL     1       4.003  -8.611  37.038  1.00  0.00     0.114 A 
HETATM   11  C16 UNL     1       3.319  -9.307  38.031  1.00  0.00     0.066 A 
HETATM   12  C17 UNL     1       3.401  -8.880  39.339  1.00  0.00     0.116 A 
HETATM   13  N5  UNL     1       4.142  -7.808  39.579  1.00  0.00    -0.177 N 
HETATM   14  C18 UNL     1       4.798  -7.147  38.602  1.00  0.00     0.680 A 
ATOM     15  H5  UNL     1       4.220  -7.469  40.538  1.00  0.00     0.185 HD
BRANCH  12  16
HETATM   16  N4  UNL     1       2.782  -9.491  40.317  1.00  0.00    -0.385 N 
ATOM     17  H42 UNL     1       1.895  -9.133  40.671  1.00  0.00     0.157 HD
ATOM     18  H41 UNL     1       3.153 -10.333  40.757  1.00  0.00     0.157 HD
ENDBRANCH  12  16
BRANCH  14  19
HETATM   19  N6  UNL     1       5.453  -6.125  38.943  1.00  0.00    -0.234 N 
ATOM     20  H62 UNL     1       5.512  -5.925  39.941  1.00  0.00     0.174 HD
ATOM     21  H61 UNL     1       5.877  -5.530  38.231  1.00  0.00     0.174 HD
ENDBRANCH  14  19
ENDBRANCH   5   9
BRANCH   2  22
HETATM   22  N1  UNL     1       7.832  -6.934  36.950  1.00  0.00    -0.068 N 
ATOM     23  H13 UNL     1       8.571  -7.308  36.355  1.00  0.00     0.275 HD
ATOM     24  H12 UNL     1       8.377  -6.212  37.422  1.00  0.00     0.275 HD
ATOM     25  H11 UNL     1       7.471  -7.632  37.601  1.00  0.00     0.275 HD
ENDBRANCH   2  22
BRANCH   4  26
HETATM   26  C5  UNL     1       6.329  -9.202  35.561  1.00  0.00     0.239 C 
BRANCH  26  27
HETATM   27  N2  UNL     1       6.100 -10.137  34.429  1.00  0.00    -0.071 N 
ATOM     28  H22 UNL     1       5.419  -9.775  33.761  1.00  0.00     0.277 HD
ATOM     29  H21 UNL     1       6.904 -10.190  33.803  1.00  0.00     0.277 HD
BRANCH  27  30
HETATM   30  C6  UNL     1       5.720 -11.445  34.950  1.00  0.00     0.270 C 
BRANCH  30  31
HETATM   31  C7  UNL     1       4.243 -11.498  34.934  1.00  0.00    -0.033 A 
HETATM   32  C8  UNL     1       3.494 -10.788  34.029  1.00  0.00     0.009 A 
HETATM   33  C9  UNL     1       2.101 -10.853  34.031  1.00  0.00     0.001 A 
HETATM   34  C10 UNL     1       1.463 -11.650  34.966  1.00  0.00     0.000 A 
HETATM   35  C11 UNL     1       2.200 -12.362  35.872  1.00  0.00     0.001 A 
HETATM   36  C12 UNL     1       3.590 -12.283  35.853  1.00  0.00     0.009 A 
ENDBRANCH  30  31
ENDBRANCH  27  30
ENDBRANCH  26  27
ENDBRANCH   4  26
TORSDOF 10
ENDMDL
