MODEL 1
REMARK VINA RESULT: -6.907503761      0.000      0.000
REMARK  6 active torsions:
REMARK  status: ('A' for Active; 'I' for Inactive)
REMARK       I    between atoms: C1_4  and  N3_6 
REMARK    1  A    between atoms: N3_6  and  C2_8 
REMARK    2  A    between atoms: C3_11  and  C4_12 
REMARK    3  A    between atoms: C4_12  and  C5_13 
REMARK    4  A    between atoms: C8_16  and  N6_17 
REMARK    5  A    between atoms: C16_26  and  C17_27 
REMARK    6  A    between atoms: C17_27  and  N7_28 
ROOT
HETATM    1  C2  UNL     1       5.317  -6.311  38.513  1.00  0.00     0.225 C 
HETATM    2  N4  UNL     1       5.421  -6.540  39.940  1.00  0.00    -0.118 NA
HETATM    3  N5  UNL     1       4.902  -7.772  40.274  1.00  0.00    -0.114 NA
HETATM    4  C3  UNL     1       3.881  -8.193  39.364  1.00  0.00     0.235 C 
HETATM    5  O1  UNL     1       3.115  -7.110  38.974  1.00  0.00    -0.358 OA
HETATM    6  C16 UNL     1       3.844  -6.227  38.186  1.00  0.00     0.189 C 
ENDROOT
BRANCH   4   7
HETATM    7  C4  UNL     1       3.066  -9.357  39.826  1.00  0.00     0.089 C 
BRANCH   7   8
HETATM    8  C5  UNL     1       2.172  -9.938  38.823  1.00  0.00    -0.054 A 
HETATM    9  C6  UNL     1       2.640 -10.317  37.574  1.00  0.00     0.009 A 
HETATM   10  C7  UNL     1       1.817 -10.866  36.621  1.00  0.00     0.030 A 
HETATM   11  C8  UNL     1       0.473 -11.070  36.859  1.00  0.00     0.030 A 
HETATM   12  C14 UNL     1      -0.015 -10.708  38.075  1.00  0.00     0.030 A 
HETATM   13  C15 UNL     1       0.828 -10.148  39.045  1.00  0.00     0.009 A 
BRANCH  11  14
HETATM   14  N6  UNL     1      -0.344 -11.627  35.865  1.00  0.00    -0.381 N 
HETATM   15  C9  UNL     1      -1.636 -12.231  36.241  1.00  0.00     0.123 C 
HETATM   16  C10 UNL     1      -2.089 -13.087  35.079  1.00  0.00     0.020 C 
HETATM   17  C11 UNL     1      -0.973 -13.924  34.505  1.00  0.00     0.003 C 
HETATM   18  C12 UNL     1       0.150 -13.089  33.975  1.00  0.00     0.020 C 
HETATM   19  C13 UNL     1      -0.035 -11.663  34.455  1.00  0.00     0.123 C 
ENDBRANCH  11  14
ENDBRANCH   7   8
ENDBRANCH   4   7
BRANCH   6  20
HETATM   20  C17 UNL     1       3.315  -4.836  38.532  1.00  0.00     0.265 C 
BRANCH  20  21
HETATM   21  N7  UNL     1       2.716  -4.199  37.391  1.00  0.00    -0.077 N 
ATOM     22  H73 UNL     1       3.151  -4.508  36.521  1.00  0.00     0.274 HD
ATOM     23  H72 UNL     1       1.771  -4.542  37.226  1.00  0.00     0.274 HD
ATOM     24  H71 UNL     1       2.734  -3.183  37.477  1.00  0.00     0.274 HD
ENDBRANCH  20  21
ENDBRANCH   6  20
BRANCH   1  25
HETATM   25  N3  UNL     1       6.044  -5.120  38.111  1.00  0.00    -0.343 N 
HETATM   26  C1  UNL     1       6.989  -5.205  37.055  1.00  0.00     0.183 C 
HETATM   27  N1  UNL     1       7.515  -6.345  36.761  1.00  0.00    -0.374 N 
HETATM   28  N2  UNL     1       7.388  -4.072  36.299  1.00  0.00    -0.064 NA
ATOM     29  H12 UNL     1       8.194  -6.406  36.002  1.00  0.00     0.158 HD
ATOM     30  H11 UNL     1       7.228  -7.160  37.305  1.00  0.00     0.158 HD
ATOM     31  H3  UNL     1       5.877  -4.232  38.582  1.00  0.00     0.164 HD
ENDBRANCH   1  25
TORSDOF 6
ENDMDL
MODEL 2
REMARK VINA RESULT: -6.843430437      4.357      5.552
REMARK  6 active torsions:
REMARK  status: ('A' for Active; 'I' for Inactive)
REMARK       I    between atoms: C1_4  and  N3_6 
REMARK    1  A    between atoms: N3_6  and  C2_8 
REMARK    2  A    between atoms: C3_11  and  C4_12 
REMARK    3  A    between atoms: C4_12  and  C5_13 
REMARK    4  A    between atoms: C8_16  and  N6_17 
REMARK    5  A    between atoms: C16_26  and  C17_27 
REMARK    6  A    between atoms: C17_27  and  N7_28 
ROOT
HETATM    1  C2  UNL     1       4.873  -6.493  36.843  1.00  0.00     0.225 C 
HETATM    2  N4  UNL     1       6.226  -6.063  37.134  1.00  0.00    -0.118 NA
HETATM    3  N5  UNL     1       7.141  -6.867  36.491  1.00  0.00    -0.114 NA
HETATM    4  C3  UNL     1       6.641  -8.191  36.279  1.00  0.00     0.235 C 
HETATM    5  O1  UNL     1       5.883  -8.594  37.363  1.00  0.00    -0.358 OA
HETATM    6  C16 UNL     1       4.705  -7.863  37.459  1.00  0.00     0.189 C 
ENDROOT
BRANCH   4   7
HETATM    7  C4  UNL     1       7.671  -9.196  35.873  1.00  0.00     0.089 C 
BRANCH   7   8
HETATM    8  C5  UNL     1       7.155 -10.388  35.197  1.00  0.00    -0.054 A 
HETATM    9  C6  UNL     1       7.802 -11.610  35.298  1.00  0.00     0.009 A 
HETATM   10  C7  UNL     1       7.330 -12.740  34.673  1.00  0.00     0.030 A 
HETATM   11  C8  UNL     1       6.182 -12.715  33.909  1.00  0.00     0.030 A 
HETATM   12  C14 UNL     1       5.526 -11.531  33.793  1.00  0.00     0.030 A 
HETATM   13  C15 UNL     1       6.009 -10.380  34.431  1.00  0.00     0.009 A 
BRANCH  11  14
HETATM   14  N6  UNL     1       5.728 -13.883  33.278  1.00  0.00    -0.381 N 
HETATM   15  C9  UNL     1       4.474 -14.513  33.732  1.00  0.00     0.123 C 
HETATM   16  C10 UNL     1       4.451 -15.921  33.181  1.00  0.00     0.020 C 
HETATM   17  C11 UNL     1       5.778 -16.624  33.330  1.00  0.00     0.003 C 
HETATM   18  C12 UNL     1       6.879 -15.923  32.598  1.00  0.00     0.020 C 
HETATM   19  C13 UNL     1       6.390 -14.550  32.183  1.00  0.00     0.123 C 
ENDBRANCH  11  14
ENDBRANCH   7   8
ENDBRANCH   4   7
BRANCH   6  20
HETATM   20  C17 UNL     1       4.429  -7.727  38.956  1.00  0.00     0.265 C 
BRANCH  20  21
HETATM   21  N7  UNL     1       5.639  -7.818  39.727  1.00  0.00    -0.077 N 
ATOM     22  H73 UNL     1       6.288  -8.493  39.324  1.00  0.00     0.274 HD
ATOM     23  H72 UNL     1       6.205  -6.976  39.630  1.00  0.00     0.274 HD
ATOM     24  H71 UNL     1       5.445  -8.025  40.707  1.00  0.00     0.274 HD
ENDBRANCH  20  21
ENDBRANCH   6  20
BRANCH   1  25
HETATM   25  N3  UNL     1       3.895  -5.540  37.333  1.00  0.00    -0.343 N 
HETATM   26  C1  UNL     1       3.424  -4.518  36.467  1.00  0.00     0.183 C 
HETATM   27  N1  UNL     1       4.138  -4.164  35.454  1.00  0.00    -0.374 N 
HETATM   28  N2  UNL     1       2.184  -3.859  36.673  1.00  0.00    -0.064 NA
ATOM     29  H12 UNL     1       3.799  -3.430  34.831  1.00  0.00     0.158 HD
ATOM     30  H11 UNL     1       5.029  -4.638  35.306  1.00  0.00     0.158 HD
ATOM     31  H3  UNL     1       3.549  -5.603  38.291  1.00  0.00     0.164 HD
ENDBRANCH   1  25
TORSDOF 6
ENDMDL
MODEL 3
REMARK VINA RESULT: -6.817262169      0.724      1.450
REMARK  6 active torsions:
REMARK  status: ('A' for Active; 'I' for Inactive)
REMARK       I    between atoms: C1_4  and  N3_6 
REMARK    1  A    between atoms: N3_6  and  C2_8 
REMARK    2  A    between atoms: C3_11  and  C4_12 
REMARK    3  A    between atoms: C4_12  and  C5_13 
REMARK    4  A    between atoms: C8_16  and  N6_17 
REMARK    5  A    between atoms: C16_26  and  C17_27 
REMARK    6  A    between atoms: C17_27  and  N7_28 
ROOT
HETATM    1  C2  UNL     1       5.332  -6.717  38.490  1.00  0.00     0.225 C 
HETATM    2  N4  UNL     1       5.478  -7.148  39.866  1.00  0.00    -0.118 NA
HETATM    3  N5  UNL     1       4.818  -8.339  40.074  1.00  0.00    -0.114 NA
HETATM    4  C3  UNL     1       3.704  -8.501  39.191  1.00  0.00     0.235 C 
HETATM    5  O1  UNL     1       3.070  -7.288  38.997  1.00  0.00    -0.358 OA
HETATM    6  C16 UNL     1       3.868  -6.405  38.280  1.00  0.00     0.189 C 
ENDROOT
BRANCH   4   7
HETATM    7  C4  UNL     1       2.766  -9.606  39.556  1.00  0.00     0.089 C 
BRANCH   7   8
HETATM    8  C5  UNL     1       2.010 -10.183  38.443  1.00  0.00    -0.054 A 
HETATM    9  C6  UNL     1       0.650 -10.429  38.546  1.00  0.00     0.009 A 
HETATM   10  C7  UNL     1      -0.076 -10.967  37.511  1.00  0.00     0.030 A 
HETATM   11  C8  UNL     1       0.516 -11.293  36.308  1.00  0.00     0.030 A 
HETATM   12  C14 UNL     1       1.849 -11.064  36.177  1.00  0.00     0.030 A 
HETATM   13  C15 UNL     1       2.587 -10.515  37.235  1.00  0.00     0.009 A 
BRANCH  11  14
HETATM   14  N6  UNL     1      -0.249 -11.848  35.271  1.00  0.00    -0.381 N 
HETATM   15  C9  UNL     1      -0.832 -10.962  34.245  1.00  0.00     0.123 C 
HETATM   16  C10 UNL     1      -1.904 -11.750  33.526  1.00  0.00     0.020 C 
HETATM   17  C11 UNL     1      -2.780 -12.534  34.472  1.00  0.00     0.003 C 
HETATM   18  C12 UNL     1      -2.006 -13.540  35.264  1.00  0.00     0.020 C 
HETATM   19  C13 UNL     1      -0.527 -13.254  35.100  1.00  0.00     0.123 C 
ENDBRANCH  11  14
ENDBRANCH   7   8
ENDBRANCH   4   7
BRANCH   6  20
HETATM   20  C17 UNL     1       3.548  -5.018  38.837  1.00  0.00     0.265 C 
BRANCH  20  21
HETATM   21  N7  UNL     1       2.980  -4.163  37.831  1.00  0.00    -0.077 N 
ATOM     22  H73 UNL     1       1.961  -4.154  37.881  1.00  0.00     0.274 HD
ATOM     23  H72 UNL     1       3.157  -3.180  38.036  1.00  0.00     0.274 HD
ATOM     24  H71 UNL     1       3.306  -4.414  36.898  1.00  0.00     0.274 HD
ENDBRANCH  20  21
ENDBRANCH   6  20
BRANCH   1  25
HETATM   25  N3  UNL     1       6.189  -5.583  38.195  1.00  0.00    -0.343 N 
HETATM   26  C1  UNL     1       6.729  -5.440  36.890  1.00  0.00     0.183 C 
HETATM   27  N1  UNL     1       6.835  -6.475  36.128  1.00  0.00    -0.374 N 
HETATM   28  N2  UNL     1       7.166  -4.190  36.380  1.00  0.00    -0.064 NA
ATOM     29  H12 UNL     1       7.222  -6.372  35.190  1.00  0.00     0.158 HD
ATOM     30  H11 UNL     1       6.520  -7.374  36.494  1.00  0.00     0.158 HD
ATOM     31  H3  UNL     1       6.402  -4.895  38.918  1.00  0.00     0.164 HD
ENDBRANCH   1  25
TORSDOF 6
ENDMDL
MODEL 4
REMARK VINA RESULT: -6.784294972      2.573      3.956
REMARK  6 active torsions:
REMARK  status: ('A' for Active; 'I' for Inactive)
REMARK       I    between atoms: C1_4  and  N3_6 
REMARK    1  A    between atoms: N3_6  and  C2_8 
REMARK    2  A    between atoms: C3_11  and  C4_12 
REMARK    3  A    between atoms: C4_12  and  C5_13 
REMARK    4  A    between atoms: C8_16  and  N6_17 
REMARK    5  A    between atoms: C16_26  and  C17_27 
REMARK    6  A    between atoms: C17_27  and  N7_28 
ROOT
HETATM    1  C2  UNL     1       6.435  -7.015  36.532  1.00  0.00     0.225 C 
HETATM    2  N4  UNL     1       5.870  -6.792  35.216  1.00  0.00    -0.118 NA
HETATM    3  N5  UNL     1       5.137  -7.886  34.810  1.00  0.00    -0.114 NA
HETATM    4  C3  UNL     1       5.615  -9.102  35.393  1.00  0.00     0.235 C 
HETATM    5  O1  UNL     1       6.995  -9.082  35.475  1.00  0.00    -0.358 OA
HETATM    6  C16 UNL     1       7.436  -8.140  36.397  1.00  0.00     0.189 C 
ENDROOT
BRANCH   4   7
HETATM    7  C4  UNL     1       5.079 -10.352  34.772  1.00  0.00     0.089 C 
BRANCH   7   8
HETATM    8  C5  UNL     1       3.923 -10.944  35.447  1.00  0.00    -0.054 A 
HETATM    9  C6  UNL     1       3.482 -12.221  35.133  1.00  0.00     0.009 A 
HETATM   10  C7  UNL     1       2.401 -12.795  35.758  1.00  0.00     0.030 A 
HETATM   11  C8  UNL     1       1.695 -12.126  36.738  1.00  0.00     0.030 A 
HETATM   12  C14 UNL     1       2.105 -10.872  37.067  1.00  0.00     0.030 A 
HETATM   13  C15 UNL     1       3.208 -10.290  36.427  1.00  0.00     0.009 A 
BRANCH  11  14
HETATM   14  N6  UNL     1       0.592 -12.734  37.354  1.00  0.00    -0.381 N 
HETATM   15  C9  UNL     1       0.549 -14.203  37.479  1.00  0.00     0.123 C 
HETATM   16  C10 UNL     1      -0.880 -14.588  37.790  1.00  0.00     0.020 C 
HETATM   17  C11 UNL     1      -1.879 -13.846  36.937  1.00  0.00     0.003 C 
HETATM   18  C12 UNL     1      -1.809 -12.365  37.136  1.00  0.00     0.020 C 
HETATM   19  C13 UNL     1      -0.545 -12.037  37.905  1.00  0.00     0.123 C 
ENDBRANCH  11  14
ENDBRANCH   7   8
ENDBRANCH   4   7
BRANCH   6  20
HETATM   20  C17 UNL     1       8.749  -7.599  35.832  1.00  0.00     0.265 C 
BRANCH  20  21
HETATM   21  N7  UNL     1       8.788  -7.697  34.399  1.00  0.00    -0.077 N 
ATOM     22  H73 UNL     1       9.747  -7.769  34.056  1.00  0.00     0.274 HD
ATOM     23  H72 UNL     1       8.438  -8.599  34.078  1.00  0.00     0.274 HD
ATOM     24  H71 UNL     1       8.290  -6.925  33.956  1.00  0.00     0.274 HD
ENDBRANCH  20  21
ENDBRANCH   6  20
BRANCH   1  25
HETATM   25  N3  UNL     1       7.030  -5.804  37.067  1.00  0.00    -0.343 N 
HETATM   26  C1  UNL     1       6.203  -4.853  37.721  1.00  0.00     0.183 C 
HETATM   27  N1  UNL     1       4.939  -4.829  37.469  1.00  0.00    -0.374 N 
HETATM   28  N2  UNL     1       6.715  -3.912  38.651  1.00  0.00    -0.064 NA
ATOM     29  H12 UNL     1       4.344  -4.145  37.939  1.00  0.00     0.158 HD
ATOM     30  H11 UNL     1       4.570  -5.505  36.800  1.00  0.00     0.158 HD
ATOM     31  H3  UNL     1       8.032  -5.637  36.975  1.00  0.00     0.164 HD
ENDBRANCH   1  25
TORSDOF 6
ENDMDL
MODEL 5
REMARK VINA RESULT: -6.779111878      2.390      3.846
REMARK  6 active torsions:
REMARK  status: ('A' for Active; 'I' for Inactive)
REMARK       I    between atoms: C1_4  and  N3_6 
REMARK    1  A    between atoms: N3_6  and  C2_8 
REMARK    2  A    between atoms: C3_11  and  C4_12 
REMARK    3  A    between atoms: C4_12  and  C5_13 
REMARK    4  A    between atoms: C8_16  and  N6_17 
REMARK    5  A    between atoms: C16_26  and  C17_27 
REMARK    6  A    between atoms: C17_27  and  N7_28 
ROOT
HETATM    1  C2  UNL     1       6.298  -6.914  36.522  1.00  0.00     0.225 C 
HETATM    2  N4  UNL     1       5.779  -6.596  35.207  1.00  0.00    -0.118 NA
HETATM    3  N5  UNL     1       4.975  -7.614  34.742  1.00  0.00    -0.114 NA
HETATM    4  C3  UNL     1       5.348  -8.886  35.282  1.00  0.00     0.235 C 
HETATM    5  O1  UNL     1       6.724  -8.973  35.390  1.00  0.00    -0.358 OA
HETATM    6  C16 UNL     1       7.215  -8.105  36.357  1.00  0.00     0.189 C 
ENDROOT
BRANCH   4   7
HETATM    7  C4  UNL     1       4.734 -10.065  34.599  1.00  0.00     0.089 C 
BRANCH   7   8
HETATM    8  C5  UNL     1       3.424 -10.474  35.108  1.00  0.00    -0.054 A 
HETATM    9  C6  UNL     1       3.168 -10.539  36.470  1.00  0.00     0.009 A 
HETATM   10  C7  UNL     1       1.944 -10.919  36.966  1.00  0.00     0.030 A 
HETATM   11  C8  UNL     1       0.900 -11.256  36.129  1.00  0.00     0.030 A 
HETATM   12  C14 UNL     1       1.121 -11.201  34.789  1.00  0.00     0.030 A 
HETATM   13  C15 UNL     1       2.370 -10.814  34.286  1.00  0.00     0.009 A 
BRANCH  11  14
HETATM   14  N6  UNL     1      -0.337 -11.645  36.664  1.00  0.00    -0.381 N 
HETATM   15  C9  UNL     1      -0.518 -11.674  38.128  1.00  0.00     0.123 C 
HETATM   16  C10 UNL     1      -1.755 -12.496  38.413  1.00  0.00     0.020 C 
HETATM   17  C11 UNL     1      -1.812 -13.762  37.594  1.00  0.00     0.003 C 
HETATM   18  C12 UNL     1      -1.843 -13.487  36.123  1.00  0.00     0.020 C 
HETATM   19  C13 UNL     1      -1.495 -12.030  35.894  1.00  0.00     0.123 C 
ENDBRANCH  11  14
ENDBRANCH   7   8
ENDBRANCH   4   7
BRANCH   6  20
HETATM   20  C17 UNL     1       8.577  -7.642  35.840  1.00  0.00     0.265 C 
BRANCH  20  21
HETATM   21  N7  UNL     1       8.590  -7.540  34.406  1.00  0.00    -0.077 N 
ATOM     22  H73 UNL     1       8.194  -8.373  33.969  1.00  0.00     0.274 HD
ATOM     23  H72 UNL     1       7.914  -6.851  34.076  1.00  0.00     0.274 HD
ATOM     24  H71 UNL     1       9.526  -7.343  34.053  1.00  0.00     0.274 HD
ENDBRANCH  20  21
ENDBRANCH   6  20
BRANCH   1  25
HETATM   25  N3  UNL     1       6.971  -5.774  37.119  1.00  0.00    -0.343 N 
HETATM   26  C1  UNL     1       6.199  -4.759  37.742  1.00  0.00     0.183 C 
HETATM   27  N1  UNL     1       4.960  -4.610  37.415  1.00  0.00    -0.374 N 
HETATM   28  N2  UNL     1       6.739  -3.887  38.722  1.00  0.00    -0.064 NA
ATOM     29  H12 UNL     1       4.405  -3.881  37.863  1.00  0.00     0.158 HD
ATOM     30  H11 UNL     1       4.572  -5.238  36.711  1.00  0.00     0.158 HD
ATOM     31  H3  UNL     1       7.988  -5.703  37.090  1.00  0.00     0.164 HD
ENDBRANCH   1  25
TORSDOF 6
ENDMDL
