MODEL 1
REMARK VINA RESULT: -7.814139491      0.000      0.000
REMARK  7 active torsions:
REMARK  status: ('A' for Active; 'I' for Inactive)
REMARK    1  A    between atoms: C3_3  and  C4_4 
REMARK    2  A    between atoms: C4_4  and  O1_5 
REMARK    3  A    between atoms: C6_8  and  C7_9 
REMARK    4  A    between atoms: C7_9  and  C8_10 
REMARK    5  A    between atoms: C13_18  and  O5_19 
REMARK    6  A    between atoms: C14_21  and  O6_22 
REMARK    7  A    between atoms: C15_24  and  O7_25 
ROOT
HETATM    1  C1  UNL     1      -0.934   6.601   4.738  1.00  0.00     0.025 C 
HETATM    2  C2  UNL     1      -0.685   5.876   5.776  1.00  0.00     0.002 C 
HETATM    3  C3  UNL     1      -0.045   4.563   5.484  1.00  0.00    -0.025 C 
HETATM    4  C5  UNL     1       0.151   3.528   6.304  1.00  0.00     0.014 C 
HETATM    5  C6  UNL     1      -0.109   3.174   7.713  1.00  0.00     0.148 C 
HETATM    6  O2  UNL     1      -1.320   3.402   8.269  1.00  0.00    -0.349 OA
HETATM    7  C10 UNL     1      -1.614   4.706   8.662  1.00  0.00     0.295 C 
HETATM    8  O3  UNL     1      -0.871   5.442   7.927  1.00  0.00    -0.318 OA
HETATM    9  C11 UNL     1      -1.109   6.443   7.098  1.00  0.00     0.194 C 
HETATM   10  C12 UNL     1      -2.479   6.976   6.942  1.00  0.00     0.085 C 
HETATM   11  O4  UNL     1      -0.233   7.379   7.669  1.00  0.00    -0.319 OA
HETATM   12  C13 UNL     1      -0.687   7.410   9.022  1.00  0.00     0.292 C 
HETATM   13  C14 UNL     1      -0.203   6.378   9.938  1.00  0.00     0.206 C 
HETATM   14  C15 UNL     1      -1.073   5.102  10.053  1.00  0.00     0.207 C 
ENDROOT
BRANCH   3  15
HETATM   15  C4  UNL     1       0.416   4.433   4.108  1.00  0.00     0.203 C 
BRANCH  15  16
HETATM   16  O1  UNL     1      -0.248   3.438   3.393  1.00  0.00    -0.396 OA
ATOM     17  H1  UNL     1       0.255   3.100   2.661  1.00  0.00     0.209 HD
ENDBRANCH  15  16
ENDBRANCH   3  15
BRANCH   5  18
HETATM   18  C7  UNL     1       0.189   1.675   7.916  1.00  0.00     0.036 C 
BRANCH  18  19
HETATM   19  C8  UNL     1       1.407   1.518   8.803  1.00  0.00    -0.002 C 
HETATM   20  C9  UNL     1       2.492   0.845   8.035  1.00  0.00     0.005 C 
ENDBRANCH  18  19
ENDBRANCH   5  18
BRANCH  12  21
HETATM   21  O5  UNL     1      -0.237   8.666   9.497  1.00  0.00    -0.368 OA
ATOM     22  H5  UNL     1       0.307   8.442  10.243  1.00  0.00     0.212 HD
ENDBRANCH  12  21
BRANCH  14  23
HETATM   23  O7  UNL     1      -2.083   5.260  10.967  1.00  0.00    -0.388 OA
ATOM     24  H7  UNL     1      -2.241   4.464  11.461  1.00  0.00     0.210 HD
ENDBRANCH  14  23
BRANCH  13  25
HETATM   25  O6  UNL     1      -0.147   6.901  11.231  1.00  0.00    -0.388 OA
ATOM     26  H6  UNL     1       0.643   7.420  11.325  1.00  0.00     0.210 HD
ENDBRANCH  13  25
TORSDOF 7
ENDMDL
MODEL 2
REMARK VINA RESULT: -7.574614684      6.983      8.783
REMARK  7 active torsions:
REMARK  status: ('A' for Active; 'I' for Inactive)
REMARK    1  A    between atoms: C3_3  and  C4_4 
REMARK    2  A    between atoms: C4_4  and  O1_5 
REMARK    3  A    between atoms: C6_8  and  C7_9 
REMARK    4  A    between atoms: C7_9  and  C8_10 
REMARK    5  A    between atoms: C13_18  and  O5_19 
REMARK    6  A    between atoms: C14_21  and  O6_22 
REMARK    7  A    between atoms: C15_24  and  O7_25 
ROOT
HETATM    1  C1  UNL     1       4.582   7.156  11.341  1.00  0.00     0.025 C 
HETATM    2  C2  UNL     1       4.421   7.289  12.614  1.00  0.00     0.002 C 
HETATM    3  C3  UNL     1       5.542   6.769  13.446  1.00  0.00    -0.025 C 
HETATM    4  C5  UNL     1       5.586   6.584  14.767  1.00  0.00     0.014 C 
HETATM    5  C6  UNL     1       4.704   6.766  15.935  1.00  0.00     0.148 C 
HETATM    6  O2  UNL     1       3.423   6.335  15.905  1.00  0.00    -0.349 OA
HETATM    7  C10 UNL     1       2.494   7.121  15.225  1.00  0.00     0.295 C 
HETATM    8  O3  UNL     1       3.185   7.774  14.371  1.00  0.00    -0.318 OA
HETATM    9  C11 UNL     1       3.128   7.906  13.058  1.00  0.00     0.194 C 
HETATM   10  C12 UNL     1       2.038   7.271  12.288  1.00  0.00     0.085 C 
HETATM   11  O4  UNL     1       3.071   9.308  13.007  1.00  0.00    -0.319 OA
HETATM   12  C13 UNL     1       1.939   9.580  13.831  1.00  0.00     0.292 C 
HETATM   13  C14 UNL     1       2.132   9.627  15.280  1.00  0.00     0.206 C 
HETATM   14  C15 UNL     1       1.917   8.296  16.043  1.00  0.00     0.207 C 
ENDROOT
BRANCH   3  15
HETATM   15  C4  UNL     1       6.731   6.430  12.674  1.00  0.00     0.203 C 
BRANCH  15  16
HETATM   16  O1  UNL     1       7.284   5.199  13.022  1.00  0.00    -0.396 OA
ATOM     17  H1  UNL     1       8.223   5.156  12.886  1.00  0.00     0.209 HD
ENDBRANCH  15  16
ENDBRANCH   3  15
BRANCH   5  18
HETATM   18  C7  UNL     1       5.358   6.105  17.166  1.00  0.00     0.036 C 
BRANCH  18  19
HETATM   19  C8  UNL     1       6.340   5.046  16.708  1.00  0.00    -0.002 C 
HETATM   20  C9  UNL     1       6.908   4.355  17.900  1.00  0.00     0.005 C 
ENDBRANCH  18  19
ENDBRANCH   5  18
BRANCH  12  21
HETATM   21  O5  UNL     1       1.514  10.862  13.403  1.00  0.00    -0.368 OA
ATOM     22  H5  UNL     1       0.681  10.980  13.843  1.00  0.00     0.212 HD
ENDBRANCH  12  21
BRANCH  14  23
HETATM   23  O7  UNL     1       0.595   8.102  16.354  1.00  0.00    -0.388 OA
ATOM     24  H7  UNL     1       0.104   8.914  16.331  1.00  0.00     0.210 HD
ENDBRANCH  14  23
BRANCH  13  25
HETATM   25  O6  UNL     1       1.217  10.521  15.837  1.00  0.00    -0.388 OA
ATOM     26  H6  UNL     1       1.089  11.250  15.242  1.00  0.00     0.210 HD
ENDBRANCH  13  25
TORSDOF 7
ENDMDL
MODEL 3
REMARK VINA RESULT: -7.510843077      2.781      4.476
REMARK  7 active torsions:
REMARK  status: ('A' for Active; 'I' for Inactive)
REMARK    1  A    between atoms: C3_3  and  C4_4 
REMARK    2  A    between atoms: C4_4  and  O1_5 
REMARK    3  A    between atoms: C6_8  and  C7_9 
REMARK    4  A    between atoms: C7_9  and  C8_10 
REMARK    5  A    between atoms: C13_18  and  O5_19 
REMARK    6  A    between atoms: C14_21  and  O6_22 
REMARK    7  A    between atoms: C15_24  and  O7_25 
ROOT
HETATM    1  C1  UNL     1      -2.879   6.158   6.286  1.00  0.00     0.025 C 
HETATM    2  C2  UNL     1      -1.756   5.533   6.172  1.00  0.00     0.002 C 
HETATM    3  C3  UNL     1      -1.708   4.202   6.839  1.00  0.00    -0.025 C 
HETATM    4  C5  UNL     1      -0.651   3.418   7.066  1.00  0.00     0.014 C 
HETATM    5  C6  UNL     1       0.803   3.432   6.819  1.00  0.00     0.148 C 
HETATM    6  O2  UNL     1       1.540   4.529   7.102  1.00  0.00    -0.349 OA
HETATM    7  C10 UNL     1       1.493   5.588   6.198  1.00  0.00     0.295 C 
HETATM    8  O3  UNL     1       0.370   5.457   5.602  1.00  0.00    -0.318 OA
HETATM    9  C11 UNL     1      -0.671   6.252   5.427  1.00  0.00     0.194 C 
HETATM   10  C12 UNL     1      -0.637   7.647   5.912  1.00  0.00     0.085 C 
HETATM   11  O4  UNL     1      -0.738   6.175   4.027  1.00  0.00    -0.319 OA
HETATM   12  C13 UNL     1       0.577   6.580   3.653  1.00  0.00     0.292 C 
HETATM   13  C14 UNL     1       1.641   5.577   3.669  1.00  0.00     0.206 C 
HETATM   14  C15 UNL     1       2.443   5.452   4.989  1.00  0.00     0.207 C 
ENDROOT
BRANCH   3  15
HETATM   15  C4  UNL     1      -3.011   3.729   7.288  1.00  0.00     0.203 C 
BRANCH  15  16
HETATM   16  O1  UNL     1      -3.543   2.725   6.480  1.00  0.00    -0.396 OA
ATOM     17  H1  UNL     1      -4.355   2.974   6.055  1.00  0.00     0.209 HD
ENDBRANCH  15  16
ENDBRANCH   3  15
BRANCH   5  18
HETATM   18  C7  UNL     1       1.453   2.261   7.585  1.00  0.00     0.036 C 
BRANCH  18  19
HETATM   19  C8  UNL     1       0.375   1.446   8.270  1.00  0.00    -0.002 C 
HETATM   20  C9  UNL     1       0.789   1.166   9.674  1.00  0.00     0.005 C 
ENDBRANCH  18  19
ENDBRANCH   5  18
BRANCH  12  21
HETATM   21  O5  UNL     1       0.421   7.033   2.319  1.00  0.00    -0.368 OA
ATOM     22  H5  UNL     1       0.141   7.935   2.421  1.00  0.00     0.212 HD
ENDBRANCH  12  21
BRANCH  14  23
HETATM   23  O7  UNL     1       3.471   6.358   5.042  1.00  0.00    -0.388 OA
ATOM     24  H7  UNL     1       3.654   6.736   4.189  1.00  0.00     0.210 HD
ENDBRANCH  14  23
BRANCH  13  25
HETATM   25  O6  UNL     1       2.588   5.895   2.694  1.00  0.00    -0.388 OA
ATOM     26  H6  UNL     1       2.403   5.400   1.905  1.00  0.00     0.210 HD
ENDBRANCH  13  25
TORSDOF 7
ENDMDL
MODEL 4
REMARK VINA RESULT: -7.388061983      1.727      4.617
REMARK  7 active torsions:
REMARK  status: ('A' for Active; 'I' for Inactive)
REMARK    1  A    between atoms: C3_3  and  C4_4 
REMARK    2  A    between atoms: C4_4  and  O1_5 
REMARK    3  A    between atoms: C6_8  and  C7_9 
REMARK    4  A    between atoms: C7_9  and  C8_10 
REMARK    5  A    between atoms: C13_18  and  O5_19 
REMARK    6  A    between atoms: C14_21  and  O6_22 
REMARK    7  A    between atoms: C15_24  and  O7_25 
ROOT
HETATM    1  C1  UNL     1      -1.020   7.578   8.419  1.00  0.00     0.025 C 
HETATM    2  C2  UNL     1      -0.652   6.415   8.001  1.00  0.00     0.002 C 
HETATM    3  C3  UNL     1      -1.019   5.281   8.895  1.00  0.00    -0.025 C 
HETATM    4  C5  UNL     1      -0.616   4.010   8.841  1.00  0.00     0.014 C 
HETATM    5  C6  UNL     1       0.261   3.167   8.007  1.00  0.00     0.148 C 
HETATM    6  O2  UNL     1       1.499   3.586   7.666  1.00  0.00    -0.349 OA
HETATM    7  C10 UNL     1       1.603   4.516   6.633  1.00  0.00     0.295 C 
HETATM    8  O3  UNL     1       0.476   5.119   6.623  1.00  0.00    -0.318 OA
HETATM    9  C11 UNL     1       0.115   6.386   6.712  1.00  0.00     0.194 C 
HETATM   10  C12 UNL     1       1.136   7.452   6.771  1.00  0.00     0.085 C 
HETATM   11  O4  UNL     1      -0.657   6.450   5.542  1.00  0.00    -0.319 OA
HETATM   12  C13 UNL     1       0.277   6.010   4.557  1.00  0.00     0.292 C 
HETATM   13  C14 UNL     1       0.462   4.572   4.372  1.00  0.00     0.206 C 
HETATM   14  C15 UNL     1       1.585   3.913   5.212  1.00  0.00     0.207 C 
ENDROOT
BRANCH   3  15
HETATM   15  C4  UNL     1      -1.945   5.654   9.957  1.00  0.00     0.203 C 
BRANCH  15  16
HETATM   16  O1  UNL     1      -1.702   4.996  11.160  1.00  0.00    -0.396 OA
ATOM     17  H1  UNL     1      -2.083   5.432  11.913  1.00  0.00     0.209 HD
ENDBRANCH  15  16
ENDBRANCH   3  15
BRANCH   5  18
HETATM   18  C7  UNL     1       0.438   1.796   8.692  1.00  0.00     0.036 C 
BRANCH  18  19
HETATM   19  C8  UNL     1       1.736   1.166   8.231  1.00  0.00    -0.002 C 
HETATM   20  C9  UNL     1       2.528   0.745   9.421  1.00  0.00     0.005 C 
ENDBRANCH  18  19
ENDBRANCH   5  18
BRANCH  12  21
HETATM   21  O5  UNL     1      -0.234   6.546   3.349  1.00  0.00    -0.368 OA
ATOM     22  H5  UNL     1       0.431   6.325   2.707  1.00  0.00     0.212 HD
ENDBRANCH  12  21
BRANCH  14  23
HETATM   23  O7  UNL     1       2.805   4.020   4.595  1.00  0.00    -0.388 OA
ATOM     24  H7  UNL     1       2.722   4.318   3.697  1.00  0.00     0.210 HD
ENDBRANCH  14  23
BRANCH  13  25
HETATM   25  O6  UNL     1       0.804   4.319   3.042  1.00  0.00    -0.388 OA
ATOM     26  H6  UNL     1       0.709   3.390   2.866  1.00  0.00     0.210 HD
ENDBRANCH  13  25
TORSDOF 7
ENDMDL
MODEL 5
REMARK VINA RESULT: -6.698355139      2.439      4.849
REMARK  7 active torsions:
REMARK  status: ('A' for Active; 'I' for Inactive)
REMARK    1  A    between atoms: C3_3  and  C4_4 
REMARK    2  A    between atoms: C4_4  and  O1_5 
REMARK    3  A    between atoms: C6_8  and  C7_9 
REMARK    4  A    between atoms: C7_9  and  C8_10 
REMARK    5  A    between atoms: C13_18  and  O5_19 
REMARK    6  A    between atoms: C14_21  and  O6_22 
REMARK    7  A    between atoms: C15_24  and  O7_25 
ROOT
HETATM    1  C1  UNL     1       1.800   7.256   8.335  1.00  0.00     0.025 C 
HETATM    2  C2  UNL     1       1.548   6.335   7.466  1.00  0.00     0.002 C 
HETATM    3  C3  UNL     1       2.356   6.414   6.217  1.00  0.00    -0.025 C 
HETATM    4  C5  UNL     1       2.195   5.743   5.074  1.00  0.00     0.014 C 
HETATM    5  C6  UNL     1       1.288   4.723   4.514  1.00  0.00     0.148 C 
HETATM    6  O2  UNL     1      -0.051   4.845   4.645  1.00  0.00    -0.349 OA
HETATM    7  C10 UNL     1      -0.612   4.503   5.874  1.00  0.00     0.295 C 
HETATM    8  O3  UNL     1       0.336   4.656   6.718  1.00  0.00    -0.318 OA
HETATM    9  C11 UNL     1       0.467   5.361   7.828  1.00  0.00     0.194 C 
HETATM   10  C12 UNL     1      -0.674   6.131   8.365  1.00  0.00     0.085 C 
HETATM   11  O4  UNL     1       0.851   4.311   8.678  1.00  0.00    -0.319 OA
HETATM   12  C13 UNL     1      -0.226   3.392   8.504  1.00  0.00     0.292 C 
HETATM   13  C14 UNL     1      -0.189   2.491   7.353  1.00  0.00     0.206 C 
HETATM   14  C15 UNL     1      -0.886   2.996   6.066  1.00  0.00     0.207 C 
ENDROOT
BRANCH   3  15
HETATM   15  C4  UNL     1       3.460   7.362   6.296  1.00  0.00     0.203 C 
BRANCH  15  16
HETATM   16  O1  UNL     1       3.873   7.836   5.053  1.00  0.00    -0.396 OA
ATOM     17  H1  UNL     1       4.231   7.159   4.491  1.00  0.00     0.209 HD
ENDBRANCH  15  16
ENDBRANCH   3  15
BRANCH   5  18
HETATM   18  C7  UNL     1       1.567   4.579   3.004  1.00  0.00     0.036 C 
BRANCH  18  19
HETATM   19  C8  UNL     1       1.967   5.925   2.434  1.00  0.00    -0.002 C 
HETATM   20  C9  UNL     1       0.868   6.438   1.568  1.00  0.00     0.005 C 
ENDBRANCH  18  19
ENDBRANCH   5  18
BRANCH  12  21
HETATM   21  O5  UNL     1      -0.186   2.604   9.681  1.00  0.00    -0.368 OA
ATOM     22  H5  UNL     1      -1.062   2.241   9.737  1.00  0.00     0.212 HD
ENDBRANCH  12  21
BRANCH  14  23
HETATM   23  O7  UNL     1      -2.229   2.718   6.078  1.00  0.00    -0.388 OA
ATOM     24  H7  UNL     1      -2.605   2.829   6.943  1.00  0.00     0.210 HD
ENDBRANCH  14  23
BRANCH  13  25
HETATM   25  O6  UNL     1      -0.840   1.300   7.680  1.00  0.00    -0.388 OA
ATOM     26  H6  UNL     1      -0.350   0.851   8.358  1.00  0.00     0.210 HD
ENDBRANCH  13  25
TORSDOF 7
ENDMDL
