MODEL 1
REMARK VINA RESULT: -6.357911671      0.000      0.000
REMARK  5 active torsions:
REMARK  status: ('A' for Active; 'I' for Inactive)
REMARK    1  A    between atoms: C5_17  and  C6_18 
REMARK       I    between atoms: C6_18  and  N8_20 
REMARK    2  A    between atoms: N8_20  and  C7_22 
REMARK    3  A    between atoms: C7_22  and  C8_23 
REMARK       I    between atoms: C8_23  and  N9_25 
REMARK    4  A    between atoms: N9_25  and  C9_27 
REMARK    5  A    between atoms: C9_27  and  C10_28 
ROOT
HETATM    1  C6  UNL     1      -1.524  54.523  28.389  1.00  0.00     0.257 C 
HETATM    2  O1  UNL     1      -1.413  53.800  29.404  1.00  0.00    -0.270 OA
HETATM    3  N8  UNL     1      -2.471  54.176  27.392  1.00  0.00    -0.350 N 
ATOM      4  H8  UNL     1      -2.549  54.766  26.564  1.00  0.00     0.163 HD
ENDROOT
BRANCH   1   5
HETATM    5  C5  UNL     1      -0.662  55.719  28.258  1.00  0.00     0.204 C 
HETATM    6  C1  UNL     1       0.696  55.319  27.888  1.00  0.00     0.131 C 
HETATM    7  N1  UNL     1       0.944  54.100  27.626  1.00  0.00    -0.385 N 
HETATM    8  N2  UNL     1       1.863  56.193  27.770  1.00  0.00    -0.286 N 
ATOM      9  H12 UNL     1       1.891  53.821  27.369  1.00  0.00     0.157 HD
ATOM     10  H11 UNL     1       0.131  53.491  27.709  1.00  0.00     0.157 HD
HETATM   11  N3  UNL     1       1.720  57.534  27.321  1.00  0.00    -0.288 N 
ATOM     12  H2  UNL     1       2.788  55.837  28.013  1.00  0.00     0.188 HD
HETATM   13  C2  UNL     1       0.538  58.163  26.759  1.00  0.00     0.132 C 
ATOM     14  H3  UNL     1       2.548  58.125  27.402  1.00  0.00     0.188 HD
HETATM   15  S1  UNL     1       0.510  59.749  26.555  1.00  0.00    -0.058 SA
HETATM   16  C3  UNL     1      -0.643  57.312  26.373  1.00  0.00     0.152 C 
HETATM   17  N4  UNL     1      -1.257  56.715  27.461  1.00  0.00    -0.258 N 
HETATM   18  N5  UNL     1      -2.327  57.382  28.026  1.00  0.00    -0.009 NA
HETATM   19  N6  UNL     1      -1.979  58.128  29.153  1.00  0.00    -0.017 NA
HETATM   20  N7  UNL     1      -0.737  57.744  29.670  1.00  0.00    -0.125 NA
HETATM   21  C4  UNL     1      -0.583  56.304  29.684  1.00  0.00     0.183 C 
ENDBRANCH   1   5
BRANCH   3  22
HETATM   22  C7  UNL     1      -3.317  53.037  27.501  1.00  0.00     0.225 C 
BRANCH  22  23
HETATM   23  C8  UNL     1      -2.936  51.856  26.653  1.00  0.00     0.238 C 
HETATM   24  O2  UNL     1      -1.683  51.725  26.410  1.00  0.00    -0.271 OA
HETATM   25  N9  UNL     1      -3.824  50.925  26.126  1.00  0.00    -0.337 N 
ATOM     26  H9  UNL     1      -4.797  51.138  26.349  1.00  0.00     0.167 HD
BRANCH  25  27
HETATM   27  C9  UNL     1      -3.687  49.760  25.358  1.00  0.00     0.096 C 
BRANCH  27  28
HETATM   28  C10 UNL     1      -4.520  49.496  24.162  1.00  0.00     0.224 C 
HETATM   29  C11 UNL     1      -4.070  48.419  23.286  1.00  0.00     0.038 C 
HETATM   30  C12 UNL     1      -4.736  48.480  21.893  1.00  0.00     0.002 C 
HETATM   31  C13 UNL     1      -4.225  49.676  21.144  1.00  0.00     0.002 C 
HETATM   32  C14 UNL     1      -5.298  50.736  21.183  1.00  0.00     0.027 C 
HETATM   33  C15 UNL     1      -5.819  50.811  22.602  1.00  0.00     0.233 C 
HETATM   34  N10 UNL     1      -4.707  50.776  23.488  1.00  0.00    -0.066 N 
ATOM     35 2H10 UNL     1      -4.769  51.533  24.169  1.00  0.00     0.278 HD
ATOM     36 1H10 UNL     1      -3.854  51.051  23.002  1.00  0.00     0.278 HD
ENDBRANCH  27  28
ENDBRANCH  25  27
ENDBRANCH  22  23
ENDBRANCH   3  22
TORSDOF 5
ENDMDL
MODEL 2
REMARK VINA RESULT: -6.129403270      1.970      2.455
REMARK  5 active torsions:
REMARK  status: ('A' for Active; 'I' for Inactive)
REMARK    1  A    between atoms: C5_17  and  C6_18 
REMARK       I    between atoms: C6_18  and  N8_20 
REMARK    2  A    between atoms: N8_20  and  C7_22 
REMARK    3  A    between atoms: C7_22  and  C8_23 
REMARK       I    between atoms: C8_23  and  N9_25 
REMARK    4  A    between atoms: N9_25  and  C9_27 
REMARK    5  A    between atoms: C9_27  and  C10_28 
ROOT
HETATM    1  C6  UNL     1      -2.026  53.513  28.736  1.00  0.00     0.257 C 
HETATM    2  O1  UNL     1      -3.054  53.564  29.447  1.00  0.00    -0.270 OA
HETATM    3  N8  UNL     1      -2.081  52.848  27.484  1.00  0.00    -0.350 N 
ATOM      4  H8  UNL     1      -1.235  52.805  26.915  1.00  0.00     0.163 HD
ENDROOT
BRANCH   1   5
HETATM    5  C5  UNL     1      -0.782  54.149  29.223  1.00  0.00     0.204 C 
HETATM    6  C1  UNL     1      -0.155  53.307  30.244  1.00  0.00     0.131 C 
HETATM    7  N1  UNL     1      -0.642  52.161  30.499  1.00  0.00    -0.385 N 
HETATM    8  N2  UNL     1       1.025  53.635  31.043  1.00  0.00    -0.286 N 
ATOM      9  H12 UNL     1      -0.205  51.574  31.210  1.00  0.00     0.157 HD
ATOM     10  H11 UNL     1      -1.464  51.933  29.942  1.00  0.00     0.157 HD
HETATM   11  N3  UNL     1       2.075  54.421  30.495  1.00  0.00    -0.288 N 
ATOM     12  H2  UNL     1       1.096  53.295  32.002  1.00  0.00     0.188 HD
HETATM   13  C2  UNL     1       2.248  54.836  29.114  1.00  0.00     0.132 C 
ATOM     14  H3  UNL     1       2.793  54.730  31.151  1.00  0.00     0.188 HD
HETATM   15  S1  UNL     1       3.356  55.932  28.753  1.00  0.00    -0.058 SA
HETATM   16  C3  UNL     1       1.384  54.226  28.042  1.00  0.00     0.152 C 
HETATM   17  N4  UNL     1       0.048  54.568  28.166  1.00  0.00    -0.258 N 
HETATM   18  N5  UNL     1      -0.392  55.665  27.451  1.00  0.00    -0.009 NA
HETATM   19  N6  UNL     1      -0.447  56.833  28.211  1.00  0.00    -0.017 NA
HETATM   20  N7  UNL     1      -0.411  56.564  29.584  1.00  0.00    -0.125 NA
HETATM   21  C4  UNL     1      -1.250  55.437  29.933  1.00  0.00     0.183 C 
ENDBRANCH   1   5
BRANCH   3  22
HETATM   22  C7  UNL     1      -3.268  52.239  26.992  1.00  0.00     0.225 C 
BRANCH  22  23
HETATM   23  C8  UNL     1      -3.087  50.912  26.310  1.00  0.00     0.238 C 
HETATM   24  O2  UNL     1      -2.070  50.226  26.684  1.00  0.00    -0.271 OA
HETATM   25  N9  UNL     1      -3.922  50.394  25.326  1.00  0.00    -0.337 N 
ATOM     26  H9  UNL     1      -4.680  51.029  25.077  1.00  0.00     0.167 HD
BRANCH  25  27
HETATM   27  C9  UNL     1      -3.959  49.196  24.599  1.00  0.00     0.096 C 
BRANCH  27  28
HETATM   28  C10 UNL     1      -4.709  49.062  23.328  1.00  0.00     0.224 C 
HETATM   29  C11 UNL     1      -4.211  48.065  22.386  1.00  0.00     0.038 C 
HETATM   30  C12 UNL     1      -4.776  48.270  20.963  1.00  0.00     0.002 C 
HETATM   31  C13 UNL     1      -4.200  49.523  20.369  1.00  0.00     0.002 C 
HETATM   32  C14 UNL     1      -5.261  50.593  20.436  1.00  0.00     0.027 C 
HETATM   33  C15 UNL     1      -5.880  50.542  21.817  1.00  0.00     0.233 C 
HETATM   34  N10 UNL     1      -4.833  50.403  22.770  1.00  0.00    -0.066 N 
ATOM     35 2H10 UNL     1      -4.934  51.092  23.515  1.00  0.00     0.278 HD
ATOM     36 1H10 UNL     1      -3.945  50.708  22.372  1.00  0.00     0.278 HD
ENDBRANCH  27  28
ENDBRANCH  25  27
ENDBRANCH  22  23
ENDBRANCH   3  22
TORSDOF 5
ENDMDL
MODEL 3
REMARK VINA RESULT: -6.051966138      1.663      2.590
REMARK  5 active torsions:
REMARK  status: ('A' for Active; 'I' for Inactive)
REMARK    1  A    between atoms: C5_17  and  C6_18 
REMARK       I    between atoms: C6_18  and  N8_20 
REMARK    2  A    between atoms: N8_20  and  C7_22 
REMARK    3  A    between atoms: C7_22  and  C8_23 
REMARK       I    between atoms: C8_23  and  N9_25 
REMARK    4  A    between atoms: N9_25  and  C9_27 
REMARK    5  A    between atoms: C9_27  and  C10_28 
ROOT
HETATM    1  C6  UNL     1      -1.329  54.504  28.280  1.00  0.00     0.257 C 
HETATM    2  O1  UNL     1      -2.289  55.065  28.855  1.00  0.00    -0.270 OA
HETATM    3  N8  UNL     1      -1.549  53.276  27.605  1.00  0.00    -0.350 N 
ATOM      4  H8  UNL     1      -0.760  52.821  27.146  1.00  0.00     0.163 HD
ENDROOT
BRANCH   1   5
HETATM    5  C5  UNL     1       0.007  55.138  28.322  1.00  0.00     0.204 C 
HETATM    6  C1  UNL     1       0.052  56.270  27.395  1.00  0.00     0.131 C 
HETATM    7  N1  UNL     1      -1.006  56.630  26.789  1.00  0.00    -0.385 N 
HETATM    8  N2  UNL     1       1.223  57.084  27.066  1.00  0.00    -0.286 N 
ATOM      9  H12 UNL     1      -0.973  57.418  26.143  1.00  0.00     0.157 HD
ATOM     10  H11 UNL     1      -1.821  56.063  27.018  1.00  0.00     0.157 HD
HETATM   11  N3  UNL     1       2.218  57.347  28.046  1.00  0.00    -0.288 N 
ATOM     12  H2  UNL     1       1.325  57.466  26.126  1.00  0.00     0.188 HD
HETATM   13  C2  UNL     1       2.168  57.057  29.468  1.00  0.00     0.132 C 
ATOM     14  H3  UNL     1       3.071  57.795  27.709  1.00  0.00     0.188 HD
HETATM   15  S1  UNL     1       3.495  57.198  30.349  1.00  0.00    -0.058 SA
HETATM   16  C3  UNL     1       0.865  56.630  30.092  1.00  0.00     0.152 C 
HETATM   17  N4  UNL     1       0.429  55.395  29.640  1.00  0.00    -0.258 N 
HETATM   18  N5  UNL     1       0.783  54.289  30.388  1.00  0.00    -0.009 NA
HETATM   19  N6  UNL     1       1.899  53.619  29.887  1.00  0.00    -0.017 NA
HETATM   20  N7  UNL     1       2.175  53.981  28.563  1.00  0.00    -0.125 NA
HETATM   21  C4  UNL     1       0.969  54.067  27.768  1.00  0.00     0.183 C 
ENDBRANCH   1   5
BRANCH   3  22
HETATM   22  C7  UNL     1      -2.827  52.653  27.543  1.00  0.00     0.225 C 
BRANCH  22  23
HETATM   23  C8  UNL     1      -2.839  51.236  27.042  1.00  0.00     0.238 C 
HETATM   24  O2  UNL     1      -2.168  50.392  27.738  1.00  0.00    -0.271 OA
HETATM   25  N9  UNL     1      -3.508  50.790  25.907  1.00  0.00    -0.337 N 
ATOM     26  H9  UNL     1      -3.982  51.542  25.408  1.00  0.00     0.167 HD
BRANCH  25  27
HETATM   27  C9  UNL     1      -3.678  49.542  25.293  1.00  0.00     0.096 C 
BRANCH  27  28
HETATM   28  C10 UNL     1      -4.506  49.361  24.077  1.00  0.00     0.224 C 
HETATM   29  C11 UNL     1      -4.081  48.313  23.156  1.00  0.00     0.038 C 
HETATM   30  C12 UNL     1      -4.730  48.462  21.761  1.00  0.00     0.002 C 
HETATM   31  C13 UNL     1      -4.173  49.674  21.074  1.00  0.00     0.002 C 
HETATM   32  C14 UNL     1      -5.212  50.766  21.155  1.00  0.00     0.027 C 
HETATM   33  C15 UNL     1      -5.745  50.790  22.571  1.00  0.00     0.233 C 
HETATM   34  N10 UNL     1      -4.645  50.677  23.464  1.00  0.00    -0.066 N 
ATOM     35 2H10 UNL     1      -4.690  51.402  24.180  1.00  0.00     0.278 HD
ATOM     36 1H10 UNL     1      -3.778  50.947  22.999  1.00  0.00     0.278 HD
ENDBRANCH  27  28
ENDBRANCH  25  27
ENDBRANCH  22  23
ENDBRANCH   3  22
TORSDOF 5
ENDMDL
MODEL 4
REMARK VINA RESULT: -6.011039242      1.642      2.331
REMARK  5 active torsions:
REMARK  status: ('A' for Active; 'I' for Inactive)
REMARK    1  A    between atoms: C5_17  and  C6_18 
REMARK       I    between atoms: C6_18  and  N8_20 
REMARK    2  A    between atoms: N8_20  and  C7_22 
REMARK    3  A    between atoms: C7_22  and  C8_23 
REMARK       I    between atoms: C8_23  and  N9_25 
REMARK    4  A    between atoms: N9_25  and  C9_27 
REMARK    5  A    between atoms: C9_27  and  C10_28 
ROOT
HETATM    1  C6  UNL     1      -0.762  55.167  27.818  1.00  0.00     0.257 C 
HETATM    2  O1  UNL     1       0.264  54.507  27.541  1.00  0.00    -0.270 OA
HETATM    3  N8  UNL     1      -1.975  54.482  28.088  1.00  0.00    -0.350 N 
ATOM      4  H8  UNL     1      -2.808  55.028  28.305  1.00  0.00     0.163 HD
ENDROOT
BRANCH   1   5
HETATM    5  C5  UNL     1      -0.681  56.644  27.856  1.00  0.00     0.204 C 
HETATM    6  C1  UNL     1      -0.095  57.081  29.124  1.00  0.00     0.131 C 
HETATM    7  N1  UNL     1       0.352  56.215  29.942  1.00  0.00    -0.385 N 
HETATM    8  N2  UNL     1       0.054  58.459  29.589  1.00  0.00    -0.286 N 
ATOM      9  H12 UNL     1       0.760  56.520  30.825  1.00  0.00     0.157 HD
ATOM     10  H11 UNL     1       0.248  55.255  29.617  1.00  0.00     0.157 HD
HETATM   11  N3  UNL     1       0.305  59.511  28.666  1.00  0.00    -0.288 N 
ATOM     12  H2  UNL     1      -0.022  58.668  30.585  1.00  0.00     0.188 HD
HETATM   13  C2  UNL     1       0.628  59.399  27.255  1.00  0.00     0.132 C 
ATOM     14  H3  UNL     1       0.252  60.459  29.041  1.00  0.00     0.188 HD
HETATM   15  S1  UNL     1       0.620  60.709  26.337  1.00  0.00    -0.058 SA
HETATM   16  C3  UNL     1       0.970  58.050  26.677  1.00  0.00     0.152 C 
HETATM   17  N4  UNL     1      -0.100  57.172  26.687  1.00  0.00    -0.258 N 
HETATM   18  N5  UNL     1      -0.876  57.110  25.546  1.00  0.00    -0.009 NA
HETATM   19  N6  UNL     1      -2.037  57.879  25.626  1.00  0.00    -0.017 NA
HETATM   20  N7  UNL     1      -2.341  58.231  26.947  1.00  0.00    -0.125 NA
HETATM   21  C4  UNL     1      -2.149  57.119  27.854  1.00  0.00     0.183 C 
ENDBRANCH   1   5
BRANCH   3  22
HETATM   22  C7  UNL     1      -2.074  53.063  28.068  1.00  0.00     0.225 C 
BRANCH  22  23
HETATM   23  C8  UNL     1      -2.861  52.479  26.928  1.00  0.00     0.238 C 
HETATM   24  O2  UNL     1      -3.275  53.316  26.049  1.00  0.00    -0.271 OA
HETATM   25  N9  UNL     1      -3.163  51.130  26.768  1.00  0.00    -0.337 N 
ATOM     26  H9  UNL     1      -2.818  50.555  27.535  1.00  0.00     0.167 HD
BRANCH  25  27
HETATM   27  C9  UNL     1      -3.836  50.384  25.791  1.00  0.00     0.096 C 
BRANCH  27  28
HETATM   28  C10 UNL     1      -4.691  51.015  24.759  1.00  0.00     0.224 C 
HETATM   29  C11 UNL     1      -6.074  51.283  25.141  1.00  0.00     0.038 C 
HETATM   30  C12 UNL     1      -6.978  51.550  23.917  1.00  0.00     0.002 C 
HETATM   31  C13 UNL     1      -7.150  50.281  23.133  1.00  0.00     0.002 C 
HETATM   32  C14 UNL     1      -6.270  50.374  21.911  1.00  0.00     0.027 C 
HETATM   33  C15 UNL     1      -4.920  50.895  22.355  1.00  0.00     0.233 C 
HETATM   34  N10 UNL     1      -4.550  50.215  23.548  1.00  0.00    -0.066 N 
ATOM     35 2H10 UNL     1      -3.601  49.849  23.471  1.00  0.00     0.278 HD
ATOM     36 1H10 UNL     1      -5.066  49.341  23.635  1.00  0.00     0.278 HD
ENDBRANCH  27  28
ENDBRANCH  25  27
ENDBRANCH  22  23
ENDBRANCH   3  22
TORSDOF 5
ENDMDL
MODEL 5
REMARK VINA RESULT: -5.917347422      1.936      3.164
REMARK  5 active torsions:
REMARK  status: ('A' for Active; 'I' for Inactive)
REMARK    1  A    between atoms: C5_17  and  C6_18 
REMARK       I    between atoms: C6_18  and  N8_20 
REMARK    2  A    between atoms: N8_20  and  C7_22 
REMARK    3  A    between atoms: C7_22  and  C8_23 
REMARK       I    between atoms: C8_23  and  N9_25 
REMARK    4  A    between atoms: N9_25  and  C9_27 
REMARK    5  A    between atoms: C9_27  and  C10_28 
ROOT
HETATM    1  C6  UNL     1      -1.839  54.657  27.948  1.00  0.00     0.257 C 
HETATM    2  O1  UNL     1      -2.147  55.293  26.915  1.00  0.00    -0.270 OA
HETATM    3  N8  UNL     1      -2.508  53.440  28.238  1.00  0.00    -0.350 N 
ATOM      4  H8  UNL     1      -2.256  52.933  29.086  1.00  0.00     0.163 HD
ENDROOT
BRANCH   1   5
HETATM    5  C5  UNL     1      -0.784  55.194  28.836  1.00  0.00     0.204 C 
HETATM    6  C1  UNL     1      -1.215  56.469  29.411  1.00  0.00     0.131 C 
HETATM    7  N1  UNL     1      -2.396  56.889  29.196  1.00  0.00    -0.385 N 
HETATM    8  N2  UNL     1      -0.418  57.364  30.249  1.00  0.00    -0.286 N 
ATOM      9  H12 UNL     1      -2.696  57.778  29.597  1.00  0.00     0.157 HD
ATOM     10  H11 UNL     1      -2.952  56.265  28.612  1.00  0.00     0.157 HD
HETATM   11  N3  UNL     1       0.546  56.841  31.153  1.00  0.00    -0.288 N 
ATOM     12  H2  UNL     1      -0.555  58.373  30.185  1.00  0.00     0.188 HD
HETATM   13  C2  UNL     1       0.759  55.452  31.522  1.00  0.00     0.132 C 
ATOM     14  H3  UNL     1       1.163  57.523  31.595  1.00  0.00     0.188 HD
HETATM   15  S1  UNL     1       2.062  55.049  32.357  1.00  0.00    -0.058 SA
HETATM   16  C3  UNL     1      -0.254  54.413  31.117  1.00  0.00     0.152 C 
HETATM   17  N4  UNL     1      -0.317  54.227  29.747  1.00  0.00    -0.258 N 
HETATM   18  N5  UNL     1       0.460  53.219  29.211  1.00  0.00    -0.009 NA
HETATM   19  N6  UNL     1       1.666  53.675  28.679  1.00  0.00    -0.017 NA
HETATM   20  N7  UNL     1       1.654  55.059  28.470  1.00  0.00    -0.125 NA
HETATM   21  C4  UNL     1       0.401  55.503  27.898  1.00  0.00     0.183 C 
ENDBRANCH   1   5
BRANCH   3  22
HETATM   22  C7  UNL     1      -3.517  52.901  27.393  1.00  0.00     0.225 C 
BRANCH  22  23
HETATM   23  C8  UNL     1      -3.105  51.726  26.550  1.00  0.00     0.238 C 
HETATM   24  O2  UNL     1      -1.844  51.591  26.360  1.00  0.00    -0.271 OA
HETATM   25  N9  UNL     1      -3.975  50.803  25.977  1.00  0.00    -0.337 N 
ATOM     26  H9  UNL     1      -4.954  51.018  26.161  1.00  0.00     0.167 HD
BRANCH  25  27
HETATM   27  C9  UNL     1      -3.809  49.645  25.206  1.00  0.00     0.096 C 
BRANCH  27  28
HETATM   28  C10 UNL     1      -4.585  49.400  23.967  1.00  0.00     0.224 C 
HETATM   29  C11 UNL     1      -4.095  48.334  23.099  1.00  0.00     0.038 C 
HETATM   30  C12 UNL     1      -4.694  48.417  21.677  1.00  0.00     0.002 C 
HETATM   31  C13 UNL     1      -4.146  49.622  20.970  1.00  0.00     0.002 C 
HETATM   32  C14 UNL     1      -5.218  50.684  20.973  1.00  0.00     0.027 C 
HETATM   33  C15 UNL     1      -5.806  50.740  22.367  1.00  0.00     0.233 C 
HETATM   34  N10 UNL     1      -4.737  50.690  23.304  1.00  0.00    -0.066 N 
ATOM     35 2H10 UNL     1      -4.830  51.437  23.992  1.00  0.00     0.278 HD
ATOM     36 1H10 UNL     1      -3.862  50.970  22.863  1.00  0.00     0.278 HD
ENDBRANCH  27  28
ENDBRANCH  25  27
ENDBRANCH  22  23
ENDBRANCH   3  22
TORSDOF 5
ENDMDL
