MODEL 1
REMARK VINA RESULT: -6.331263060      0.000      0.000
REMARK  12 active torsions:
REMARK  status: ('A' for Active; 'I' for Inactive)
REMARK    1  A    between atoms: N1_2  and  N2_4 
REMARK    2  A    between atoms: C2_6  and  C3_7 
REMARK    3  A    between atoms: C2_6  and  N9_32 
REMARK    4  A    between atoms: C3_7  and  C4_8 
REMARK    5  A    between atoms: C4_8  and  C5_9 
REMARK    6  A    between atoms: C5_9  and  N3_10 
REMARK    7  A    between atoms: C5_9  and  C6_14 
REMARK       I    between atoms: C6_14  and  N4_16 
REMARK    8  A    between atoms: N4_16  and  C7_18 
REMARK    9  A    between atoms: C7_18  and  C8_19 
REMARK   10  A    between atoms: C10_22  and  N5_23 
REMARK       I    between atoms: N5_23  and  C11_25 
REMARK   11  A    between atoms: N9_32  and  C12_34 
REMARK   12  A    between atoms: C13_37  and  N11_38 
ROOT
HETATM    1  C5  UNL     1      -3.860  50.835  26.165  1.00  0.00     0.275 C 
ENDROOT
BRANCH   1   2
HETATM    2  C4  UNL     1      -4.627  51.267  24.928  1.00  0.00     0.050 C 
BRANCH   2   3
HETATM    3  C3  UNL     1      -5.961  50.555  24.942  1.00  0.00     0.080 C 
BRANCH   3   4
HETATM    4  C2  UNL     1      -6.899  51.080  23.950  1.00  0.00     0.097 C 
HETATM    5  N2  UNL     1      -7.524  52.179  24.185  1.00  0.00    -0.290 N 
ATOM      6  H2  UNL     1      -8.174  52.527  23.481  1.00  0.00     0.188 HD
BRANCH   5   7
HETATM    7  N1  UNL     1      -7.358  52.917  25.352  1.00  0.00    -0.321 N 
HETATM    8  C1  UNL     1      -8.262  53.755  25.691  1.00  0.00     0.139 C 
ATOM      9  H1  UNL     1      -6.527  52.791  25.931  1.00  0.00     0.185 HD
ENDBRANCH   5   7
BRANCH   4  10
HETATM   10  N9  UNL     1      -7.151  50.412  22.723  1.00  0.00    -0.335 N 
ATOM     11  H9  UNL     1      -8.123  50.277  22.444  1.00  0.00     0.168 HD
BRANCH  10  12
HETATM   12  C12 UNL     1      -6.141  49.922  21.865  1.00  0.00     0.082 C 
HETATM   13  N10 UNL     1      -5.753  48.693  21.868  1.00  0.00    -0.337 N 
HETATM   14  C13 UNL     1      -4.704  48.262  20.951  1.00  0.00     0.383 C 
ATOM     15  H10 UNL     1      -6.178  48.024  22.510  1.00  0.00     0.164 HD
HETATM   16  N12 UNL     1      -4.813  48.838  19.651  1.00  0.00    -0.380 N 
HETATM   17  C14 UNL     1      -5.126  50.229  19.610  1.00  0.00     0.125 C 
ATOM     18  H12 UNL     1      -4.676  48.290  18.803  1.00  0.00     0.157 HD
HETATM   19  C15 UNL     1      -5.492  50.846  20.917  1.00  0.00     0.095 C 
BRANCH  14  20
HETATM   20  N11 UNL     1      -3.394  48.402  21.547  1.00  0.00    -0.041 N 
ATOM     21 3H11 UNL     1      -3.115  49.381  21.611  1.00  0.00     0.279 HD
ATOM     22 2H11 UNL     1      -3.410  48.178  22.543  1.00  0.00     0.279 HD
ATOM     23 1H11 UNL     1      -2.698  47.846  21.050  1.00  0.00     0.279 HD
ENDBRANCH  14  20
ENDBRANCH  10  12
ENDBRANCH   4  10
ENDBRANCH   3   4
ENDBRANCH   2   3
ENDBRANCH   1   2
BRANCH   1  24
HETATM   24  N3  UNL     1      -2.510  50.460  25.823  1.00  0.00    -0.066 N 
ATOM     25  H33 UNL     1      -2.318  49.486  26.057  1.00  0.00     0.275 HD
ATOM     26  H32 UNL     1      -2.378  50.403  24.814  1.00  0.00     0.275 HD
ATOM     27  H31 UNL     1      -1.839  51.093  26.258  1.00  0.00     0.275 HD
ENDBRANCH   1  24
BRANCH   1  28
HETATM   28  C6  UNL     1      -3.869  51.901  27.203  1.00  0.00     0.248 C 
HETATM   29  O1  UNL     1      -4.953  52.515  27.369  1.00  0.00    -0.271 OA
HETATM   30  N4  UNL     1      -2.685  52.152  27.925  1.00  0.00    -0.354 N 
ATOM     31  H4  UNL     1      -1.870  51.583  27.700  1.00  0.00     0.162 HD
BRANCH  30  32
HETATM   32  C7  UNL     1      -2.532  53.150  28.957  1.00  0.00     0.180 C 
BRANCH  32  33
HETATM   33  C8  UNL     1      -1.676  54.315  28.468  1.00  0.00     0.035 A 
HETATM   34  C9  UNL     1      -0.315  54.154  28.391  1.00  0.00     0.080 A 
HETATM   35  S1  UNL     1       0.191  55.677  27.809  1.00  0.00    -0.064 SA
HETATM   36  C10 UNL     1      -1.338  56.420  27.698  1.00  0.00     0.151 A 
HETATM   37  N8  UNL     1      -2.168  55.469  28.113  1.00  0.00    -0.338 N 
ATOM     38  H8  UNL     1      -3.173  55.638  28.152  1.00  0.00     0.168 HD
BRANCH  36  39
HETATM   39  N5  UNL     1      -1.666  57.632  27.306  1.00  0.00    -0.311 N 
HETATM   40  C11 UNL     1      -2.090  57.789  25.964  1.00  0.00     0.187 C 
HETATM   41  N6  UNL     1      -2.476  58.972  25.602  1.00  0.00    -0.373 N 
HETATM   42  N7  UNL     1      -2.117  56.751  25.011  1.00  0.00    -0.064 NA
ATOM     43  H62 UNL     1      -2.457  59.723  26.292  1.00  0.00     0.158 HD
ATOM     44  H61 UNL     1      -2.781  59.085  24.636  1.00  0.00     0.158 HD
ATOM     45  H5  UNL     1      -1.617  58.427  27.943  1.00  0.00     0.170 HD
ENDBRANCH  36  39
ENDBRANCH  32  33
ENDBRANCH  30  32
ENDBRANCH   1  28
TORSDOF 12
ENDMDL
MODEL 2
REMARK VINA RESULT: -6.152540689      1.431      1.877
REMARK  12 active torsions:
REMARK  status: ('A' for Active; 'I' for Inactive)
REMARK    1  A    between atoms: N1_2  and  N2_4 
REMARK    2  A    between atoms: C2_6  and  C3_7 
REMARK    3  A    between atoms: C2_6  and  N9_32 
REMARK    4  A    between atoms: C3_7  and  C4_8 
REMARK    5  A    between atoms: C4_8  and  C5_9 
REMARK    6  A    between atoms: C5_9  and  N3_10 
REMARK    7  A    between atoms: C5_9  and  C6_14 
REMARK       I    between atoms: C6_14  and  N4_16 
REMARK    8  A    between atoms: N4_16  and  C7_18 
REMARK    9  A    between atoms: C7_18  and  C8_19 
REMARK   10  A    between atoms: C10_22  and  N5_23 
REMARK       I    between atoms: N5_23  and  C11_25 
REMARK   11  A    between atoms: N9_32  and  C12_34 
REMARK   12  A    between atoms: C13_37  and  N11_38 
ROOT
HETATM    1  C5  UNL     1      -4.032  51.057  25.906  1.00  0.00     0.275 C 
ENDROOT
BRANCH   1   2
HETATM    2  C4  UNL     1      -4.423  52.339  25.193  1.00  0.00     0.050 C 
BRANCH   2   3
HETATM    3  C3  UNL     1      -5.866  52.635  25.542  1.00  0.00     0.080 C 
BRANCH   3   4
HETATM    4  C2  UNL     1      -6.805  51.693  24.933  1.00  0.00     0.097 C 
HETATM    5  N2  UNL     1      -7.480  50.896  25.682  1.00  0.00    -0.290 N 
ATOM      6  H2  UNL     1      -8.128  50.246  25.238  1.00  0.00     0.188 HD
BRANCH   5   7
HETATM    7  N1  UNL     1      -7.370  50.874  27.069  1.00  0.00    -0.321 N 
HETATM    8  C1  UNL     1      -7.045  49.783  27.649  1.00  0.00     0.139 C 
ATOM      9  H1  UNL     1      -7.547  51.717  27.615  1.00  0.00     0.185 HD
ENDBRANCH   5   7
BRANCH   4  10
HETATM   10  N9  UNL     1      -6.998  51.623  23.529  1.00  0.00    -0.335 N 
ATOM     11  H9  UNL     1      -7.652  52.279  23.103  1.00  0.00     0.168 HD
BRANCH  10  12
HETATM   12  C12 UNL     1      -6.341  50.700  22.684  1.00  0.00     0.082 C 
HETATM   13  N10 UNL     1      -5.359  51.029  21.916  1.00  0.00    -0.337 N 
HETATM   14  C13 UNL     1      -4.731  50.020  21.071  1.00  0.00     0.383 C 
ATOM     15  H10 UNL     1      -5.022  51.992  21.900  1.00  0.00     0.164 HD
HETATM   16  N12 UNL     1      -4.575  48.756  21.714  1.00  0.00    -0.380 N 
HETATM   17  C14 UNL     1      -5.690  48.304  22.479  1.00  0.00     0.125 C 
ATOM     18  H12 UNL     1      -3.718  48.210  21.632  1.00  0.00     0.157 HD
HETATM   19  C15 UNL     1      -6.787  49.295  22.666  1.00  0.00     0.095 C 
BRANCH  14  20
HETATM   20  N11 UNL     1      -5.372  49.944  19.777  1.00  0.00    -0.041 N 
ATOM     21 3H11 UNL     1      -5.268  49.018  19.361  1.00  0.00     0.279 HD
ATOM     22 2H11 UNL     1      -6.389  49.966  19.861  1.00  0.00     0.279 HD
ATOM     23 1H11 UNL     1      -5.034  50.676  19.151  1.00  0.00     0.279 HD
ENDBRANCH  14  20
ENDBRANCH  10  12
ENDBRANCH   4  10
ENDBRANCH   3   4
ENDBRANCH   2   3
ENDBRANCH   1   2
BRANCH   1  24
HETATM   24  N3  UNL     1      -3.606  50.057  24.958  1.00  0.00    -0.066 N 
ATOM     25  H33 UNL     1      -3.857  50.309  24.004  1.00  0.00     0.275 HD
ATOM     26  H32 UNL     1      -2.592  50.045  24.851  1.00  0.00     0.275 HD
ATOM     27  H31 UNL     1      -3.969  49.139  25.215  1.00  0.00     0.275 HD
ENDBRANCH   1  24
BRANCH   1  28
HETATM   28  C6  UNL     1      -2.975  51.309  26.924  1.00  0.00     0.248 C 
HETATM   29  O1  UNL     1      -2.132  50.392  27.096  1.00  0.00    -0.271 OA
HETATM   30  N4  UNL     1      -2.982  52.535  27.617  1.00  0.00    -0.354 N 
ATOM     31  H4  UNL     1      -3.719  53.200  27.384  1.00  0.00     0.162 HD
BRANCH  30  32
HETATM   32  C7  UNL     1      -2.031  52.927  28.631  1.00  0.00     0.180 C 
BRANCH  32  33
HETATM   33  C8  UNL     1      -1.309  54.211  28.234  1.00  0.00     0.035 A 
HETATM   34  C9  UNL     1       0.062  54.216  28.181  1.00  0.00     0.080 A 
HETATM   35  S1  UNL     1       0.396  55.820  27.705  1.00  0.00    -0.064 SA
HETATM   36  C10 UNL     1      -1.208  56.386  27.602  1.00  0.00     0.151 A 
HETATM   37  N8  UNL     1      -1.927  55.320  27.938  1.00  0.00    -0.338 N 
ATOM     38  H8  UNL     1      -2.946  55.368  27.963  1.00  0.00     0.168 HD
BRANCH  36  39
HETATM   39  N5  UNL     1      -1.670  57.574  27.276  1.00  0.00    -0.311 N 
HETATM   40  C11 UNL     1      -2.125  57.753  25.947  1.00  0.00     0.187 C 
HETATM   41  N6  UNL     1      -2.641  58.904  25.650  1.00  0.00    -0.373 N 
HETATM   42  N7  UNL     1      -2.052  56.768  24.941  1.00  0.00    -0.064 NA
ATOM     43  H62 UNL     1      -2.694  59.616  26.378  1.00  0.00     0.158 HD
ATOM     44  H61 UNL     1      -2.969  59.032  24.693  1.00  0.00     0.158 HD
ATOM     45  H5  UNL     1      -1.699  58.336  27.953  1.00  0.00     0.170 HD
ENDBRANCH  36  39
ENDBRANCH  32  33
ENDBRANCH  30  32
ENDBRANCH   1  28
TORSDOF 12
ENDMDL
MODEL 3
REMARK VINA RESULT: -6.046628124      1.165      1.611
REMARK  12 active torsions:
REMARK  status: ('A' for Active; 'I' for Inactive)
REMARK    1  A    between atoms: N1_2  and  N2_4 
REMARK    2  A    between atoms: C2_6  and  C3_7 
REMARK    3  A    between atoms: C2_6  and  N9_32 
REMARK    4  A    between atoms: C3_7  and  C4_8 
REMARK    5  A    between atoms: C4_8  and  C5_9 
REMARK    6  A    between atoms: C5_9  and  N3_10 
REMARK    7  A    between atoms: C5_9  and  C6_14 
REMARK       I    between atoms: C6_14  and  N4_16 
REMARK    8  A    between atoms: N4_16  and  C7_18 
REMARK    9  A    between atoms: C7_18  and  C8_19 
REMARK   10  A    between atoms: C10_22  and  N5_23 
REMARK       I    between atoms: N5_23  and  C11_25 
REMARK   11  A    between atoms: N9_32  and  C12_34 
REMARK   12  A    between atoms: C13_37  and  N11_38 
ROOT
HETATM    1  C5  UNL     1      -4.808  52.308  26.487  1.00  0.00     0.275 C 
ENDROOT
BRANCH   1   2
HETATM    2  C4  UNL     1      -5.086  51.194  25.494  1.00  0.00     0.050 C 
BRANCH   2   3
HETATM    3  C3  UNL     1      -5.475  51.837  24.180  1.00  0.00     0.080 C 
BRANCH   3   4
HETATM    4  C2  UNL     1      -6.816  51.459  23.735  1.00  0.00     0.097 C 
HETATM    5  N2  UNL     1      -7.822  52.190  24.061  1.00  0.00    -0.290 N 
ATOM      6  H2  UNL     1      -8.749  51.908  23.741  1.00  0.00     0.188 HD
BRANCH   5   7
HETATM    7  N1  UNL     1      -7.711  53.345  24.826  1.00  0.00    -0.321 N 
HETATM    8  C1  UNL     1      -8.565  53.561  25.753  1.00  0.00     0.139 C 
ATOM      9  H1  UNL     1      -6.959  54.012  24.651  1.00  0.00     0.185 HD
ENDBRANCH   5   7
BRANCH   4  10
HETATM   10  N9  UNL     1      -7.051  50.299  22.952  1.00  0.00    -0.335 N 
ATOM     11  H9  UNL     1      -8.015  49.980  22.850  1.00  0.00     0.168 HD
BRANCH  10  12
HETATM   12  C12 UNL     1      -6.037  49.559  22.306  1.00  0.00     0.082 C 
HETATM   13  N10 UNL     1      -5.591  49.856  21.133  1.00  0.00    -0.337 N 
HETATM   14  C13 UNL     1      -4.540  49.043  20.530  1.00  0.00     0.383 C 
ATOM     15  H10 UNL     1      -5.972  50.656  20.628  1.00  0.00     0.164 HD
HETATM   16  N12 UNL     1      -3.532  48.640  21.455  1.00  0.00    -0.380 N 
HETATM   17  C14 UNL     1      -3.996  48.192  22.727  1.00  0.00     0.125 C 
ATOM     18  H12 UNL     1      -2.540  48.670  21.221  1.00  0.00     0.157 HD
HETATM   19  C15 UNL     1      -5.450  48.391  22.989  1.00  0.00     0.095 C 
BRANCH  14  20
HETATM   20  N11 UNL     1      -5.095  47.956  19.755  1.00  0.00    -0.041 N 
ATOM     21 3H11 UNL     1      -5.549  47.264  20.353  1.00  0.00     0.279 HD
ATOM     22 2H11 UNL     1      -5.908  48.257  19.217  1.00  0.00     0.279 HD
ATOM     23 1H11 UNL     1      -4.388  47.527  19.157  1.00  0.00     0.279 HD
ENDBRANCH  14  20
ENDBRANCH  10  12
ENDBRANCH   4  10
ENDBRANCH   3   4
ENDBRANCH   2   3
ENDBRANCH   1   2
BRANCH   1  24
HETATM   24  N3  UNL     1      -5.688  52.207  27.626  1.00  0.00    -0.066 N 
ATOM     25  H33 UNL     1      -6.615  51.877  27.359  1.00  0.00     0.275 HD
ATOM     26  H32 UNL     1      -5.423  51.438  28.240  1.00  0.00     0.275 HD
ATOM     27  H31 UNL     1      -5.732  53.094  28.127  1.00  0.00     0.275 HD
ENDBRANCH   1  24
BRANCH   1  28
HETATM   28  C6  UNL     1      -3.383  52.304  26.915  1.00  0.00     0.248 C 
HETATM   29  O1  UNL     1      -2.580  51.666  26.187  1.00  0.00    -0.271 OA
HETATM   30  N4  UNL     1      -3.026  53.001  28.086  1.00  0.00    -0.354 N 
ATOM     31  H4  UNL     1      -3.771  53.483  28.589  1.00  0.00     0.162 HD
BRANCH  30  32
HETATM   32  C7  UNL     1      -1.692  53.089  28.632  1.00  0.00     0.180 C 
BRANCH  32  33
HETATM   33  C8  UNL     1      -1.027  54.405  28.238  1.00  0.00     0.035 A 
HETATM   34  C9  UNL     1       0.343  54.478  28.214  1.00  0.00     0.080 A 
HETATM   35  S1  UNL     1       0.606  56.093  27.729  1.00  0.00    -0.064 SA
HETATM   36  C10 UNL     1      -1.022  56.576  27.586  1.00  0.00     0.151 A 
HETATM   37  N8  UNL     1      -1.693  55.479  27.917  1.00  0.00    -0.338 N 
ATOM     38  H8  UNL     1      -2.714  55.476  27.920  1.00  0.00     0.168 HD
BRANCH  36  39
HETATM   39  N5  UNL     1      -1.536  57.736  27.237  1.00  0.00    -0.311 N 
HETATM   40  C11 UNL     1      -2.060  57.849  25.927  1.00  0.00     0.187 C 
HETATM   41  N6  UNL     1      -2.625  58.972  25.613  1.00  0.00    -0.373 N 
HETATM   42  N7  UNL     1      -2.005  56.827  24.957  1.00  0.00    -0.064 NA
ATOM     43  H62 UNL     1      -2.665  59.710  26.314  1.00  0.00     0.158 HD
ATOM     44  H61 UNL     1      -3.002  59.053  24.669  1.00  0.00     0.158 HD
ATOM     45  H5  UNL     1      -1.556  58.524  27.886  1.00  0.00     0.170 HD
ENDBRANCH  36  39
ENDBRANCH  32  33
ENDBRANCH  30  32
ENDBRANCH   1  28
TORSDOF 12
ENDMDL
MODEL 4
REMARK VINA RESULT: -5.890524451      1.502      1.973
REMARK  12 active torsions:
REMARK  status: ('A' for Active; 'I' for Inactive)
REMARK    1  A    between atoms: N1_2  and  N2_4 
REMARK    2  A    between atoms: C2_6  and  C3_7 
REMARK    3  A    between atoms: C2_6  and  N9_32 
REMARK    4  A    between atoms: C3_7  and  C4_8 
REMARK    5  A    between atoms: C4_8  and  C5_9 
REMARK    6  A    between atoms: C5_9  and  N3_10 
REMARK    7  A    between atoms: C5_9  and  C6_14 
REMARK       I    between atoms: C6_14  and  N4_16 
REMARK    8  A    between atoms: N4_16  and  C7_18 
REMARK    9  A    between atoms: C7_18  and  C8_19 
REMARK   10  A    between atoms: C10_22  and  N5_23 
REMARK       I    between atoms: N5_23  and  C11_25 
REMARK   11  A    between atoms: N9_32  and  C12_34 
REMARK   12  A    between atoms: C13_37  and  N11_38 
ROOT
HETATM    1  C5  UNL     1      -3.903  51.260  26.188  1.00  0.00     0.275 C 
ENDROOT
BRANCH   1   2
HETATM    2  C4  UNL     1      -4.774  51.530  24.974  1.00  0.00     0.050 C 
BRANCH   2   3
HETATM    3  C3  UNL     1      -6.201  51.192  25.349  1.00  0.00     0.080 C 
BRANCH   3   4
HETATM    4  C2  UNL     1      -7.155  51.483  24.280  1.00  0.00     0.097 C 
HETATM    5  N2  UNL     1      -7.809  52.590  24.296  1.00  0.00    -0.290 N 
ATOM      6  H2  UNL     1      -8.471  52.773  23.542  1.00  0.00     0.188 HD
BRANCH   5   7
HETATM    7  N1  UNL     1      -7.660  53.550  25.291  1.00  0.00    -0.321 N 
HETATM    8  C1  UNL     1      -8.704  54.049  25.835  1.00  0.00     0.139 C 
ATOM      9  H1  UNL     1      -6.731  53.853  25.582  1.00  0.00     0.185 HD
ENDBRANCH   5   7
BRANCH   4  10
HETATM   10  N9  UNL     1      -7.394  50.576  23.214  1.00  0.00    -0.335 N 
ATOM     11  H9  UNL     1      -8.356  50.285  23.040  1.00  0.00     0.168 HD
BRANCH  10  12
HETATM   12  C12 UNL     1      -6.383  50.052  22.378  1.00  0.00     0.082 C 
HETATM   13  N10 UNL     1      -5.754  50.765  21.506  1.00  0.00    -0.337 N 
HETATM   14  C13 UNL     1      -4.721  50.152  20.678  1.00  0.00     0.383 C 
ATOM     15  H10 UNL     1      -5.979  51.754  21.396  1.00  0.00     0.164 HD
HETATM   16  N12 UNL     1      -3.895  49.232  21.389  1.00  0.00    -0.380 N 
HETATM   17  C14 UNL     1      -4.570  48.345  22.278  1.00  0.00     0.125 C 
ATOM     18  H12 UNL     1      -2.882  49.210  21.269  1.00  0.00     0.157 HD
HETATM   19  C15 UNL     1      -6.018  48.628  22.494  1.00  0.00     0.095 C 
BRANCH  14  20
HETATM   20  N11 UNL     1      -5.276  49.618  19.454  1.00  0.00    -0.041 N 
ATOM     21 3H11 UNL     1      -5.620  48.667  19.583  1.00  0.00     0.279 HD
ATOM     22 2H11 UNL     1      -6.157  50.073  19.213  1.00  0.00     0.279 HD
ATOM     23 1H11 UNL     1      -4.605  49.673  18.688  1.00  0.00     0.279 HD
ENDBRANCH  14  20
ENDBRANCH  10  12
ENDBRANCH   4  10
ENDBRANCH   3   4
ENDBRANCH   2   3
ENDBRANCH   1   2
BRANCH   1  24
HETATM   24  N3  UNL     1      -2.732  50.505  25.817  1.00  0.00    -0.066 N 
ATOM     25  H33 UNL     1      -2.836  49.515  26.033  1.00  0.00     0.275 HD
ATOM     26  H32 UNL     1      -2.635  50.431  24.805  1.00  0.00     0.275 HD
ATOM     27  H31 UNL     1      -1.896  50.901  26.248  1.00  0.00     0.275 HD
ENDBRANCH   1  24
BRANCH   1  28
HETATM   28  C6  UNL     1      -3.525  52.527  26.871  1.00  0.00     0.248 C 
HETATM   29  O1  UNL     1      -3.369  53.536  26.137  1.00  0.00    -0.271 OA
HETATM   30  N4  UNL     1      -3.369  52.520  28.271  1.00  0.00    -0.354 N 
ATOM     31  H4  UNL     1      -3.527  51.637  28.756  1.00  0.00     0.162 HD
BRANCH  30  32
HETATM   32  C7  UNL     1      -3.004  53.662  29.076  1.00  0.00     0.180 C 
BRANCH  32  33
HETATM   33  C8  UNL     1      -1.510  53.953  28.964  1.00  0.00     0.035 A 
HETATM   34  C9  UNL     1      -0.646  53.353  29.846  1.00  0.00     0.080 A 
HETATM   35  S1  UNL     1       0.864  53.965  29.338  1.00  0.00    -0.064 SA
HETATM   36  C10 UNL     1       0.316  54.936  28.049  1.00  0.00     0.151 A 
HETATM   37  N8  UNL     1      -0.999  54.749  28.067  1.00  0.00    -0.338 N 
ATOM     38  H8  UNL     1      -1.599  55.219  27.389  1.00  0.00     0.168 HD
BRANCH  36  39
HETATM   39  N5  UNL     1       0.990  55.700  27.216  1.00  0.00    -0.311 N 
HETATM   40  C11 UNL     1       0.589  57.053  27.105  1.00  0.00     0.187 C 
HETATM   41  N6  UNL     1       1.297  57.816  26.334  1.00  0.00    -0.373 N 
HETATM   42  N7  UNL     1      -0.521  57.612  27.771  1.00  0.00    -0.064 NA
ATOM     43  H62 UNL     1       2.100  57.412  25.853  1.00  0.00     0.158 HD
ATOM     44  H61 UNL     1       1.008  58.791  26.254  1.00  0.00     0.158 HD
ATOM     45  H5  UNL     1       1.771  55.332  26.673  1.00  0.00     0.170 HD
ENDBRANCH  36  39
ENDBRANCH  32  33
ENDBRANCH  30  32
ENDBRANCH   1  28
TORSDOF 12
ENDMDL
MODEL 5
REMARK VINA RESULT: -5.824924167      2.494      2.724
REMARK  12 active torsions:
REMARK  status: ('A' for Active; 'I' for Inactive)
REMARK    1  A    between atoms: N1_2  and  N2_4 
REMARK    2  A    between atoms: C2_6  and  C3_7 
REMARK    3  A    between atoms: C2_6  and  N9_32 
REMARK    4  A    between atoms: C3_7  and  C4_8 
REMARK    5  A    between atoms: C4_8  and  C5_9 
REMARK    6  A    between atoms: C5_9  and  N3_10 
REMARK    7  A    between atoms: C5_9  and  C6_14 
REMARK       I    between atoms: C6_14  and  N4_16 
REMARK    8  A    between atoms: N4_16  and  C7_18 
REMARK    9  A    between atoms: C7_18  and  C8_19 
REMARK   10  A    between atoms: C10_22  and  N5_23 
REMARK       I    between atoms: N5_23  and  C11_25 
REMARK   11  A    between atoms: N9_32  and  C12_34 
REMARK   12  A    between atoms: C13_37  and  N11_38 
ROOT
HETATM    1  C5  UNL     1      -4.162  50.030  26.136  1.00  0.00     0.275 C 
ENDROOT
BRANCH   1   2
HETATM    2  C4  UNL     1      -5.595  50.212  25.667  1.00  0.00     0.050 C 
BRANCH   2   3
HETATM    3  C3  UNL     1      -5.593  51.275  24.590  1.00  0.00     0.080 C 
BRANCH   3   4
HETATM    4  C2  UNL     1      -6.848  51.328  23.841  1.00  0.00     0.097 C 
HETATM    5  N2  UNL     1      -7.751  52.181  24.175  1.00  0.00    -0.290 N 
ATOM      6  H2  UNL     1      -8.620  52.201  23.640  1.00  0.00     0.188 HD
BRANCH   5   7
HETATM    7  N1  UNL     1      -7.604  53.076  25.228  1.00  0.00    -0.321 N 
HETATM    8  C1  UNL     1      -8.486  53.986  25.398  1.00  0.00     0.139 C 
ATOM      9  H1  UNL     1      -6.803  53.009  25.857  1.00  0.00     0.185 HD
ENDBRANCH   5   7
BRANCH   4  10
HETATM   10  N9  UNL     1      -7.112  50.462  22.748  1.00  0.00    -0.335 N 
ATOM     11  H9  UNL     1      -8.081  50.195  22.573  1.00  0.00     0.168 HD
BRANCH  10  12
HETATM   12  C12 UNL     1      -6.117  49.945  21.888  1.00  0.00     0.082 C 
HETATM   13  N10 UNL     1      -5.749  48.709  21.905  1.00  0.00    -0.337 N 
HETATM   14  C13 UNL     1      -4.715  48.249  20.985  1.00  0.00     0.383 C 
ATOM     15  H10 UNL     1      -6.180  48.056  22.559  1.00  0.00     0.164 HD
HETATM   16  N12 UNL     1      -4.825  48.811  19.678  1.00  0.00    -0.380 N 
HETATM   17  C14 UNL     1      -5.116  50.206  19.621  1.00  0.00     0.125 C 
ATOM     18  H12 UNL     1      -4.703  48.249  18.836  1.00  0.00     0.157 HD
HETATM   19  C15 UNL     1      -5.461  50.845  20.923  1.00  0.00     0.095 C 
BRANCH  14  20
HETATM   20  N11 UNL     1      -3.398  48.376  21.569  1.00  0.00    -0.041 N 
ATOM     21 3H11 UNL     1      -2.712  47.807  21.072  1.00  0.00     0.279 HD
ATOM     22 2H11 UNL     1      -2.996  49.297  21.390  1.00  0.00     0.279 HD
ATOM     23 1H11 UNL     1      -3.411  48.160  22.566  1.00  0.00     0.279 HD
ENDBRANCH  14  20
ENDBRANCH  10  12
ENDBRANCH   4  10
ENDBRANCH   3   4
ENDBRANCH   2   3
ENDBRANCH   1   2
BRANCH   1  24
HETATM   24  N3  UNL     1      -3.310  49.649  25.036  1.00  0.00    -0.066 N 
ATOM     25  H33 UNL     1      -2.366  49.426  25.349  1.00  0.00     0.275 HD
ATOM     26  H32 UNL     1      -3.566  48.737  24.659  1.00  0.00     0.275 HD
ATOM     27  H31 UNL     1      -3.309  50.370  24.314  1.00  0.00     0.275 HD
ENDBRANCH   1  24
BRANCH   1  28
HETATM   28  C6  UNL     1      -3.653  51.261  26.799  1.00  0.00     0.248 C 
HETATM   29  O1  UNL     1      -2.693  51.847  26.237  1.00  0.00    -0.271 OA
HETATM   30  N4  UNL     1      -4.267  51.689  27.993  1.00  0.00    -0.354 N 
ATOM     31  H4  UNL     1      -5.041  51.129  28.349  1.00  0.00     0.162 HD
BRANCH  30  32
HETATM   32  C7  UNL     1      -3.889  52.857  28.754  1.00  0.00     0.180 C 
BRANCH  32  33
HETATM   33  C8  UNL     1      -2.554  52.639  29.460  1.00  0.00     0.035 A 
HETATM   34  C9  UNL     1      -2.408  51.556  30.290  1.00  0.00     0.080 A 
HETATM   35  S1  UNL     1      -0.797  51.732  30.827  1.00  0.00    -0.064 SA
HETATM   36  C10 UNL     1      -0.407  53.155  29.975  1.00  0.00     0.151 A 
HETATM   37  N8  UNL     1      -1.528  53.432  29.319  1.00  0.00    -0.338 N 
ATOM     38  H8  UNL     1      -1.586  54.251  28.713  1.00  0.00     0.168 HD
BRANCH  36  39
HETATM   39  N5  UNL     1       0.713  53.846  29.944  1.00  0.00    -0.311 N 
HETATM   40  C11 UNL     1       1.226  54.196  28.672  1.00  0.00     0.187 C 
HETATM   41  N6  UNL     1       2.291  54.932  28.649  1.00  0.00    -0.373 N 
HETATM   42  N7  UNL     1       0.656  53.796  27.446  1.00  0.00    -0.064 NA
ATOM     43  H62 UNL     1       2.703  55.222  29.535  1.00  0.00     0.158 HD
ATOM     44  H61 UNL     1       2.661  55.184  27.732  1.00  0.00     0.158 HD
ATOM     45  H5  UNL     1       1.192  54.119  30.803  1.00  0.00     0.170 HD
ENDBRANCH  36  39
ENDBRANCH  32  33
ENDBRANCH  30  32
ENDBRANCH   1  28
TORSDOF 12
ENDMDL
