MODEL 1
REMARK VINA RESULT: -4.039569919      0.000      0.000
REMARK  1 active torsions:
REMARK  status: ('A' for Active; 'I' for Inactive)
REMARK    1  A    between atoms: C5_6  and  C6_7 
ROOT
HETATM    1  C1  UNL     1      29.877  15.259  14.938  1.00  0.00     0.054 C 
HETATM    2  C2  UNL     1      29.349  14.295  15.930  1.00  0.00     0.054 C 
HETATM    3  N1  UNL     1      28.847  14.594  17.042  1.00  0.00    -0.384 N 
HETATM    4  C3  UNL     1      28.286  13.883  18.142  1.00  0.00     0.125 C 
HETATM    5  C4  UNL     1      28.682  15.022  19.042  1.00  0.00     0.050 C 
HETATM    6  C5  UNL     1      28.592  15.805  17.756  1.00  0.00     0.122 C 
ENDROOT
BRANCH   6   7
HETATM    7  C6  UNL     1      27.233  16.371  17.569  1.00  0.00     0.078 C 
HETATM    8  N2  UNL     1      27.000  17.179  16.608  1.00  0.00    -0.409 N 
ATOM      9  H22 UNL     1      27.761  17.427  15.977  1.00  0.00     0.155 HD
ATOM     10  H21 UNL     1      26.066  17.568  16.479  1.00  0.00     0.155 HD
ENDBRANCH   6   7
TORSDOF 1
ENDMDL
MODEL 2
REMARK VINA RESULT: -3.580483686      1.783      2.904
REMARK  1 active torsions:
REMARK  status: ('A' for Active; 'I' for Inactive)
REMARK    1  A    between atoms: C5_6  and  C6_7 
ROOT
HETATM    1  C1  UNL     1      27.836  11.845  17.631  1.00  0.00     0.054 C 
HETATM    2  C2  UNL     1      28.893  12.546  16.867  1.00  0.00     0.054 C 
HETATM    3  N1  UNL     1      29.052  13.791  16.815  1.00  0.00    -0.384 N 
HETATM    4  C3  UNL     1      29.958  14.687  16.176  1.00  0.00     0.125 C 
HETATM    5  C4  UNL     1      28.886  15.743  16.203  1.00  0.00     0.050 C 
HETATM    6  C5  UNL     1      28.395  14.930  17.375  1.00  0.00     0.122 C 
ENDROOT
BRANCH   6   7
HETATM    7  C6  UNL     1      28.975  15.426  18.649  1.00  0.00     0.078 C 
HETATM    8  N2  UNL     1      28.592  14.933  19.764  1.00  0.00    -0.409 N 
ATOM      9  H22 UNL     1      27.886  14.198  19.761  1.00  0.00     0.155 HD
ATOM     10  H21 UNL     1      28.989  15.274  20.639  1.00  0.00     0.155 HD
ENDBRANCH   6   7
TORSDOF 1
ENDMDL
MODEL 3
REMARK VINA RESULT: -3.547541486      1.283      2.872
REMARK  1 active torsions:
REMARK  status: ('A' for Active; 'I' for Inactive)
REMARK    1  A    between atoms: C5_6  and  C6_7 
ROOT
HETATM    1  C1  UNL     1      27.086  17.136  16.508  1.00  0.00     0.054 C 
HETATM    2  C2  UNL     1      27.531  16.341  17.675  1.00  0.00     0.054 C 
HETATM    3  N1  UNL     1      28.195  15.276  17.622  1.00  0.00    -0.384 N 
HETATM    4  C3  UNL     1      28.731  14.349  18.563  1.00  0.00     0.125 C 
HETATM    5  C4  UNL     1      28.651  13.278  17.508  1.00  0.00     0.050 C 
HETATM    6  C5  UNL     1      28.744  14.465  16.581  1.00  0.00     0.122 C 
ENDROOT
BRANCH   6   7
HETATM    7  C6  UNL     1      30.157  14.760  16.233  1.00  0.00     0.078 C 
HETATM    8  N2  UNL     1      30.456  15.179  15.064  1.00  0.00    -0.409 N 
ATOM      9  H22 UNL     1      29.711  15.306  14.381  1.00  0.00     0.155 HD
ATOM     10  H21 UNL     1      31.427  15.382  14.825  1.00  0.00     0.155 HD
ENDBRANCH   6   7
TORSDOF 1
ENDMDL
MODEL 4
REMARK VINA RESULT: -3.467203285      1.639      2.052
REMARK  1 active torsions:
REMARK  status: ('A' for Active; 'I' for Inactive)
REMARK    1  A    between atoms: C5_6  and  C6_7 
ROOT
HETATM    1  C1  UNL     1      29.587  12.250  16.333  1.00  0.00     0.054 C 
HETATM    2  C2  UNL     1      28.625  12.889  17.259  1.00  0.00     0.054 C 
HETATM    3  N1  UNL     1      28.586  14.113  17.541  1.00  0.00    -0.384 N 
HETATM    4  C3  UNL     1      27.789  14.953  18.372  1.00  0.00     0.125 C 
HETATM    5  C4  UNL     1      28.955  15.898  18.483  1.00  0.00     0.050 C 
HETATM    6  C5  UNL     1      29.329  15.273  17.162  1.00  0.00     0.122 C 
ENDROOT
BRANCH   6   7
HETATM    7  C6  UNL     1      28.760  16.042  16.027  1.00  0.00     0.078 C 
HETATM    8  N2  UNL     1      29.518  16.455  15.086  1.00  0.00    -0.409 N 
ATOM      9  H22 UNL     1      30.515  16.247  15.130  1.00  0.00     0.155 HD
ATOM     10  H21 UNL     1      29.127  16.983  14.306  1.00  0.00     0.155 HD
ENDBRANCH   6   7
TORSDOF 1
ENDMDL
MODEL 5
REMARK VINA RESULT: -3.397397683      1.854      3.598
REMARK  1 active torsions:
REMARK  status: ('A' for Active; 'I' for Inactive)
REMARK    1  A    between atoms: C5_6  and  C6_7 
ROOT
HETATM    1  C1  UNL     1      28.157  12.014  19.695  1.00  0.00     0.054 C 
HETATM    2  C2  UNL     1      27.556  13.303  19.284  1.00  0.00     0.054 C 
HETATM    3  N1  UNL     1      28.082  14.137  18.505  1.00  0.00    -0.384 N 
HETATM    4  C3  UNL     1      27.727  15.408  17.967  1.00  0.00     0.125 C 
HETATM    5  C4  UNL     1      29.192  15.724  17.825  1.00  0.00     0.050 C 
HETATM    6  C5  UNL     1      29.305  14.221  17.770  1.00  0.00     0.122 C 
ENDROOT
BRANCH   6   7
HETATM    7  C6  UNL     1      29.232  13.730  16.371  1.00  0.00     0.078 C 
HETATM    8  N2  UNL     1      29.732  12.597  16.061  1.00  0.00    -0.409 N 
ATOM      9  H22 UNL     1      30.180  12.040  16.788  1.00  0.00     0.155 HD
ATOM     10  H21 UNL     1      29.683  12.260  15.099  1.00  0.00     0.155 HD
ENDBRANCH   6   7
TORSDOF 1
ENDMDL
