MODEL 1
REMARK VINA RESULT: -4.340877561      0.000      0.000
REMARK  0 active torsions:
REMARK  status: ('A' for Active; 'I' for Inactive)
ROOT
HETATM    1  C1  UNL     1      29.874  14.386  16.154  1.00  0.00     0.055 C 
HETATM    2  C2  UNL     1      29.189  15.726  15.932  1.00  0.00     0.236 C 
HETATM    3  N1  UNL     1      28.830  16.227  17.251  1.00  0.00    -0.051 N 
ATOM      4  H11 UNL     1      28.519  17.198  17.213  1.00  0.00     0.279 HD
ATOM      5  H12 UNL     1      29.650  16.351  17.844  1.00  0.00     0.279 HD
HETATM    6  C3  UNL     1      27.829  15.361  17.884  1.00  0.00     0.467 C 
HETATM    7  N2  UNL     1      28.418  14.086  18.115  1.00  0.00    -0.040 N 
HETATM    8  C4  UNL     1      28.978  13.511  16.945  1.00  0.00     0.241 C 
HETATM    9  C5  UNL     1      27.819  13.135  19.022  1.00  0.00     0.267 A 
HETATM   10  C6  UNL     1      28.997  13.898  19.415  1.00  0.00     0.267 A 
ENDROOT
TORSDOF 0
ENDMDL
MODEL 2
REMARK VINA RESULT: -4.066300922      1.196      1.970
REMARK  0 active torsions:
REMARK  status: ('A' for Active; 'I' for Inactive)
ROOT
HETATM    1  C1  UNL     1      28.487  16.084  16.298  1.00  0.00     0.055 C 
HETATM    2  C2  UNL     1      29.561  15.472  15.413  1.00  0.00     0.236 C 
HETATM    3  N1  UNL     1      29.557  14.042  15.690  1.00  0.00    -0.051 N 
ATOM      4  H11 UNL     1      30.127  13.527  15.019  1.00  0.00     0.279 HD
ATOM      5  H12 UNL     1      28.653  13.620  15.479  1.00  0.00     0.279 HD
HETATM    6  C3  UNL     1      29.971  13.776  17.072  1.00  0.00     0.467 C 
HETATM    7  N2  UNL     1      28.997  14.332  17.949  1.00  0.00    -0.040 N 
HETATM    8  C4  UNL     1      28.749  15.709  17.706  1.00  0.00     0.241 C 
HETATM    9  C5  UNL     1      28.932  13.948  19.339  1.00  0.00     0.267 A 
HETATM   10  C6  UNL     1      27.966  13.431  18.379  1.00  0.00     0.267 A 
ENDROOT
TORSDOF 0
ENDMDL
MODEL 3
REMARK VINA RESULT: -3.525219829      1.200      3.181
REMARK  0 active torsions:
REMARK  status: ('A' for Active; 'I' for Inactive)
ROOT
HETATM    1  C1  UNL     1      27.508  11.994  17.888  1.00  0.00     0.055 C 
HETATM    2  C2  UNL     1      27.563  12.069  19.406  1.00  0.00     0.236 C 
HETATM    3  N1  UNL     1      27.579  13.484  19.748  1.00  0.00    -0.051 N 
ATOM      4  H11 UNL     1      27.443  13.632  20.747  1.00  0.00     0.279 HD
ATOM      5  H12 UNL     1      26.746  13.964  19.406  1.00  0.00     0.279 HD
HETATM    6  C3  UNL     1      28.809  14.124  19.266  1.00  0.00     0.467 C 
HETATM    7  N2  UNL     1      28.812  14.080  17.843  1.00  0.00    -0.040 N 
HETATM    8  C4  UNL     1      28.636  12.771  17.325  1.00  0.00     0.241 C 
HETATM    9  C5  UNL     1      29.698  14.917  17.069  1.00  0.00     0.267 A 
HETATM   10  C6  UNL     1      28.282  15.242  17.188  1.00  0.00     0.267 A 
ENDROOT
TORSDOF 0
ENDMDL
MODEL 4
REMARK VINA RESULT: -3.406208018      1.122      2.993
REMARK  0 active torsions:
REMARK  status: ('A' for Active; 'I' for Inactive)
ROOT
HETATM    1  C1  UNL     1      28.316  12.942  17.562  1.00  0.00     0.055 C 
HETATM    2  C2  UNL     1      28.072  13.813  18.785  1.00  0.00     0.236 C 
HETATM    3  N1  UNL     1      27.896  15.172  18.294  1.00  0.00    -0.051 N 
ATOM      4  H11 UNL     1      27.558  15.797  19.026  1.00  0.00     0.279 HD
ATOM      5  H12 UNL     1      27.105  15.243  17.654  1.00  0.00     0.279 HD
HETATM    6  C3  UNL     1      29.134  15.671  17.684  1.00  0.00     0.467 C 
HETATM    7  N2  UNL     1      29.414  14.887  16.529  1.00  0.00    -0.040 N 
HETATM    8  C4  UNL     1      29.458  13.494  16.797  1.00  0.00     0.241 C 
HETATM    9  C5  UNL     1      30.354  15.334  15.528  1.00  0.00     0.267 A 
HETATM   10  C6  UNL     1      28.918  15.414  15.289  1.00  0.00     0.267 A 
ENDROOT
TORSDOF 0
ENDMDL
MODEL 5
REMARK VINA RESULT: -3.131516308      1.221      3.347
REMARK  0 active torsions:
REMARK  status: ('A' for Active; 'I' for Inactive)
ROOT
HETATM    1  C1  UNL     1      28.807  15.765  18.391  1.00  0.00     0.055 C 
HETATM    2  C2  UNL     1      28.690  14.310  18.819  1.00  0.00     0.236 C 
HETATM    3  N1  UNL     1      29.593  13.555  17.963  1.00  0.00    -0.051 N 
ATOM      4  H11 UNL     1      29.709  12.596  18.290  1.00  0.00     0.279 HD
ATOM      5  H12 UNL     1      30.559  13.869  18.062  1.00  0.00     0.279 HD
HETATM    6  C3  UNL     1      29.149  13.601  16.565  1.00  0.00     0.467 C 
HETATM    7  N2  UNL     1      29.237  14.948  16.109  1.00  0.00    -0.040 N 
HETATM    8  C4  UNL     1      28.537  15.864  16.938  1.00  0.00     0.241 C 
HETATM    9  C5  UNL     1      29.204  15.267  14.702  1.00  0.00     0.267 A 
HETATM   10  C6  UNL     1      30.458  15.296  15.442  1.00  0.00     0.267 A 
ENDROOT
TORSDOF 0
ENDMDL
