MODEL 1
REMARK VINA RESULT: -9.455760862      0.000      0.000
REMARK  12 active torsions:
REMARK  status: ('A' for Active; 'I' for Inactive)
REMARK    1  A    between atoms: C1_2  and  N2_4 
REMARK    2  A    between atoms: N2_4  and  N3_6 
REMARK    3  A    between atoms: N3_6  and  C2_7 
REMARK    4  A    between atoms: C2_7  and  C3_8 
REMARK    5  A    between atoms: C9_16  and  N5_17 
REMARK    6  A    between atoms: N5_17  and  C10_19 
REMARK    7  A    between atoms: C15_24  and  C16_25 
REMARK    8  A    between atoms: C19_28  and  S2_29 
REMARK    9  A    between atoms: S2_29  and  N6_32 
REMARK   10  A    between atoms: N6_32  and  C20_34 
REMARK   11  A    between atoms: C20_34  and  C21_35 
REMARK   12  A    between atoms: C21_35  and  N7_36 
ROOT
HETATM    1  C10 UNL     1      22.414   5.658  17.740  1.00  0.00     0.063 A 
HETATM    2  C11 UNL     1      23.759   5.485  17.439  1.00  0.00     0.032 A 
HETATM    3  C12 UNL     1      24.751   6.231  18.033  1.00  0.00     0.003 A 
HETATM    4  C13 UNL     1      24.422   7.187  18.961  1.00  0.00     0.016 A 
HETATM    5  C14 UNL     1      23.091   7.384  19.287  1.00  0.00     0.023 A 
HETATM    6  C15 UNL     1      22.450   8.227  20.167  1.00  0.00     0.070 A 
HETATM    7  N8  UNL     1      21.134   7.939  20.055  1.00  0.00    -0.299 N 
ATOM      8  H8  UNL     1      20.405   8.407  20.594  1.00  0.00     0.187 HD
HETATM    9  N9  UNL     1      20.895   6.994  19.181  1.00  0.00    -0.297 N 
ATOM     10  H9  UNL     1      19.988   6.607  18.922  1.00  0.00     0.187 HD
HETATM   11  C28 UNL     1      22.119   6.635  18.690  1.00  0.00     0.087 A 
ENDROOT
BRANCH   1  12
HETATM   12  N5  UNL     1      21.358   4.958  17.140  1.00  0.00    -0.339 N 
ATOM     13  H5  UNL     1      20.917   5.351  16.309  1.00  0.00     0.167 HD
BRANCH  12  14
HETATM   14  C9  UNL     1      20.922   3.824  17.609  1.00  0.00     0.121 A 
HETATM   15  C8  UNL     1      21.201   2.613  17.040  1.00  0.00     0.137 A 
HETATM   16  N4  UNL     1      20.732   1.463  17.571  1.00  0.00    -0.360 N 
HETATM   17  C7  UNL     1      19.975   1.511  18.677  1.00  0.00     0.060 A 
ATOM     18  H4  UNL     1      20.951   0.567  17.136  1.00  0.00     0.165 HD
HETATM   19  C6  UNL     1      19.532   0.352  19.272  1.00  0.00     0.032 A 
HETATM   20  C29 UNL     1      19.664   2.755  19.274  1.00  0.00     0.073 A 
HETATM   21  C5  UNL     1      18.799   0.344  20.425  1.00  0.00     0.003 A 
HETATM   22  C4  UNL     1      18.483   1.534  21.015  1.00  0.00     0.016 A 
HETATM   23  C3  UNL     1      18.926   2.746  20.413  1.00  0.00     0.024 A 
HETATM   24  N10 UNL     1      20.145   3.878  18.739  1.00  0.00    -0.339 N 
ATOM     25  H10 UNL     1      19.935   4.779  19.170  1.00  0.00     0.167 HD
BRANCH  23  26
HETATM   26  C2  UNL     1      18.283   3.965  20.966  1.00  0.00     0.222 C 
BRANCH  26  27
HETATM   27  N3  UNL     1      17.561   4.736  20.431  1.00  0.00    -0.336 NA
BRANCH  27  28
HETATM   28  N2  UNL     1      16.758   5.601  19.846  1.00  0.00    -0.212 N 
ATOM     29  H2  UNL     1      16.016   5.238  19.247  1.00  0.00     0.204 HD
BRANCH  28  30
HETATM   30  C1  UNL     1      16.867   7.034  20.004  1.00  0.00     0.210 C 
HETATM   31  N1  UNL     1      17.987   7.712  19.495  1.00  0.00    -0.068 NA
HETATM   32  S1  UNL     1      15.672   7.823  20.765  1.00  0.00    -0.042 SA
ENDBRANCH  28  30
ENDBRANCH  27  28
ENDBRANCH  26  27
ENDBRANCH  23  26
ENDBRANCH  12  14
ENDBRANCH   1  12
BRANCH   6  33
HETATM   33  C16 UNL     1      23.025   9.259  21.046  1.00  0.00    -0.007 A 
HETATM   34  C17 UNL     1      22.576   9.277  22.371  1.00  0.00     0.015 A 
HETATM   35  C18 UNL     1      23.045  10.206  23.272  1.00  0.00     0.026 A 
HETATM   36  C19 UNL     1      23.993  11.161  22.855  1.00  0.00     0.079 A 
HETATM   37  C26 UNL     1      24.405  11.112  21.564  1.00  0.00     0.026 A 
HETATM   38  C27 UNL     1      23.944  10.173  20.632  1.00  0.00     0.015 A 
BRANCH  36  39
HETATM   39  S2  UNL     1      24.524  12.273  24.027  1.00  0.00     0.258 S 
HETATM   40  O1  UNL     1      24.265  11.697  25.429  1.00  0.00    -0.201 OA
HETATM   41  O2  UNL     1      26.055  12.428  23.989  1.00  0.00    -0.201 OA
BRANCH  39  42
HETATM   42  N6  UNL     1      23.899  13.837  24.016  1.00  0.00    -0.314 N 
ATOM     43  H6  UNL     1      24.502  14.643  24.184  1.00  0.00     0.172 HD
BRANCH  42  44
HETATM   44  C20 UNL     1      22.505  14.007  23.767  1.00  0.00     0.152 C 
BRANCH  44  45
HETATM   45  C21 UNL     1      21.851  14.106  25.157  1.00  0.00     0.142 C 
BRANCH  45  46
HETATM   46  N7  UNL     1      20.911  13.087  25.310  1.00  0.00    -0.388 N 
HETATM   47  C22 UNL     1      20.190  12.578  24.224  1.00  0.00     0.084 C 
HETATM   48  C23 UNL     1      19.630  11.215  24.628  1.00  0.00     0.212 C 
HETATM   49  O3  UNL     1      18.822  11.301  25.735  1.00  0.00    -0.385 OA
HETATM   50  C24 UNL     1      19.369  11.970  26.800  1.00  0.00     0.187 C 
HETATM   51  C25 UNL     1      20.774  12.455  26.573  1.00  0.00     0.148 C 
ENDBRANCH  45  46
ENDBRANCH  44  45
ENDBRANCH  42  44
ENDBRANCH  39  42
ENDBRANCH  36  39
ENDBRANCH   6  33
TORSDOF 12
ENDMDL
MODEL 2
REMARK VINA RESULT: -9.399533979      5.966      9.560
REMARK  12 active torsions:
REMARK  status: ('A' for Active; 'I' for Inactive)
REMARK    1  A    between atoms: C1_2  and  N2_4 
REMARK    2  A    between atoms: N2_4  and  N3_6 
REMARK    3  A    between atoms: N3_6  and  C2_7 
REMARK    4  A    between atoms: C2_7  and  C3_8 
REMARK    5  A    between atoms: C9_16  and  N5_17 
REMARK    6  A    between atoms: N5_17  and  C10_19 
REMARK    7  A    between atoms: C15_24  and  C16_25 
REMARK    8  A    between atoms: C19_28  and  S2_29 
REMARK    9  A    between atoms: S2_29  and  N6_32 
REMARK   10  A    between atoms: N6_32  and  C20_34 
REMARK   11  A    between atoms: C20_34  and  C21_35 
REMARK   12  A    between atoms: C21_35  and  N7_36 
ROOT
HETATM    1  C10 UNL     1      18.527   5.895  19.623  1.00  0.00     0.063 A 
HETATM    2  C11 UNL     1      18.826   4.587  19.981  1.00  0.00     0.032 A 
HETATM    3  C12 UNL     1      18.170   3.930  20.996  1.00  0.00     0.003 A 
HETATM    4  C13 UNL     1      17.179   4.573  21.696  1.00  0.00     0.016 A 
HETATM    5  C14 UNL     1      16.853   5.877  21.363  1.00  0.00     0.023 A 
HETATM    6  C15 UNL     1      15.921   6.768  21.845  1.00  0.00     0.070 A 
HETATM    7  N8  UNL     1      16.066   7.886  21.100  1.00  0.00    -0.299 N 
ATOM      8  H8  UNL     1      15.502   8.727  21.227  1.00  0.00     0.187 HD
HETATM    9  N9  UNL     1      17.008   7.775  20.197  1.00  0.00    -0.297 N 
ATOM     10  H9  UNL     1      17.303   8.479  19.522  1.00  0.00     0.187 HD
HETATM   11  C28 UNL     1      17.512   6.513  20.352  1.00  0.00     0.087 A 
ENDROOT
BRANCH   1  12
HETATM   12  N5  UNL     1      19.185   6.628  18.627  1.00  0.00    -0.339 N 
ATOM     13  H5  UNL     1      18.663   7.337  18.111  1.00  0.00     0.167 HD
BRANCH  12  14
HETATM   14  C9  UNL     1      20.440   6.434  18.336  1.00  0.00     0.121 A 
HETATM   15  C8  UNL     1      20.867   5.577  17.362  1.00  0.00     0.137 A 
HETATM   16  N4  UNL     1      22.181   5.418  17.093  1.00  0.00    -0.360 N 
HETATM   17  C7  UNL     1      23.084   6.115  17.798  1.00  0.00     0.060 A 
ATOM     18  H4  UNL     1      22.483   4.776  16.361  1.00  0.00     0.165 HD
HETATM   19  C6  UNL     1      24.426   6.016  17.506  1.00  0.00     0.032 A 
HETATM   20  C29 UNL     1      22.664   6.998  18.819  1.00  0.00     0.073 A 
HETATM   21  C5  UNL     1      25.382   6.740  18.160  1.00  0.00     0.003 A 
HETATM   22  C4  UNL     1      24.998   7.595  19.154  1.00  0.00     0.016 A 
HETATM   23  C3  UNL     1      23.615   7.707  19.476  1.00  0.00     0.024 A 
HETATM   24  N10 UNL     1      21.361   7.147  19.063  1.00  0.00    -0.339 N 
ATOM     25  H10 UNL     1      21.049   7.791  19.789  1.00  0.00     0.167 HD
BRANCH  23  26
HETATM   26  C2  UNL     1      23.349   8.428  20.747  1.00  0.00     0.222 C 
BRANCH  26  27
HETATM   27  N3  UNL     1      22.511   8.224  21.559  1.00  0.00    -0.336 NA
BRANCH  27  28
HETATM   28  N2  UNL     1      21.578   8.010  22.464  1.00  0.00    -0.212 N 
ATOM     29  H2  UNL     1      21.859   7.599  23.355  1.00  0.00     0.204 HD
BRANCH  28  30
HETATM   30  C1  UNL     1      20.181   8.326  22.269  1.00  0.00     0.210 C 
HETATM   31  N1  UNL     1      19.745   8.844  21.038  1.00  0.00    -0.068 NA
HETATM   32  S1  UNL     1      19.148   8.057  23.489  1.00  0.00    -0.042 SA
ENDBRANCH  28  30
ENDBRANCH  27  28
ENDBRANCH  26  27
ENDBRANCH  23  26
ENDBRANCH  12  14
ENDBRANCH   1  12
BRANCH   6  33
HETATM   33  C16 UNL     1      14.965   6.599  22.952  1.00  0.00    -0.007 A 
HETATM   34  C17 UNL     1      13.732   6.017  22.634  1.00  0.00     0.015 A 
HETATM   35  C18 UNL     1      12.765   5.822  23.594  1.00  0.00     0.026 A 
HETATM   36  C19 UNL     1      13.016   6.216  24.923  1.00  0.00     0.079 A 
HETATM   37  C26 UNL     1      14.221   6.775  25.193  1.00  0.00     0.026 A 
HETATM   38  C27 UNL     1      15.221   6.980  24.232  1.00  0.00     0.015 A 
BRANCH  36  39
HETATM   39  S2  UNL     1      11.772   5.939  26.050  1.00  0.00     0.258 S 
HETATM   40  O1  UNL     1      12.266   6.316  27.456  1.00  0.00    -0.201 OA
HETATM   41  O2  UNL     1      10.594   6.904  25.821  1.00  0.00    -0.201 OA
BRANCH  39  42
HETATM   42  N6  UNL     1      11.096   4.401  26.163  1.00  0.00    -0.314 N 
ATOM     43  H6  UNL     1      10.540   4.016  25.399  1.00  0.00     0.172 HD
BRANCH  42  44
HETATM   44  C20 UNL     1      11.320   3.648  27.354  1.00  0.00     0.152 C 
BRANCH  44  45
HETATM   45  C21 UNL     1       9.937   3.514  28.017  1.00  0.00     0.142 C 
BRANCH  45  46
HETATM   46  N7  UNL     1       9.790   4.488  29.006  1.00  0.00    -0.388 N 
HETATM   47  C22 UNL     1       8.755   5.428  28.968  1.00  0.00     0.084 C 
HETATM   48  C23 UNL     1       8.596   6.010  30.371  1.00  0.00     0.212 C 
HETATM   49  O3  UNL     1       9.755   6.598  30.817  1.00  0.00    -0.385 OA
HETATM   50  C24 UNL     1      10.878   5.819  30.704  1.00  0.00     0.187 C 
HETATM   51  C25 UNL     1      10.628   4.444  30.150  1.00  0.00     0.148 C 
ENDBRANCH  45  46
ENDBRANCH  44  45
ENDBRANCH  42  44
ENDBRANCH  39  42
ENDBRANCH  36  39
ENDBRANCH   6  33
TORSDOF 12
ENDMDL
MODEL 3
REMARK VINA RESULT: -9.302310469      2.797      4.089
REMARK  12 active torsions:
REMARK  status: ('A' for Active; 'I' for Inactive)
REMARK    1  A    between atoms: C1_2  and  N2_4 
REMARK    2  A    between atoms: N2_4  and  N3_6 
REMARK    3  A    between atoms: N3_6  and  C2_7 
REMARK    4  A    between atoms: C2_7  and  C3_8 
REMARK    5  A    between atoms: C9_16  and  N5_17 
REMARK    6  A    between atoms: N5_17  and  C10_19 
REMARK    7  A    between atoms: C15_24  and  C16_25 
REMARK    8  A    between atoms: C19_28  and  S2_29 
REMARK    9  A    between atoms: S2_29  and  N6_32 
REMARK   10  A    between atoms: N6_32  and  C20_34 
REMARK   11  A    between atoms: C20_34  and  C21_35 
REMARK   12  A    between atoms: C21_35  and  N7_36 
ROOT
HETATM    1  C10 UNL     1      22.440   5.555  17.694  1.00  0.00     0.063 A 
HETATM    2  C11 UNL     1      23.791   5.386  17.418  1.00  0.00     0.032 A 
HETATM    3  C12 UNL     1      24.769   6.140  18.026  1.00  0.00     0.003 A 
HETATM    4  C13 UNL     1      24.420   7.100  18.942  1.00  0.00     0.016 A 
HETATM    5  C14 UNL     1      23.082   7.293  19.243  1.00  0.00     0.023 A 
HETATM    6  C15 UNL     1      22.422   8.138  20.106  1.00  0.00     0.070 A 
HETATM    7  N8  UNL     1      21.109   7.844  19.972  1.00  0.00    -0.299 N 
ATOM      8  H8  UNL     1      20.368   8.312  20.496  1.00  0.00     0.187 HD
HETATM    9  N9  UNL     1      20.890   6.892  19.100  1.00  0.00    -0.297 N 
ATOM     10  H9  UNL     1      19.989   6.500  18.827  1.00  0.00     0.187 HD
HETATM   11  C28 UNL     1      22.124   6.536  18.633  1.00  0.00     0.087 A 
ENDROOT
BRANCH   1  12
HETATM   12  N5  UNL     1      21.399   4.847  17.079  1.00  0.00    -0.339 N 
ATOM     13  H5  UNL     1      20.984   5.223  16.227  1.00  0.00     0.167 HD
BRANCH  12  14
HETATM   14  C9  UNL     1      20.943   3.726  17.561  1.00  0.00     0.121 A 
HETATM   15  C8  UNL     1      21.188   2.506  16.997  1.00  0.00     0.137 A 
HETATM   16  N4  UNL     1      20.699   1.370  17.541  1.00  0.00    -0.360 N 
HETATM   17  C7  UNL     1      19.956   1.443  18.654  1.00  0.00     0.060 A 
ATOM     18  H4  UNL     1      20.894   0.467  17.109  1.00  0.00     0.165 HD
HETATM   19  C6  UNL     1      19.493   0.297  19.262  1.00  0.00     0.032 A 
HETATM   20  C29 UNL     1      19.679   2.697  19.246  1.00  0.00     0.073 A 
HETATM   21  C5  UNL     1      18.774   0.313  20.423  1.00  0.00     0.003 A 
HETATM   22  C4  UNL     1      18.491   1.514  21.008  1.00  0.00     0.016 A 
HETATM   23  C3  UNL     1      18.954   2.712  20.393  1.00  0.00     0.024 A 
HETATM   24  N10 UNL     1      20.179   3.805  18.699  1.00  0.00    -0.339 N 
ATOM     25  H10 UNL     1      19.995   4.713  19.126  1.00  0.00     0.167 HD
BRANCH  23  26
HETATM   26  C2  UNL     1      18.345   3.948  20.945  1.00  0.00     0.222 C 
BRANCH  26  27
HETATM   27  N3  UNL     1      17.593   4.704  20.429  1.00  0.00    -0.336 NA
BRANCH  27  28
HETATM   28  N2  UNL     1      16.756   5.552  19.866  1.00  0.00    -0.212 N 
ATOM     29  H2  UNL     1      15.975   5.171  19.332  1.00  0.00     0.204 HD
BRANCH  28  30
HETATM   30  C1  UNL     1      16.882   6.989  19.961  1.00  0.00     0.210 C 
HETATM   31  N1  UNL     1      18.021   7.629  19.445  1.00  0.00    -0.068 NA
HETATM   32  S1  UNL     1      15.683   7.827  20.661  1.00  0.00    -0.042 SA
ENDBRANCH  28  30
ENDBRANCH  27  28
ENDBRANCH  26  27
ENDBRANCH  23  26
ENDBRANCH  12  14
ENDBRANCH   1  12
BRANCH   6  33
HETATM   33  C16 UNL     1      22.977   9.178  20.989  1.00  0.00    -0.007 A 
HETATM   34  C17 UNL     1      22.492   9.211  22.302  1.00  0.00     0.015 A 
HETATM   35  C18 UNL     1      22.939  10.148  23.205  1.00  0.00     0.026 A 
HETATM   36  C19 UNL     1      23.902  11.096  22.803  1.00  0.00     0.079 A 
HETATM   37  C26 UNL     1      24.347  11.032  21.525  1.00  0.00     0.026 A 
HETATM   38  C27 UNL     1      23.908  10.084  20.590  1.00  0.00     0.015 A 
BRANCH  36  39
HETATM   39  S2  UNL     1      24.404  12.219  23.978  1.00  0.00     0.258 S 
HETATM   40  O1  UNL     1      23.513  13.469  23.901  1.00  0.00    -0.201 OA
HETATM   41  O2  UNL     1      24.141  11.687  25.399  1.00  0.00    -0.201 OA
BRANCH  39  42
HETATM   42  N6  UNL     1      26.002  12.753  23.971  1.00  0.00    -0.314 N 
ATOM     43  H6  UNL     1      26.386  13.243  23.163  1.00  0.00     0.172 HD
BRANCH  42  44
HETATM   44  C20 UNL     1      26.804  12.503  25.123  1.00  0.00     0.152 C 
BRANCH  44  45
HETATM   45  C21 UNL     1      28.253  12.448  24.606  1.00  0.00     0.142 C 
BRANCH  45  46
HETATM   46  N7  UNL     1      29.099  13.107  25.500  1.00  0.00    -0.388 N 
HETATM   47  C22 UNL     1      29.559  14.406  25.260  1.00  0.00     0.084 C 
HETATM   48  C23 UNL     1      30.043  14.987  26.587  1.00  0.00     0.212 C 
HETATM   49  O3  UNL     1      31.040  14.226  27.147  1.00  0.00    -0.385 OA
HETATM   50  C24 UNL     1      30.762  12.887  27.240  1.00  0.00     0.187 C 
HETATM   51  C25 UNL     1      29.395  12.500  26.748  1.00  0.00     0.148 C 
ENDBRANCH  45  46
ENDBRANCH  44  45
ENDBRANCH  42  44
ENDBRANCH  39  42
ENDBRANCH  36  39
ENDBRANCH   6  33
TORSDOF 12
ENDMDL
MODEL 4
REMARK VINA RESULT: -9.276516904      4.630      9.207
REMARK  12 active torsions:
REMARK  status: ('A' for Active; 'I' for Inactive)
REMARK    1  A    between atoms: C1_2  and  N2_4 
REMARK    2  A    between atoms: N2_4  and  N3_6 
REMARK    3  A    between atoms: N3_6  and  C2_7 
REMARK    4  A    between atoms: C2_7  and  C3_8 
REMARK    5  A    between atoms: C9_16  and  N5_17 
REMARK    6  A    between atoms: N5_17  and  C10_19 
REMARK    7  A    between atoms: C15_24  and  C16_25 
REMARK    8  A    between atoms: C19_28  and  S2_29 
REMARK    9  A    between atoms: S2_29  and  N6_32 
REMARK   10  A    between atoms: N6_32  and  C20_34 
REMARK   11  A    between atoms: C20_34  and  C21_35 
REMARK   12  A    between atoms: C21_35  and  N7_36 
ROOT
HETATM    1  C10 UNL     1      18.526   5.917  19.654  1.00  0.00     0.063 A 
HETATM    2  C11 UNL     1      18.822   4.600  19.983  1.00  0.00     0.032 A 
HETATM    3  C12 UNL     1      18.163   3.922  20.983  1.00  0.00     0.003 A 
HETATM    4  C13 UNL     1      17.171   4.551  21.694  1.00  0.00     0.016 A 
HETATM    5  C14 UNL     1      16.847   5.862  21.389  1.00  0.00     0.023 A 
HETATM    6  C15 UNL     1      15.915   6.744  21.888  1.00  0.00     0.070 A 
HETATM    7  N8  UNL     1      16.064   7.879  21.168  1.00  0.00    -0.299 N 
ATOM      8  H8  UNL     1      15.500   8.717  21.311  1.00  0.00     0.187 HD
HETATM    9  N9  UNL     1      17.008   7.785  20.265  1.00  0.00    -0.297 N 
ATOM     10  H9  UNL     1      17.305   8.504  19.606  1.00  0.00     0.187 HD
HETATM   11  C28 UNL     1      17.510   6.520  20.393  1.00  0.00     0.087 A 
ENDROOT
BRANCH   1  12
HETATM   12  N5  UNL     1      19.187   6.670  18.675  1.00  0.00    -0.339 N 
ATOM     13  H5  UNL     1      18.671   7.399  18.182  1.00  0.00     0.167 HD
BRANCH  12  14
HETATM   14  C9  UNL     1      20.439   6.471  18.373  1.00  0.00     0.121 A 
HETATM   15  C8  UNL     1      20.852   5.624  17.384  1.00  0.00     0.137 A 
HETATM   16  N4  UNL     1      22.163   5.460  17.103  1.00  0.00    -0.360 N 
HETATM   17  C7  UNL     1      23.077   6.138  17.812  1.00  0.00     0.060 A 
ATOM     18  H4  UNL     1      22.455   4.825  16.359  1.00  0.00     0.165 HD
HETATM   19  C6  UNL     1      24.415   6.034  17.509  1.00  0.00     0.032 A 
HETATM   20  C29 UNL     1      22.670   7.010  18.848  1.00  0.00     0.073 A 
HETATM   21  C5  UNL     1      25.381   6.741  18.167  1.00  0.00     0.003 A 
HETATM   22  C4  UNL     1      25.012   7.584  19.175  1.00  0.00     0.016 A 
HETATM   23  C3  UNL     1      23.632   7.702  19.509  1.00  0.00     0.024 A 
HETATM   24  N10 UNL     1      21.371   7.166  19.103  1.00  0.00    -0.339 N 
ATOM     25  H10 UNL     1      21.068   7.802  19.841  1.00  0.00     0.167 HD
BRANCH  23  26
HETATM   26  C2  UNL     1      23.380   8.407  20.792  1.00  0.00     0.222 C 
BRANCH  26  27
HETATM   27  N3  UNL     1      22.529   8.216  21.593  1.00  0.00    -0.336 NA
BRANCH  27  28
HETATM   28  N2  UNL     1      21.591   8.003  22.493  1.00  0.00    -0.212 N 
ATOM     29  H2  UNL     1      21.864   7.579  23.380  1.00  0.00     0.204 HD
BRANCH  28  30
HETATM   30  C1  UNL     1      20.198   8.335  22.297  1.00  0.00     0.210 C 
HETATM   31  N1  UNL     1      19.772   8.876  21.073  1.00  0.00    -0.068 NA
HETATM   32  S1  UNL     1      19.157   8.059  23.510  1.00  0.00    -0.042 SA
ENDBRANCH  28  30
ENDBRANCH  27  28
ENDBRANCH  26  27
ENDBRANCH  23  26
ENDBRANCH  12  14
ENDBRANCH   1  12
BRANCH   6  33
HETATM   33  C16 UNL     1      14.956   6.553  22.989  1.00  0.00    -0.007 A 
HETATM   34  C17 UNL     1      13.655   6.179  22.631  1.00  0.00     0.015 A 
HETATM   35  C18 UNL     1      12.681   5.983  23.582  1.00  0.00     0.026 A 
HETATM   36  C19 UNL     1      12.994   6.162  24.944  1.00  0.00     0.079 A 
HETATM   37  C26 UNL     1      14.263   6.523  25.252  1.00  0.00     0.026 A 
HETATM   38  C27 UNL     1      15.272   6.725  24.300  1.00  0.00     0.015 A 
BRANCH  36  39
HETATM   39  S2  UNL     1      11.735   5.898  26.058  1.00  0.00     0.258 S 
HETATM   40  O1  UNL     1      12.239   6.206  27.477  1.00  0.00    -0.201 OA
HETATM   41  O2  UNL     1      10.599   6.918  25.860  1.00  0.00    -0.201 OA
BRANCH  39  42
HETATM   42  N6  UNL     1      10.996   4.385  26.117  1.00  0.00    -0.314 N 
ATOM     43  H6  UNL     1      10.231   4.153  25.485  1.00  0.00     0.172 HD
BRANCH  42  44
HETATM   44  C20 UNL     1      11.468   3.438  27.073  1.00  0.00     0.152 C 
BRANCH  44  45
HETATM   45  C21 UNL     1      11.952   2.233  26.248  1.00  0.00     0.142 C 
BRANCH  45  46
HETATM   46  N7  UNL     1      13.251   2.463  25.792  1.00  0.00    -0.388 N 
HETATM   47  C22 UNL     1      14.234   3.022  26.615  1.00  0.00     0.084 C 
HETATM   48  C23 UNL     1      15.597   2.709  26.001  1.00  0.00     0.212 C 
HETATM   49  O3  UNL     1      15.710   3.203  24.725  1.00  0.00    -0.385 OA
HETATM   50  C24 UNL     1      14.676   2.876  23.884  1.00  0.00     0.187 C 
HETATM   51  C25 UNL     1      13.626   1.998  24.505  1.00  0.00     0.148 C 
ENDBRANCH  45  46
ENDBRANCH  44  45
ENDBRANCH  42  44
ENDBRANCH  39  42
ENDBRANCH  36  39
ENDBRANCH   6  33
TORSDOF 12
ENDMDL
MODEL 5
REMARK VINA RESULT: -9.274968936      6.260     10.011
REMARK  12 active torsions:
REMARK  status: ('A' for Active; 'I' for Inactive)
REMARK    1  A    between atoms: C1_2  and  N2_4 
REMARK    2  A    between atoms: N2_4  and  N3_6 
REMARK    3  A    between atoms: N3_6  and  C2_7 
REMARK    4  A    between atoms: C2_7  and  C3_8 
REMARK    5  A    between atoms: C9_16  and  N5_17 
REMARK    6  A    between atoms: N5_17  and  C10_19 
REMARK    7  A    between atoms: C15_24  and  C16_25 
REMARK    8  A    between atoms: C19_28  and  S2_29 
REMARK    9  A    between atoms: S2_29  and  N6_32 
REMARK   10  A    between atoms: N6_32  and  C20_34 
REMARK   11  A    between atoms: C20_34  and  C21_35 
REMARK   12  A    between atoms: C21_35  and  N7_36 
ROOT
HETATM    1  C10 UNL     1      19.117   8.132  21.496  1.00  0.00     0.063 A 
HETATM    2  C11 UNL     1      19.768   8.130  22.723  1.00  0.00     0.032 A 
HETATM    3  C12 UNL     1      19.120   7.842  23.903  1.00  0.00     0.003 A 
HETATM    4  C13 UNL     1      17.780   7.543  23.889  1.00  0.00     0.016 A 
HETATM    5  C14 UNL     1      17.101   7.532  22.682  1.00  0.00     0.023 A 
HETATM    6  C15 UNL     1      15.797   7.261  22.336  1.00  0.00     0.070 A 
HETATM    7  N8  UNL     1      15.740   7.394  20.992  1.00  0.00    -0.299 N 
ATOM      8  H8  UNL     1      14.891   7.250  20.445  1.00  0.00     0.187 HD
HETATM    9  N9  UNL     1      16.893   7.728  20.467  1.00  0.00    -0.297 N 
ATOM     10  H9  UNL     1      17.100   7.887  19.482  1.00  0.00     0.187 HD
HETATM   11  C28 UNL     1      17.759   7.818  21.521  1.00  0.00     0.087 A 
ENDROOT
BRANCH   1  12
HETATM   12  N5  UNL     1      19.714   8.454  20.269  1.00  0.00    -0.339 N 
ATOM     13  H5  UNL     1      19.571   9.388  19.883  1.00  0.00     0.167 HD
BRANCH  12  14
HETATM   14  C9  UNL     1      20.443   7.603  19.606  1.00  0.00     0.121 A 
HETATM   15  C8  UNL     1      19.930   6.527  18.939  1.00  0.00     0.137 A 
HETATM   16  N4  UNL     1      20.729   5.678  18.257  1.00  0.00    -0.360 N 
HETATM   17  C7  UNL     1      22.052   5.894  18.237  1.00  0.00     0.060 A 
ATOM     18  H4  UNL     1      20.330   4.880  17.762  1.00  0.00     0.165 HD
HETATM   19  C6  UNL     1      22.883   5.078  17.503  1.00  0.00     0.032 A 
HETATM   20  C29 UNL     1      22.604   6.995  18.932  1.00  0.00     0.073 A 
HETATM   21  C5  UNL     1      24.230   5.284  17.410  1.00  0.00     0.003 A 
HETATM   22  C4  UNL     1      24.785   6.338  18.078  1.00  0.00     0.016 A 
HETATM   23  C3  UNL     1      23.944   7.191  18.848  1.00  0.00     0.024 A 
HETATM   24  N10 UNL     1      21.797   7.827  19.591  1.00  0.00    -0.339 N 
ATOM     25  H10 UNL     1      22.186   8.630  20.085  1.00  0.00     0.167 HD
BRANCH  23  26
HETATM   26  C2  UNL     1      24.683   8.108  19.754  1.00  0.00     0.222 C 
BRANCH  26  27
HETATM   27  N3  UNL     1      24.524   9.268  19.931  1.00  0.00    -0.336 NA
BRANCH  27  28
HETATM   28  N2  UNL     1      24.361  10.560  20.130  1.00  0.00    -0.212 N 
ATOM     29  H2  UNL     1      24.967  11.204  19.622  1.00  0.00     0.204 HD
BRANCH  28  30
HETATM   30  C1  UNL     1      23.374  11.117  21.029  1.00  0.00     0.210 C 
HETATM   31  N1  UNL     1      22.170  10.431  21.259  1.00  0.00    -0.068 NA
HETATM   32  S1  UNL     1      23.699  12.527  21.759  1.00  0.00    -0.042 SA
ENDBRANCH  28  30
ENDBRANCH  27  28
ENDBRANCH  26  27
ENDBRANCH  23  26
ENDBRANCH  12  14
ENDBRANCH   1  12
BRANCH   6  33
HETATM   33  C16 UNL     1      14.660   6.920  23.208  1.00  0.00    -0.007 A 
HETATM   34  C17 UNL     1      14.892   6.962  24.587  1.00  0.00     0.015 A 
HETATM   35  C18 UNL     1      13.899   6.653  25.488  1.00  0.00     0.026 A 
HETATM   36  C19 UNL     1      12.622   6.285  25.017  1.00  0.00     0.079 A 
HETATM   37  C26 UNL     1      12.436   6.257  23.675  1.00  0.00     0.026 A 
HETATM   38  C27 UNL     1      13.432   6.571  22.740  1.00  0.00     0.015 A 
BRANCH  36  39
HETATM   39  S2  UNL     1      11.449   5.921  26.193  1.00  0.00     0.258 S 
HETATM   40  O1  UNL     1      11.877   6.523  27.541  1.00  0.00    -0.201 OA
HETATM   41  O2  UNL     1      10.122   6.641  25.892  1.00  0.00    -0.201 OA
BRANCH  39  42
HETATM   42  N6  UNL     1      11.049   4.310  26.480  1.00  0.00    -0.314 N 
ATOM     43  H6  UNL     1      11.724   3.565  26.308  1.00  0.00     0.172 HD
BRANCH  42  44
HETATM   44  C20 UNL     1       9.742   4.014  26.969  1.00  0.00     0.152 C 
BRANCH  44  45
HETATM   45  C21 UNL     1       9.950   3.507  28.407  1.00  0.00     0.142 C 
BRANCH  45  46
HETATM   46  N7  UNL     1       9.699   4.538  29.313  1.00  0.00    -0.388 N 
HETATM   47  C22 UNL     1       8.714   5.504  29.077  1.00  0.00     0.084 C 
HETATM   48  C23 UNL     1       8.379   6.169  30.411  1.00  0.00     0.212 C 
HETATM   49  O3  UNL     1       9.482   6.748  30.987  1.00  0.00    -0.385 OA
HETATM   50  C24 UNL     1      10.582   5.932  31.079  1.00  0.00     0.187 C 
HETATM   51  C25 UNL     1      10.363   4.536  30.566  1.00  0.00     0.148 C 
ENDBRANCH  45  46
ENDBRANCH  44  45
ENDBRANCH  42  44
ENDBRANCH  39  42
ENDBRANCH  36  39
ENDBRANCH   6  33
TORSDOF 12
ENDMDL
