MODEL 1
REMARK VINA RESULT: -8.240022869      0.000      0.000
REMARK  13 active torsions:
REMARK  status: ('A' for Active; 'I' for Inactive)
REMARK    1  A    between atoms: N1_1  and  C1_4 
REMARK    2  A    between atoms: C3_8  and  N3_9 
REMARK    3  A    between atoms: N5_14  and  C4_15 
REMARK    4  A    between atoms: C4_15  and  N6_16 
REMARK       I    between atoms: N6_16  and  C5_18 
REMARK    5  A    between atoms: C5_18  and  C6_20 
REMARK    6  A    between atoms: C6_20  and  C7_21 
REMARK    7  A    between atoms: C8_26  and  C9_27 
REMARK    8  A    between atoms: C11_31  and  C12_32 
REMARK    9  A    between atoms: C12_32  and  C13_34 
REMARK   10  A    between atoms: C13_34  and  N10_35 
REMARK   11  A    between atoms: C13_34  and  N12_39 
REMARK   12  A    between atoms: N10_35  and  N11_36 
REMARK   13  A    between atoms: N18_50  and  N19_51 
ROOT
HETATM    1  C7  UNL     1      17.497  29.199  70.694  1.00  0.00     0.128 A 
HETATM    2  N7  UNL     1      17.348  28.817  69.391  1.00  0.00    -0.285 N 
ATOM      3  H7  UNL     1      17.758  27.988  68.961  1.00  0.00     0.188 HD
HETATM    4  N8  UNL     1      16.589  29.698  68.790  1.00  0.00    -0.281 N 
ATOM      5  H8  UNL     1      16.311  29.662  67.809  1.00  0.00     0.188 HD
HETATM    6  C8  UNL     1      16.225  30.676  69.680  1.00  0.00     0.172 A 
HETATM    7  N18 UNL     1      16.803  30.331  70.835  1.00  0.00    -0.229 N 
ENDROOT
BRANCH   1   8
HETATM    8  C6  UNL     1      18.293  28.381  71.630  1.00  0.00     0.182 C 
BRANCH   8   9
HETATM    9  C5  UNL     1      19.686  28.893  71.619  1.00  0.00     0.226 C 
HETATM   10  N6  UNL     1      20.513  28.684  72.730  1.00  0.00    -0.343 N 
ATOM     11  H6  UNL     1      20.098  28.191  73.521  1.00  0.00     0.164 HD
HETATM   12  O1  UNL     1      20.075  29.516  70.570  1.00  0.00    -0.273 OA
BRANCH  10  13
HETATM   13  C4  UNL     1      21.887  29.094  72.873  1.00  0.00     0.275 C 
BRANCH  13  14
HETATM   14  N5  UNL     1      21.969  30.428  73.437  1.00  0.00    -0.254 N 
HETATM   15  N4  UNL     1      22.707  30.892  74.397  1.00  0.00    -0.279 N 
HETATM   16  C3  UNL     1      22.492  32.212  74.623  1.00  0.00     0.145 A 
ATOM     17  H4  UNL     1      23.375  30.327  74.923  1.00  0.00     0.189 HD
HETATM   18  C2  UNL     1      21.526  32.601  73.714  1.00  0.00     0.140 A 
HETATM   19  N2  UNL     1      20.781  33.596  73.242  1.00  0.00    -0.184 N 
HETATM   20  C14 UNL     1      21.222  31.489  72.996  1.00  0.00     0.170 A 
HETATM   21  C1  UNL     1      20.010  33.128  72.236  1.00  0.00     0.678 A 
ATOM     22  H2  UNL     1      20.790  34.556  73.584  1.00  0.00     0.184 HD
HETATM   23  N20 UNL     1      20.301  31.828  72.104  1.00  0.00    -0.173 N 
ATOM     24  H20 UNL     1      19.881  31.196  71.424  1.00  0.00     0.186 HD
BRANCH  16  25
HETATM   25  N3  UNL     1      23.022  33.010  75.471  1.00  0.00    -0.382 N 
ATOM     26  H32 UNL     1      23.796  33.666  75.372  1.00  0.00     0.157 HD
ATOM     27  H31 UNL     1      22.704  33.094  76.437  1.00  0.00     0.157 HD
ENDBRANCH  16  25
BRANCH  21  28
HETATM   28  N1  UNL     1      19.147  33.807  71.517  1.00  0.00    -0.234 N 
ATOM     29  H12 UNL     1      18.335  34.314  71.868  1.00  0.00     0.174 HD
ATOM     30  H11 UNL     1      19.150  33.928  70.505  1.00  0.00     0.174 HD
ENDBRANCH  21  28
ENDBRANCH  13  14
ENDBRANCH  10  13
ENDBRANCH   8   9
ENDBRANCH   1   8
BRANCH   7  31
HETATM   31  N19 UNL     1      16.718  31.035  72.051  1.00  0.00    -0.335 N 
ATOM     32 2H19 UNL     1      16.712  30.626  72.986  1.00  0.00     0.177 HD
ATOM     33 1H19 UNL     1      16.652  32.052  72.103  1.00  0.00     0.177 HD
ENDBRANCH   7  31
BRANCH   6  34
HETATM   34  C9  UNL     1      15.373  31.818  69.385  1.00  0.00     0.110 A 
HETATM   35  C10 UNL     1      14.994  32.058  68.054  1.00  0.00     0.124 A 
HETATM   36  N9  UNL     1      14.205  33.090  67.723  1.00  0.00    -0.351 N 
HETATM   37  C11 UNL     1      13.742  33.943  68.663  1.00  0.00     0.114 A 
ATOM     38  H9  UNL     1      13.951  33.234  66.746  1.00  0.00     0.166 HD
HETATM   39  N16 UNL     1      14.118  33.693  69.927  1.00  0.00    -0.287 N 
HETATM   40  N17 UNL     1      14.898  32.680  70.289  1.00  0.00    -0.294 N 
ATOM     41  H16 UNL     1      13.783  34.323  70.657  1.00  0.00     0.188 HD
ATOM     42  H17 UNL     1      15.138  32.559  71.273  1.00  0.00     0.187 HD
BRANCH  37  43
HETATM   43  C12 UNL     1      12.874  35.094  68.342  1.00  0.00     0.171 C 
HETATM   44  S1  UNL     1      11.835  35.500  69.767  1.00  0.00    -0.080 SA
BRANCH  43  45
HETATM   45  C13 UNL     1      13.560  36.254  67.722  1.00  0.00     0.264 C 
BRANCH  45  46
HETATM   46  N10 UNL     1      12.792  37.483  67.810  1.00  0.00    -0.117 NA
BRANCH  46  47
HETATM   47  N11 UNL     1      11.738  37.566  66.932  1.00  0.00    -0.346 N 
ATOM     48 2H11 UNL     1      11.881  37.669  65.928  1.00  0.00     0.172 HD
ATOM     49 1H11 UNL     1      10.817  37.516  67.368  1.00  0.00     0.172 HD
ENDBRANCH  46  47
ENDBRANCH  45  46
BRANCH  45  50
HETATM   50  N12 UNL     1      14.926  36.441  68.090  1.00  0.00    -0.179 N 
HETATM   51  N13 UNL     1      16.141  36.209  67.630  1.00  0.00    -0.207 N 
HETATM   52  N14 UNL     1      16.688  36.755  68.672  1.00  0.00    -0.211 N 
ATOM     53  H13 UNL     1      16.507  35.771  66.784  1.00  0.00     0.211 HD
HETATM   54  N15 UNL     1      15.493  37.007  69.173  1.00  0.00    -0.207 N 
ATOM     55  H14 UNL     1      17.646  36.921  68.979  1.00  0.00     0.211 HD
ATOM     56  H15 UNL     1      15.145  37.447  70.024  1.00  0.00     0.211 HD
ENDBRANCH  45  50
ENDBRANCH  43  45
ENDBRANCH  37  43
ENDBRANCH   6  34
TORSDOF 13
ENDMDL
MODEL 2
REMARK VINA RESULT: -8.161177658      3.103      9.623
REMARK  13 active torsions:
REMARK  status: ('A' for Active; 'I' for Inactive)
REMARK    1  A    between atoms: N1_1  and  C1_4 
REMARK    2  A    between atoms: C3_8  and  N3_9 
REMARK    3  A    between atoms: N5_14  and  C4_15 
REMARK    4  A    between atoms: C4_15  and  N6_16 
REMARK       I    between atoms: N6_16  and  C5_18 
REMARK    5  A    between atoms: C5_18  and  C6_20 
REMARK    6  A    between atoms: C6_20  and  C7_21 
REMARK    7  A    between atoms: C8_26  and  C9_27 
REMARK    8  A    between atoms: C11_31  and  C12_32 
REMARK    9  A    between atoms: C12_32  and  C13_34 
REMARK   10  A    between atoms: C13_34  and  N10_35 
REMARK   11  A    between atoms: C13_34  and  N12_39 
REMARK   12  A    between atoms: N10_35  and  N11_36 
REMARK   13  A    between atoms: N18_50  and  N19_51 
ROOT
HETATM    1  C7  UNL     1      15.979  31.369  68.843  1.00  0.00     0.128 A 
HETATM    2  N7  UNL     1      15.830  30.012  68.855  1.00  0.00    -0.285 N 
ATOM      3  H7  UNL     1      15.138  29.482  68.324  1.00  0.00     0.188 HD
HETATM    4  N8  UNL     1      16.725  29.508  69.666  1.00  0.00    -0.281 N 
ATOM      5  H8  UNL     1      16.844  28.514  69.866  1.00  0.00     0.188 HD
HETATM    6  C8  UNL     1      17.480  30.519  70.204  1.00  0.00     0.172 A 
HETATM    7  N18 UNL     1      16.989  31.642  69.673  1.00  0.00    -0.229 N 
ENDROOT
BRANCH   1   8
HETATM    8  C6  UNL     1      15.113  32.213  67.997  1.00  0.00     0.182 C 
BRANCH   8   9
HETATM    9  C5  UNL     1      14.763  33.433  68.767  1.00  0.00     0.226 C 
HETATM   10  N6  UNL     1      14.856  34.690  68.159  1.00  0.00    -0.343 N 
ATOM     11  H6  UNL     1      15.184  34.707  67.193  1.00  0.00     0.164 HD
HETATM   12  O1  UNL     1      14.385  33.273  69.980  1.00  0.00    -0.273 OA
BRANCH  10  13
HETATM   13  C4  UNL     1      14.536  35.963  68.753  1.00  0.00     0.275 C 
BRANCH  13  14
HETATM   14  N5  UNL     1      13.181  36.360  68.420  1.00  0.00    -0.254 N 
HETATM   15  N4  UNL     1      12.742  37.181  67.517  1.00  0.00    -0.279 N 
HETATM   16  C3  UNL     1      11.389  37.276  67.519  1.00  0.00     0.145 A 
ATOM     17  H4  UNL     1      13.346  37.697  66.878  1.00  0.00     0.189 HD
HETATM   18  C2  UNL     1      10.950  36.432  68.522  1.00  0.00     0.140 A 
HETATM   19  N2  UNL     1       9.905  35.928  69.173  1.00  0.00    -0.184 N 
HETATM   20  C14 UNL     1      12.067  35.880  69.059  1.00  0.00     0.170 A 
HETATM   21  C1  UNL     1      10.347  35.066  70.114  1.00  0.00     0.678 A 
ATOM     22  H2  UNL     1       8.928  36.156  68.991  1.00  0.00     0.184 HD
HETATM   23  N20 UNL     1      11.683  35.054  70.023  1.00  0.00    -0.173 N 
ATOM     24  H20 UNL     1      12.308  34.496  70.604  1.00  0.00     0.186 HD
BRANCH  16  25
HETATM   25  N3  UNL     1      10.601  37.969  66.788  1.00  0.00    -0.382 N 
ATOM     26  H32 UNL     1       9.780  37.694  66.249  1.00  0.00     0.157 HD
ATOM     27  H31 UNL     1      10.707  38.973  66.643  1.00  0.00     0.157 HD
ENDBRANCH  16  25
BRANCH  21  28
HETATM   28  N1  UNL     1       9.620  34.366  70.952  1.00  0.00    -0.234 N 
ATOM     29  H12 UNL     1       8.937  33.650  70.707  1.00  0.00     0.174 HD
ATOM     30  H11 UNL     1       9.619  34.432  71.970  1.00  0.00     0.174 HD
ENDBRANCH  21  28
ENDBRANCH  13  14
ENDBRANCH  10  13
ENDBRANCH   8   9
ENDBRANCH   1   8
BRANCH   7  31
HETATM   31  N19 UNL     1      17.443  32.951  69.927  1.00  0.00    -0.335 N 
ATOM     32 2H19 UNL     1      17.002  33.815  69.611  1.00  0.00     0.177 HD
ATOM     33 1H19 UNL     1      18.283  33.153  70.469  1.00  0.00     0.177 HD
ENDBRANCH   7  31
BRANCH   6  34
HETATM   34  C9  UNL     1      18.582  30.350  71.139  1.00  0.00     0.110 A 
HETATM   35  C10 UNL     1      19.687  29.573  70.754  1.00  0.00     0.124 A 
HETATM   36  N9  UNL     1      20.735  29.389  71.571  1.00  0.00    -0.351 N 
HETATM   37  C11 UNL     1      20.767  29.947  72.800  1.00  0.00     0.114 A 
ATOM     38  H9  UNL     1      21.520  28.817  71.258  1.00  0.00     0.166 HD
HETATM   39  N16 UNL     1      19.700  30.685  73.145  1.00  0.00    -0.287 N 
HETATM   40  N17 UNL     1      18.646  30.887  72.361  1.00  0.00    -0.294 N 
ATOM     41  H16 UNL     1      19.698  31.117  74.069  1.00  0.00     0.188 HD
ATOM     42  H17 UNL     1      17.874  31.462  72.697  1.00  0.00     0.187 HD
BRANCH  37  43
HETATM   43  C12 UNL     1      21.899  29.767  73.733  1.00  0.00     0.171 C 
HETATM   44  S1  UNL     1      23.147  28.690  72.988  1.00  0.00    -0.080 SA
BRANCH  43  45
HETATM   45  C13 UNL     1      22.432  31.015  74.333  1.00  0.00     0.264 C 
BRANCH  45  46
HETATM   46  N10 UNL     1      23.873  31.138  74.202  1.00  0.00    -0.117 NA
BRANCH  46  47
HETATM   47  N11 UNL     1      24.356  32.417  74.350  1.00  0.00    -0.346 N 
ATOM     48 2H11 UNL     1      24.052  33.180  73.745  1.00  0.00     0.172 HD
ATOM     49 1H11 UNL     1      25.031  32.532  75.105  1.00  0.00     0.172 HD
ENDBRANCH  46  47
ENDBRANCH  45  46
BRANCH  45  50
HETATM   50  N12 UNL     1      21.752  32.218  73.978  1.00  0.00    -0.179 N 
HETATM   51  N13 UNL     1      21.536  32.988  72.927  1.00  0.00    -0.207 N 
HETATM   52  N14 UNL     1      20.804  33.805  73.622  1.00  0.00    -0.211 N 
ATOM     53  H13 UNL     1      21.830  32.955  71.951  1.00  0.00     0.211 HD
HETATM   54  N15 UNL     1      20.993  33.066  74.698  1.00  0.00    -0.207 N 
ATOM     55  H14 UNL     1      20.294  34.664  73.419  1.00  0.00     0.211 HD
ATOM     56  H15 UNL     1      20.690  33.115  75.671  1.00  0.00     0.211 HD
ENDBRANCH  45  50
ENDBRANCH  43  45
ENDBRANCH  37  43
ENDBRANCH   6  34
TORSDOF 13
ENDMDL
MODEL 3
REMARK VINA RESULT: -7.926072625      3.152      9.717
REMARK  13 active torsions:
REMARK  status: ('A' for Active; 'I' for Inactive)
REMARK    1  A    between atoms: N1_1  and  C1_4 
REMARK    2  A    between atoms: C3_8  and  N3_9 
REMARK    3  A    between atoms: N5_14  and  C4_15 
REMARK    4  A    between atoms: C4_15  and  N6_16 
REMARK       I    between atoms: N6_16  and  C5_18 
REMARK    5  A    between atoms: C5_18  and  C6_20 
REMARK    6  A    between atoms: C6_20  and  C7_21 
REMARK    7  A    between atoms: C8_26  and  C9_27 
REMARK    8  A    between atoms: C11_31  and  C12_32 
REMARK    9  A    between atoms: C12_32  and  C13_34 
REMARK   10  A    between atoms: C13_34  and  N10_35 
REMARK   11  A    between atoms: C13_34  and  N12_39 
REMARK   12  A    between atoms: N10_35  and  N11_36 
REMARK   13  A    between atoms: N18_50  and  N19_51 
ROOT
HETATM    1  C7  UNL     1      16.104  31.347  68.913  1.00  0.00     0.128 A 
HETATM    2  N7  UNL     1      15.962  29.989  68.946  1.00  0.00    -0.285 N 
ATOM      3  H7  UNL     1      15.274  29.447  68.422  1.00  0.00     0.188 HD
HETATM    4  N8  UNL     1      16.858  29.502  69.766  1.00  0.00    -0.281 N 
ATOM      5  H8  UNL     1      16.981  28.513  69.982  1.00  0.00     0.188 HD
HETATM    6  C8  UNL     1      17.607  30.525  70.290  1.00  0.00     0.172 A 
HETATM    7  N18 UNL     1      17.111  31.638  69.741  1.00  0.00    -0.229 N 
ENDROOT
BRANCH   1   8
HETATM    8  C6  UNL     1      15.235  32.173  68.053  1.00  0.00     0.182 C 
BRANCH   8   9
HETATM    9  C5  UNL     1      14.747  33.321  68.857  1.00  0.00     0.226 C 
HETATM   10  N6  UNL     1      14.472  34.542  68.231  1.00  0.00    -0.343 N 
ATOM     11  H6  UNL     1      14.641  34.588  67.226  1.00  0.00     0.164 HD
HETATM   12  O1  UNL     1      14.599  33.136  70.116  1.00  0.00    -0.273 OA
BRANCH  10  13
HETATM   13  C4  UNL     1      13.975  35.741  68.857  1.00  0.00     0.275 C 
BRANCH  13  14
HETATM   14  N5  UNL     1      12.570  35.601  69.194  1.00  0.00    -0.254 N 
HETATM   15  N4  UNL     1      11.990  34.873  70.096  1.00  0.00    -0.279 N 
HETATM   16  C3  UNL     1      10.643  35.030  70.100  1.00  0.00     0.145 A 
ATOM     17  H4  UNL     1      12.490  34.252  70.732  1.00  0.00     0.189 HD
HETATM   18  C2  UNL     1      10.364  35.945  69.101  1.00  0.00     0.140 A 
HETATM   19  N2  UNL     1       9.429  36.636  68.457  1.00  0.00    -0.184 N 
HETATM   20  C14 UNL     1      11.563  36.282  68.561  1.00  0.00     0.170 A 
HETATM   21  C1  UNL     1      10.020  37.405  67.516  1.00  0.00     0.678 A 
ATOM     22  H2  UNL     1       8.427  36.593  68.642  1.00  0.00     0.184 HD
HETATM   23  N20 UNL     1      11.335  37.169  67.602  1.00  0.00    -0.173 N 
ATOM     24  H20 UNL     1      12.051  37.603  67.020  1.00  0.00     0.186 HD
BRANCH  16  25
HETATM   25  N3  UNL     1       9.742  34.493  70.832  1.00  0.00    -0.382 N 
ATOM     26  H32 UNL     1       8.726  34.574  70.804  1.00  0.00     0.157 HD
ATOM     27  H31 UNL     1       9.952  33.859  71.604  1.00  0.00     0.157 HD
ENDBRANCH  16  25
BRANCH  21  28
HETATM   28  N1  UNL     1       9.432  38.230  66.683  1.00  0.00    -0.234 N 
ATOM     29  H12 UNL     1       8.451  38.510  66.701  1.00  0.00     0.174 HD
ATOM     30  H11 UNL     1       9.858  38.713  65.891  1.00  0.00     0.174 HD
ENDBRANCH  21  28
ENDBRANCH  13  14
ENDBRANCH  10  13
ENDBRANCH   8   9
ENDBRANCH   1   8
BRANCH   7  31
HETATM   31  N19 UNL     1      17.558  32.953  69.976  1.00  0.00    -0.335 N 
ATOM     32 2H19 UNL     1      17.765  33.366  70.885  1.00  0.00     0.177 HD
ATOM     33 1H19 UNL     1      17.719  33.628  69.228  1.00  0.00     0.177 HD
ENDBRANCH   7  31
BRANCH   6  34
HETATM   34  C9  UNL     1      18.708  30.377  71.228  1.00  0.00     0.110 A 
HETATM   35  C10 UNL     1      19.787  29.544  70.886  1.00  0.00     0.124 A 
HETATM   36  N9  UNL     1      20.832  29.375  71.708  1.00  0.00    -0.351 N 
HETATM   37  C11 UNL     1      20.889  30.002  72.903  1.00  0.00     0.114 A 
ATOM     38  H9  UNL     1      21.597  28.762  71.426  1.00  0.00     0.166 HD
HETATM   39  N16 UNL     1      19.847  30.792  73.208  1.00  0.00    -0.287 N 
HETATM   40  N17 UNL     1      18.796  30.981  72.417  1.00  0.00    -0.294 N 
ATOM     41  H16 UNL     1      19.863  31.277  74.105  1.00  0.00     0.188 HD
ATOM     42  H17 UNL     1      18.043  31.599  72.723  1.00  0.00     0.187 HD
BRANCH  37  43
HETATM   43  C12 UNL     1      22.019  29.841  73.840  1.00  0.00     0.171 C 
HETATM   44  S1  UNL     1      23.256  28.728  73.131  1.00  0.00    -0.080 SA
BRANCH  43  45
HETATM   45  C13 UNL     1      22.566  31.103  74.399  1.00  0.00     0.264 C 
BRANCH  45  46
HETATM   46  N10 UNL     1      24.000  31.232  74.215  1.00  0.00    -0.117 NA
BRANCH  46  47
HETATM   47  N11 UNL     1      24.468  32.524  74.243  1.00  0.00    -0.346 N 
ATOM     48 2H11 UNL     1      24.391  33.106  75.077  1.00  0.00     0.172 HD
ATOM     49 1H11 UNL     1      24.892  32.842  73.371  1.00  0.00     0.172 HD
ENDBRANCH  46  47
ENDBRANCH  45  46
BRANCH  45  50
HETATM   50  N12 UNL     1      21.865  32.295  74.048  1.00  0.00    -0.179 N 
HETATM   51  N13 UNL     1      21.672  33.089  73.011  1.00  0.00    -0.207 N 
HETATM   52  N14 UNL     1      20.887  33.863  73.694  1.00  0.00    -0.211 N 
ATOM     53  H13 UNL     1      22.010  33.093  72.048  1.00  0.00     0.211 HD
HETATM   54  N15 UNL     1      21.050  33.099  74.757  1.00  0.00    -0.207 N 
ATOM     55  H14 UNL     1      20.360  34.713  73.493  1.00  0.00     0.211 HD
ATOM     56  H15 UNL     1      20.704  33.111  75.717  1.00  0.00     0.211 HD
ENDBRANCH  45  50
ENDBRANCH  43  45
ENDBRANCH  37  43
ENDBRANCH   6  34
TORSDOF 13
ENDMDL
MODEL 4
REMARK VINA RESULT: -7.881188299      1.521      2.555
REMARK  13 active torsions:
REMARK  status: ('A' for Active; 'I' for Inactive)
REMARK    1  A    between atoms: N1_1  and  C1_4 
REMARK    2  A    between atoms: C3_8  and  N3_9 
REMARK    3  A    between atoms: N5_14  and  C4_15 
REMARK    4  A    between atoms: C4_15  and  N6_16 
REMARK       I    between atoms: N6_16  and  C5_18 
REMARK    5  A    between atoms: C5_18  and  C6_20 
REMARK    6  A    between atoms: C6_20  and  C7_21 
REMARK    7  A    between atoms: C8_26  and  C9_27 
REMARK    8  A    between atoms: C11_31  and  C12_32 
REMARK    9  A    between atoms: C12_32  and  C13_34 
REMARK   10  A    between atoms: C13_34  and  N10_35 
REMARK   11  A    between atoms: C13_34  and  N12_39 
REMARK   12  A    between atoms: N10_35  and  N11_36 
REMARK   13  A    between atoms: N18_50  and  N19_51 
ROOT
HETATM    1  C7  UNL     1      17.288  29.652  70.514  1.00  0.00     0.128 A 
HETATM    2  N7  UNL     1      17.454  29.635  69.159  1.00  0.00    -0.285 N 
ATOM      3  H7  UNL     1      18.030  28.974  68.636  1.00  0.00     0.188 HD
HETATM    4  N8  UNL     1      16.748  30.610  68.647  1.00  0.00    -0.281 N 
ATOM      5  H8  UNL     1      16.685  30.831  67.653  1.00  0.00     0.188 HD
HETATM    6  C8  UNL     1      16.105  31.290  69.650  1.00  0.00     0.172 A 
HETATM    7  N18 UNL     1      16.464  30.670  70.778  1.00  0.00    -0.229 N 
ENDROOT
BRANCH   1   8
HETATM    8  C6  UNL     1      17.954  28.648  71.366  1.00  0.00     0.182 C 
BRANCH   8   9
HETATM    9  C5  UNL     1      19.393  29.002  71.457  1.00  0.00     0.226 C 
HETATM   10  N6  UNL     1      20.088  28.787  72.653  1.00  0.00    -0.343 N 
ATOM     11  H6  UNL     1      19.551  28.402  73.430  1.00  0.00     0.164 HD
HETATM   12  O1  UNL     1      19.943  29.499  70.413  1.00  0.00    -0.273 OA
BRANCH  10  13
HETATM   13  C4  UNL     1      21.482  29.053  72.902  1.00  0.00     0.275 C 
BRANCH  13  14
HETATM   14  N5  UNL     1      21.669  30.407  73.388  1.00  0.00    -0.254 N 
HETATM   15  N4  UNL     1      22.454  30.870  74.310  1.00  0.00    -0.279 N 
HETATM   16  C3  UNL     1      22.336  32.212  74.464  1.00  0.00     0.145 A 
ATOM     17  H4  UNL     1      23.089  30.289  74.858  1.00  0.00     0.189 HD
HETATM   18  C2  UNL     1      21.384  32.618  73.548  1.00  0.00     0.140 A 
HETATM   19  N2  UNL     1      20.702  33.636  73.030  1.00  0.00    -0.184 N 
HETATM   20  C14 UNL     1      20.990  31.493  72.898  1.00  0.00     0.170 A 
HETATM   21  C1  UNL     1      19.883  33.169  72.063  1.00  0.00     0.678 A 
ATOM     22  H2  UNL     1      20.785  34.611  73.317  1.00  0.00     0.184 HD
HETATM   23  N20 UNL     1      20.080  31.847  72.001  1.00  0.00    -0.173 N 
ATOM     24  H20 UNL     1      19.604  31.209  71.363  1.00  0.00     0.186 HD
BRANCH  16  25
HETATM   25  N3  UNL     1      22.936  33.016  75.258  1.00  0.00    -0.382 N 
ATOM     26  H32 UNL     1      22.812  34.017  75.410  1.00  0.00     0.157 HD
ATOM     27  H31 UNL     1      23.678  32.726  75.895  1.00  0.00     0.157 HD
ENDBRANCH  16  25
BRANCH  21  28
HETATM   28  N1  UNL     1      19.058  33.866  71.318  1.00  0.00    -0.234 N 
ATOM     29  H12 UNL     1      18.056  33.706  71.214  1.00  0.00     0.174 HD
ATOM     30  H11 UNL     1      19.287  34.666  70.728  1.00  0.00     0.174 HD
ENDBRANCH  21  28
ENDBRANCH  13  14
ENDBRANCH  10  13
ENDBRANCH   8   9
ENDBRANCH   1   8
BRANCH   7  31
HETATM   31  N19 UNL     1      16.055  31.010  72.082  1.00  0.00    -0.335 N 
ATOM     32 2H19 UNL     1      16.425  30.624  72.950  1.00  0.00     0.177 HD
ATOM     33 1H19 UNL     1      15.325  31.697  72.275  1.00  0.00     0.177 HD
ENDBRANCH   7  31
BRANCH   6  34
HETATM   34  C9  UNL     1      15.218  32.428  69.471  1.00  0.00     0.110 A 
HETATM   35  C10 UNL     1      14.691  32.686  68.194  1.00  0.00     0.124 A 
HETATM   36  N9  UNL     1      13.863  33.716  67.970  1.00  0.00    -0.351 N 
HETATM   37  C11 UNL     1      13.500  34.550  68.970  1.00  0.00     0.114 A 
ATOM     38  H9  UNL     1      13.500  33.873  67.030  1.00  0.00     0.166 HD
HETATM   39  N16 UNL     1      14.017  34.283  70.181  1.00  0.00    -0.287 N 
HETATM   40  N17 UNL     1      14.840  33.271  70.436  1.00  0.00    -0.294 N 
ATOM     41  H16 UNL     1      13.761  34.898  70.954  1.00  0.00     0.188 HD
ATOM     42  H17 UNL     1      15.189  33.137  71.385  1.00  0.00     0.187 HD
BRANCH  37  43
HETATM   43  C12 UNL     1      12.593  35.698  68.768  1.00  0.00     0.171 C 
HETATM   44  S1  UNL     1      12.892  36.442  67.146  1.00  0.00    -0.080 SA
BRANCH  43  45
HETATM   45  C13 UNL     1      11.166  35.443  69.082  1.00  0.00     0.264 C 
BRANCH  45  46
HETATM   46  N10 UNL     1      10.932  35.186  70.492  1.00  0.00    -0.117 NA
BRANCH  46  47
HETATM   47  N11 UNL     1       9.766  34.511  70.767  1.00  0.00    -0.346 N 
ATOM     48 2H11 UNL     1       8.893  35.001  70.957  1.00  0.00     0.172 HD
ATOM     49 1H11 UNL     1       9.852  33.495  70.763  1.00  0.00     0.172 HD
ENDBRANCH  46  47
ENDBRANCH  45  46
BRANCH  45  50
HETATM   50  N12 UNL     1      10.232  36.375  68.540  1.00  0.00    -0.179 N 
HETATM   51  N13 UNL     1      10.174  37.627  68.124  1.00  0.00    -0.207 N 
HETATM   52  N14 UNL     1       8.919  37.512  67.814  1.00  0.00    -0.211 N 
ATOM     53  H13 UNL     1      10.851  38.388  68.069  1.00  0.00     0.211 HD
HETATM   54  N15 UNL     1       8.929  36.256  68.219  1.00  0.00    -0.207 N 
ATOM     55  H14 UNL     1       8.214  38.135  67.421  1.00  0.00     0.211 HD
ATOM     56  H15 UNL     1       8.239  35.507  68.268  1.00  0.00     0.211 HD
ENDBRANCH  45  50
ENDBRANCH  43  45
ENDBRANCH  37  43
ENDBRANCH   6  34
TORSDOF 13
ENDMDL
MODEL 5
REMARK VINA RESULT: -7.274427542      2.233      3.460
REMARK  13 active torsions:
REMARK  status: ('A' for Active; 'I' for Inactive)
REMARK    1  A    between atoms: N1_1  and  C1_4 
REMARK    2  A    between atoms: C3_8  and  N3_9 
REMARK    3  A    between atoms: N5_14  and  C4_15 
REMARK    4  A    between atoms: C4_15  and  N6_16 
REMARK       I    between atoms: N6_16  and  C5_18 
REMARK    5  A    between atoms: C5_18  and  C6_20 
REMARK    6  A    between atoms: C6_20  and  C7_21 
REMARK    7  A    between atoms: C8_26  and  C9_27 
REMARK    8  A    between atoms: C11_31  and  C12_32 
REMARK    9  A    between atoms: C12_32  and  C13_34 
REMARK   10  A    between atoms: C13_34  and  N10_35 
REMARK   11  A    between atoms: C13_34  and  N12_39 
REMARK   12  A    between atoms: N10_35  and  N11_36 
REMARK   13  A    between atoms: N18_50  and  N19_51 
ROOT
HETATM    1  C7  UNL     1      16.862  31.359  69.652  1.00  0.00     0.128 A 
HETATM    2  N7  UNL     1      16.912  32.006  70.853  1.00  0.00    -0.285 N 
ATOM      3  H7  UNL     1      17.478  31.732  71.657  1.00  0.00     0.188 HD
HETATM    4  N8  UNL     1      16.109  33.038  70.797  1.00  0.00    -0.281 N 
ATOM      5  H8  UNL     1      15.950  33.701  71.555  1.00  0.00     0.188 HD
HETATM    6  C8  UNL     1      15.514  33.091  69.562  1.00  0.00     0.172 A 
HETATM    7  N18 UNL     1      16.003  32.044  68.892  1.00  0.00    -0.229 N 
ENDROOT
BRANCH   1   8
HETATM    8  C6  UNL     1      17.685  30.157  69.411  1.00  0.00     0.182 C 
BRANCH   8   9
HETATM    9  C5  UNL     1      17.916  29.487  70.715  1.00  0.00     0.226 C 
HETATM   10  N6  UNL     1      19.223  29.237  71.147  1.00  0.00    -0.343 N 
ATOM     11  H6  UNL     1      19.974  29.521  70.518  1.00  0.00     0.164 HD
HETATM   12  O1  UNL     1      16.883  29.161  71.399  1.00  0.00    -0.273 OA
BRANCH  10  13
HETATM   13  C4  UNL     1      19.620  28.619  72.387  1.00  0.00     0.275 C 
BRANCH  13  14
HETATM   14  N5  UNL     1      20.876  29.174  72.858  1.00  0.00    -0.254 N 
HETATM   15  N4  UNL     1      22.031  28.612  73.033  1.00  0.00    -0.279 N 
HETATM   16  C3  UNL     1      22.966  29.483  73.486  1.00  0.00     0.145 A 
ATOM     17  H4  UNL     1      22.216  27.625  72.848  1.00  0.00     0.189 HD
HETATM   18  C2  UNL     1      22.325  30.701  73.605  1.00  0.00     0.140 A 
HETATM   19  N2  UNL     1      22.433  31.987  73.929  1.00  0.00    -0.184 N 
HETATM   20  C14 UNL     1      21.044  30.487  73.212  1.00  0.00     0.170 A 
HETATM   21  C1  UNL     1      21.236  32.587  73.747  1.00  0.00     0.678 A 
ATOM     22  H2  UNL     1      23.281  32.445  74.261  1.00  0.00     0.184 HD
HETATM   23  N20 UNL     1      20.398  31.642  73.304  1.00  0.00    -0.173 N 
ATOM     24  H20 UNL     1      19.415  31.786  73.074  1.00  0.00     0.186 HD
BRANCH  16  25
HETATM   25  N3  UNL     1      24.201  29.307  73.770  1.00  0.00    -0.382 N 
ATOM     26  H32 UNL     1      25.044  29.552  73.251  1.00  0.00     0.157 HD
ATOM     27  H31 UNL     1      24.521  28.861  74.630  1.00  0.00     0.157 HD
ENDBRANCH  16  25
BRANCH  21  28
HETATM   28  N1  UNL     1      20.943  33.849  73.952  1.00  0.00    -0.234 N 
ATOM     29  H12 UNL     1      21.455  34.499  74.550  1.00  0.00     0.174 HD
ATOM     30  H11 UNL     1      20.163  34.373  73.556  1.00  0.00     0.174 HD
ENDBRANCH  21  28
ENDBRANCH  13  14
ENDBRANCH  10  13
ENDBRANCH   8   9
ENDBRANCH   1   8
BRANCH   7  31
HETATM   31  N19 UNL     1      15.685  31.678  67.570  1.00  0.00    -0.335 N 
ATOM     32 2H19 UNL     1      16.249  31.862  66.740  1.00  0.00     0.177 HD
ATOM     33 1H19 UNL     1      14.830  31.179  67.321  1.00  0.00     0.177 HD
ENDBRANCH   7  31
BRANCH   6  34
HETATM   34  C9  UNL     1      14.569  34.104  69.118  1.00  0.00     0.110 A 
HETATM   35  C10 UNL     1      14.438  35.287  69.866  1.00  0.00     0.124 A 
HETATM   36  N9  UNL     1      13.589  36.258  69.501  1.00  0.00    -0.351 N 
HETATM   37  C11 UNL     1      12.824  36.136  68.394  1.00  0.00     0.114 A 
ATOM     38  H9  UNL     1      13.520  37.103  70.069  1.00  0.00     0.166 HD
HETATM   39  N16 UNL     1      12.966  34.998  67.697  1.00  0.00    -0.287 N 
HETATM   40  N17 UNL     1      13.798  34.016  68.030  1.00  0.00    -0.294 N 
ATOM     41  H16 UNL     1      12.399  34.879  66.857  1.00  0.00     0.188 HD
ATOM     42  H17 UNL     1      13.847  33.182  67.446  1.00  0.00     0.187 HD
BRANCH  37  43
HETATM   43  C12 UNL     1      11.873  37.180  67.958  1.00  0.00     0.171 C 
HETATM   44  S1  UNL     1      11.829  37.258  66.151  1.00  0.00    -0.080 SA
BRANCH  43  45
HETATM   45  C13 UNL     1      10.543  37.141  68.613  1.00  0.00     0.264 C 
BRANCH  45  46
HETATM   46  N10 UNL     1       9.451  37.430  67.699  1.00  0.00    -0.117 NA
BRANCH  46  47
HETATM   47  N11 UNL     1       8.341  36.635  67.862  1.00  0.00    -0.346 N 
ATOM     48 2H11 UNL     1       8.368  35.781  68.419  1.00  0.00     0.172 HD
ATOM     49 1H11 UNL     1       7.505  36.969  67.383  1.00  0.00     0.172 HD
ENDBRANCH  46  47
ENDBRANCH  45  46
BRANCH  45  50
HETATM   50  N12 UNL     1      10.280  35.997  69.425  1.00  0.00    -0.179 N 
HETATM   51  N13 UNL     1      10.283  34.679  69.350  1.00  0.00    -0.207 N 
HETATM   52  N14 UNL     1       9.925  34.565  70.592  1.00  0.00    -0.211 N 
ATOM     53  H13 UNL     1      10.487  34.011  68.607  1.00  0.00     0.211 HD
HETATM   54  N15 UNL     1       9.908  35.879  70.714  1.00  0.00    -0.207 N 
ATOM     55  H14 UNL     1       9.733  33.782  71.217  1.00  0.00     0.211 HD
ATOM     56  H15 UNL     1       9.700  36.532  71.468  1.00  0.00     0.211 HD
ENDBRANCH  45  50
ENDBRANCH  43  45
ENDBRANCH  37  43
ENDBRANCH   6  34
TORSDOF 13
ENDMDL
