MODEL 1
REMARK VINA RESULT: -9.515636102      0.000      0.000
REMARK  15 active torsions:
REMARK  status: ('A' for Active; 'I' for Inactive)
REMARK    1  A    between atoms: N1_1  and  C1_4 
REMARK    2  A    between atoms: C3_6  and  C4_7 
REMARK    3  A    between atoms: C4_7  and  O1_8 
REMARK    4  A    between atoms: C4_7  and  C5_10 
REMARK    5  A    between atoms: C5_10  and  O2_11 
REMARK    6  A    between atoms: C5_10  and  N2_13 
REMARK    7  A    between atoms: N2_13  and  C6_15 
REMARK    8  A    between atoms: C7_17  and  O4_18 
REMARK    9  A    between atoms: O4_18  and  C8_19 
REMARK   10  A    between atoms: C9_23  and  O5_24 
REMARK   11  A    between atoms: C10_26  and  O6_27 
REMARK   12  A    between atoms: O6_27  and  C11_28 
REMARK   13  A    between atoms: C14_34  and  N6_35 
REMARK   14  A    between atoms: C15_38  and  N7_39 
REMARK   15  A    between atoms: C17_44  and  N8_45 
ROOT
HETATM    1  C6  UNL     1      17.265  32.133  70.889  1.00  0.00     0.252 C 
HETATM    2  O3  UNL     1      17.620  32.365  69.538  1.00  0.00    -0.333 OA
HETATM    3  C7  UNL     1      16.498  32.776  68.894  1.00  0.00     0.295 C 
HETATM    4  C15 UNL     1      15.586  31.590  68.590  1.00  0.00     0.240 C 
HETATM    5  C16 UNL     1      15.311  30.903  69.906  1.00  0.00     0.075 C 
HETATM    6  C17 UNL     1      15.834  31.747  71.020  1.00  0.00     0.233 C 
ENDROOT
BRANCH   3   7
HETATM    7  O4  UNL     1      16.768  33.497  67.707  1.00  0.00    -0.324 OA
BRANCH   7   8
HETATM    8  C8  UNL     1      16.454  34.788  67.946  1.00  0.00     0.360 C 
HETATM    9  N3  UNL     1      16.551  35.185  69.392  1.00  0.00    -0.017 N 
HETATM   10  C9  UNL     1      15.790  36.315  68.959  1.00  0.00     0.355 C 
ATOM     11  H32 UNL     1      16.257  34.577  70.156  1.00  0.00     0.283 HD
ATOM     12  H31 UNL     1      17.439  35.270  69.886  1.00  0.00     0.283 HD
HETATM   13  C10 UNL     1      15.068  35.288  68.026  1.00  0.00     0.243 C 
BRANCH  10  14
HETATM   14  O5  UNL     1      15.018  37.065  69.740  1.00  0.00    -0.368 OA
ATOM     15  H5  UNL     1      14.540  36.755  70.500  1.00  0.00     0.212 HD
ENDBRANCH  10  14
BRANCH  13  16
HETATM   16  O6  UNL     1      14.089  34.593  68.615  1.00  0.00    -0.314 OA
BRANCH  16  17
HETATM   17  C11 UNL     1      12.795  34.929  68.892  1.00  0.00     0.223 A 
HETATM   18  O7  UNL     1      12.092  34.351  69.882  1.00  0.00    -0.269 OA
HETATM   19  C12 UNL     1      10.895  34.833  69.964  1.00  0.00     0.186 A 
HETATM   20  N4  UNL     1       9.889  34.429  70.917  1.00  0.00    -0.072 NA
HETATM   21  C13 UNL     1      10.712  35.794  69.008  1.00  0.00     0.132 A 
HETATM   22  N5  UNL     1       9.555  36.568  68.742  1.00  0.00    -0.095 NA
HETATM   23  C14 UNL     1      11.944  35.857  68.316  1.00  0.00     0.189 A 
BRANCH  23  24
HETATM   24  N6  UNL     1      12.174  36.822  67.336  1.00  0.00    -0.108 N 
HETATM   25  O8  UNL     1      12.405  36.607  66.166  1.00  0.00    -0.532 OA
HETATM   26  O9  UNL     1      12.099  38.154  67.727  1.00  0.00    -0.532 OA
ENDBRANCH  23  24
ENDBRANCH  16  17
ENDBRANCH  13  16
ENDBRANCH   7   8
ENDBRANCH   3   7
BRANCH   4  27
HETATM   27  N7  UNL     1      16.263  30.749  67.628  1.00  0.00    -0.070 N 
ATOM     28  H73 UNL     1      15.627  30.126  67.131  1.00  0.00     0.274 HD
ATOM     29  H72 UNL     1      16.604  31.268  66.819  1.00  0.00     0.274 HD
ATOM     30  H71 UNL     1      17.004  30.250  68.120  1.00  0.00     0.274 HD
ENDBRANCH   4  27
BRANCH   1  31
HETATM   31  N2  UNL     1      18.218  31.315  71.555  1.00  0.00    -0.367 N 
ATOM     32  H2  UNL     1      18.180  31.205  72.568  1.00  0.00     0.158 HD
BRANCH  31  33
HETATM   33  C5  UNL     1      19.212  30.659  70.811  1.00  0.00     0.251 C 
BRANCH  33  34
HETATM   34  C4  UNL     1      20.212  30.053  71.828  1.00  0.00     0.225 C 
BRANCH  34  35
HETATM   35  C3  UNL     1      20.713  31.249  72.596  1.00  0.00     0.113 A 
HETATM   36  C2  UNL     1      21.602  31.183  73.657  1.00  0.00     0.087 A 
HETATM   37  C1  UNL     1      21.793  32.488  74.064  1.00  0.00     0.121 A 
HETATM   38  N9  UNL     1      21.035  33.279  73.259  1.00  0.00    -0.245 N 
HETATM   39  O10 UNL     1      20.430  32.495  72.424  1.00  0.00    -0.238 OA
ATOM     40  H9  UNL     1      20.957  34.296  73.304  1.00  0.00     0.196 HD
BRANCH  37  41
HETATM   41  N1  UNL     1      22.529  32.951  75.020  1.00  0.00    -0.384 N 
ATOM     42  H12 UNL     1      22.659  32.467  75.907  1.00  0.00     0.157 HD
ATOM     43  H11 UNL     1      23.074  33.811  75.059  1.00  0.00     0.157 HD
ENDBRANCH  37  41
ENDBRANCH  34  35
BRANCH  34  44
HETATM   44  O1  UNL     1      19.494  29.298  72.781  1.00  0.00    -0.384 OA
ATOM     45  H1  UNL     1      20.137  29.085  73.447  1.00  0.00     0.210 HD
ENDBRANCH  34  44
ENDBRANCH  33  34
BRANCH  33  46
HETATM   46  O2  UNL     1      18.798  29.531  70.088  1.00  0.00    -0.374 OA
ATOM     47  H2  UNL     1      18.184  29.121  70.685  1.00  0.00     0.212 HD
ENDBRANCH  33  46
ENDBRANCH  31  33
ENDBRANCH   1  31
BRANCH   6  48
HETATM   48  N8  UNL     1      15.596  31.089  72.318  1.00  0.00    -0.071 N 
ATOM     49  H83 UNL     1      16.064  30.185  72.378  1.00  0.00     0.274 HD
ATOM     50  H82 UNL     1      16.084  31.562  73.078  1.00  0.00     0.274 HD
ATOM     51  H81 UNL     1      14.596  31.012  72.499  1.00  0.00     0.274 HD
ENDBRANCH   6  48
TORSDOF 15
ENDMDL
MODEL 2
REMARK VINA RESULT: -9.327523843      1.352      1.567
REMARK  15 active torsions:
REMARK  status: ('A' for Active; 'I' for Inactive)
REMARK    1  A    between atoms: N1_1  and  C1_4 
REMARK    2  A    between atoms: C3_6  and  C4_7 
REMARK    3  A    between atoms: C4_7  and  O1_8 
REMARK    4  A    between atoms: C4_7  and  C5_10 
REMARK    5  A    between atoms: C5_10  and  O2_11 
REMARK    6  A    between atoms: C5_10  and  N2_13 
REMARK    7  A    between atoms: N2_13  and  C6_15 
REMARK    8  A    between atoms: C7_17  and  O4_18 
REMARK    9  A    between atoms: O4_18  and  C8_19 
REMARK   10  A    between atoms: C9_23  and  O5_24 
REMARK   11  A    between atoms: C10_26  and  O6_27 
REMARK   12  A    between atoms: O6_27  and  C11_28 
REMARK   13  A    between atoms: C14_34  and  N6_35 
REMARK   14  A    between atoms: C15_38  and  N7_39 
REMARK   15  A    between atoms: C17_44  and  N8_45 
ROOT
HETATM    1  C6  UNL     1      16.853  30.941  70.645  1.00  0.00     0.252 C 
HETATM    2  O3  UNL     1      16.597  32.300  70.343  1.00  0.00    -0.333 OA
HETATM    3  C7  UNL     1      15.375  32.356  69.753  1.00  0.00     0.295 C 
HETATM    4  C15 UNL     1      15.460  31.909  68.295  1.00  0.00     0.240 C 
HETATM    5  C16 UNL     1      16.069  30.528  68.298  1.00  0.00     0.075 C 
HETATM    6  C17 UNL     1      16.152  30.029  69.701  1.00  0.00     0.233 C 
ENDROOT
BRANCH   3   7
HETATM    7  O4  UNL     1      14.774  33.634  69.834  1.00  0.00    -0.324 OA
BRANCH   7   8
HETATM    8  C8  UNL     1      15.466  34.451  69.012  1.00  0.00     0.360 C 
HETATM    9  N3  UNL     1      16.207  35.550  69.721  1.00  0.00    -0.017 N 
HETATM   10  C9  UNL     1      16.287  36.114  68.410  1.00  0.00     0.355 C 
ATOM     11  H32 UNL     1      15.823  36.054  70.520  1.00  0.00     0.283 HD
ATOM     12  H31 UNL     1      17.027  35.381  70.303  1.00  0.00     0.283 HD
HETATM   13  C10 UNL     1      14.844  35.538  68.232  1.00  0.00     0.243 C 
BRANCH  10  14
HETATM   14  O5  UNL     1      16.459  37.403  68.138  1.00  0.00    -0.368 OA
ATOM     15  H5  UNL     1      17.262  37.892  68.282  1.00  0.00     0.212 HD
ENDBRANCH  10  14
BRANCH  13  16
HETATM   16  O6  UNL     1      13.872  36.311  68.731  1.00  0.00    -0.314 OA
BRANCH  16  17
HETATM   17  C11 UNL     1      12.545  36.060  68.934  1.00  0.00     0.223 A 
HETATM   18  O7  UNL     1      12.106  35.191  69.862  1.00  0.00    -0.269 OA
HETATM   19  C12 UNL     1      10.815  35.123  69.882  1.00  0.00     0.186 A 
HETATM   20  N4  UNL     1      10.031  34.286  70.758  1.00  0.00    -0.072 NA
HETATM   21  C13 UNL     1      10.289  35.966  68.942  1.00  0.00     0.132 A 
HETATM   22  N5  UNL     1       8.927  36.197  68.626  1.00  0.00    -0.095 NA
HETATM   23  C14 UNL     1      11.410  36.574  68.332  1.00  0.00     0.189 A 
BRANCH  23  24
HETATM   24  N6  UNL     1      11.256  37.596  67.395  1.00  0.00    -0.108 N 
HETATM   25  O8  UNL     1      10.548  38.572  67.516  1.00  0.00    -0.532 OA
HETATM   26  O9  UNL     1      12.008  37.507  66.229  1.00  0.00    -0.532 OA
ENDBRANCH  23  24
ENDBRANCH  16  17
ENDBRANCH  13  16
ENDBRANCH   7   8
ENDBRANCH   3   7
BRANCH   4  27
HETATM   27  N7  UNL     1      16.248  32.887  67.580  1.00  0.00    -0.070 N 
ATOM     28  H73 UNL     1      15.961  33.847  67.776  1.00  0.00     0.274 HD
ATOM     29  H72 UNL     1      17.204  32.958  67.929  1.00  0.00     0.274 HD
ATOM     30  H71 UNL     1      16.205  32.656  66.587  1.00  0.00     0.274 HD
ENDBRANCH   4  27
BRANCH   1  31
HETATM   31  N2  UNL     1      18.236  30.698  70.869  1.00  0.00    -0.367 N 
ATOM     32  H2  UNL     1      18.714  29.953  70.364  1.00  0.00     0.158 HD
BRANCH  31  33
HETATM   33  C5  UNL     1      18.940  31.491  71.790  1.00  0.00     0.251 C 
BRANCH  33  34
HETATM   34  C4  UNL     1      20.276  30.763  72.084  1.00  0.00     0.225 C 
BRANCH  34  35
HETATM   35  C3  UNL     1      21.020  31.722  72.977  1.00  0.00     0.113 A 
HETATM   36  C2  UNL     1      21.951  31.344  73.931  1.00  0.00     0.087 A 
HETATM   37  C1  UNL     1      22.384  32.518  74.514  1.00  0.00     0.121 A 
HETATM   38  N9  UNL     1      21.720  33.540  73.911  1.00  0.00    -0.245 N 
HETATM   39  O10 UNL     1      20.939  33.009  73.024  1.00  0.00    -0.238 OA
ATOM     40  H9  UNL     1      21.817  34.535  74.118  1.00  0.00     0.196 HD
BRANCH  37  41
HETATM   41  N1  UNL     1      23.247  32.696  75.459  1.00  0.00    -0.384 N 
ATOM     42  H12 UNL     1      23.448  31.993  76.169  1.00  0.00     0.157 HD
ATOM     43  H11 UNL     1      23.841  33.503  75.651  1.00  0.00     0.157 HD
ENDBRANCH  37  41
ENDBRANCH  34  35
BRANCH  34  44
HETATM   44  O1  UNL     1      20.017  29.645  72.906  1.00  0.00    -0.384 OA
ATOM     45  H1  UNL     1      19.221  29.873  73.371  1.00  0.00     0.210 HD
ENDBRANCH  34  44
ENDBRANCH  33  34
BRANCH  33  46
HETATM   46  O2  UNL     1      19.375  32.739  71.323  1.00  0.00    -0.374 OA
ATOM     47  H2  UNL     1      18.684  33.319  71.619  1.00  0.00     0.212 HD
ENDBRANCH  33  46
ENDBRANCH  31  33
ENDBRANCH   1  31
BRANCH   6  48
HETATM   48  N8  UNL     1      16.762  28.687  69.735  1.00  0.00    -0.071 N 
ATOM     49  H83 UNL     1      16.301  28.044  69.092  1.00  0.00     0.274 HD
ATOM     50  H82 UNL     1      17.691  28.681  69.315  1.00  0.00     0.274 HD
ATOM     51  H81 UNL     1      16.773  28.326  70.689  1.00  0.00     0.274 HD
ENDBRANCH   6  48
TORSDOF 15
ENDMDL
MODEL 3
REMARK VINA RESULT: -9.290383301      1.750      9.657
REMARK  15 active torsions:
REMARK  status: ('A' for Active; 'I' for Inactive)
REMARK    1  A    between atoms: N1_1  and  C1_4 
REMARK    2  A    between atoms: C3_6  and  C4_7 
REMARK    3  A    between atoms: C4_7  and  O1_8 
REMARK    4  A    between atoms: C4_7  and  C5_10 
REMARK    5  A    between atoms: C5_10  and  O2_11 
REMARK    6  A    between atoms: C5_10  and  N2_13 
REMARK    7  A    between atoms: N2_13  and  C6_15 
REMARK    8  A    between atoms: C7_17  and  O4_18 
REMARK    9  A    between atoms: O4_18  and  C8_19 
REMARK   10  A    between atoms: C9_23  and  O5_24 
REMARK   11  A    between atoms: C10_26  and  O6_27 
REMARK   12  A    between atoms: O6_27  and  C11_28 
REMARK   13  A    between atoms: C14_34  and  N6_35 
REMARK   14  A    between atoms: C15_38  and  N7_39 
REMARK   15  A    between atoms: C17_44  and  N8_45 
ROOT
HETATM    1  C6  UNL     1      15.665  35.265  70.225  1.00  0.00     0.252 C 
HETATM    2  O3  UNL     1      15.424  33.956  70.710  1.00  0.00    -0.333 OA
HETATM    3  C7  UNL     1      16.548  33.231  70.478  1.00  0.00     0.295 C 
HETATM    4  C15 UNL     1      16.629  32.816  69.011  1.00  0.00     0.240 C 
HETATM    5  C16 UNL     1      16.548  34.084  68.195  1.00  0.00     0.075 C 
HETATM    6  C17 UNL     1      16.644  35.262  69.105  1.00  0.00     0.233 C 
ENDROOT
BRANCH   3   7
HETATM    7  O4  UNL     1      16.659  32.092  71.310  1.00  0.00    -0.324 OA
BRANCH   7   8
HETATM    8  C8  UNL     1      17.103  31.078  70.538  1.00  0.00     0.360 C 
HETATM    9  N3  UNL     1      16.486  29.746  70.860  1.00  0.00    -0.017 N 
HETATM   10  C9  UNL     1      17.576  29.241  70.085  1.00  0.00     0.355 C 
ATOM     11  H32 UNL     1      16.293  29.438  71.814  1.00  0.00     0.283 HD
ATOM     12  H31 UNL     1      15.512  29.522  70.659  1.00  0.00     0.283 HD
HETATM   13  C10 UNL     1      18.394  30.396  70.752  1.00  0.00     0.243 C 
BRANCH  10  14
HETATM   14  O5  UNL     1      18.081  28.015  70.178  1.00  0.00    -0.368 OA
ATOM     15  H5  UNL     1      18.588  27.578  69.503  1.00  0.00     0.212 HD
ENDBRANCH  10  14
BRANCH  13  16
HETATM   16  O6  UNL     1      18.861  30.114  71.974  1.00  0.00    -0.314 OA
BRANCH  16  17
HETATM   17  C11 UNL     1      20.139  30.040  72.448  1.00  0.00     0.223 A 
HETATM   18  O7  UNL     1      20.890  28.930  72.334  1.00  0.00    -0.269 OA
HETATM   19  C12 UNL     1      22.067  29.094  72.845  1.00  0.00     0.186 A 
HETATM   20  N4  UNL     1      23.112  28.099  72.887  1.00  0.00    -0.072 NA
HETATM   21  C13 UNL     1      22.185  30.361  73.347  1.00  0.00     0.132 A 
HETATM   22  N5  UNL     1      23.298  30.955  73.994  1.00  0.00    -0.095 NA
HETATM   23  C14 UNL     1      20.938  30.973  73.087  1.00  0.00     0.189 A 
BRANCH  23  24
HETATM   24  N6  UNL     1      20.726  32.325  73.354  1.00  0.00    -0.108 N 
HETATM   25  O8  UNL     1      20.946  32.885  74.407  1.00  0.00    -0.532 OA
HETATM   26  O9  UNL     1      20.251  33.113  72.312  1.00  0.00    -0.532 OA
ENDBRANCH  23  24
ENDBRANCH  16  17
ENDBRANCH  13  16
ENDBRANCH   7   8
ENDBRANCH   3   7
BRANCH   4  27
HETATM   27  N7  UNL     1      15.548  31.892  68.754  1.00  0.00    -0.070 N 
ATOM     28  H73 UNL     1      15.848  31.065  68.239  1.00  0.00     0.274 HD
ATOM     29  H72 UNL     1      15.224  31.417  69.597  1.00  0.00     0.274 HD
ATOM     30  H71 UNL     1      14.805  32.408  68.280  1.00  0.00     0.274 HD
ENDBRANCH   4  27
BRANCH   1  31
HETATM   31  N2  UNL     1      14.456  35.986  70.023  1.00  0.00    -0.367 N 
ATOM     32  H2  UNL     1      14.426  36.992  70.191  1.00  0.00     0.158 HD
BRANCH  31  33
HETATM   33  C5  UNL     1      13.305  35.308  69.592  1.00  0.00     0.251 C 
BRANCH  33  34
HETATM   34  C4  UNL     1      12.992  35.813  68.161  1.00  0.00     0.225 C 
BRANCH  34  35
HETATM   35  C3  UNL     1      11.577  36.322  68.261  1.00  0.00     0.113 A 
HETATM   36  C2  UNL     1      10.595  35.757  69.060  1.00  0.00     0.087 A 
HETATM   37  C1  UNL     1       9.465  36.523  68.856  1.00  0.00     0.121 A 
HETATM   38  N9  UNL     1       9.789  37.498  67.966  1.00  0.00    -0.245 N 
HETATM   39  O10 UNL     1      11.036  37.326  67.658  1.00  0.00    -0.238 OA
ATOM     40  H9  UNL     1       9.170  38.227  67.609  1.00  0.00     0.196 HD
BRANCH  37  41
HETATM   41  N1  UNL     1       8.286  36.399  69.370  1.00  0.00    -0.384 N 
ATOM     42  H12 UNL     1       7.824  35.499  69.495  1.00  0.00     0.157 HD
ATOM     43  H11 UNL     1       7.653  37.118  69.720  1.00  0.00     0.157 HD
ENDBRANCH  37  41
ENDBRANCH  34  35
BRANCH  34  44
HETATM   44  O1  UNL     1      13.765  36.966  67.904  1.00  0.00    -0.384 OA
ATOM     45  H1  UNL     1      14.662  36.687  68.043  1.00  0.00     0.210 HD
ENDBRANCH  34  44
ENDBRANCH  33  34
BRANCH  33  46
HETATM   46  O2  UNL     1      13.440  33.925  69.399  1.00  0.00    -0.374 OA
ATOM     47  H2  UNL     1      12.976  33.569  70.148  1.00  0.00     0.212 HD
ENDBRANCH  33  46
ENDBRANCH  31  33
ENDBRANCH   1  31
BRANCH   6  48
HETATM   48  N8  UNL     1      16.548  36.516  68.336  1.00  0.00    -0.071 N 
ATOM     49  H83 UNL     1      15.642  36.968  68.457  1.00  0.00     0.274 HD
ATOM     50  H82 UNL     1      17.137  37.249  68.729  1.00  0.00     0.274 HD
ATOM     51  H81 UNL     1      16.759  36.346  67.352  1.00  0.00     0.274 HD
ENDBRANCH   6  48
TORSDOF 15
ENDMDL
MODEL 4
REMARK VINA RESULT: -9.152448368      1.892      9.383
REMARK  15 active torsions:
REMARK  status: ('A' for Active; 'I' for Inactive)
REMARK    1  A    between atoms: N1_1  and  C1_4 
REMARK    2  A    between atoms: C3_6  and  C4_7 
REMARK    3  A    between atoms: C4_7  and  O1_8 
REMARK    4  A    between atoms: C4_7  and  C5_10 
REMARK    5  A    between atoms: C5_10  and  O2_11 
REMARK    6  A    between atoms: C5_10  and  N2_13 
REMARK    7  A    between atoms: N2_13  and  C6_15 
REMARK    8  A    between atoms: C7_17  and  O4_18 
REMARK    9  A    between atoms: O4_18  and  C8_19 
REMARK   10  A    between atoms: C9_23  and  O5_24 
REMARK   11  A    between atoms: C10_26  and  O6_27 
REMARK   12  A    between atoms: O6_27  and  C11_28 
REMARK   13  A    between atoms: C14_34  and  N6_35 
REMARK   14  A    between atoms: C15_38  and  N7_39 
REMARK   15  A    between atoms: C17_44  and  N8_45 
ROOT
HETATM    1  C6  UNL     1      13.001  34.583  68.496  1.00  0.00     0.252 C 
HETATM    2  O3  UNL     1      14.267  34.709  67.872  1.00  0.00    -0.333 OA
HETATM    3  C7  UNL     1      15.182  34.156  68.708  1.00  0.00     0.295 C 
HETATM    4  C15 UNL     1      15.504  35.106  69.859  1.00  0.00     0.240 C 
HETATM    5  C16 UNL     1      14.194  35.437  70.531  1.00  0.00     0.075 C 
HETATM    6  C17 UNL     1      13.122  34.559  69.978  1.00  0.00     0.233 C 
ENDROOT
BRANCH   3   7
HETATM    7  O4  UNL     1      16.373  33.767  68.053  1.00  0.00    -0.324 OA
BRANCH   7   8
HETATM    8  C8  UNL     1      16.260  32.452  67.770  1.00  0.00     0.360 C 
HETATM    9  N3  UNL     1      14.985  31.826  68.261  1.00  0.00    -0.017 N 
HETATM   10  C9  UNL     1      15.689  30.605  68.023  1.00  0.00     0.355 C 
ATOM     11  H32 UNL     1      14.562  32.057  69.160  1.00  0.00     0.283 HD
ATOM     12  H31 UNL     1      14.073  32.030  67.852  1.00  0.00     0.283 HD
HETATM   13  C10 UNL     1      16.936  31.392  68.544  1.00  0.00     0.243 C 
BRANCH  10  14
HETATM   14  O5  UNL     1      15.425  29.440  68.607  1.00  0.00    -0.368 OA
ATOM     15  H5  UNL     1      15.948  28.652  68.519  1.00  0.00     0.212 HD
ENDBRANCH  10  14
BRANCH  13  16
HETATM   16  O6  UNL     1      17.048  31.439  69.876  1.00  0.00    -0.314 OA
BRANCH  16  17
HETATM   17  C11 UNL     1      18.095  31.131  70.697  1.00  0.00     0.223 A 
HETATM   18  O7  UNL     1      18.887  32.070  71.245  1.00  0.00    -0.269 OA
HETATM   19  C12 UNL     1      19.803  31.547  71.992  1.00  0.00     0.186 A 
HETATM   20  N4  UNL     1      20.812  32.278  72.721  1.00  0.00    -0.072 NA
HETATM   21  C13 UNL     1      19.682  30.185  71.996  1.00  0.00     0.132 A 
HETATM   22  N5  UNL     1      20.477  29.228  72.674  1.00  0.00    -0.095 NA
HETATM   23  C14 UNL     1      18.574  29.917  71.159  1.00  0.00     0.189 A 
BRANCH  23  24
HETATM   24  N6  UNL     1      18.071  28.624  71.018  1.00  0.00    -0.108 N 
HETATM   25  O8  UNL     1      17.938  27.810  71.906  1.00  0.00    -0.532 OA
HETATM   26  O9  UNL     1      17.653  28.240  69.749  1.00  0.00    -0.532 OA
ENDBRANCH  23  24
ENDBRANCH  16  17
ENDBRANCH  13  16
ENDBRANCH   7   8
ENDBRANCH   3   7
BRANCH   4  27
HETATM   27  N7  UNL     1      16.178  36.258  69.304  1.00  0.00    -0.070 N 
ATOM     28  H73 UNL     1      16.583  36.075  68.385  1.00  0.00     0.274 HD
ATOM     29  H72 UNL     1      15.533  36.997  69.022  1.00  0.00     0.274 HD
ATOM     30  H71 UNL     1      16.868  36.573  69.986  1.00  0.00     0.274 HD
ENDBRANCH   4  27
BRANCH   1  31
HETATM   31  N2  UNL     1      12.044  35.475  67.940  1.00  0.00    -0.367 N 
ATOM     32  H2  UNL     1      11.051  35.246  67.973  1.00  0.00     0.158 HD
BRANCH  31  33
HETATM   33  C5  UNL     1      12.473  36.672  67.345  1.00  0.00     0.251 C 
BRANCH  33  34
HETATM   34  C4  UNL     1      11.213  37.549  67.136  1.00  0.00     0.225 C 
BRANCH  34  35
HETATM   35  C3  UNL     1      10.329  37.193  68.303  1.00  0.00     0.113 A 
HETATM   36  C2  UNL     1       9.024  36.738  68.188  1.00  0.00     0.087 A 
HETATM   37  C1  UNL     1       8.587  36.533  69.481  1.00  0.00     0.121 A 
HETATM   38  N9  UNL     1       9.611  36.862  70.314  1.00  0.00    -0.245 N 
HETATM   39  O10 UNL     1      10.598  37.239  69.564  1.00  0.00    -0.238 OA
ATOM     40  H9  UNL     1       9.604  36.820  71.333  1.00  0.00     0.196 HD
BRANCH  37  41
HETATM   41  N1  UNL     1       7.439  36.117  69.904  1.00  0.00    -0.384 N 
ATOM     42  H12 UNL     1       7.175  35.132  69.918  1.00  0.00     0.157 HD
ATOM     43  H11 UNL     1       6.653  36.649  70.274  1.00  0.00     0.157 HD
ENDBRANCH  37  41
ENDBRANCH  34  35
BRANCH  34  44
HETATM   44  O1  UNL     1      11.556  38.902  67.354  1.00  0.00    -0.384 OA
ATOM     45  H1  UNL     1      12.096  38.886  68.136  1.00  0.00     0.210 HD
ENDBRANCH  34  44
ENDBRANCH  33  34
BRANCH  33  46
HETATM   46  O2  UNL     1      13.285  37.497  68.136  1.00  0.00    -0.374 OA
ATOM     47  H2  UNL     1      13.973  37.746  67.530  1.00  0.00     0.212 HD
ENDBRANCH  33  46
ENDBRANCH  31  33
ENDBRANCH   1  31
BRANCH   6  48
HETATM   48  N8  UNL     1      11.825  34.875  70.604  1.00  0.00    -0.071 N 
ATOM     49  H83 UNL     1      11.113  34.181  70.376  1.00  0.00     0.274 HD
ATOM     50  H82 UNL     1      11.848  34.741  71.615  1.00  0.00     0.274 HD
ATOM     51  H81 UNL     1      11.529  35.818  70.352  1.00  0.00     0.274 HD
ENDBRANCH   6  48
TORSDOF 15
ENDMDL
MODEL 5
REMARK VINA RESULT: -9.138378589      0.806      1.865
REMARK  15 active torsions:
REMARK  status: ('A' for Active; 'I' for Inactive)
REMARK    1  A    between atoms: N1_1  and  C1_4 
REMARK    2  A    between atoms: C3_6  and  C4_7 
REMARK    3  A    between atoms: C4_7  and  O1_8 
REMARK    4  A    between atoms: C4_7  and  C5_10 
REMARK    5  A    between atoms: C5_10  and  O2_11 
REMARK    6  A    between atoms: C5_10  and  N2_13 
REMARK    7  A    between atoms: N2_13  and  C6_15 
REMARK    8  A    between atoms: C7_17  and  O4_18 
REMARK    9  A    between atoms: O4_18  and  C8_19 
REMARK   10  A    between atoms: C9_23  and  O5_24 
REMARK   11  A    between atoms: C10_26  and  O6_27 
REMARK   12  A    between atoms: O6_27  and  C11_28 
REMARK   13  A    between atoms: C14_34  and  N6_35 
REMARK   14  A    between atoms: C15_38  and  N7_39 
REMARK   15  A    between atoms: C17_44  and  N8_45 
ROOT
HETATM    1  C6  UNL     1      17.243  32.332  70.836  1.00  0.00     0.252 C 
HETATM    2  O3  UNL     1      17.584  32.520  69.475  1.00  0.00    -0.333 OA
HETATM    3  C7  UNL     1      16.486  33.020  68.852  1.00  0.00     0.295 C 
HETATM    4  C15 UNL     1      15.469  31.914  68.583  1.00  0.00     0.240 C 
HETATM    5  C16 UNL     1      15.169  31.265  69.913  1.00  0.00     0.075 C 
HETATM    6  C17 UNL     1      15.788  32.071  71.005  1.00  0.00     0.233 C 
ENDROOT
BRANCH   3   7
HETATM    7  O4  UNL     1      16.788  33.704  67.651  1.00  0.00    -0.324 OA
BRANCH   7   8
HETATM    8  C8  UNL     1      16.641  35.023  67.898  1.00  0.00     0.360 C 
HETATM    9  N3  UNL     1      16.313  35.348  69.328  1.00  0.00    -0.017 N 
HETATM   10  C9  UNL     1      15.950  36.618  68.781  1.00  0.00     0.355 C 
ATOM     11  H32 UNL     1      15.677  34.785  69.894  1.00  0.00     0.283 HD
ATOM     12  H31 UNL     1      16.982  35.242  70.090  1.00  0.00     0.283 HD
HETATM   13  C10 UNL     1      15.419  35.782  67.570  1.00  0.00     0.243 C 
BRANCH  10  14
HETATM   14  O5  UNL     1      15.103  37.479  69.336  1.00  0.00    -0.368 OA
ATOM     15  H5  UNL     1      15.306  38.380  69.562  1.00  0.00     0.212 HD
ENDBRANCH  10  14
BRANCH  13  16
HETATM   16  O6  UNL     1      14.193  35.273  67.741  1.00  0.00    -0.314 OA
BRANCH  16  17
HETATM   17  C11 UNL     1      12.984  35.887  67.900  1.00  0.00     0.223 A 
HETATM   18  O7  UNL     1      12.603  36.941  67.157  1.00  0.00    -0.269 OA
HETATM   19  C12 UNL     1      11.418  37.349  67.477  1.00  0.00     0.186 A 
HETATM   20  N4  UNL     1      10.719  38.457  66.872  1.00  0.00    -0.072 NA
HETATM   21  C13 UNL     1      10.913  36.572  68.483  1.00  0.00     0.132 A 
HETATM   22  N5  UNL     1       9.657  36.674  69.132  1.00  0.00    -0.095 NA
HETATM   23  C14 UNL     1      11.926  35.624  68.754  1.00  0.00     0.189 A 
BRANCH  23  24
HETATM   24  N6  UNL     1      11.716  34.579  69.653  1.00  0.00    -0.108 N 
HETATM   25  O8  UNL     1      10.654  34.041  69.883  1.00  0.00    -0.532 OA
HETATM   26  O9  UNL     1      12.828  34.084  70.324  1.00  0.00    -0.532 OA
ENDBRANCH  23  24
ENDBRANCH  16  17
ENDBRANCH  13  16
ENDBRANCH   7   8
ENDBRANCH   3   7
BRANCH   4  27
HETATM   27  N7  UNL     1      16.048  31.010  67.616  1.00  0.00    -0.070 N 
ATOM     28  H73 UNL     1      16.266  31.465  66.729  1.00  0.00     0.274 HD
ATOM     29  H72 UNL     1      16.997  30.724  67.858  1.00  0.00     0.274 HD
ATOM     30  H71 UNL     1      15.411  30.219  67.510  1.00  0.00     0.274 HD
ENDBRANCH   4  27
BRANCH   1  31
HETATM   31  N2  UNL     1      18.139  31.441  71.489  1.00  0.00    -0.367 N 
ATOM     32  H2  UNL     1      18.073  31.295  72.496  1.00  0.00     0.158 HD
BRANCH  31  33
HETATM   33  C5  UNL     1      19.114  30.764  70.740  1.00  0.00     0.251 C 
BRANCH  33  34
HETATM   34  C4  UNL     1      20.086  30.108  71.753  1.00  0.00     0.225 C 
BRANCH  34  35
HETATM   35  C3  UNL     1      20.616  31.273  72.549  1.00  0.00     0.113 A 
HETATM   36  C2  UNL     1      21.436  31.155  73.661  1.00  0.00     0.087 A 
HETATM   37  C1  UNL     1      21.684  32.447  74.078  1.00  0.00     0.121 A 
HETATM   38  N9  UNL     1      21.026  33.281  73.230  1.00  0.00    -0.245 N 
HETATM   39  O10 UNL     1      20.422  32.534  72.361  1.00  0.00    -0.238 OA
ATOM     40  H9  UNL     1      21.010  34.301  73.271  1.00  0.00     0.196 HD
BRANCH  37  41
HETATM   41  N1  UNL     1      22.391  32.866  75.075  1.00  0.00    -0.384 N 
ATOM     42  H12 UNL     1      23.398  32.724  75.142  1.00  0.00     0.157 HD
ATOM     43  H11 UNL     1      22.099  33.377  75.907  1.00  0.00     0.157 HD
ENDBRANCH  37  41
ENDBRANCH  34  35
BRANCH  34  44
HETATM   44  O1  UNL     1      19.338  29.356  72.685  1.00  0.00    -0.384 OA
ATOM     45  H1  UNL     1      19.670  28.470  72.596  1.00  0.00     0.210 HD
ENDBRANCH  34  44
ENDBRANCH  33  34
BRANCH  33  46
HETATM   46  O2  UNL     1      18.666  29.662  69.998  1.00  0.00    -0.374 OA
ATOM     47  H2  UNL     1      18.745  28.950  70.622  1.00  0.00     0.212 HD
ENDBRANCH  33  46
ENDBRANCH  31  33
ENDBRANCH   1  31
BRANCH   6  48
HETATM   48  N8  UNL     1      15.527  31.449  72.316  1.00  0.00    -0.071 N 
ATOM     49  H83 UNL     1      16.384  31.316  72.852  1.00  0.00     0.274 HD
ATOM     50  H82 UNL     1      15.048  32.087  72.950  1.00  0.00     0.274 HD
ATOM     51  H81 UNL     1      15.014  30.575  72.198  1.00  0.00     0.274 HD
ENDBRANCH   6  48
TORSDOF 15
ENDMDL
