MODEL 1
REMARK VINA RESULT: -9.132068605      0.000      0.000
REMARK  14 active torsions:
REMARK  status: ('A' for Active; 'I' for Inactive)
REMARK    1  A    between atoms: N1_1  and  C1_5 
REMARK    2  A    between atoms: C2_7  and  O2_8 
REMARK    3  A    between atoms: O2_8  and  C3_9 
REMARK    4  A    between atoms: C4_10  and  S1_11 
REMARK    5  A    between atoms: S1_11  and  C5_12 
REMARK    6  A    between atoms: C5_12  and  C6_13 
REMARK    7  A    between atoms: C7_17  and  O3_18 
REMARK    8  A    between atoms: C9_24  and  C10_25 
REMARK    9  A    between atoms: C10_25  and  C11_26 
REMARK   10  A    between atoms: C13_31  and  C14_32 
REMARK   11  A    between atoms: C14_32  and  O8_33 
REMARK   12  A    between atoms: C14_32  and  O9_35 
REMARK   13  A    between atoms: C17_43  and  N6_44 
REMARK   14  A    between atoms: C17_43  and  O11_48 
ROOT
HETATM    1  C3  UNL     1      15.982  30.293  70.046  1.00  0.00     0.164 A 
HETATM    2  C4  UNL     1      15.794  31.607  69.627  1.00  0.00     0.150 A 
HETATM    3  O7  UNL     1      15.486  31.742  68.363  1.00  0.00    -0.300 OA
HETATM    4  C13 UNL     1      15.349  30.763  67.505  1.00  0.00     0.112 A 
HETATM    5  C15 UNL     1      15.523  29.439  67.862  1.00  0.00     0.095 A 
HETATM    6  C16 UNL     1      15.851  29.226  69.189  1.00  0.00     0.211 A 
HETATM    7  O10 UNL     1      16.023  28.032  69.573  1.00  0.00    -0.285 OA
ENDROOT
BRANCH   2   8
HETATM    8  S1  UNL     1      15.994  32.862  70.828  1.00  0.00    -0.100 SA
BRANCH   8   9
HETATM    9  C5  UNL     1      14.965  34.293  70.736  1.00  0.00     0.119 C 
BRANCH   9  10
HETATM   10  C6  UNL     1      15.008  34.950  69.404  1.00  0.00     0.236 C 
HETATM   11  N2  UNL     1      15.835  36.146  69.458  1.00  0.00    -0.034 N 
HETATM   12  C7  UNL     1      15.521  36.816  68.177  1.00  0.00     0.373 C 
ATOM     13  H22 UNL     1      15.697  36.724  70.286  1.00  0.00     0.281 HD
ATOM     14  H21 UNL     1      16.827  35.973  69.618  1.00  0.00     0.281 HD
HETATM   15  C8  UNL     1      14.029  36.594  68.152  1.00  0.00     0.099 A 
HETATM   16  N3  UNL     1      12.853  37.054  67.693  1.00  0.00    -0.260 N 
HETATM   17  C12 UNL     1      13.715  35.464  68.896  1.00  0.00     0.034 A 
HETATM   18  O4  UNL     1      11.894  36.286  68.111  1.00  0.00    -0.241 OA
ATOM     19  H3  UNL     1      12.732  37.880  67.107  1.00  0.00     0.194 HD
HETATM   20  C9  UNL     1      12.353  35.305  68.845  1.00  0.00     0.097 A 
BRANCH  12  21
HETATM   21  O3  UNL     1      16.153  36.072  67.183  1.00  0.00    -0.365 OA
ATOM     22  H3  UNL     1      16.781  36.655  66.773  1.00  0.00     0.212 HD
ENDBRANCH  12  21
BRANCH  20  23
HETATM   23  C10 UNL     1      11.548  34.213  69.507  1.00  0.00     0.181 C 
BRANCH  23  24
HETATM   24  C11 UNL     1      10.283  34.798  69.973  1.00  0.00     0.178 C 
HETATM   25  O5  UNL     1       9.929  34.671  71.160  1.00  0.00    -0.648 OA
HETATM   26  O6  UNL     1       9.479  35.492  69.097  1.00  0.00    -0.648 OA
ENDBRANCH  23  24
ENDBRANCH  20  23
ENDBRANCH   9  10
ENDBRANCH   8   9
ENDBRANCH   2   8
BRANCH   1  27
HETATM   27  O2  UNL     1      16.312  30.023  71.352  1.00  0.00    -0.294 OA
BRANCH  27  28
HETATM   28  C2  UNL     1      17.680  29.895  71.700  1.00  0.00     0.391 C 
HETATM   29  O1  UNL     1      18.328  31.136  71.610  1.00  0.00    -0.304 OA
HETATM   30  C1  UNL     1      19.565  30.974  72.238  1.00  0.00     0.405 C 
HETATM   31  C17 UNL     1      20.389  29.916  71.530  1.00  0.00     0.367 C 
HETATM   32  N5  UNL     1      19.634  29.288  70.469  1.00  0.00    -0.070 NA
HETATM   33  N4  UNL     1      18.333  28.970  70.849  1.00  0.00    -0.284 N 
ATOM     34  H4  UNL     1      17.874  28.116  70.533  1.00  0.00     0.181 HD
BRANCH  30  35
HETATM   35  N1  UNL     1      20.218  32.267  72.255  1.00  0.00    -0.046 N 
ATOM     36  H13 UNL     1      21.223  32.202  72.420  1.00  0.00     0.277 HD
ATOM     37  H12 UNL     1      20.262  32.702  71.333  1.00  0.00     0.277 HD
ATOM     38  H11 UNL     1      19.738  32.845  72.944  1.00  0.00     0.277 HD
ENDBRANCH  30  35
BRANCH  31  39
HETATM   39  N6  UNL     1      20.870  28.952  72.496  1.00  0.00    -0.025 N 
ATOM     40  H63 UNL     1      20.949  29.351  73.431  1.00  0.00     0.280 HD
ATOM     41  H62 UNL     1      20.176  28.234  72.702  1.00  0.00     0.280 HD
ATOM     42  H61 UNL     1      21.752  28.555  72.170  1.00  0.00     0.280 HD
ENDBRANCH  31  39
BRANCH  31  43
HETATM   43  O11 UNL     1      21.482  30.552  70.957  1.00  0.00    -0.348 OA
ATOM     44  H11 UNL     1      21.235  31.455  70.795  1.00  0.00     0.214 HD
ENDBRANCH  31  43
ENDBRANCH  27  28
ENDBRANCH   1  27
BRANCH   4  45
HETATM   45  C14 UNL     1      14.991  31.057  66.071  1.00  0.00     0.312 C 
BRANCH  45  46
HETATM   46  O8  UNL     1      13.648  31.364  66.046  1.00  0.00    -0.365 OA
ATOM     47  H8  UNL     1      13.544  32.196  66.494  1.00  0.00     0.213 HD
ENDBRANCH  45  46
BRANCH  45  48
HETATM   48  O9  UNL     1      15.361  30.018  65.257  1.00  0.00    -0.365 OA
ATOM     49  H9  UNL     1      14.798  29.973  64.493  1.00  0.00     0.213 HD
ENDBRANCH  45  48
ENDBRANCH   4  45
TORSDOF 14
ENDMDL
MODEL 2
REMARK VINA RESULT: -8.665307852      1.089      1.620
REMARK  14 active torsions:
REMARK  status: ('A' for Active; 'I' for Inactive)
REMARK    1  A    between atoms: N1_1  and  C1_5 
REMARK    2  A    between atoms: C2_7  and  O2_8 
REMARK    3  A    between atoms: O2_8  and  C3_9 
REMARK    4  A    between atoms: C4_10  and  S1_11 
REMARK    5  A    between atoms: S1_11  and  C5_12 
REMARK    6  A    between atoms: C5_12  and  C6_13 
REMARK    7  A    between atoms: C7_17  and  O3_18 
REMARK    8  A    between atoms: C9_24  and  C10_25 
REMARK    9  A    between atoms: C10_25  and  C11_26 
REMARK   10  A    between atoms: C13_31  and  C14_32 
REMARK   11  A    between atoms: C14_32  and  O8_33 
REMARK   12  A    between atoms: C14_32  and  O9_35 
REMARK   13  A    between atoms: C17_43  and  N6_44 
REMARK   14  A    between atoms: C17_43  and  O11_48 
ROOT
HETATM    1  C3  UNL     1      16.793  30.454  70.343  1.00  0.00     0.164 A 
HETATM    2  C4  UNL     1      16.296  31.642  69.816  1.00  0.00     0.150 A 
HETATM    3  O7  UNL     1      15.766  31.536  68.625  1.00  0.00    -0.300 OA
HETATM    4  C13 UNL     1      15.676  30.431  67.928  1.00  0.00     0.112 A 
HETATM    5  C15 UNL     1      16.152  29.222  68.399  1.00  0.00     0.095 A 
HETATM    6  C16 UNL     1      16.726  29.264  69.656  1.00  0.00     0.211 A 
HETATM    7  O10 UNL     1      17.180  28.185  70.138  1.00  0.00    -0.285 OA
ENDROOT
BRANCH   2   8
HETATM    8  S1  UNL     1      16.451  33.077  70.803  1.00  0.00    -0.100 SA
BRANCH   8   9
HETATM    9  C5  UNL     1      15.215  34.331  70.673  1.00  0.00     0.119 C 
BRANCH   9  10
HETATM   10  C6  UNL     1      15.174  34.963  69.329  1.00  0.00     0.236 C 
HETATM   11  N2  UNL     1      16.014  36.151  69.304  1.00  0.00    -0.034 N 
HETATM   12  C7  UNL     1      15.621  36.801  68.035  1.00  0.00     0.373 C 
ATOM     13  H22 UNL     1      15.939  36.745  70.129  1.00  0.00     0.281 HD
ATOM     14  H21 UNL     1      17.013  35.971  69.400  1.00  0.00     0.281 HD
HETATM   15  C8  UNL     1      14.129  36.595  68.115  1.00  0.00     0.099 A 
HETATM   16  N3  UNL     1      12.928  37.059  67.728  1.00  0.00    -0.260 N 
HETATM   17  C12 UNL     1      13.855  35.482  68.900  1.00  0.00     0.034 A 
HETATM   18  O4  UNL     1      11.993  36.309  68.225  1.00  0.00    -0.241 OA
ATOM     19  H3  UNL     1      12.776  37.875  67.136  1.00  0.00     0.194 HD
HETATM   20  C9  UNL     1      12.491  35.337  68.944  1.00  0.00     0.097 A 
BRANCH  12  21
HETATM   21  O3  UNL     1      16.177  36.032  67.015  1.00  0.00    -0.365 OA
ATOM     22  H3  UNL     1      16.540  35.259  67.431  1.00  0.00     0.212 HD
ENDBRANCH  12  21
BRANCH  20  23
HETATM   23  C10 UNL     1      11.722  34.265  69.680  1.00  0.00     0.181 C 
BRANCH  23  24
HETATM   24  C11 UNL     1      10.363  34.767  69.925  1.00  0.00     0.178 C 
HETATM   25  O5  UNL     1       9.747  35.381  69.035  1.00  0.00    -0.648 OA
HETATM   26  O6  UNL     1       9.761  34.561  71.146  1.00  0.00    -0.648 OA
ENDBRANCH  23  24
ENDBRANCH  20  23
ENDBRANCH   9  10
ENDBRANCH   8   9
ENDBRANCH   2   8
BRANCH   1  27
HETATM   27  O2  UNL     1      17.377  30.439  71.587  1.00  0.00    -0.294 OA
BRANCH  27  28
HETATM   28  C2  UNL     1      18.756  30.747  71.699  1.00  0.00     0.391 C 
HETATM   29  O1  UNL     1      19.498  29.588  71.967  1.00  0.00    -0.304 OA
HETATM   30  C1  UNL     1      20.838  29.931  71.771  1.00  0.00     0.405 C 
HETATM   31  C17 UNL     1      21.251  31.034  72.727  1.00  0.00     0.367 C 
HETATM   32  N5  UNL     1      20.126  31.504  73.502  1.00  0.00    -0.070 NA
HETATM   33  N4  UNL     1      18.981  31.689  72.732  1.00  0.00    -0.284 N 
ATOM     34  H4  UNL     1      18.338  32.463  72.902  1.00  0.00     0.181 HD
BRANCH  30  35
HETATM   35  N1  UNL     1      21.626  28.728  71.939  1.00  0.00    -0.046 N 
ATOM     36  H13 UNL     1      21.287  28.133  72.695  1.00  0.00     0.277 HD
ATOM     37  H12 UNL     1      21.500  28.061  71.177  1.00  0.00     0.277 HD
ATOM     38  H11 UNL     1      22.598  29.011  72.060  1.00  0.00     0.277 HD
ENDBRANCH  30  35
BRANCH  31  39
HETATM   39  N6  UNL     1      21.882  32.104  71.985  1.00  0.00    -0.025 N 
ATOM     40  H63 UNL     1      21.274  32.479  71.257  1.00  0.00     0.280 HD
ATOM     41  H62 UNL     1      21.982  32.952  72.542  1.00  0.00     0.280 HD
ATOM     42  H61 UNL     1      22.775  31.780  71.613  1.00  0.00     0.280 HD
ENDBRANCH  31  39
BRANCH  31  43
HETATM   43  O11 UNL     1      22.182  30.497  73.607  1.00  0.00    -0.348 OA
ATOM     44  H11 UNL     1      23.020  30.902  73.419  1.00  0.00     0.214 HD
ENDBRANCH  31  43
ENDBRANCH  27  28
ENDBRANCH   1  27
BRANCH   4  45
HETATM   45  C14 UNL     1      15.040  30.447  66.562  1.00  0.00     0.312 C 
BRANCH  45  46
HETATM   46  O8  UNL     1      14.106  31.461  66.564  1.00  0.00    -0.365 OA
ATOM     47  H8  UNL     1      13.363  31.155  66.057  1.00  0.00     0.213 HD
ENDBRANCH  45  46
BRANCH  45  48
HETATM   48  O9  UNL     1      14.546  29.208  66.245  1.00  0.00    -0.365 OA
ATOM     49  H9  UNL     1      14.360  28.710  67.033  1.00  0.00     0.213 HD
ENDBRANCH  45  48
ENDBRANCH   4  45
TORSDOF 14
ENDMDL
MODEL 3
REMARK VINA RESULT: -8.586894224      2.375      5.108
REMARK  14 active torsions:
REMARK  status: ('A' for Active; 'I' for Inactive)
REMARK    1  A    between atoms: N1_1  and  C1_5 
REMARK    2  A    between atoms: C2_7  and  O2_8 
REMARK    3  A    between atoms: O2_8  and  C3_9 
REMARK    4  A    between atoms: C4_10  and  S1_11 
REMARK    5  A    between atoms: S1_11  and  C5_12 
REMARK    6  A    between atoms: C5_12  and  C6_13 
REMARK    7  A    between atoms: C7_17  and  O3_18 
REMARK    8  A    between atoms: C9_24  and  C10_25 
REMARK    9  A    between atoms: C10_25  and  C11_26 
REMARK   10  A    between atoms: C13_31  and  C14_32 
REMARK   11  A    between atoms: C14_32  and  O8_33 
REMARK   12  A    between atoms: C14_32  and  O9_35 
REMARK   13  A    between atoms: C17_43  and  N6_44 
REMARK   14  A    between atoms: C17_43  and  O11_48 
ROOT
HETATM    1  C3  UNL     1      16.935  29.756  70.745  1.00  0.00     0.164 A 
HETATM    2  C4  UNL     1      16.845  30.946  71.461  1.00  0.00     0.150 A 
HETATM    3  O7  UNL     1      17.987  31.417  71.890  1.00  0.00    -0.300 OA
HETATM    4  C13 UNL     1      19.158  30.865  71.697  1.00  0.00     0.112 A 
HETATM    5  C15 UNL     1      19.310  29.685  70.994  1.00  0.00     0.095 A 
HETATM    6  C16 UNL     1      18.138  29.131  70.511  1.00  0.00     0.211 A 
HETATM    7  O10 UNL     1      18.217  28.049  69.860  1.00  0.00    -0.285 OA
ENDROOT
BRANCH   2   8
HETATM    8  S1  UNL     1      15.249  31.625  71.679  1.00  0.00    -0.100 SA
BRANCH   8   9
HETATM    9  C5  UNL     1      14.841  33.119  70.832  1.00  0.00     0.119 C 
BRANCH   9  10
HETATM   10  C6  UNL     1      16.008  33.728  70.142  1.00  0.00     0.236 C 
HETATM   11  N2  UNL     1      16.893  34.359  71.108  1.00  0.00    -0.034 N 
HETATM   12  C7  UNL     1      17.799  35.152  70.249  1.00  0.00     0.373 C 
ATOM     13  H22 UNL     1      16.420  34.893  71.837  1.00  0.00     0.281 HD
ATOM     14  H21 UNL     1      17.362  33.714  71.744  1.00  0.00     0.281 HD
HETATM   15  C8  UNL     1      16.786  35.693  69.271  1.00  0.00     0.099 A 
HETATM   16  N3  UNL     1      16.500  36.692  68.419  1.00  0.00    -0.260 N 
HETATM   17  C12 UNL     1      15.698  34.833  69.206  1.00  0.00     0.034 A 
HETATM   18  O4  UNL     1      15.343  36.477  67.872  1.00  0.00    -0.241 OA
ATOM     19  H3  UNL     1      17.100  37.495  68.231  1.00  0.00     0.194 HD
HETATM   20  C9  UNL     1      14.807  35.366  68.308  1.00  0.00     0.097 A 
BRANCH  12  21
HETATM   21  O3  UNL     1      18.650  34.238  69.632  1.00  0.00    -0.365 OA
ATOM     22  H3  UNL     1      18.578  34.396  68.698  1.00  0.00     0.212 HD
ENDBRANCH  12  21
BRANCH  20  23
HETATM   23  C10 UNL     1      13.473  34.783  67.908  1.00  0.00     0.181 C 
BRANCH  23  24
HETATM   24  C11 UNL     1      12.427  35.462  68.685  1.00  0.00     0.178 C 
HETATM   25  O5  UNL     1      11.719  36.340  68.158  1.00  0.00    -0.648 OA
HETATM   26  O6  UNL     1      12.224  35.130  70.006  1.00  0.00    -0.648 OA
ENDBRANCH  23  24
ENDBRANCH  20  23
ENDBRANCH   9  10
ENDBRANCH   8   9
ENDBRANCH   2   8
BRANCH   1  27
HETATM   27  O2  UNL     1      15.802  29.161  70.245  1.00  0.00    -0.294 OA
BRANCH  27  28
HETATM   28  C2  UNL     1      15.268  29.629  69.018  1.00  0.00     0.391 C 
HETATM   29  O1  UNL     1      15.384  28.646  68.024  1.00  0.00    -0.304 OA
HETATM   30  C1  UNL     1      14.588  29.073  66.960  1.00  0.00     0.405 C 
HETATM   31  C17 UNL     1      15.083  30.401  66.422  1.00  0.00     0.367 C 
HETATM   32  N5  UNL     1      16.172  30.916  67.221  1.00  0.00    -0.070 NA
HETATM   33  N4  UNL     1      15.939  30.801  68.589  1.00  0.00    -0.284 N 
ATOM     34  H4  UNL     1      16.234  31.521  69.247  1.00  0.00     0.181 HD
BRANCH  30  35
HETATM   35  N1  UNL     1      14.603  28.028  65.957  1.00  0.00    -0.046 N 
ATOM     36  H13 UNL     1      14.568  27.092  66.358  1.00  0.00     0.277 HD
ATOM     37  H12 UNL     1      13.735  27.978  65.423  1.00  0.00     0.277 HD
ATOM     38  H11 UNL     1      15.422  28.179  65.368  1.00  0.00     0.277 HD
ENDBRANCH  30  35
BRANCH  31  39
HETATM   39  N6  UNL     1      13.979  31.334  66.347  1.00  0.00    -0.025 N 
ATOM     40  H63 UNL     1      13.101  30.916  66.653  1.00  0.00     0.280 HD
ATOM     41  H62 UNL     1      14.045  32.067  67.053  1.00  0.00     0.280 HD
ATOM     42  H61 UNL     1      13.918  31.713  65.402  1.00  0.00     0.280 HD
ENDBRANCH  31  39
BRANCH  31  43
HETATM   43  O11 UNL     1      15.563  30.180  65.138  1.00  0.00    -0.348 OA
ATOM     44  H11 UNL     1      15.733  31.028  64.746  1.00  0.00     0.214 HD
ENDBRANCH  31  43
ENDBRANCH  27  28
ENDBRANCH   1  27
BRANCH   4  45
HETATM   45  C14 UNL     1      20.402  31.514  72.247  1.00  0.00     0.312 C 
BRANCH  45  46
HETATM   46  O8  UNL     1      20.585  31.020  73.521  1.00  0.00    -0.365 OA
ATOM     47  H8  UNL     1      21.490  30.738  73.582  1.00  0.00     0.213 HD
ENDBRANCH  45  46
BRANCH  45  48
HETATM   48  O9  UNL     1      20.311  32.880  72.166  1.00  0.00    -0.365 OA
ATOM     49  H9  UNL     1      20.347  33.271  73.031  1.00  0.00     0.213 HD
ENDBRANCH  45  48
ENDBRANCH   4  45
TORSDOF 14
ENDMDL
MODEL 4
REMARK VINA RESULT: -8.559335680      2.175      4.845
REMARK  14 active torsions:
REMARK  status: ('A' for Active; 'I' for Inactive)
REMARK    1  A    between atoms: N1_1  and  C1_5 
REMARK    2  A    between atoms: C2_7  and  O2_8 
REMARK    3  A    between atoms: O2_8  and  C3_9 
REMARK    4  A    between atoms: C4_10  and  S1_11 
REMARK    5  A    between atoms: S1_11  and  C5_12 
REMARK    6  A    between atoms: C5_12  and  C6_13 
REMARK    7  A    between atoms: C7_17  and  O3_18 
REMARK    8  A    between atoms: C9_24  and  C10_25 
REMARK    9  A    between atoms: C10_25  and  C11_26 
REMARK   10  A    between atoms: C13_31  and  C14_32 
REMARK   11  A    between atoms: C14_32  and  O8_33 
REMARK   12  A    between atoms: C14_32  and  O9_35 
REMARK   13  A    between atoms: C17_43  and  N6_44 
REMARK   14  A    between atoms: C17_43  and  O11_48 
ROOT
HETATM    1  C3  UNL     1      16.915  29.810  70.843  1.00  0.00     0.164 A 
HETATM    2  C4  UNL     1      16.991  31.015  71.534  1.00  0.00     0.150 A 
HETATM    3  O7  UNL     1      18.197  31.359  71.908  1.00  0.00    -0.300 OA
HETATM    4  C13 UNL     1      19.288  30.671  71.684  1.00  0.00     0.112 A 
HETATM    5  C15 UNL     1      19.274  29.468  71.005  1.00  0.00     0.095 A 
HETATM    6  C16 UNL     1      18.028  29.045  70.580  1.00  0.00     0.211 A 
HETATM    7  O10 UNL     1      17.954  27.948  69.952  1.00  0.00    -0.285 OA
ENDROOT
BRANCH   2   8
HETATM    8  S1  UNL     1      15.495  31.880  71.796  1.00  0.00    -0.100 SA
BRANCH   8   9
HETATM    9  C5  UNL     1      15.422  33.594  71.381  1.00  0.00     0.119 C 
BRANCH   9  10
HETATM   10  C6  UNL     1      15.475  33.835  69.915  1.00  0.00     0.236 C 
HETATM   11  N2  UNL     1      16.710  34.518  69.561  1.00  0.00    -0.034 N 
HETATM   12  C7  UNL     1      16.459  34.940  68.166  1.00  0.00     0.373 C 
ATOM     13  H22 UNL     1      16.978  35.272  70.193  1.00  0.00     0.281 HD
ATOM     14  H21 UNL     1      17.557  33.967  69.695  1.00  0.00     0.281 HD
HETATM   15  C8  UNL     1      15.030  35.401  68.311  1.00  0.00     0.099 A 
HETATM   16  N3  UNL     1      14.078  36.214  67.821  1.00  0.00    -0.260 N 
HETATM   17  C12 UNL     1      14.432  34.734  69.371  1.00  0.00     0.034 A 
HETATM   18  O4  UNL     1      12.988  36.069  68.510  1.00  0.00    -0.241 OA
ATOM     19  H3  UNL     1      14.194  36.847  67.030  1.00  0.00     0.194 HD
HETATM   20  C9  UNL     1      13.139  35.186  69.464  1.00  0.00     0.097 A 
BRANCH  12  21
HETATM   21  O3  UNL     1      16.535  33.786  67.390  1.00  0.00    -0.365 OA
ATOM     22  H3  UNL     1      17.326  33.866  66.870  1.00  0.00     0.212 HD
ENDBRANCH  12  21
BRANCH  20  23
HETATM   23  C10 UNL     1      12.101  34.749  70.470  1.00  0.00     0.181 C 
BRANCH  23  24
HETATM   24  C11 UNL     1      10.775  34.936  69.866  1.00  0.00     0.178 C 
HETATM   25  O5  UNL     1      10.167  33.969  69.369  1.00  0.00    -0.648 OA
HETATM   26  O6  UNL     1      10.195  36.184  69.845  1.00  0.00    -0.648 OA
ENDBRANCH  23  24
ENDBRANCH  20  23
ENDBRANCH   9  10
ENDBRANCH   8   9
ENDBRANCH   2   8
BRANCH   1  27
HETATM   27  O2  UNL     1      15.701  29.341  70.400  1.00  0.00    -0.294 OA
BRANCH  27  28
HETATM   28  C2  UNL     1      15.218  29.778  69.141  1.00  0.00     0.391 C 
HETATM   29  O1  UNL     1      15.358  28.763  68.183  1.00  0.00    -0.304 OA
HETATM   30  C1  UNL     1      14.605  29.166  67.078  1.00  0.00     0.405 C 
HETATM   31  C17 UNL     1      15.135  30.473  66.519  1.00  0.00     0.367 C 
HETATM   32  N5  UNL     1      16.201  31.000  67.341  1.00  0.00    -0.070 NA
HETATM   33  N4  UNL     1      15.917  30.928  68.703  1.00  0.00    -0.284 N 
ATOM     34  H4  UNL     1      16.197  31.665  69.350  1.00  0.00     0.181 HD
BRANCH  30  35
HETATM   35  N1  UNL     1      14.644  28.092  66.108  1.00  0.00    -0.046 N 
ATOM     36  H13 UNL     1      14.607  28.425  65.144  1.00  0.00     0.277 HD
ATOM     37  H12 UNL     1      15.555  27.635  66.057  1.00  0.00     0.277 HD
ATOM     38  H11 UNL     1      13.889  27.445  66.335  1.00  0.00     0.277 HD
ENDBRANCH  30  35
BRANCH  31  39
HETATM   39  N6  UNL     1      14.046  31.414  66.376  1.00  0.00    -0.025 N 
ATOM     40  H63 UNL     1      13.207  31.111  66.872  1.00  0.00     0.280 HD
ATOM     41  H62 UNL     1      14.214  32.279  66.890  1.00  0.00     0.280 HD
ATOM     42  H61 UNL     1      13.869  31.582  65.386  1.00  0.00     0.280 HD
ENDBRANCH  31  39
BRANCH  31  43
HETATM   43  O11 UNL     1      15.658  30.207  65.261  1.00  0.00    -0.348 OA
ATOM     44  H11 UNL     1      16.330  30.855  65.088  1.00  0.00     0.214 HD
ENDBRANCH  31  43
ENDBRANCH  27  28
ENDBRANCH   1  27
BRANCH   4  45
HETATM   45  C14 UNL     1      20.619  31.181  72.172  1.00  0.00     0.312 C 
BRANCH  45  46
HETATM   46  O8  UNL     1      21.565  30.243  71.820  1.00  0.00    -0.365 OA
ATOM     47  H8  UNL     1      22.260  30.294  72.465  1.00  0.00     0.213 HD
ENDBRANCH  45  46
BRANCH  45  48
HETATM   48  O9  UNL     1      20.564  31.472  73.511  1.00  0.00    -0.365 OA
ATOM     49  H9  UNL     1      21.196  32.145  73.734  1.00  0.00     0.213 HD
ENDBRANCH  45  48
ENDBRANCH   4  45
TORSDOF 14
ENDMDL
MODEL 5
REMARK VINA RESULT: -8.527075923      2.196      4.912
REMARK  14 active torsions:
REMARK  status: ('A' for Active; 'I' for Inactive)
REMARK    1  A    between atoms: N1_1  and  C1_5 
REMARK    2  A    between atoms: C2_7  and  O2_8 
REMARK    3  A    between atoms: O2_8  and  C3_9 
REMARK    4  A    between atoms: C4_10  and  S1_11 
REMARK    5  A    between atoms: S1_11  and  C5_12 
REMARK    6  A    between atoms: C5_12  and  C6_13 
REMARK    7  A    between atoms: C7_17  and  O3_18 
REMARK    8  A    between atoms: C9_24  and  C10_25 
REMARK    9  A    between atoms: C10_25  and  C11_26 
REMARK   10  A    between atoms: C13_31  and  C14_32 
REMARK   11  A    between atoms: C14_32  and  O8_33 
REMARK   12  A    between atoms: C14_32  and  O9_35 
REMARK   13  A    between atoms: C17_43  and  N6_44 
REMARK   14  A    between atoms: C17_43  and  O11_48 
ROOT
HETATM    1  C3  UNL     1      17.103  29.942  70.634  1.00  0.00     0.164 A 
HETATM    2  C4  UNL     1      17.102  31.120  71.374  1.00  0.00     0.150 A 
HETATM    3  O7  UNL     1      18.230  31.391  71.978  1.00  0.00    -0.300 OA
HETATM    4  C13 UNL     1      19.312  30.656  71.933  1.00  0.00     0.112 A 
HETATM    5  C15 UNL     1      19.373  29.477  71.216  1.00  0.00     0.095 A 
HETATM    6  C16 UNL     1      18.211  29.131  70.551  1.00  0.00     0.211 A 
HETATM    7  O10 UNL     1      18.208  28.058  69.878  1.00  0.00    -0.285 OA
ENDROOT
BRANCH   2   8
HETATM    8  S1  UNL     1      15.621  32.050  71.388  1.00  0.00    -0.100 SA
BRANCH   8   9
HETATM    9  C5  UNL     1      15.720  33.804  71.208  1.00  0.00     0.119 C 
BRANCH   9  10
HETATM   10  C6  UNL     1      15.705  34.239  69.787  1.00  0.00     0.236 C 
HETATM   11  N2  UNL     1      16.795  35.168  69.532  1.00  0.00    -0.034 N 
HETATM   12  C7  UNL     1      16.449  35.716  68.203  1.00  0.00     0.373 C 
ATOM     13  H22 UNL     1      16.939  35.868  70.259  1.00  0.00     0.281 HD
ATOM     14  H21 UNL     1      17.727  34.761  69.597  1.00  0.00     0.281 HD
HETATM   15  C8  UNL     1      14.965  35.898  68.399  1.00  0.00     0.099 A 
HETATM   16  N3  UNL     1      13.877  36.588  68.016  1.00  0.00    -0.260 N 
HETATM   17  C12 UNL     1      14.511  35.004  69.360  1.00  0.00     0.034 A 
HETATM   18  O4  UNL     1      12.841  36.166  68.674  1.00  0.00    -0.241 OA
ATOM     19  H3  UNL     1      13.867  37.329  67.315  1.00  0.00     0.194 HD
HETATM   20  C9  UNL     1      13.161  35.207  69.505  1.00  0.00     0.097 A 
BRANCH  12  21
HETATM   21  O3  UNL     1      16.711  34.704  67.283  1.00  0.00    -0.365 OA
ATOM     22  H3  UNL     1      17.590  34.861  66.957  1.00  0.00     0.212 HD
ENDBRANCH  12  21
BRANCH  20  23
HETATM   23  C10 UNL     1      12.233  34.468  70.439  1.00  0.00     0.181 C 
BRANCH  23  24
HETATM   24  C11 UNL     1      10.852  34.816  70.080  1.00  0.00     0.178 C 
HETATM   25  O5  UNL     1      10.164  34.039  69.392  1.00  0.00    -0.648 OA
HETATM   26  O6  UNL     1      10.308  36.009  70.502  1.00  0.00    -0.648 OA
ENDBRANCH  23  24
ENDBRANCH  20  23
ENDBRANCH   9  10
ENDBRANCH   8   9
ENDBRANCH   2   8
BRANCH   1  27
HETATM   27  O2  UNL     1      15.974  29.549  69.956  1.00  0.00    -0.294 OA
BRANCH  27  28
HETATM   28  C2  UNL     1      15.844  29.891  68.587  1.00  0.00     0.391 C 
HETATM   29  O1  UNL     1      14.964  30.973  68.433  1.00  0.00    -0.304 OA
HETATM   30  C1  UNL     1      15.123  31.419  67.119  1.00  0.00     0.405 C 
HETATM   31  C17 UNL     1      14.761  30.322  66.136  1.00  0.00     0.367 C 
HETATM   32  N5  UNL     1      14.456  29.085  66.820  1.00  0.00    -0.070 NA
HETATM   33  N4  UNL     1      15.363  28.793  67.835  1.00  0.00    -0.284 N 
ATOM     34  H4  UNL     1      15.666  27.838  68.026  1.00  0.00     0.181 HD
BRANCH  30  35
HETATM   35  N1  UNL     1      14.304  32.601  66.957  1.00  0.00    -0.046 N 
ATOM     36  H13 UNL     1      13.388  32.513  67.397  1.00  0.00     0.277 HD
ATOM     37  H12 UNL     1      14.639  33.395  67.502  1.00  0.00     0.277 HD
ATOM     38  H11 UNL     1      14.247  32.802  65.958  1.00  0.00     0.277 HD
ENDBRANCH  30  35
BRANCH  31  39
HETATM   39  N6  UNL     1      15.833  30.159  65.178  1.00  0.00    -0.025 N 
ATOM     40  H63 UNL     1      15.592  29.500  64.438  1.00  0.00     0.280 HD
ATOM     41  H62 UNL     1      15.961  30.988  64.598  1.00  0.00     0.280 HD
ATOM     42  H61 UNL     1      16.689  29.895  65.666  1.00  0.00     0.280 HD
ENDBRANCH  31  39
BRANCH  31  43
HETATM   43  O11 UNL     1      13.620  30.728  65.458  1.00  0.00    -0.348 OA
ATOM     44  H11 UNL     1      13.870  30.911  64.561  1.00  0.00     0.214 HD
ENDBRANCH  31  43
ENDBRANCH  27  28
ENDBRANCH   1  27
BRANCH   4  45
HETATM   45  C14 UNL     1      20.550  31.084  72.678  1.00  0.00     0.312 C 
BRANCH  45  46
HETATM   46  O8  UNL     1      21.342  29.966  72.820  1.00  0.00    -0.365 OA
ATOM     47  H8  UNL     1      21.935  30.135  73.543  1.00  0.00     0.213 HD
ENDBRANCH  45  46
BRANCH  45  48
HETATM   48  O9  UNL     1      20.215  31.708  73.852  1.00  0.00    -0.365 OA
ATOM     49  H9  UNL     1      19.693  32.483  73.683  1.00  0.00     0.213 HD
ENDBRANCH  45  48
ENDBRANCH   4  45
TORSDOF 14
ENDMDL
