MODEL 1
REMARK VINA RESULT: -7.083738828      0.000      0.000
REMARK  9 active torsions:
REMARK  status: ('A' for Active; 'I' for Inactive)
REMARK    1  A    between atoms: C4_11  and  N3_12 
REMARK    2  A    between atoms: C5_14  and  C6_15 
REMARK    3  A    between atoms: C9_20  and  N5_21 
REMARK    4  A    between atoms: N5_21  and  C10_22 
REMARK    5  A    between atoms: C10_22  and  C11_23 
REMARK    6  A    between atoms: C11_23  and  C12_24 
REMARK    7  A    between atoms: C12_24  and  N6_25 
REMARK    8  A    between atoms: N6_25  and  C13_27 
REMARK    9  A    between atoms: C13_27  and  C14_28 
ROOT
HETATM    1  C6  UNL     1     -23.614  51.124  15.401  1.00  0.00     0.052 A 
HETATM    2  C7  UNL     1     -24.445  51.268  16.473  1.00  0.00     0.048 A 
HETATM    3  C8  UNL     1     -24.053  52.076  17.530  1.00  0.00     0.094 A 
HETATM    4  N4  UNL     1     -22.863  52.684  17.444  1.00  0.00    -0.326 N 
ATOM      5  H4  UNL     1     -22.573  53.278  18.221  1.00  0.00     0.169 HD
HETATM    6  C9  UNL     1     -22.016  52.560  16.392  1.00  0.00     0.258 A 
HETATM    7  N8  UNL     1     -22.439  51.747  15.359  1.00  0.00    -0.315 N 
ATOM      8  H8  UNL     1     -21.838  51.623  14.546  1.00  0.00     0.170 HD
ENDROOT
BRANCH   1   9
HETATM    9  C5  UNL     1     -24.011  50.254  14.253  1.00  0.00     0.119 C 
HETATM   10  N3  UNL     1     -24.381  48.989  14.589  1.00  0.00    -0.348 N 
ATOM     11  H3  UNL     1     -24.841  48.980  15.499  1.00  0.00     0.167 HD
BRANCH  10  12
HETATM   12  C4  UNL     1     -24.326  47.838  14.116  1.00  0.00     0.146 A 
HETATM   13  C3  UNL     1     -25.180  47.278  13.200  1.00  0.00     0.117 A 
HETATM   14  C2  UNL     1     -24.963  45.963  12.762  1.00  0.00     0.144 A 
HETATM   15 CL2  UNL     1     -26.566  48.161  12.562  1.00  0.00    -0.077 Cl
HETATM   16  N2  UNL     1     -23.943  45.235  13.216  1.00  0.00    -0.180 N 
HETATM   17 CL1  UNL     1     -26.085  45.298  11.593  1.00  0.00    -0.062 Cl
HETATM   18  C1  UNL     1     -23.097  45.775  14.118  1.00  0.00     0.678 A 
ATOM     19  H2  UNL     1     -23.805  44.281  12.885  1.00  0.00     0.185 HD
HETATM   20  N1  UNL     1     -22.125  45.006  14.514  1.00  0.00    -0.234 N 
HETATM   21  N9  UNL     1     -23.302  46.997  14.520  1.00  0.00    -0.175 N 
ATOM     22  H12 UNL     1     -21.963  44.049  14.198  1.00  0.00     0.174 HD
ATOM     23  H11 UNL     1     -21.485  45.414  15.196  1.00  0.00     0.174 HD
ATOM     24  H9  UNL     1     -22.643  47.372  15.202  1.00  0.00     0.186 HD
ENDBRANCH  10  12
ENDBRANCH   1   9
BRANCH   6  25
HETATM   25  N5  UNL     1     -20.959  53.099  16.368  1.00  0.00    -0.388 NA
BRANCH  25  26
HETATM   26  C10 UNL     1     -19.763  53.689  16.327  1.00  0.00     0.164 C 
BRANCH  26  27
HETATM   27  C11 UNL     1     -19.253  54.381  17.602  1.00  0.00     0.104 C 
BRANCH  27  28
HETATM   28  C12 UNL     1     -19.156  55.863  17.278  1.00  0.00     0.066 C 
BRANCH  28  29
HETATM   29  N6  UNL     1     -19.539  56.177  15.959  1.00  0.00    -0.380 N 
ATOM     30  H6  UNL     1     -19.999  55.468  15.388  1.00  0.00     0.164 HD
BRANCH  29  31
HETATM   31  C13 UNL     1     -19.297  57.446  15.421  1.00  0.00     0.092 C 
BRANCH  31  32
HETATM   32  C14 UNL     1     -20.161  57.926  14.309  1.00  0.00     0.224 C 
HETATM   33  C15 UNL     1     -20.920  59.186  14.676  1.00  0.00     0.040 C 
HETATM   34  C16 UNL     1     -21.940  59.290  13.580  1.00  0.00     0.030 C 
HETATM   35  C17 UNL     1     -22.148  57.869  13.140  1.00  0.00     0.233 C 
HETATM   36  N7  UNL     1     -21.197  57.051  13.867  1.00  0.00    -0.066 N 
ATOM     37  H72 UNL     1     -20.852  56.257  13.327  1.00  0.00     0.278 HD
ATOM     38  H71 UNL     1     -21.622  56.515  14.624  1.00  0.00     0.278 HD
ENDBRANCH  31  32
ENDBRANCH  29  31
ENDBRANCH  28  29
ENDBRANCH  27  28
ENDBRANCH  26  27
ENDBRANCH  25  26
ENDBRANCH   6  25
TORSDOF 9
ENDMDL
MODEL 2
REMARK VINA RESULT: -6.882715081      1.578      1.941
REMARK  9 active torsions:
REMARK  status: ('A' for Active; 'I' for Inactive)
REMARK    1  A    between atoms: C4_11  and  N3_12 
REMARK    2  A    between atoms: C5_14  and  C6_15 
REMARK    3  A    between atoms: C9_20  and  N5_21 
REMARK    4  A    between atoms: N5_21  and  C10_22 
REMARK    5  A    between atoms: C10_22  and  C11_23 
REMARK    6  A    between atoms: C11_23  and  C12_24 
REMARK    7  A    between atoms: C12_24  and  N6_25 
REMARK    8  A    between atoms: N6_25  and  C13_27 
REMARK    9  A    between atoms: C13_27  and  C14_28 
ROOT
HETATM    1  C6  UNL     1     -23.387  51.208  15.249  1.00  0.00     0.052 A 
HETATM    2  C7  UNL     1     -24.253  51.271  16.301  1.00  0.00     0.048 A 
HETATM    3  C8  UNL     1     -23.910  52.022  17.416  1.00  0.00     0.094 A 
HETATM    4  N4  UNL     1     -22.731  52.655  17.405  1.00  0.00    -0.326 N 
ATOM      5  H4  UNL     1     -22.478  53.207  18.225  1.00  0.00     0.169 HD
HETATM    6  C9  UNL     1     -21.850  52.611  16.374  1.00  0.00     0.258 A 
HETATM    7  N8  UNL     1     -22.224  51.855  15.282  1.00  0.00    -0.315 N 
ATOM      8  H8  UNL     1     -21.596  51.791  14.482  1.00  0.00     0.170 HD
ENDROOT
BRANCH   1   9
HETATM    9  C5  UNL     1     -23.731  50.402  14.039  1.00  0.00     0.119 C 
HETATM   10  N3  UNL     1     -24.667  49.435  14.236  1.00  0.00    -0.348 N 
ATOM     11  H3  UNL     1     -25.346  49.732  14.938  1.00  0.00     0.167 HD
BRANCH  10  12
HETATM   12  C4  UNL     1     -24.943  48.296  13.816  1.00  0.00     0.146 A 
HETATM   13  C3  UNL     1     -24.527  47.098  14.339  1.00  0.00     0.117 A 
HETATM   14  C2  UNL     1     -24.946  45.898  13.744  1.00  0.00     0.144 A 
HETATM   15 CL2  UNL     1     -23.459  47.017  15.740  1.00  0.00    -0.077 Cl
HETATM   16  N2  UNL     1     -25.741  45.889  12.676  1.00  0.00    -0.180 N 
HETATM   17 CL1  UNL     1     -24.384  44.399  14.453  1.00  0.00    -0.062 Cl
HETATM   18  C1  UNL     1     -26.156  47.062  12.151  1.00  0.00     0.678 A 
ATOM     19  H2  UNL     1     -26.032  45.006  12.258  1.00  0.00     0.185 HD
HETATM   20  N1  UNL     1     -26.931  46.974  11.110  1.00  0.00    -0.234 N 
HETATM   21  N9  UNL     1     -25.765  48.173  12.708  1.00  0.00    -0.175 N 
ATOM     22  H12 UNL     1     -27.237  46.104  10.673  1.00  0.00     0.174 HD
ATOM     23  H11 UNL     1     -27.244  47.860  10.713  1.00  0.00     0.174 HD
ATOM     24  H9  UNL     1     -26.098  49.039  12.285  1.00  0.00     0.186 HD
ENDBRANCH  10  12
ENDBRANCH   1   9
BRANCH   6  25
HETATM   25  N5  UNL     1     -20.804  53.171  16.417  1.00  0.00    -0.388 NA
BRANCH  25  26
HETATM   26  C10 UNL     1     -19.617  53.779  16.465  1.00  0.00     0.164 C 
BRANCH  26  27
HETATM   27  C11 UNL     1     -19.265  54.577  17.732  1.00  0.00     0.104 C 
BRANCH  27  28
HETATM   28  C12 UNL     1     -19.140  56.030  17.302  1.00  0.00     0.066 C 
BRANCH  28  29
HETATM   29  N6  UNL     1     -19.532  56.259  15.969  1.00  0.00    -0.380 N 
ATOM     30  H6  UNL     1     -20.036  55.532  15.462  1.00  0.00     0.164 HD
BRANCH  29  31
HETATM   31  C13 UNL     1     -19.242  57.470  15.329  1.00  0.00     0.092 C 
BRANCH  31  32
HETATM   32  C14 UNL     1     -20.156  57.947  14.256  1.00  0.00     0.224 C 
HETATM   33  C15 UNL     1     -20.891  59.212  14.653  1.00  0.00     0.040 C 
HETATM   34  C16 UNL     1     -21.962  59.316  13.605  1.00  0.00     0.030 C 
HETATM   35  C17 UNL     1     -22.195  57.893  13.183  1.00  0.00     0.233 C 
HETATM   36  N7  UNL     1     -21.214  57.074  13.869  1.00  0.00    -0.066 N 
ATOM     37  H72 UNL     1     -20.898  56.276  13.318  1.00  0.00     0.278 HD
ATOM     38  H71 UNL     1     -21.606  56.544  14.648  1.00  0.00     0.278 HD
ENDBRANCH  31  32
ENDBRANCH  29  31
ENDBRANCH  28  29
ENDBRANCH  27  28
ENDBRANCH  26  27
ENDBRANCH  25  26
ENDBRANCH   6  25
TORSDOF 9
ENDMDL
MODEL 3
REMARK VINA RESULT: -6.802028087      1.744      2.253
REMARK  9 active torsions:
REMARK  status: ('A' for Active; 'I' for Inactive)
REMARK    1  A    between atoms: C4_11  and  N3_12 
REMARK    2  A    between atoms: C5_14  and  C6_15 
REMARK    3  A    between atoms: C9_20  and  N5_21 
REMARK    4  A    between atoms: N5_21  and  C10_22 
REMARK    5  A    between atoms: C10_22  and  C11_23 
REMARK    6  A    between atoms: C11_23  and  C12_24 
REMARK    7  A    between atoms: C12_24  and  N6_25 
REMARK    8  A    between atoms: N6_25  and  C13_27 
REMARK    9  A    between atoms: C13_27  and  C14_28 
ROOT
HETATM    1  C6  UNL     1     -23.543  50.099  14.322  1.00  0.00     0.052 A 
HETATM    2  C7  UNL     1     -24.469  49.918  15.308  1.00  0.00     0.048 A 
HETATM    3  C8  UNL     1     -24.460  50.764  16.407  1.00  0.00     0.094 A 
HETATM    4  N4  UNL     1     -23.533  51.729  16.447  1.00  0.00    -0.326 N 
ATOM      5  H4  UNL     1     -23.526  52.351  17.255  1.00  0.00     0.169 HD
HETATM    6  C9  UNL     1     -22.602  51.933  15.482  1.00  0.00     0.258 A 
HETATM    7  N8  UNL     1     -22.640  51.072  14.404  1.00  0.00    -0.315 N 
ATOM      8  H8  UNL     1     -21.960  51.185  13.653  1.00  0.00     0.170 HD
ENDROOT
BRANCH   1   9
HETATM    9  C5  UNL     1     -23.528  49.197  13.130  1.00  0.00     0.119 C 
HETATM   10  N3  UNL     1     -24.564  48.319  13.057  1.00  0.00    -0.348 N 
ATOM     11  H3  UNL     1     -25.410  48.730  13.453  1.00  0.00     0.167 HD
BRANCH  10  12
HETATM   12  C4  UNL     1     -24.788  47.164  12.652  1.00  0.00     0.146 A 
HETATM   13  C3  UNL     1     -24.343  45.991  13.207  1.00  0.00     0.117 A 
HETATM   14  C2  UNL     1     -24.703  44.766  12.624  1.00  0.00     0.144 A 
HETATM   15 CL2  UNL     1     -23.309  45.974  14.635  1.00  0.00    -0.077 Cl
HETATM   16  N2  UNL     1     -25.469  44.709  11.536  1.00  0.00    -0.180 N 
HETATM   17 CL1  UNL     1     -24.105  43.301  13.375  1.00  0.00    -0.062 Cl
HETATM   18  C1  UNL     1     -25.912  45.857  10.980  1.00  0.00     0.678 A 
ATOM     19  H2  UNL     1     -25.718  43.809  11.129  1.00  0.00     0.185 HD
HETATM   20  N1  UNL     1     -26.657  45.722   9.922  1.00  0.00    -0.234 N 
HETATM   21  N9  UNL     1     -25.577  46.991  11.526  1.00  0.00    -0.175 N 
ATOM     22  H12 UNL     1     -26.920  44.834   9.494  1.00  0.00     0.174 HD
ATOM     23  H11 UNL     1     -26.992  46.589   9.501  1.00  0.00     0.174 HD
ATOM     24  H9  UNL     1     -25.930  47.837  11.079  1.00  0.00     0.186 HD
ENDBRANCH  10  12
ENDBRANCH   1   9
BRANCH   6  25
HETATM   25  N5  UNL     1     -21.782  52.787  15.570  1.00  0.00    -0.388 NA
BRANCH  25  26
HETATM   26  C10 UNL     1     -20.847  53.735  15.655  1.00  0.00     0.164 C 
BRANCH  26  27
HETATM   27  C11 UNL     1     -19.955  53.761  16.908  1.00  0.00     0.104 C 
BRANCH  27  28
HETATM   28  C12 UNL     1     -19.218  55.090  16.883  1.00  0.00     0.066 C 
BRANCH  28  29
HETATM   29  N6  UNL     1     -19.954  56.132  16.287  1.00  0.00    -0.380 N 
ATOM     30  H6  UNL     1     -20.953  56.213  16.477  1.00  0.00     0.164 HD
BRANCH  29  31
HETATM   31  C13 UNL     1     -19.337  57.057  15.437  1.00  0.00     0.092 C 
BRANCH  31  32
HETATM   32  C14 UNL     1     -20.147  57.688  14.361  1.00  0.00     0.224 C 
HETATM   33  C15 UNL     1     -20.733  59.018  14.791  1.00  0.00     0.040 C 
HETATM   34  C16 UNL     1     -21.746  59.297  13.718  1.00  0.00     0.030 C 
HETATM   35  C17 UNL     1     -22.138  57.934  13.226  1.00  0.00     0.233 C 
HETATM   36  N7  UNL     1     -21.291  56.971  13.903  1.00  0.00    -0.066 N 
ATOM     37  H72 UNL     1     -21.057  56.163  13.326  1.00  0.00     0.278 HD
ATOM     38  H71 UNL     1     -21.772  56.463  14.646  1.00  0.00     0.278 HD
ENDBRANCH  31  32
ENDBRANCH  29  31
ENDBRANCH  28  29
ENDBRANCH  27  28
ENDBRANCH  26  27
ENDBRANCH  25  26
ENDBRANCH   6  25
TORSDOF 9
ENDMDL
MODEL 4
REMARK VINA RESULT: -6.662824697      2.385      3.942
REMARK  9 active torsions:
REMARK  status: ('A' for Active; 'I' for Inactive)
REMARK    1  A    between atoms: C4_11  and  N3_12 
REMARK    2  A    between atoms: C5_14  and  C6_15 
REMARK    3  A    between atoms: C9_20  and  N5_21 
REMARK    4  A    between atoms: N5_21  and  C10_22 
REMARK    5  A    between atoms: C10_22  and  C11_23 
REMARK    6  A    between atoms: C11_23  and  C12_24 
REMARK    7  A    between atoms: C12_24  and  N6_25 
REMARK    8  A    between atoms: N6_25  and  C13_27 
REMARK    9  A    between atoms: C13_27  and  C14_28 
ROOT
HETATM    1  C6  UNL     1     -25.037  49.453  13.815  1.00  0.00     0.052 A 
HETATM    2  C7  UNL     1     -23.788  49.325  13.281  1.00  0.00     0.048 A 
HETATM    3  C8  UNL     1     -22.711  49.905  13.935  1.00  0.00     0.094 A 
HETATM    4  N4  UNL     1     -22.952  50.569  15.072  1.00  0.00    -0.326 N 
ATOM      5  H4  UNL     1     -22.161  50.995  15.553  1.00  0.00     0.169 HD
HETATM    6  C9  UNL     1     -24.182  50.711  15.626  1.00  0.00     0.258 A 
HETATM    7  N8  UNL     1     -25.231  50.122  14.948  1.00  0.00    -0.315 N 
ATOM      8  H8  UNL     1     -26.174  50.202  15.325  1.00  0.00     0.170 HD
ENDROOT
BRANCH   1   9
HETATM    9  C5  UNL     1     -26.215  48.843  13.126  1.00  0.00     0.119 C 
HETATM   10  N3  UNL     1     -26.235  47.483  13.112  1.00  0.00    -0.348 N 
ATOM     11  H3  UNL     1     -25.813  47.109  13.962  1.00  0.00     0.167 HD
BRANCH  10  12
HETATM   12  C4  UNL     1     -26.614  46.558  12.370  1.00  0.00     0.146 A 
HETATM   13  C3  UNL     1     -27.320  45.440  12.736  1.00  0.00     0.117 A 
HETATM   14  C2  UNL     1     -27.680  44.497  11.762  1.00  0.00     0.144 A 
HETATM   15 CL2  UNL     1     -27.780  45.140  14.411  1.00  0.00    -0.077 Cl
HETATM   16  N2  UNL     1     -27.352  44.655  10.481  1.00  0.00    -0.180 N 
HETATM   17 CL1  UNL     1     -28.580  43.088  12.286  1.00  0.00    -0.062 Cl
HETATM   18  C1  UNL     1     -26.656  45.751  10.108  1.00  0.00     0.678 A 
ATOM     19  H2  UNL     1     -27.623  43.957   9.789  1.00  0.00     0.185 HD
HETATM   20  N1  UNL     1     -26.373  45.839   8.841  1.00  0.00    -0.234 N 
HETATM   21  N9  UNL     1     -26.325  46.624  11.016  1.00  0.00    -0.175 N 
ATOM     22  H12 UNL     1     -26.632  45.155   8.130  1.00  0.00     0.174 HD
ATOM     23  H11 UNL     1     -25.847  46.666   8.560  1.00  0.00     0.174 HD
ATOM     24  H9  UNL     1     -25.801  47.439  10.699  1.00  0.00     0.186 HD
ENDBRANCH  10  12
ENDBRANCH   1   9
BRANCH   6  25
HETATM   25  N5  UNL     1     -24.354  51.329  16.626  1.00  0.00    -0.388 NA
BRANCH  25  26
HETATM   26  C10 UNL     1     -24.524  52.023  17.753  1.00  0.00     0.164 C 
BRANCH  26  27
HETATM   27  C11 UNL     1     -23.762  53.350  17.907  1.00  0.00     0.104 C 
BRANCH  27  28
HETATM   28  C12 UNL     1     -22.341  52.986  18.304  1.00  0.00     0.066 C 
BRANCH  28  29
HETATM   29  N6  UNL     1     -21.504  52.704  17.208  1.00  0.00    -0.380 N 
ATOM     30  H6  UNL     1     -21.717  51.909  16.605  1.00  0.00     0.164 HD
BRANCH  29  31
HETATM   31  C13 UNL     1     -20.384  53.498  16.932  1.00  0.00     0.092 C 
BRANCH  31  32
HETATM   32  C14 UNL     1     -20.423  54.400  15.749  1.00  0.00     0.224 C 
HETATM   33  C15 UNL     1     -19.972  55.807  16.088  1.00  0.00     0.040 C 
HETATM   34  C16 UNL     1     -20.399  56.592  14.882  1.00  0.00     0.030 C 
HETATM   35  C17 UNL     1     -21.571  55.822  14.344  1.00  0.00     0.233 C 
HETATM   36  N7  UNL     1     -21.693  54.614  15.138  1.00  0.00    -0.066 N 
ATOM     37  H72 UNL     1     -22.024  53.811  14.602  1.00  0.00     0.278 HD
ATOM     38  H71 UNL     1     -22.463  54.648  15.807  1.00  0.00     0.278 HD
ENDBRANCH  31  32
ENDBRANCH  29  31
ENDBRANCH  28  29
ENDBRANCH  27  28
ENDBRANCH  26  27
ENDBRANCH  25  26
ENDBRANCH   6  25
TORSDOF 9
ENDMDL
MODEL 5
REMARK VINA RESULT: -6.601400204      4.634      8.272
REMARK  9 active torsions:
REMARK  status: ('A' for Active; 'I' for Inactive)
REMARK    1  A    between atoms: C4_11  and  N3_12 
REMARK    2  A    between atoms: C5_14  and  C6_15 
REMARK    3  A    between atoms: C9_20  and  N5_21 
REMARK    4  A    between atoms: N5_21  and  C10_22 
REMARK    5  A    between atoms: C10_22  and  C11_23 
REMARK    6  A    between atoms: C11_23  and  C12_24 
REMARK    7  A    between atoms: C12_24  and  N6_25 
REMARK    8  A    between atoms: N6_25  and  C13_27 
REMARK    9  A    between atoms: C13_27  and  C14_28 
ROOT
HETATM    1  C6  UNL     1     -23.003  51.224  15.058  1.00  0.00     0.052 A 
HETATM    2  C7  UNL     1     -22.965  50.171  14.191  1.00  0.00     0.048 A 
HETATM    3  C8  UNL     1     -24.122  49.442  13.961  1.00  0.00     0.094 A 
HETATM    4  N4  UNL     1     -25.234  49.812  14.608  1.00  0.00    -0.326 N 
ATOM      5  H4  UNL     1     -26.085  49.276  14.440  1.00  0.00     0.169 HD
HETATM    6  C9  UNL     1     -25.302  50.853  15.474  1.00  0.00     0.258 A 
HETATM    7  N8  UNL     1     -24.131  51.556  15.679  1.00  0.00    -0.315 N 
ATOM      8  H8  UNL     1     -24.132  52.347  16.322  1.00  0.00     0.170 HD
ENDROOT
BRANCH   1   9
HETATM    9  C5  UNL     1     -21.768  52.021  15.327  1.00  0.00     0.119 C 
HETATM   10  N3  UNL     1     -21.983  53.319  15.672  1.00  0.00    -0.348 N 
ATOM     11  H3  UNL     1     -22.849  53.410  16.203  1.00  0.00     0.167 HD
BRANCH  10  12
HETATM   12  C4  UNL     1     -21.437  54.429  15.534  1.00  0.00     0.146 A 
HETATM   13  C3  UNL     1     -20.474  54.983  16.338  1.00  0.00     0.117 A 
HETATM   14  C2  UNL     1     -19.954  56.249  16.027  1.00  0.00     0.144 A 
HETATM   15 CL2  UNL     1     -19.872  54.155  17.773  1.00  0.00    -0.077 Cl
HETATM   16  N2  UNL     1     -20.375  56.935  14.966  1.00  0.00    -0.180 N 
HETATM   17 CL1  UNL     1     -18.726  56.909  17.088  1.00  0.00    -0.062 Cl
HETATM   18  C1  UNL     1     -21.324  56.401  14.168  1.00  0.00     0.678 A 
ATOM     19  H2  UNL     1     -19.985  57.854  14.759  1.00  0.00     0.185 HD
HETATM   20  N1  UNL     1     -21.683  57.128  13.151  1.00  0.00    -0.234 N 
HETATM   21  N9  UNL     1     -21.802  55.225  14.460  1.00  0.00    -0.175 N 
ATOM     22  H12 UNL     1     -21.309  58.049  12.921  1.00  0.00     0.174 HD
ATOM     23  H11 UNL     1     -22.401  56.724  12.548  1.00  0.00     0.174 HD
ATOM     24  H9  UNL     1     -22.517  54.853  13.836  1.00  0.00     0.186 HD
ENDBRANCH  10  12
ENDBRANCH   1   9
BRANCH   6  25
HETATM   25  N5  UNL     1     -26.305  51.132  16.045  1.00  0.00    -0.388 NA
BRANCH  25  26
HETATM   26  C10 UNL     1     -27.424  51.467  16.692  1.00  0.00     0.164 C 
BRANCH  26  27
HETATM   27  C11 UNL     1     -28.459  52.326  15.947  1.00  0.00     0.104 C 
BRANCH  27  28
HETATM   28  C12 UNL     1     -28.432  53.696  16.605  1.00  0.00     0.066 C 
BRANCH  28  29
HETATM   29  N6  UNL     1     -27.135  54.226  16.752  1.00  0.00    -0.380 N 
ATOM     30  H6  UNL     1     -26.469  54.140  15.985  1.00  0.00     0.164 HD
BRANCH  29  31
HETATM   31  C13 UNL     1     -26.748  54.867  17.934  1.00  0.00     0.092 C 
BRANCH  31  32
HETATM   32  C14 UNL     1     -26.831  56.352  18.000  1.00  0.00     0.224 C 
HETATM   33  C15 UNL     1     -26.411  56.888  19.354  1.00  0.00     0.040 C 
HETATM   34  C16 UNL     1     -26.880  58.314  19.306  1.00  0.00     0.030 C 
HETATM   35  C17 UNL     1     -28.040  58.283  18.352  1.00  0.00     0.233 C 
HETATM   36  N7  UNL     1     -28.116  56.939  17.811  1.00  0.00    -0.066 N 
ATOM     37  H72 UNL     1     -28.434  56.911  16.842  1.00  0.00     0.278 HD
ATOM     38  H71 UNL     1     -28.875  56.386  18.211  1.00  0.00     0.278 HD
ENDBRANCH  31  32
ENDBRANCH  29  31
ENDBRANCH  28  29
ENDBRANCH  27  28
ENDBRANCH  26  27
ENDBRANCH  25  26
ENDBRANCH   6  25
TORSDOF 9
ENDMDL
