MODEL 1
REMARK VINA RESULT: -5.807384087      0.000      0.000
REMARK  6 active torsions:
REMARK  status: ('A' for Active; 'I' for Inactive)
REMARK    1  A    between atoms: C2_2  and  N1_5 
REMARK    2  A    between atoms: N1_5  and  C4_7 
REMARK    3  A    between atoms: C5_10  and  N3_11 
REMARK    4  A    between atoms: C6_16  and  O1_17 
REMARK    5  A    between atoms: O1_17  and  C7_18 
REMARK    6  A    between atoms: C7_18  and  C8_19 
ROOT
HETATM    1  C4  UNL     1      44.242  14.804   1.886  1.00  0.00     0.144 A 
HETATM    2  N2  UNL     1      44.412  13.477   1.785  1.00  0.00    -0.175 N 
ATOM      3  H2  UNL     1      44.700  12.945   2.606  1.00  0.00     0.186 HD
HETATM    4  C5  UNL     1      44.204  12.826   0.603  1.00  0.00     0.679 A 
HETATM    5  N4  UNL     1      43.819  13.499  -0.508  1.00  0.00    -0.169 N 
ATOM      6  H4  UNL     1      43.670  12.995  -1.382  1.00  0.00     0.186 HD
HETATM    7  C6  UNL     1      43.634  14.836  -0.459  1.00  0.00     0.183 A 
HETATM    8  C10 UNL     1      43.849  15.466   0.738  1.00  0.00     0.129 A 
HETATM    9 CL2  UNL     1      43.616  17.194   0.825  1.00  0.00    -0.076 Cl
ENDROOT
BRANCH   1  10
HETATM   10  N1  UNL     1      44.425  15.433   2.953  1.00  0.00    -0.352 N 
ATOM     11  H1  UNL     1      43.603  15.965   3.237  1.00  0.00     0.163 HD
BRANCH  10  12
HETATM   12  C2  UNL     1      45.489  15.579   3.845  1.00  0.00     0.101 C 
HETATM   13  C1  UNL     1      46.405  16.708   3.356  1.00  0.00     0.056 C 
HETATM   14  C3  UNL     1      45.137  15.877   5.281  1.00  0.00     0.056 C 
HETATM   15 CL1  UNL     1      46.518  14.120   3.851  1.00  0.00    -0.096 Cl
ENDBRANCH  10  12
ENDBRANCH   1  10
BRANCH   4  16
HETATM   16  N3  UNL     1      44.362  11.554   0.489  1.00  0.00    -0.234 N 
ATOM     17  H32 UNL     1      45.106  11.129   1.042  1.00  0.00     0.174 HD
ATOM     18  H31 UNL     1      43.774  10.989  -0.124  1.00  0.00     0.174 HD
ENDBRANCH   4  16
BRANCH   7  19
HETATM   19  O1  UNL     1      43.235  15.532  -1.611  1.00  0.00    -0.333 OA
BRANCH  19  20
HETATM   20  C7  UNL     1      44.155  15.514  -2.686  1.00  0.00     0.193 C 
BRANCH  20  21
HETATM   21  C8  UNL     1      45.028  16.751  -2.687  1.00  0.00     0.081 A 
HETATM   22  C9  UNL     1      44.789  17.778  -3.810  1.00  0.00     0.091 A 
HETATM   23  S1  UNL     1      46.274  16.750  -4.019  1.00  0.00    -0.160 SA
ENDBRANCH  20  21
ENDBRANCH  19  20
ENDBRANCH   7  19
TORSDOF 6
ENDMDL
MODEL 2
REMARK VINA RESULT: -5.804012567      0.772      1.051
REMARK  6 active torsions:
REMARK  status: ('A' for Active; 'I' for Inactive)
REMARK    1  A    between atoms: C2_2  and  N1_5 
REMARK    2  A    between atoms: N1_5  and  C4_7 
REMARK    3  A    between atoms: C5_10  and  N3_11 
REMARK    4  A    between atoms: C6_16  and  O1_17 
REMARK    5  A    between atoms: O1_17  and  C7_18 
REMARK    6  A    between atoms: C7_18  and  C8_19 
ROOT
HETATM    1  C4  UNL     1      44.331  14.739   1.937  1.00  0.00     0.144 A 
HETATM    2  N2  UNL     1      44.493  13.412   1.829  1.00  0.00    -0.175 N 
ATOM      3  H2  UNL     1      44.806  12.878   2.640  1.00  0.00     0.186 HD
HETATM    4  C5  UNL     1      44.247  12.763   0.654  1.00  0.00     0.679 A 
HETATM    5  N4  UNL     1      43.830  13.438  -0.444  1.00  0.00    -0.169 N 
ATOM      6  H4  UNL     1      43.652  12.936  -1.315  1.00  0.00     0.186 HD
HETATM    7  C6  UNL     1      43.650  14.776  -0.389  1.00  0.00     0.183 A 
HETATM    8  C10 UNL     1      43.905  15.404   0.802  1.00  0.00     0.129 A 
HETATM    9 CL2  UNL     1      43.679  17.132   0.897  1.00  0.00    -0.076 Cl
ENDROOT
BRANCH   1  10
HETATM   10  N1  UNL     1      44.548  15.367   2.998  1.00  0.00    -0.352 N 
ATOM     11  H1  UNL     1      43.742  15.914   3.299  1.00  0.00     0.163 HD
BRANCH  10  12
HETATM   12  C2  UNL     1      45.634  15.495   3.866  1.00  0.00     0.101 C 
HETATM   13  C1  UNL     1      45.121  15.882   5.259  1.00  0.00     0.056 C 
HETATM   14  C3  UNL     1      46.517  14.283   4.035  1.00  0.00     0.056 C 
HETATM   15 CL1  UNL     1      46.689  16.846   3.370  1.00  0.00    -0.096 Cl
ENDBRANCH  10  12
ENDBRANCH   1  10
BRANCH   4  16
HETATM   16  N3  UNL     1      44.398  11.490   0.533  1.00  0.00    -0.234 N 
ATOM     17  H32 UNL     1      44.864  11.006   1.300  1.00  0.00     0.174 HD
ATOM     18  H31 UNL     1      44.070  10.983  -0.289  1.00  0.00     0.174 HD
ENDBRANCH   4  16
BRANCH   7  19
HETATM   19  O1  UNL     1      43.218  15.474  -1.527  1.00  0.00    -0.333 OA
BRANCH  19  20
HETATM   20  C7  UNL     1      44.136  15.520  -2.603  1.00  0.00     0.193 C 
BRANCH  20  21
HETATM   21  C8  UNL     1      44.917  16.817  -2.607  1.00  0.00     0.081 A 
HETATM   22  C9  UNL     1      44.766  17.722  -3.845  1.00  0.00     0.091 A 
HETATM   23  S1  UNL     1      46.331  16.801  -3.759  1.00  0.00    -0.160 SA
ENDBRANCH  20  21
ENDBRANCH  19  20
ENDBRANCH   7  19
TORSDOF 6
ENDMDL
MODEL 3
REMARK VINA RESULT: -5.511601452      2.912      5.536
REMARK  6 active torsions:
REMARK  status: ('A' for Active; 'I' for Inactive)
REMARK    1  A    between atoms: C2_2  and  N1_5 
REMARK    2  A    between atoms: N1_5  and  C4_7 
REMARK    3  A    between atoms: C5_10  and  N3_11 
REMARK    4  A    between atoms: C6_16  and  O1_17 
REMARK    5  A    between atoms: O1_17  and  C7_18 
REMARK    6  A    between atoms: C7_18  and  C8_19 
ROOT
HETATM    1  C4  UNL     1      43.820  14.473  -0.949  1.00  0.00     0.144 A 
HETATM    2  N2  UNL     1      43.895  13.134  -0.951  1.00  0.00    -0.175 N 
ATOM      3  H2  UNL     1      43.798  12.628  -1.831  1.00  0.00     0.186 HD
HETATM    4  C5  UNL     1      44.098  12.436   0.205  1.00  0.00     0.679 A 
HETATM    5  N4  UNL     1      44.232  13.074   1.393  1.00  0.00    -0.169 N 
ATOM      6  H4  UNL     1      44.383  12.535   2.246  1.00  0.00     0.186 HD
HETATM    7  C6  UNL     1      44.166  14.421   1.450  1.00  0.00     0.183 A 
HETATM    8  C10 UNL     1      43.960  15.099   0.276  1.00  0.00     0.129 A 
HETATM    9 CL2  UNL     1      43.870  16.841   0.325  1.00  0.00    -0.076 Cl
ENDROOT
BRANCH   1  10
HETATM   10  N1  UNL     1      43.633  15.145  -1.989  1.00  0.00    -0.352 N 
ATOM     11  H1  UNL     1      42.664  15.446  -2.089  1.00  0.00     0.163 HD
BRANCH  10  12
HETATM   12  C2  UNL     1      44.438  15.579  -3.043  1.00  0.00     0.101 C 
HETATM   13  C1  UNL     1      43.809  15.138  -4.371  1.00  0.00     0.056 C 
HETATM   14  C3  UNL     1      44.693  17.063  -3.139  1.00  0.00     0.056 C 
HETATM   15 CL1  UNL     1      46.032  14.776  -2.999  1.00  0.00    -0.096 Cl
ENDBRANCH  10  12
ENDBRANCH   1  10
BRANCH   4  16
HETATM   16  N3  UNL     1      44.173  11.151   0.221  1.00  0.00    -0.234 N 
ATOM     17  H32 UNL     1      43.369  10.638  -0.140  1.00  0.00     0.174 HD
ATOM     18  H31 UNL     1      44.994  10.662   0.577  1.00  0.00     0.174 HD
ENDBRANCH   4  16
BRANCH   7  19
HETATM   19  O1  UNL     1      44.305  15.080   2.681  1.00  0.00    -0.333 OA
BRANCH  19  20
HETATM   20  C7  UNL     1      45.559  14.927   3.318  1.00  0.00     0.193 C 
BRANCH  20  21
HETATM   21  C8  UNL     1      46.199  16.268   3.609  1.00  0.00     0.081 A 
HETATM   22  C9  UNL     1      47.592  16.252   4.267  1.00  0.00     0.091 A 
HETATM   23  S1  UNL     1      46.225  16.682   5.385  1.00  0.00    -0.160 SA
ENDBRANCH  20  21
ENDBRANCH  19  20
ENDBRANCH   7  19
TORSDOF 6
ENDMDL
MODEL 4
REMARK VINA RESULT: -5.490026505      1.838      2.335
REMARK  6 active torsions:
REMARK  status: ('A' for Active; 'I' for Inactive)
REMARK    1  A    between atoms: C2_2  and  N1_5 
REMARK    2  A    between atoms: N1_5  and  C4_7 
REMARK    3  A    between atoms: C5_10  and  N3_11 
REMARK    4  A    between atoms: C6_16  and  O1_17 
REMARK    5  A    between atoms: O1_17  and  C7_18 
REMARK    6  A    between atoms: C7_18  and  C8_19 
ROOT
HETATM    1  C4  UNL     1      44.363  14.790   1.865  1.00  0.00     0.144 A 
HETATM    2  N2  UNL     1      44.536  13.463   1.781  1.00  0.00    -0.175 N 
ATOM      3  H2  UNL     1      44.876  12.949   2.594  1.00  0.00     0.186 HD
HETATM    4  C5  UNL     1      44.266  12.787   0.626  1.00  0.00     0.679 A 
HETATM    5  N4  UNL     1      43.813  13.435  -0.474  1.00  0.00    -0.169 N 
ATOM      6  H4  UNL     1      43.616  12.913  -1.328  1.00  0.00     0.186 HD
HETATM    7  C6  UNL     1      43.620  14.771  -0.441  1.00  0.00     0.183 A 
HETATM    8  C10 UNL     1      43.900  15.427   0.729  1.00  0.00     0.129 A 
HETATM    9 CL2  UNL     1      43.659  17.154   0.795  1.00  0.00    -0.076 Cl
ENDROOT
BRANCH   1  10
HETATM   10  N1  UNL     1      44.603  15.442   2.907  1.00  0.00    -0.352 N 
ATOM     11  H1  UNL     1      43.847  16.083   3.148  1.00  0.00     0.163 HD
BRANCH  10  12
HETATM   12  C2  UNL     1      45.660  15.498   3.817  1.00  0.00     0.101 C 
HETATM   13  C1  UNL     1      45.113  15.869   5.202  1.00  0.00     0.056 C 
HETATM   14  C3  UNL     1      46.483  14.245   3.982  1.00  0.00     0.056 C 
HETATM   15 CL1  UNL     1      46.789  16.815   3.399  1.00  0.00    -0.096 Cl
ENDBRANCH  10  12
ENDBRANCH   1  10
BRANCH   4  16
HETATM   16  N3  UNL     1      44.426  11.513   0.528  1.00  0.00    -0.234 N 
ATOM     17  H32 UNL     1      43.938  11.044  -0.234  1.00  0.00     0.174 HD
ATOM     18  H31 UNL     1      45.014  10.991   1.178  1.00  0.00     0.174 HD
ENDBRANCH   4  16
BRANCH   7  19
HETATM   19  O1  UNL     1      43.150  15.441  -1.582  1.00  0.00    -0.333 OA
BRANCH  19  20
HETATM   20  C7  UNL     1      43.240  14.720  -2.795  1.00  0.00     0.193 C 
BRANCH  20  21
HETATM   21  C8  UNL     1      41.870  14.432  -3.371  1.00  0.00     0.081 A 
HETATM   22  C9  UNL     1      41.557  12.969  -3.739  1.00  0.00     0.091 A 
HETATM   23  S1  UNL     1      41.904  14.054  -5.155  1.00  0.00    -0.160 SA
ENDBRANCH  20  21
ENDBRANCH  19  20
ENDBRANCH   7  19
TORSDOF 6
ENDMDL
MODEL 5
REMARK VINA RESULT: -5.408835785      2.716      3.579
REMARK  6 active torsions:
REMARK  status: ('A' for Active; 'I' for Inactive)
REMARK    1  A    between atoms: C2_2  and  N1_5 
REMARK    2  A    between atoms: N1_5  and  C4_7 
REMARK    3  A    between atoms: C5_10  and  N3_11 
REMARK    4  A    between atoms: C6_16  and  O1_17 
REMARK    5  A    between atoms: O1_17  and  C7_18 
REMARK    6  A    between atoms: C7_18  and  C8_19 
ROOT
HETATM    1  C4  UNL     1      44.393  15.846   2.585  1.00  0.00     0.144 A 
HETATM    2  N2  UNL     1      43.970  17.108   2.428  1.00  0.00    -0.175 N 
ATOM      3  H2  UNL     1      44.073  17.771   3.197  1.00  0.00     0.186 HD
HETATM    4  C5  UNL     1      43.403  17.523   1.257  1.00  0.00     0.679 A 
HETATM    5  N4  UNL     1      43.250  16.672   0.214  1.00  0.00    -0.169 N 
ATOM      6  H4  UNL     1      42.824  17.000  -0.653  1.00  0.00     0.186 HD
HETATM    7  C6  UNL     1      43.661  15.390   0.320  1.00  0.00     0.183 A 
HETATM    8  C10 UNL     1      44.226  14.998   1.506  1.00  0.00     0.129 A 
HETATM    9 CL2  UNL     1      44.765  13.346   1.667  1.00  0.00    -0.076 Cl
ENDROOT
BRANCH   1  10
HETATM   10  N1  UNL     1      44.916  15.431   3.645  1.00  0.00    -0.352 N 
ATOM     11  H1  UNL     1      44.320  14.768   4.140  1.00  0.00     0.163 HD
BRANCH  10  12
HETATM   12  C2  UNL     1      46.122  15.663   4.309  1.00  0.00     0.101 C 
HETATM   13  C1  UNL     1      46.885  14.338   4.444  1.00  0.00     0.056 C 
HETATM   14  C3  UNL     1      47.064  16.660   3.681  1.00  0.00     0.056 C 
HETATM   15 CL1  UNL     1      45.832  16.201   5.986  1.00  0.00    -0.096 Cl
ENDBRANCH  10  12
ENDBRANCH   1  10
BRANCH   4  16
HETATM   16  N3  UNL     1      42.991  18.731   1.089  1.00  0.00    -0.234 N 
ATOM     17  H32 UNL     1      42.049  18.947   1.416  1.00  0.00     0.174 HD
ATOM     18  H31 UNL     1      43.573  19.444   0.651  1.00  0.00     0.174 HD
ENDBRANCH   4  16
BRANCH   7  19
HETATM   19  O1  UNL     1      43.503  14.510  -0.761  1.00  0.00    -0.333 OA
BRANCH  19  20
HETATM   20  C7  UNL     1      44.562  14.497  -1.700  1.00  0.00     0.193 C 
BRANCH  20  21
HETATM   21  C8  UNL     1      44.667  13.157  -2.397  1.00  0.00     0.081 A 
HETATM   22  C9  UNL     1      44.125  11.929  -1.641  1.00  0.00     0.091 A 
HETATM   23  S1  UNL     1      45.937  12.067  -1.672  1.00  0.00    -0.160 SA
ENDBRANCH  20  21
ENDBRANCH  19  20
ENDBRANCH   7  19
TORSDOF 6
ENDMDL
