MODEL 1
REMARK VINA RESULT: -6.650945526      0.000      0.000
REMARK  4 active torsions:
REMARK  status: ('A' for Active; 'I' for Inactive)
REMARK    1  A    between atoms: C4_8  and  C5_9 
REMARK    2  A    between atoms: C5_9  and  N3_10 
REMARK    3  A    between atoms: N3_10  and  C6_13 
REMARK    4  A    between atoms: C13_24  and  N5_25 
ROOT
HETATM    1  C1  UNL     1      44.762   9.049  -0.147  1.00  0.00     0.089 C 
HETATM    2  C2  UNL     1      44.500  10.506  -0.336  1.00  0.00     0.080 A 
HETATM    3  N1  UNL     1      44.406  11.323   0.732  1.00  0.00    -0.330 N 
ATOM      4  H1  UNL     1      44.517  10.926   1.665  1.00  0.00     0.168 HD
HETATM    5  C3  UNL     1      44.169  12.645   0.614  1.00  0.00     0.139 A 
HETATM    6  N2  UNL     1      44.029  13.668   1.474  1.00  0.00    -0.329 N 
ATOM      7  H2  UNL     1      44.087  13.592   2.490  1.00  0.00     0.168 HD
HETATM    8  C4  UNL     1      43.799  14.805   0.798  1.00  0.00     0.109 A 
HETATM    9  N4  UNL     1      43.796  14.479  -0.499  1.00  0.00    -0.338 N 
ATOM     10  H4  UNL     1      43.645  15.137  -1.263  1.00  0.00     0.167 HD
HETATM   11  C12 UNL     1      44.020  13.167  -0.653  1.00  0.00     0.122 A 
HETATM   12  C13 UNL     1      44.124  12.296  -1.712  1.00  0.00     0.131 A 
HETATM   13  N6  UNL     1      44.360  10.982  -1.587  1.00  0.00    -0.331 N 
ATOM     14  H6  UNL     1      44.430  10.372  -2.402  1.00  0.00     0.168 HD
ENDROOT
BRANCH   8  15
HETATM   15  C5  UNL     1      43.591  16.138   1.428  1.00  0.00     0.308 C 
BRANCH  15  16
HETATM   16  N3  UNL     1      44.854  16.723   1.710  1.00  0.00    -0.064 N 
ATOM     17  H32 UNL     1      45.513  16.573   0.947  1.00  0.00     0.278 HD
ATOM     18  H31 UNL     1      44.808  17.741   1.683  1.00  0.00     0.278 HD
BRANCH  16  19
HETATM   19  C6  UNL     1      45.385  16.251   2.966  1.00  0.00     0.192 C 
HETATM   20  C7  UNL     1      44.415  16.311   4.092  1.00  0.00     0.033 C 
HETATM   21  C8  UNL     1      45.074  15.556   5.234  1.00  0.00     0.008 C 
HETATM   22  C9  UNL     1      46.310  16.239   5.686  1.00  0.00     0.079 C 
HETATM   23  C10 UNL     1      47.187  16.797   4.648  1.00  0.00     0.245 C 
HETATM   24  F1  UNL     1      47.753  17.986   5.106  1.00  0.00    -0.206 F 
HETATM   25  F2  UNL     1      48.288  15.934   4.502  1.00  0.00    -0.206 F 
HETATM   26  C11 UNL     1      46.626  17.033   3.304  1.00  0.00     0.112 C 
ENDBRANCH  16  19
ENDBRANCH  15  16
ENDBRANCH   8  15
BRANCH  12  27
HETATM   27  N5  UNL     1      43.988  12.760  -2.908  1.00  0.00    -0.383 N 
ATOM     28  H52 UNL     1      44.201  13.747  -3.053  1.00  0.00     0.157 HD
ATOM     29  H51 UNL     1      43.678  12.127  -3.645  1.00  0.00     0.157 HD
ENDBRANCH  12  27
TORSDOF 4
ENDMDL
MODEL 2
REMARK VINA RESULT: -6.637859963      2.059      3.383
REMARK  4 active torsions:
REMARK  status: ('A' for Active; 'I' for Inactive)
REMARK    1  A    between atoms: C4_8  and  C5_9 
REMARK    2  A    between atoms: C5_9  and  N3_10 
REMARK    3  A    between atoms: N3_10  and  C6_13 
REMARK    4  A    between atoms: C13_24  and  N5_25 
ROOT
HETATM    1  C1  UNL     1      42.706   7.363  -3.054  1.00  0.00     0.089 C 
HETATM    2  C2  UNL     1      43.691   8.151  -2.258  1.00  0.00     0.080 A 
HETATM    3  N1  UNL     1      43.268   9.134  -1.436  1.00  0.00    -0.330 N 
ATOM      4  H1  UNL     1      42.268   9.323  -1.372  1.00  0.00     0.168 HD
HETATM    5  C3  UNL     1      44.117   9.876  -0.698  1.00  0.00     0.139 A 
HETATM    6  N2  UNL     1      43.984  10.888   0.177  1.00  0.00    -0.329 N 
ATOM      7  H2  UNL     1      43.098  11.308   0.457  1.00  0.00     0.168 HD
HETATM    8  C4  UNL     1      45.192  11.262   0.629  1.00  0.00     0.109 A 
HETATM    9  N4  UNL     1      46.084  10.471   0.024  1.00  0.00    -0.338 N 
ATOM     10  H4  UNL     1      47.093  10.518   0.165  1.00  0.00     0.167 HD
HETATM   11  C12 UNL     1      45.466   9.609  -0.796  1.00  0.00     0.122 A 
HETATM   12  C13 UNL     1      45.851   8.598  -1.645  1.00  0.00     0.131 A 
HETATM   13  N6  UNL     1      45.000   7.864  -2.377  1.00  0.00    -0.331 N 
ATOM     14  H6  UNL     1      45.330   7.123  -2.995  1.00  0.00     0.168 HD
ENDROOT
BRANCH   8  15
HETATM   15  C5  UNL     1      45.427  12.357   1.611  1.00  0.00     0.308 C 
BRANCH  15  16
HETATM   16  N3  UNL     1      44.456  13.375   1.415  1.00  0.00    -0.064 N 
ATOM     17  H32 UNL     1      44.488  13.743   0.465  1.00  0.00     0.278 HD
ATOM     18  H31 UNL     1      43.511  12.992   1.405  1.00  0.00     0.278 HD
BRANCH  16  19
HETATM   19  C6  UNL     1      44.589  14.427   2.393  1.00  0.00     0.192 C 
HETATM   20  C7  UNL     1      44.530  15.797   1.817  1.00  0.00     0.033 C 
HETATM   21  C8  UNL     1      44.439  16.734   3.010  1.00  0.00     0.008 C 
HETATM   22  C9  UNL     1      45.665  16.663   3.842  1.00  0.00     0.079 C 
HETATM   23  C10 UNL     1      46.246  15.333   4.068  1.00  0.00     0.245 C 
HETATM   24  F1  UNL     1      47.638  15.433   4.094  1.00  0.00    -0.206 F 
HETATM   25  F2  UNL     1      45.913  14.931   5.373  1.00  0.00    -0.206 F 
HETATM   26  C11 UNL     1      45.874  14.237   3.154  1.00  0.00     0.112 C 
ENDBRANCH  16  19
ENDBRANCH  15  16
ENDBRANCH   8  15
BRANCH  12  27
HETATM   27  N5  UNL     1      47.107   8.329  -1.755  1.00  0.00    -0.383 N 
ATOM     28  H52 UNL     1      47.635   8.205  -0.891  1.00  0.00     0.157 HD
ATOM     29  H51 UNL     1      47.511   8.254  -2.689  1.00  0.00     0.157 HD
ENDBRANCH  12  27
TORSDOF 4
ENDMDL
MODEL 3
REMARK VINA RESULT: -6.595308088      3.134      4.293
REMARK  4 active torsions:
REMARK  status: ('A' for Active; 'I' for Inactive)
REMARK    1  A    between atoms: C4_8  and  C5_9 
REMARK    2  A    between atoms: C5_9  and  N3_10 
REMARK    3  A    between atoms: N3_10  and  C6_13 
REMARK    4  A    between atoms: C13_24  and  N5_25 
ROOT
HETATM    1  C1  UNL     1      49.202   5.644   1.463  1.00  0.00     0.089 C 
HETATM    2  C2  UNL     1      48.344   6.800   1.070  1.00  0.00     0.080 A 
HETATM    3  N1  UNL     1      48.190   7.847   1.907  1.00  0.00    -0.330 N 
ATOM      4  H1  UNL     1      48.671   7.831   2.806  1.00  0.00     0.168 HD
HETATM    5  C3  UNL     1      47.425   8.913   1.599  1.00  0.00     0.139 A 
HETATM    6  N2  UNL     1      47.099  10.061   2.218  1.00  0.00    -0.329 N 
ATOM      7  H2  UNL     1      47.425  10.341   3.142  1.00  0.00     0.168 HD
HETATM    8  C4  UNL     1      46.280  10.783   1.436  1.00  0.00     0.109 A 
HETATM    9  N4  UNL     1      46.097  10.071   0.320  1.00  0.00    -0.338 N 
ATOM     10  H4  UNL     1      45.517  10.362  -0.467  1.00  0.00     0.167 HD
HETATM   11  C12 UNL     1      46.782   8.920   0.380  1.00  0.00     0.122 A 
HETATM   12  C13 UNL     1      46.967   7.832  -0.440  1.00  0.00     0.131 A 
HETATM   13  N6  UNL     1      47.730   6.775  -0.127  1.00  0.00    -0.331 N 
ATOM     14  H6  UNL     1      47.840   5.988  -0.767  1.00  0.00     0.168 HD
ENDROOT
BRANCH   8  15
HETATM   15  C5  UNL     1      45.715  12.112   1.802  1.00  0.00     0.308 C 
BRANCH  15  16
HETATM   16  N3  UNL     1      46.411  12.620   2.930  1.00  0.00    -0.064 N 
ATOM     17  H32 UNL     1      46.459  11.932   3.681  1.00  0.00     0.278 HD
ATOM     18  H31 UNL     1      47.409  12.717   2.740  1.00  0.00     0.278 HD
BRANCH  16  19
HETATM   19  C6  UNL     1      45.839  13.863   3.388  1.00  0.00     0.192 C 
HETATM   20  C7  UNL     1      45.089  14.605   2.340  1.00  0.00     0.033 C 
HETATM   21  C8  UNL     1      44.373  15.728   3.072  1.00  0.00     0.008 C 
HETATM   22  C9  UNL     1      45.341  16.679   3.672  1.00  0.00     0.079 C 
HETATM   23  C10 UNL     1      46.536  16.108   4.307  1.00  0.00     0.245 C 
HETATM   24  F1  UNL     1      47.627  16.948   4.084  1.00  0.00    -0.206 F 
HETATM   25  F2  UNL     1      46.351  16.160   5.701  1.00  0.00    -0.206 F 
HETATM   26  C11 UNL     1      46.928  14.729   3.961  1.00  0.00     0.112 C 
ENDBRANCH  16  19
ENDBRANCH  15  16
ENDBRANCH   8  15
BRANCH  12  27
HETATM   27  N5  UNL     1      46.375   7.815  -1.586  1.00  0.00    -0.383 N 
ATOM     28  H52 UNL     1      46.821   8.323  -2.349  1.00  0.00     0.157 HD
ATOM     29  H51 UNL     1      45.499   7.300  -1.674  1.00  0.00     0.157 HD
ENDBRANCH  12  27
TORSDOF 4
ENDMDL
MODEL 4
REMARK VINA RESULT: -6.591345702      4.010      7.571
REMARK  4 active torsions:
REMARK  status: ('A' for Active; 'I' for Inactive)
REMARK    1  A    between atoms: C4_8  and  C5_9 
REMARK    2  A    between atoms: C5_9  and  N3_10 
REMARK    3  A    between atoms: N3_10  and  C6_13 
REMARK    4  A    between atoms: C13_24  and  N5_25 
ROOT
HETATM    1  C1  UNL     1      46.353  16.669   5.406  1.00  0.00     0.089 C 
HETATM    2  C2  UNL     1      45.857  15.772   4.322  1.00  0.00     0.080 A 
HETATM    3  N1  UNL     1      46.447  14.578   4.107  1.00  0.00    -0.330 N 
ATOM      4  H1  UNL     1      47.232  14.305   4.697  1.00  0.00     0.168 HD
HETATM    5  C3  UNL     1      46.037  13.732   3.141  1.00  0.00     0.139 A 
HETATM    6  N2  UNL     1      46.423  12.518   2.711  1.00  0.00    -0.329 N 
ATOM      7  H2  UNL     1      47.191  11.974   3.104  1.00  0.00     0.168 HD
HETATM    8  C4  UNL     1      45.647  12.129   1.687  1.00  0.00     0.109 A 
HETATM    9  N4  UNL     1      44.770  13.116   1.480  1.00  0.00    -0.338 N 
ATOM     10  H4  UNL     1      44.047  13.110   0.761  1.00  0.00     0.167 HD
HETATM   11  C12 UNL     1      44.975  14.115   2.350  1.00  0.00     0.122 A 
HETATM   12  C13 UNL     1      44.406  15.340   2.605  1.00  0.00     0.131 A 
HETATM   13  N6  UNL     1      44.818  16.176   3.569  1.00  0.00    -0.331 N 
ATOM     14  H6  UNL     1      44.366  17.077   3.724  1.00  0.00     0.168 HD
ENDROOT
BRANCH   8  15
HETATM   15  C5  UNL     1      45.790  10.836   0.960  1.00  0.00     0.308 C 
BRANCH  15  16
HETATM   16  N3  UNL     1      46.124  11.097  -0.394  1.00  0.00    -0.064 N 
ATOM     17  H32 UNL     1      46.309  12.088  -0.549  1.00  0.00     0.278 HD
ATOM     18  H31 UNL     1      47.045  10.726  -0.630  1.00  0.00     0.278 HD
BRANCH  16  19
HETATM   19  C6  UNL     1      45.110  10.603  -1.294  1.00  0.00     0.192 C 
HETATM   20  C7  UNL     1      43.971  11.539  -1.492  1.00  0.00     0.033 C 
HETATM   21  C8  UNL     1      43.161  10.953  -2.636  1.00  0.00     0.008 C 
HETATM   22  C9  UNL     1      42.585   9.637  -2.267  1.00  0.00     0.079 C 
HETATM   23  C10 UNL     1      43.442   8.720  -1.505  1.00  0.00     0.245 C 
HETATM   24  F1  UNL     1      42.665   8.009  -0.590  1.00  0.00    -0.206 F 
HETATM   25  F2  UNL     1      43.911   7.731  -2.389  1.00  0.00    -0.206 F 
HETATM   26  C11 UNL     1      44.612   9.273  -0.796  1.00  0.00     0.112 C 
ENDBRANCH  16  19
ENDBRANCH  15  16
ENDBRANCH   8  15
BRANCH  12  27
HETATM   27  N5  UNL     1      43.411  15.722   1.879  1.00  0.00    -0.383 N 
ATOM     28  H52 UNL     1      43.604  15.942   0.902  1.00  0.00     0.157 HD
ATOM     29  H51 UNL     1      42.488  15.786   2.309  1.00  0.00     0.157 HD
ENDBRANCH  12  27
TORSDOF 4
ENDMDL
MODEL 5
REMARK VINA RESULT: -6.551446543      1.493      1.863
REMARK  4 active torsions:
REMARK  status: ('A' for Active; 'I' for Inactive)
REMARK    1  A    between atoms: C4_8  and  C5_9 
REMARK    2  A    between atoms: C5_9  and  N3_10 
REMARK    3  A    between atoms: N3_10  and  C6_13 
REMARK    4  A    between atoms: C13_24  and  N5_25 
ROOT
HETATM    1  C1  UNL     1      43.937   8.552  -1.032  1.00  0.00     0.089 C 
HETATM    2  C2  UNL     1      43.839  10.034  -1.172  1.00  0.00     0.080 A 
HETATM    3  N1  UNL     1      44.051  10.832  -0.106  1.00  0.00    -0.330 N 
ATOM      4  H1  UNL     1      44.279  10.403   0.791  1.00  0.00     0.168 HD
HETATM    5  C3  UNL     1      43.973  12.175  -0.180  1.00  0.00     0.139 A 
HETATM    6  N2  UNL     1      44.129  13.188   0.690  1.00  0.00    -0.329 N 
ATOM      7  H2  UNL     1      44.363  13.082   1.677  1.00  0.00     0.168 HD
HETATM    8  C4  UNL     1      43.930  14.360   0.066  1.00  0.00     0.109 A 
HETATM    9  N4  UNL     1      43.646  14.068  -1.207  1.00  0.00    -0.338 N 
ATOM     10  H4  UNL     1      43.444  14.757  -1.931  1.00  0.00     0.167 HD
HETATM   11  C12 UNL     1      43.663  12.741  -1.398  1.00  0.00     0.122 A 
HETATM   12  C13 UNL     1      43.455  11.889  -2.457  1.00  0.00     0.131 A 
HETATM   13  N6  UNL     1      43.535  10.553  -2.376  1.00  0.00    -0.331 N 
ATOM     14  H6  UNL     1      43.373   9.958  -3.188  1.00  0.00     0.168 HD
ENDROOT
BRANCH   8  15
HETATM   15  C5  UNL     1      44.018  15.695   0.722  1.00  0.00     0.308 C 
BRANCH  15  16
HETATM   16  N3  UNL     1      43.472  15.608   2.030  1.00  0.00    -0.064 N 
ATOM     17  H32 UNL     1      42.657  16.212   2.135  1.00  0.00     0.278 HD
ATOM     18  H31 UNL     1      43.022  14.707   2.187  1.00  0.00     0.278 HD
BRANCH  16  19
HETATM   19  C6  UNL     1      44.467  15.885   3.037  1.00  0.00     0.192 C 
HETATM   20  C7  UNL     1      45.530  16.826   2.593  1.00  0.00     0.033 C 
HETATM   21  C8  UNL     1      46.315  17.171   3.847  1.00  0.00     0.008 C 
HETATM   22  C9  UNL     1      46.995  15.974   4.400  1.00  0.00     0.079 C 
HETATM   23  C10 UNL     1      46.242  14.713   4.397  1.00  0.00     0.245 C 
HETATM   24  F1  UNL     1      47.112  13.653   4.143  1.00  0.00    -0.206 F 
HETATM   25  F2  UNL     1      45.794  14.474   5.708  1.00  0.00    -0.206 F 
HETATM   26  C11 UNL     1      45.078  14.589   3.499  1.00  0.00     0.112 C 
ENDBRANCH  16  19
ENDBRANCH  15  16
ENDBRANCH   8  15
BRANCH  12  27
HETATM   27  N5  UNL     1      43.163  12.394  -3.608  1.00  0.00    -0.383 N 
ATOM     28  H52 UNL     1      42.845  11.750  -4.332  1.00  0.00     0.157 HD
ATOM     29  H51 UNL     1      43.262  13.400  -3.738  1.00  0.00     0.157 HD
ENDBRANCH  12  27
TORSDOF 4
ENDMDL
