MODEL 1
REMARK VINA RESULT: -8.123686291      0.000      0.000
REMARK  7 active torsions:
REMARK  status: ('A' for Active; 'I' for Inactive)
REMARK       I    between atoms: N1_2  and  C2_4 
REMARK       I    between atoms: C2_4  and  N2_6 
REMARK    1  A    between atoms: N2_6  and  N3_7 
REMARK    2  A    between atoms: N2_6  and  N13_35 
REMARK       I    between atoms: N4_9  and  C3_11 
REMARK       I    between atoms: C3_11  and  N5_13 
REMARK    3  A    between atoms: N5_13  and  N6_15 
REMARK    4  A    between atoms: C4_17  and  C5_18 
REMARK    5  A    between atoms: C7_23  and  N9_24 
REMARK    6  A    between atoms: C8_29  and  N11_30 
REMARK    7  A    between atoms: N11_30  and  N12_32 
ROOT
HETATM    1  N6  UNL     1       9.228  85.708  41.727  1.00  0.00    -0.307 N 
ATOM      2  H6  UNL     1       9.925  86.442  41.854  1.00  0.00     0.186 HD
HETATM    3  C4  UNL     1       9.792  84.615  41.816  1.00  0.00     0.126 C 
ENDROOT
BRANCH   1   4
HETATM    4  N5  UNL     1       8.045  86.280  41.525  1.00  0.00    -0.251 N 
HETATM    5  C3  UNL     1       7.698  86.833  40.252  1.00  0.00     0.354 C 
HETATM    6  N4  UNL     1       6.437  87.442  40.108  1.00  0.00    -0.234 N 
HETATM    7  O2  UNL     1       8.508  86.761  39.316  1.00  0.00    -0.244 OA
HETATM    8  N3  UNL     1       5.403  86.769  39.769  1.00  0.00    -0.213 N 
ATOM      9  H4  UNL     1       6.345  88.444  40.277  1.00  0.00     0.193 HD
ATOM     10  H3  UNL     1       5.406  85.766  39.581  1.00  0.00     0.210 HD
ATOM     11  H5  UNL     1       7.374  86.327  42.292  1.00  0.00     0.191 HD
BRANCH   8  12
HETATM   12  N2  UNL     1       4.242  87.601  39.687  1.00  0.00    -0.125 N 
HETATM   13  C2  UNL     1       2.978  86.992  39.780  1.00  0.00     0.357 C 
HETATM   14  N1  UNL     1       1.790  87.790  39.729  1.00  0.00    -0.344 N 
HETATM   15  O1  UNL     1       2.914  85.740  39.913  1.00  0.00    -0.243 OA
HETATM   16  C1  UNL     1       0.513  87.116  39.831  1.00  0.00     0.151 C 
ATOM     17  H1  UNL     1       1.842  88.804  39.624  1.00  0.00     0.163 HD
BRANCH  12  18
HETATM   18  N13 UNL     1       4.473  88.954  39.527  1.00  0.00    -0.249 N 
HETATM   19  C9  UNL     1       4.620  89.742  40.531  1.00  0.00     0.217 C 
HETATM   20  N14 UNL     1       4.554  89.280  41.873  1.00  0.00    -0.065 NA
HETATM   21  N15 UNL     1       4.848  91.117  40.242  1.00  0.00    -0.065 NA
ATOM     22  H13 UNL     1       4.529  89.339  38.584  1.00  0.00     0.191 HD
ENDBRANCH  12  18
ENDBRANCH   8  12
ENDBRANCH   1   4
BRANCH   3  23
HETATM   23  C5  UNL     1      11.254  84.627  42.088  1.00  0.00     0.068 A 
HETATM   24  C6  UNL     1      11.851  85.678  42.759  1.00  0.00     0.147 A 
HETATM   25  N7  UNL     1      11.008  86.735  43.214  1.00  0.00    -0.081 NA
HETATM   26  N8  UNL     1      13.194  85.702  42.985  1.00  0.00    -0.178 N 
HETATM   27  C7  UNL     1      13.966  84.692  42.554  1.00  0.00     0.678 A 
ATOM     28  H8  UNL     1      13.614  86.488  43.482  1.00  0.00     0.185 HD
HETATM   29  N10 UNL     1      13.377  83.671  41.901  1.00  0.00    -0.175 N 
HETATM   30  C8  UNL     1      12.067  83.593  41.653  1.00  0.00     0.150 A 
ATOM     31  H10 UNL     1      13.971  82.909  41.575  1.00  0.00     0.186 HD
BRANCH  27  32
HETATM   32  N9  UNL     1      15.273  84.674  42.758  1.00  0.00    -0.234 N 
ATOM     33  H92 UNL     1      15.638  84.467  43.688  1.00  0.00     0.174 HD
ATOM     34  H91 UNL     1      15.938  84.867  42.010  1.00  0.00     0.174 HD
ENDBRANCH  27  32
BRANCH  30  35
HETATM   35  N11 UNL     1      11.492  82.610  41.035  1.00  0.00    -0.291 N 
ATOM     36  H11 UNL     1      10.836  81.991  41.512  1.00  0.00     0.188 HD
BRANCH  35  37
HETATM   37  N12 UNL     1      11.814  82.434  39.672  1.00  0.00    -0.344 N 
ATOM     38 2H12 UNL     1      12.718  82.737  39.308  1.00  0.00     0.176 HD
ATOM     39 1H12 UNL     1      11.107  81.995  39.082  1.00  0.00     0.176 HD
ENDBRANCH  35  37
ENDBRANCH  30  35
ENDBRANCH   3  23
TORSDOF 7
ENDMDL
MODEL 2
REMARK VINA RESULT: -8.109648218      1.128      2.279
REMARK  7 active torsions:
REMARK  status: ('A' for Active; 'I' for Inactive)
REMARK       I    between atoms: N1_2  and  C2_4 
REMARK       I    between atoms: C2_4  and  N2_6 
REMARK    1  A    between atoms: N2_6  and  N3_7 
REMARK    2  A    between atoms: N2_6  and  N13_35 
REMARK       I    between atoms: N4_9  and  C3_11 
REMARK       I    between atoms: C3_11  and  N5_13 
REMARK    3  A    between atoms: N5_13  and  N6_15 
REMARK    4  A    between atoms: C4_17  and  C5_18 
REMARK    5  A    between atoms: C7_23  and  N9_24 
REMARK    6  A    between atoms: C8_29  and  N11_30 
REMARK    7  A    between atoms: N11_30  and  N12_32 
ROOT
HETATM    1  N6  UNL     1       9.518  85.336  41.240  1.00  0.00    -0.307 N 
ATOM      2  H6  UNL     1      10.237  86.030  41.033  1.00  0.00     0.186 HD
HETATM    3  C4  UNL     1      10.048  84.387  41.821  1.00  0.00     0.126 C 
ENDROOT
BRANCH   1   4
HETATM    4  N5  UNL     1       8.353  85.787  40.783  1.00  0.00    -0.251 N 
HETATM    5  C3  UNL     1       7.537  86.659  41.572  1.00  0.00     0.354 C 
HETATM    6  N4  UNL     1       6.306  87.086  41.039  1.00  0.00    -0.234 N 
HETATM    7  O2  UNL     1       7.931  87.012  42.693  1.00  0.00    -0.244 OA
HETATM    8  N3  UNL     1       6.219  88.139  40.316  1.00  0.00    -0.213 N 
ATOM      9  H4  UNL     1       5.463  86.545  41.234  1.00  0.00     0.193 HD
ATOM     10  H3  UNL     1       7.009  88.736  40.073  1.00  0.00     0.210 HD
ATOM     11  H5  UNL     1       8.036  85.506  39.855  1.00  0.00     0.191 HD
BRANCH   8  12
HETATM   12  N2  UNL     1       4.872  88.371  39.893  1.00  0.00    -0.125 N 
HETATM   13  C2  UNL     1       3.978  87.286  39.890  1.00  0.00     0.357 C 
HETATM   14  N1  UNL     1       2.614  87.479  39.498  1.00  0.00    -0.344 N 
HETATM   15  O1  UNL     1       4.398  86.150  40.239  1.00  0.00    -0.243 OA
HETATM   16  C1  UNL     1       1.732  86.331  39.512  1.00  0.00     0.151 C 
ATOM     17  H1  UNL     1       2.274  88.399  39.217  1.00  0.00     0.163 HD
BRANCH  12  18
HETATM   18  N13 UNL     1       4.565  89.667  39.525  1.00  0.00    -0.249 N 
HETATM   19  C9  UNL     1       4.575  90.635  40.370  1.00  0.00     0.217 C 
HETATM   20  N14 UNL     1       4.900  90.441  41.740  1.00  0.00    -0.065 NA
HETATM   21  N15 UNL     1       4.237  91.926  39.875  1.00  0.00    -0.065 NA
ATOM     22  H13 UNL     1       4.324  89.862  38.553  1.00  0.00     0.191 HD
ENDBRANCH  12  18
ENDBRANCH   8  12
ENDBRANCH   1   4
BRANCH   3  23
HETATM   23  C5  UNL     1      11.509  84.482  42.082  1.00  0.00     0.068 A 
HETATM   24  C6  UNL     1      12.361  83.436  41.783  1.00  0.00     0.147 A 
HETATM   25  N7  UNL     1      11.795  82.274  41.180  1.00  0.00    -0.081 NA
HETATM   26  N8  UNL     1      13.696  83.513  42.046  1.00  0.00    -0.178 N 
HETATM   27  C7  UNL     1      14.207  84.621  42.606  1.00  0.00     0.678 A 
ATOM     28  H8  UNL     1      14.308  82.729  41.818  1.00  0.00     0.185 HD
HETATM   29  N10 UNL     1      13.370  85.636  42.895  1.00  0.00    -0.175 N 
HETATM   30  C8  UNL     1      12.056  85.617  42.658  1.00  0.00     0.150 A 
ATOM     31  H10 UNL     1      13.766  86.473  43.322  1.00  0.00     0.186 HD
BRANCH  27  32
HETATM   32  N9  UNL     1      15.498  84.738  42.873  1.00  0.00    -0.234 N 
ATOM     33  H92 UNL     1      16.111  83.930  42.770  1.00  0.00     0.174 HD
ATOM     34  H91 UNL     1      15.906  85.618  43.186  1.00  0.00     0.174 HD
ENDBRANCH  27  32
BRANCH  30  35
HETATM   35  N11 UNL     1      11.246  86.593  42.923  1.00  0.00    -0.291 N 
ATOM     36  H11 UNL     1      11.151  87.393  42.296  1.00  0.00     0.188 HD
BRANCH  35  37
HETATM   37  N12 UNL     1      10.499  86.501  44.118  1.00  0.00    -0.344 N 
ATOM     38 2H12 UNL     1      10.501  85.641  44.666  1.00  0.00     0.176 HD
ATOM     39 1H12 UNL     1       9.968  87.326  44.397  1.00  0.00     0.176 HD
ENDBRANCH  35  37
ENDBRANCH  30  35
ENDBRANCH   3  23
TORSDOF 7
ENDMDL
MODEL 3
REMARK VINA RESULT: -7.732825573      2.011      9.295
REMARK  7 active torsions:
REMARK  status: ('A' for Active; 'I' for Inactive)
REMARK       I    between atoms: N1_2  and  C2_4 
REMARK       I    between atoms: C2_4  and  N2_6 
REMARK    1  A    between atoms: N2_6  and  N3_7 
REMARK    2  A    between atoms: N2_6  and  N13_35 
REMARK       I    between atoms: N4_9  and  C3_11 
REMARK       I    between atoms: C3_11  and  N5_13 
REMARK    3  A    between atoms: N5_13  and  N6_15 
REMARK    4  A    between atoms: C4_17  and  C5_18 
REMARK    5  A    between atoms: C7_23  and  N9_24 
REMARK    6  A    between atoms: C8_29  and  N11_30 
REMARK    7  A    between atoms: N11_30  and  N12_32 
ROOT
HETATM    1  N6  UNL     1       6.918  86.716  40.134  1.00  0.00    -0.307 N 
ATOM      2  H6  UNL     1       7.107  87.686  39.882  1.00  0.00     0.186 HD
HETATM    3  C4  UNL     1       5.699  86.578  40.264  1.00  0.00     0.126 C 
ENDROOT
BRANCH   1   4
HETATM    4  N5  UNL     1       8.075  86.066  40.204  1.00  0.00    -0.251 N 
HETATM    5  C3  UNL     1       8.959  86.244  41.315  1.00  0.00     0.354 C 
HETATM    6  N4  UNL     1      10.179  85.541  41.320  1.00  0.00    -0.234 N 
HETATM    7  O2  UNL     1       8.632  87.006  42.236  1.00  0.00    -0.244 OA
HETATM    8  N3  UNL     1      10.270  84.364  41.813  1.00  0.00    -0.213 N 
ATOM      9  H4  UNL     1      11.009  85.979  40.922  1.00  0.00     0.193 HD
ATOM     10  H3  UNL     1       9.491  83.853  42.230  1.00  0.00     0.210 HD
ATOM     11  H5  UNL     1       8.338  85.428  39.451  1.00  0.00     0.191 HD
BRANCH   8  12
HETATM   12  N2  UNL     1      11.603  83.854  41.706  1.00  0.00    -0.125 N 
HETATM   13  C2  UNL     1      12.644  84.584  42.305  1.00  0.00     0.357 C 
HETATM   14  N1  UNL     1      13.991  84.097  42.244  1.00  0.00    -0.344 N 
HETATM   15  O1  UNL     1      12.371  85.665  42.894  1.00  0.00    -0.243 OA
HETATM   16  C1  UNL     1      15.028  84.884  42.876  1.00  0.00     0.151 C 
ATOM     17  H1  UNL     1      14.211  83.221  41.769  1.00  0.00     0.163 HD
BRANCH  12  18
HETATM   18  N13 UNL     1      11.746  82.665  41.017  1.00  0.00    -0.249 N 
HETATM   19  C9  UNL     1      11.628  82.600  39.739  1.00  0.00     0.217 C 
HETATM   20  N14 UNL     1      11.342  83.744  38.946  1.00  0.00    -0.065 NA
HETATM   21  N15 UNL     1      11.792  81.318  39.142  1.00  0.00    -0.065 NA
ATOM     22  H13 UNL     1      11.952  81.812  41.539  1.00  0.00     0.191 HD
ENDBRANCH  12  18
ENDBRANCH   8  12
ENDBRANCH   1   4
BRANCH   3  23
HETATM   23  C5  UNL     1       4.851  87.774  40.018  1.00  0.00     0.068 A 
HETATM   24  C6  UNL     1       5.355  89.053  40.166  1.00  0.00     0.147 A 
HETATM   25  N7  UNL     1       6.728  89.185  40.525  1.00  0.00    -0.081 NA
HETATM   26  N8  UNL     1       4.570  90.149  39.966  1.00  0.00    -0.178 N 
HETATM   27  C7  UNL     1       3.282  90.000  39.620  1.00  0.00     0.678 A 
ATOM     28  H8  UNL     1       4.962  91.085  40.081  1.00  0.00     0.185 HD
HETATM   29  N10 UNL     1       2.799  88.750  39.479  1.00  0.00    -0.175 N 
HETATM   30  C8  UNL     1       3.520  87.641  39.659  1.00  0.00     0.150 A 
ATOM     31  H10 UNL     1       1.819  88.645  39.218  1.00  0.00     0.186 HD
BRANCH  27  32
HETATM   32  N9  UNL     1       2.488  91.038  39.412  1.00  0.00    -0.234 N 
ATOM     33  H92 UNL     1       2.115  91.557  40.207  1.00  0.00     0.174 HD
ATOM     34  H91 UNL     1       2.230  91.340  38.473  1.00  0.00     0.174 HD
ENDBRANCH  27  32
BRANCH  30  35
HETATM   35  N11 UNL     1       3.066  86.436  39.515  1.00  0.00    -0.291 N 
ATOM     36  H11 UNL     1       3.484  85.784  38.850  1.00  0.00     0.188 HD
BRANCH  35  37
HETATM   37  N12 UNL     1       1.966  86.064  40.318  1.00  0.00    -0.344 N 
ATOM     38 2H12 UNL     1       1.022  86.370  40.080  1.00  0.00     0.176 HD
ATOM     39 1H12 UNL     1       2.163  85.485  41.134  1.00  0.00     0.176 HD
ENDBRANCH  35  37
ENDBRANCH  30  35
ENDBRANCH   3  23
TORSDOF 7
ENDMDL
MODEL 4
REMARK VINA RESULT: -7.673377649      4.332      5.569
REMARK  7 active torsions:
REMARK  status: ('A' for Active; 'I' for Inactive)
REMARK       I    between atoms: N1_2  and  C2_4 
REMARK       I    between atoms: C2_4  and  N2_6 
REMARK    1  A    between atoms: N2_6  and  N3_7 
REMARK    2  A    between atoms: N2_6  and  N13_35 
REMARK       I    between atoms: N4_9  and  C3_11 
REMARK       I    between atoms: C3_11  and  N5_13 
REMARK    3  A    between atoms: N5_13  and  N6_15 
REMARK    4  A    between atoms: C4_17  and  C5_18 
REMARK    5  A    between atoms: C7_23  and  N9_24 
REMARK    6  A    between atoms: C8_29  and  N11_30 
REMARK    7  A    between atoms: N11_30  and  N12_32 
ROOT
HETATM    1  N6  UNL     1       5.300  84.512  43.597  1.00  0.00    -0.307 N 
ATOM      2  H6  UNL     1       4.675  83.894  44.115  1.00  0.00     0.186 HD
HETATM    3  C4  UNL     1       6.407  84.492  44.140  1.00  0.00     0.126 C 
ENDROOT
BRANCH   1   4
HETATM    4  N5  UNL     1       4.622  85.044  42.584  1.00  0.00    -0.251 N 
HETATM    5  C3  UNL     1       3.419  84.439  42.101  1.00  0.00     0.354 C 
HETATM    6  N4  UNL     1       2.758  85.040  41.013  1.00  0.00    -0.234 N 
HETATM    7  O2  UNL     1       2.992  83.411  42.648  1.00  0.00    -0.244 OA
HETATM    8  N3  UNL     1       1.881  85.956  41.187  1.00  0.00    -0.213 N 
ATOM      9  H4  UNL     1       2.982  84.739  40.065  1.00  0.00     0.193 HD
ATOM     10  H3  UNL     1       1.596  86.315  42.098  1.00  0.00     0.210 HD
ATOM     11  H5  UNL     1       4.967  85.897  42.144  1.00  0.00     0.191 HD
BRANCH   8  12
HETATM   12  N2  UNL     1       1.348  86.412  39.939  1.00  0.00    -0.125 N 
HETATM   13  C2  UNL     1       0.628  85.499  39.149  1.00  0.00     0.357 C 
HETATM   14  N1  UNL     1       0.055  85.920  37.905  1.00  0.00    -0.344 N 
HETATM   15  O1  UNL     1       0.494  84.314  39.557  1.00  0.00    -0.243 OA
HETATM   16  C1  UNL     1      -0.679  84.944  37.128  1.00  0.00     0.151 C 
ATOM     17  H1  UNL     1       0.161  86.880  37.576  1.00  0.00     0.163 HD
BRANCH  12  18
HETATM   18  N13 UNL     1       1.590  87.735  39.622  1.00  0.00    -0.249 N 
HETATM   19  C9  UNL     1       2.779  88.219  39.581  1.00  0.00     0.217 C 
HETATM   20  N14 UNL     1       3.928  87.431  39.860  1.00  0.00    -0.065 NA
HETATM   21  N15 UNL     1       2.902  89.598  39.247  1.00  0.00    -0.065 NA
ATOM     22  H13 UNL     1       0.800  88.346  39.414  1.00  0.00     0.191 HD
ENDBRANCH  12  18
ENDBRANCH   8  12
ENDBRANCH   1   4
BRANCH   3  23
HETATM   23  C5  UNL     1       6.562  83.615  45.331  1.00  0.00     0.068 A 
HETATM   24  C6  UNL     1       5.761  83.772  46.447  1.00  0.00     0.147 A 
HETATM   25  N7  UNL     1       4.755  84.782  46.402  1.00  0.00    -0.081 NA
HETATM   26  N8  UNL     1       5.921  82.985  47.549  1.00  0.00    -0.178 N 
HETATM   27  C7  UNL     1       6.869  82.036  47.564  1.00  0.00     0.678 A 
ATOM     28  H8  UNL     1       5.319  83.119  48.362  1.00  0.00     0.185 HD
HETATM   29  N10 UNL     1       7.645  81.889  46.473  1.00  0.00    -0.175 N 
HETATM   30  C8  UNL     1       7.534  82.628  45.366  1.00  0.00     0.150 A 
ATOM     31  H10 UNL     1       8.365  81.167  46.494  1.00  0.00     0.186 HD
BRANCH  27  32
HETATM   32  N9  UNL     1       7.053  81.248  48.612  1.00  0.00    -0.234 N 
ATOM     33  H92 UNL     1       6.355  81.224  49.355  1.00  0.00     0.174 HD
ATOM     34  H91 UNL     1       7.880  80.660  48.705  1.00  0.00     0.174 HD
ENDBRANCH  27  32
BRANCH  30  35
HETATM   35  N11 UNL     1       8.269  82.487  44.309  1.00  0.00    -0.291 N 
ATOM     36  H11 UNL     1       8.002  81.855  43.554  1.00  0.00     0.188 HD
BRANCH  35  37
HETATM   37  N12 UNL     1       9.459  83.245  44.248  1.00  0.00    -0.344 N 
ATOM     38 2H12 UNL     1       9.424  84.265  44.242  1.00  0.00     0.176 HD
ATOM     39 1H12 UNL     1      10.336  82.728  44.212  1.00  0.00     0.176 HD
ENDBRANCH  35  37
ENDBRANCH  30  35
ENDBRANCH   3  23
TORSDOF 7
ENDMDL
MODEL 5
REMARK VINA RESULT: -7.346915050      1.745      2.075
REMARK  7 active torsions:
REMARK  status: ('A' for Active; 'I' for Inactive)
REMARK       I    between atoms: N1_2  and  C2_4 
REMARK       I    between atoms: C2_4  and  N2_6 
REMARK    1  A    between atoms: N2_6  and  N3_7 
REMARK    2  A    between atoms: N2_6  and  N13_35 
REMARK       I    between atoms: N4_9  and  C3_11 
REMARK       I    between atoms: C3_11  and  N5_13 
REMARK    3  A    between atoms: N5_13  and  N6_15 
REMARK    4  A    between atoms: C4_17  and  C5_18 
REMARK    5  A    between atoms: C7_23  and  N9_24 
REMARK    6  A    between atoms: C8_29  and  N11_30 
REMARK    7  A    between atoms: N11_30  and  N12_32 
ROOT
HETATM    1  N6  UNL     1       7.761  86.152  42.171  1.00  0.00    -0.307 N 
ATOM      2  H6  UNL     1       8.436  86.161  41.407  1.00  0.00     0.186 HD
HETATM    3  C4  UNL     1       8.315  85.698  43.176  1.00  0.00     0.126 C 
ENDROOT
BRANCH   1   4
HETATM    4  N5  UNL     1       6.607  86.634  41.720  1.00  0.00    -0.251 N 
HETATM    5  C3  UNL     1       6.290  86.608  40.325  1.00  0.00     0.354 C 
HETATM    6  N4  UNL     1       5.060  87.152  39.908  1.00  0.00    -0.234 N 
HETATM    7  O2  UNL     1       7.098  86.112  39.526  1.00  0.00    -0.244 OA
HETATM    8  N3  UNL     1       3.996  86.442  39.863  1.00  0.00    -0.213 N 
ATOM      9  H4  UNL     1       5.015  88.133  39.635  1.00  0.00     0.193 HD
ATOM     10  H3  UNL     1       3.952  85.456  40.118  1.00  0.00     0.210 HD
ATOM     11  H5  UNL     1       5.937  87.030  42.379  1.00  0.00     0.191 HD
BRANCH   8  12
HETATM   12  N2  UNL     1       2.876  87.209  39.410  1.00  0.00    -0.125 N 
HETATM   13  C2  UNL     1       1.616  86.587  39.370  1.00  0.00     0.357 C 
HETATM   14  N1  UNL     1       0.463  87.325  38.948  1.00  0.00    -0.344 N 
HETATM   15  O1  UNL     1       1.522  85.378  39.713  1.00  0.00    -0.243 OA
HETATM   16  C1  UNL     1      -0.812  86.641  38.924  1.00  0.00     0.151 C 
ATOM     17  H1  UNL     1       0.538  88.305  38.672  1.00  0.00     0.163 HD
BRANCH  12  18
HETATM   18  N13 UNL     1       3.139  88.518  39.054  1.00  0.00    -0.249 N 
HETATM   19  C9  UNL     1       3.550  89.386  39.907  1.00  0.00     0.217 C 
HETATM   20  N14 UNL     1       3.761  89.063  41.275  1.00  0.00    -0.065 NA
HETATM   21  N15 UNL     1       3.782  90.705  39.423  1.00  0.00    -0.065 NA
ATOM     22  H13 UNL     1       3.003  88.804  38.084  1.00  0.00     0.191 HD
ENDBRANCH  12  18
ENDBRANCH   8  12
ENDBRANCH   1   4
BRANCH   3  23
HETATM   23  C5  UNL     1       9.746  85.314  43.045  1.00  0.00     0.068 A 
HETATM   24  C6  UNL     1      10.699  86.225  42.631  1.00  0.00     0.147 A 
HETATM   25  N7  UNL     1      10.267  87.559  42.369  1.00  0.00    -0.081 NA
HETATM   26  N8  UNL     1      12.005  85.866  42.486  1.00  0.00    -0.178 N 
HETATM   27  C7  UNL     1      12.388  84.607  42.748  1.00  0.00     0.678 A 
ATOM     28  H8  UNL     1      12.693  86.555  42.179  1.00  0.00     0.185 HD
HETATM   29  N10 UNL     1      11.454  83.725  43.150  1.00  0.00    -0.175 N 
HETATM   30  C8  UNL     1      10.161  84.019  43.312  1.00  0.00     0.150 A 
ATOM     31  H10 UNL     1      11.753  82.769  43.344  1.00  0.00     0.186 HD
BRANCH  27  32
HETATM   32  N9  UNL     1      13.648  84.219  42.625  1.00  0.00    -0.234 N 
ATOM     33  H92 UNL     1      14.013  83.486  43.232  1.00  0.00     0.174 HD
ATOM     34  H91 UNL     1      14.276  84.636  41.938  1.00  0.00     0.174 HD
ENDBRANCH  27  32
BRANCH  30  35
HETATM   35  N11 UNL     1       9.258  83.180  43.708  1.00  0.00    -0.291 N 
ATOM     36  H11 UNL     1       8.589  82.768  43.057  1.00  0.00     0.188 HD
BRANCH  35  37
HETATM   37  N12 UNL     1       9.240  82.858  45.083  1.00  0.00    -0.344 N 
ATOM     38 2H12 UNL     1       8.388  82.975  45.633  1.00  0.00     0.176 HD
ATOM     39 1H12 UNL     1      10.109  82.511  45.489  1.00  0.00     0.176 HD
ENDBRANCH  35  37
ENDBRANCH  30  35
ENDBRANCH   3  23
TORSDOF 7
ENDMDL
