MODEL 1
REMARK VINA RESULT: -6.693030926      0.000      0.000
REMARK  4 active torsions:
REMARK  status: ('A' for Active; 'I' for Inactive)
REMARK    1  A    between atoms: C2_2  and  N1_3 
REMARK       I    between atoms: N1_3  and  C3_5 
REMARK       I    between atoms: C3_5  and  N3_9 
REMARK    2  A    between atoms: N3_9  and  C4_11 
REMARK       I    between atoms: N4_12  and  C5_14 
REMARK    3  A    between atoms: C5_14  and  C6_16 
REMARK    4  A    between atoms: C12_22  and  O2_23 
ROOT
HETATM    1  C4  UNL     1      43.226  23.765  53.735  1.00  0.00     0.200 C 
HETATM    2  N4  UNL     1      42.595  24.518  54.532  1.00  0.00    -0.322 N 
ATOM      3  H4  UNL     1      42.896  24.550  55.506  1.00  0.00     0.169 HD
HETATM    4  C5  UNL     1      41.492  25.319  54.145  1.00  0.00     0.231 C 
HETATM    5  O1  UNL     1      41.400  25.817  53.004  1.00  0.00    -0.272 OA
ENDROOT
BRANCH   4   6
HETATM    6  C6  UNL     1      40.424  25.565  55.134  1.00  0.00     0.045 C 
HETATM    7  C7  UNL     1      40.268  27.060  55.303  1.00  0.00     0.024 C 
HETATM    8  C8  UNL     1      39.123  27.310  56.241  1.00  0.00    -0.010 C 
HETATM    9  C9  UNL     1      37.852  26.655  55.769  1.00  0.00     0.009 C 
HETATM   10  C13 UNL     1      39.520  26.770  57.599  1.00  0.00     0.042 C 
HETATM   11  C10 UNL     1      38.046  25.179  55.635  1.00  0.00    -0.010 C 
HETATM   12  C11 UNL     1      38.434  24.610  56.980  1.00  0.00     0.042 C 
HETATM   13  C15 UNL     1      39.170  24.899  54.680  1.00  0.00     0.024 C 
HETATM   14  C12 UNL     1      39.702  25.266  57.456  1.00  0.00     0.060 C 
HETATM   15  C14 UNL     1      40.802  24.987  56.480  1.00  0.00     0.057 C 
BRANCH  14  16
HETATM   16  O2  UNL     1      39.984  24.739  58.720  1.00  0.00    -0.390 OA
ATOM     17  H2  UNL     1      40.248  25.467  59.271  1.00  0.00     0.210 HD
ENDBRANCH  14  16
ENDBRANCH   4   6
BRANCH   1  18
HETATM   18  N3  UNL     1      44.324  22.981  54.168  1.00  0.00    -0.188 N 
HETATM   19  C3  UNL     1      45.038  22.117  53.292  1.00  0.00     0.672 C 
HETATM   20  N1  UNL     1      45.704  20.967  53.788  1.00  0.00    -0.227 N 
HETATM   21  N2  UNL     1      45.087  22.366  52.036  1.00  0.00    -0.235 N 
ATOM     22  H1  UNL     1      46.212  21.021  54.671  1.00  0.00     0.177 HD
ATOM     23  H22 UNL     1      45.599  21.746  51.408  1.00  0.00     0.174 HD
ATOM     24  H21 UNL     1      44.608  23.192  51.680  1.00  0.00     0.174 HD
ATOM     25  H3  UNL     1      44.614  23.038  55.144  1.00  0.00     0.185 HD
BRANCH  20  26
HETATM   26  C2  UNL     1      45.674  19.716  53.055  1.00  0.00     0.133 C 
HETATM   27  C1  UNL     1      45.578  18.561  54.020  1.00  0.00     0.027 C 
ENDBRANCH  20  26
ENDBRANCH   1  18
TORSDOF 4
ENDMDL
MODEL 2
REMARK VINA RESULT: -6.611068794      1.117      1.884
REMARK  4 active torsions:
REMARK  status: ('A' for Active; 'I' for Inactive)
REMARK    1  A    between atoms: C2_2  and  N1_3 
REMARK       I    between atoms: N1_3  and  C3_5 
REMARK       I    between atoms: C3_5  and  N3_9 
REMARK    2  A    between atoms: N3_9  and  C4_11 
REMARK       I    between atoms: N4_12  and  C5_14 
REMARK    3  A    between atoms: C5_14  and  C6_16 
REMARK    4  A    between atoms: C12_22  and  O2_23 
ROOT
HETATM    1  C4  UNL     1      43.572  23.569  53.560  1.00  0.00     0.200 C 
HETATM    2  N4  UNL     1      42.956  24.352  54.338  1.00  0.00    -0.322 N 
ATOM      3  H4  UNL     1      43.204  24.342  55.328  1.00  0.00     0.169 HD
HETATM    4  C5  UNL     1      41.941  25.244  53.912  1.00  0.00     0.231 C 
HETATM    5  O1  UNL     1      41.951  25.770  52.779  1.00  0.00    -0.272 OA
ENDROOT
BRANCH   4   6
HETATM    6  C6  UNL     1      40.841  25.552  54.846  1.00  0.00     0.045 C 
HETATM    7  C7  UNL     1      39.535  25.177  54.182  1.00  0.00     0.024 C 
HETATM    8  C8  UNL     1      38.424  25.407  55.165  1.00  0.00    -0.010 C 
HETATM    9  C9  UNL     1      38.645  24.657  56.453  1.00  0.00     0.009 C 
HETATM   10  C13 UNL     1      38.352  26.896  55.430  1.00  0.00     0.042 C 
HETATM   11  C10 UNL     1      39.935  25.073  57.083  1.00  0.00    -0.010 C 
HETATM   12  C11 UNL     1      39.887  26.556  57.368  1.00  0.00     0.042 C 
HETATM   13  C15 UNL     1      41.067  24.829  56.130  1.00  0.00     0.024 C 
HETATM   14  C12 UNL     1      39.663  27.308  56.084  1.00  0.00     0.060 C 
HETATM   15  C14 UNL     1      40.796  27.034  55.144  1.00  0.00     0.057 C 
BRANCH  14  16
HETATM   16  O2  UNL     1      39.578  28.664  56.414  1.00  0.00    -0.390 OA
ATOM     17  H2  UNL     1      39.566  29.148  55.597  1.00  0.00     0.210 HD
ENDBRANCH  14  16
ENDBRANCH   4   6
BRANCH   1  18
HETATM   18  N3  UNL     1      44.581  22.693  54.032  1.00  0.00    -0.188 N 
HETATM   19  C3  UNL     1      45.225  21.746  53.190  1.00  0.00     0.672 C 
HETATM   20  N1  UNL     1      45.769  20.549  53.725  1.00  0.00    -0.227 N 
HETATM   21  N2  UNL     1      45.323  21.959  51.931  1.00  0.00    -0.235 N 
ATOM     22  H1  UNL     1      46.262  20.574  54.618  1.00  0.00     0.177 HD
ATOM     23  H22 UNL     1      45.786  21.279  51.328  1.00  0.00     0.174 HD
ATOM     24  H21 UNL     1      44.933  22.819  51.547  1.00  0.00     0.174 HD
ATOM     25  H3  UNL     1      44.856  22.746  55.013  1.00  0.00     0.185 HD
BRANCH  20  26
HETATM   26  C2  UNL     1      45.633  19.290  53.018  1.00  0.00     0.133 C 
HETATM   27  C1  UNL     1      45.339  18.183  53.999  1.00  0.00     0.027 C 
ENDBRANCH  20  26
ENDBRANCH   1  18
TORSDOF 4
ENDMDL
MODEL 3
REMARK VINA RESULT: -6.521188934      1.440      1.684
REMARK  4 active torsions:
REMARK  status: ('A' for Active; 'I' for Inactive)
REMARK    1  A    between atoms: C2_2  and  N1_3 
REMARK       I    between atoms: N1_3  and  C3_5 
REMARK       I    between atoms: C3_5  and  N3_9 
REMARK    2  A    between atoms: N3_9  and  C4_11 
REMARK       I    between atoms: N4_12  and  C5_14 
REMARK    3  A    between atoms: C5_14  and  C6_16 
REMARK    4  A    between atoms: C12_22  and  O2_23 
ROOT
HETATM    1  C4  UNL     1      43.110  23.241  51.968  1.00  0.00     0.200 C 
HETATM    2  N4  UNL     1      42.836  24.150  52.804  1.00  0.00    -0.322 N 
ATOM      3  H4  UNL     1      43.497  24.322  53.562  1.00  0.00     0.169 HD
HETATM    4  C5  UNL     1      41.663  24.942  52.746  1.00  0.00     0.231 C 
HETATM    5  O1  UNL     1      41.123  25.252  51.664  1.00  0.00    -0.272 OA
ENDROOT
BRANCH   4   6
HETATM    6  C6  UNL     1      41.069  25.408  54.014  1.00  0.00     0.045 C 
HETATM    7  C7  UNL     1      41.435  26.863  54.203  1.00  0.00     0.024 C 
HETATM    8  C8  UNL     1      40.757  27.361  55.448  1.00  0.00    -0.010 C 
HETATM    9  C9  UNL     1      39.267  27.148  55.403  1.00  0.00     0.009 C 
HETATM   10  C13 UNL     1      41.359  26.618  56.621  1.00  0.00     0.042 C 
HETATM   11  C10 UNL     1      38.952  25.697  55.235  1.00  0.00    -0.010 C 
HETATM   12  C11 UNL     1      39.533  24.930  56.400  1.00  0.00     0.042 C 
HETATM   13  C15 UNL     1      39.596  25.179  53.983  1.00  0.00     0.024 C 
HETATM   14  C12 UNL     1      41.022  25.144  56.450  1.00  0.00     0.060 C 
HETATM   15  C14 UNL     1      41.639  24.636  55.184  1.00  0.00     0.057 C 
BRANCH  14  16
HETATM   16  O2  UNL     1      41.496  24.455  57.571  1.00  0.00    -0.390 OA
ATOM     17  H2  UNL     1      41.875  23.642  57.257  1.00  0.00     0.210 HD
ENDBRANCH  14  16
ENDBRANCH   4   6
BRANCH   1  18
HETATM   18  N3  UNL     1      44.297  22.474  52.066  1.00  0.00    -0.188 N 
HETATM   19  C3  UNL     1      44.405  21.163  51.527  1.00  0.00     0.672 C 
HETATM   20  N1  UNL     1      45.307  20.219  52.085  1.00  0.00    -0.227 N 
HETATM   21  N2  UNL     1      43.687  20.813  50.526  1.00  0.00    -0.235 N 
ATOM     22  H1  UNL     1      46.234  20.523  52.382  1.00  0.00     0.177 HD
ATOM     23  H22 UNL     1      43.765  19.872  50.140  1.00  0.00     0.174 HD
ATOM     24  H21 UNL     1      43.039  21.490  50.126  1.00  0.00     0.174 HD
ATOM     25  H3  UNL     1      45.104  22.878  52.541  1.00  0.00     0.185 HD
BRANCH  20  26
HETATM   26  C2  UNL     1      44.926  18.828  52.237  1.00  0.00     0.133 C 
HETATM   27  C1  UNL     1      45.341  18.332  53.600  1.00  0.00     0.027 C 
ENDBRANCH  20  26
ENDBRANCH   1  18
TORSDOF 4
ENDMDL
MODEL 4
REMARK VINA RESULT: -6.407556095      2.533      3.479
REMARK  4 active torsions:
REMARK  status: ('A' for Active; 'I' for Inactive)
REMARK    1  A    between atoms: C2_2  and  N1_3 
REMARK       I    between atoms: N1_3  and  C3_5 
REMARK       I    between atoms: C3_5  and  N3_9 
REMARK    2  A    between atoms: N3_9  and  C4_11 
REMARK       I    between atoms: N4_12  and  C5_14 
REMARK    3  A    between atoms: C5_14  and  C6_16 
REMARK    4  A    between atoms: C12_22  and  O2_23 
ROOT
HETATM    1  C4  UNL     1      44.129  21.795  51.037  1.00  0.00     0.200 C 
HETATM    2  N4  UNL     1      43.959  22.914  51.602  1.00  0.00    -0.322 N 
ATOM      3  H4  UNL     1      44.582  23.165  52.371  1.00  0.00     0.169 HD
HETATM    4  C5  UNL     1      42.953  23.837  51.226  1.00  0.00     0.231 C 
HETATM    5  O1  UNL     1      42.560  23.948  50.046  1.00  0.00    -0.272 OA
ENDROOT
BRANCH   4   6
HETATM    6  C6  UNL     1      42.357  24.690  52.273  1.00  0.00     0.045 C 
HETATM    7  C7  UNL     1      43.165  25.965  52.364  1.00  0.00     0.024 C 
HETATM    8  C8  UNL     1      42.508  26.869  53.366  1.00  0.00    -0.010 C 
HETATM    9  C9  UNL     1      41.063  27.131  53.028  1.00  0.00     0.009 C 
HETATM   10  C13 UNL     1      42.617  26.202  54.721  1.00  0.00     0.042 C 
HETATM   11  C10 UNL     1      40.301  25.847  52.969  1.00  0.00    -0.010 C 
HETATM   12  C11 UNL     1      40.384  25.163  54.314  1.00  0.00     0.042 C 
HETATM   13  C15 UNL     1      40.922  24.934  51.954  1.00  0.00     0.024 C 
HETATM   14  C12 UNL     1      41.827  24.903  54.656  1.00  0.00     0.060 C 
HETATM   15  C14 UNL     1      42.429  24.005  53.620  1.00  0.00     0.057 C 
BRANCH  14  16
HETATM   16  O2  UNL     1      41.846  24.317  55.926  1.00  0.00    -0.390 OA
ATOM     17  H2  UNL     1      42.005  23.389  55.800  1.00  0.00     0.210 HD
ENDBRANCH  14  16
ENDBRANCH   4   6
BRANCH   1  18
HETATM   18  N3  UNL     1      45.151  20.903  51.448  1.00  0.00    -0.188 N 
HETATM   19  C3  UNL     1      44.888  19.549  51.795  1.00  0.00     0.672 C 
HETATM   20  N1  UNL     1      45.726  18.856  52.707  1.00  0.00    -0.227 N 
HETATM   21  N2  UNL     1      43.886  18.934  51.289  1.00  0.00    -0.235 N 
ATOM     22  H1  UNL     1      46.737  18.987  52.661  1.00  0.00     0.177 HD
ATOM     23  H22 UNL     1      43.698  17.963  51.538  1.00  0.00     0.174 HD
ATOM     24  H21 UNL     1      43.283  19.431  50.634  1.00  0.00     0.174 HD
ATOM     25  H3  UNL     1      46.110  21.245  51.496  1.00  0.00     0.185 HD
BRANCH  20  26
HETATM   26  C2  UNL     1      45.164  17.964  53.703  1.00  0.00     0.133 C 
HETATM   27  C1  UNL     1      45.487  18.475  55.085  1.00  0.00     0.027 C 
ENDBRANCH  20  26
ENDBRANCH   1  18
TORSDOF 4
ENDMDL
MODEL 5
REMARK VINA RESULT: -6.398566712     11.057     13.522
REMARK  4 active torsions:
REMARK  status: ('A' for Active; 'I' for Inactive)
REMARK    1  A    between atoms: C2_2  and  N1_3 
REMARK       I    between atoms: N1_3  and  C3_5 
REMARK       I    between atoms: C3_5  and  N3_9 
REMARK    2  A    between atoms: N3_9  and  C4_11 
REMARK       I    between atoms: N4_12  and  C5_14 
REMARK    3  A    between atoms: C5_14  and  C6_16 
REMARK    4  A    between atoms: C12_22  and  O2_23 
ROOT
HETATM    1  C4  UNL     1      50.314  24.249  43.135  1.00  0.00     0.200 C 
HETATM    2  N4  UNL     1      49.091  24.248  43.457  1.00  0.00    -0.322 N 
ATOM      3  H4  UNL     1      48.401  24.068  42.728  1.00  0.00     0.169 HD
HETATM    4  C5  UNL     1      48.627  24.484  44.775  1.00  0.00     0.231 C 
HETATM    5  O1  UNL     1      49.282  24.140  45.781  1.00  0.00    -0.272 OA
ENDROOT
BRANCH   4   6
HETATM    6  C6  UNL     1      47.327  25.160  44.950  1.00  0.00     0.045 C 
HETATM    7  C7  UNL     1      47.500  26.266  45.967  1.00  0.00     0.024 C 
HETATM    8  C8  UNL     1      46.200  27.009  46.078  1.00  0.00    -0.010 C 
HETATM    9  C9  UNL     1      45.730  27.529  44.745  1.00  0.00     0.009 C 
HETATM   10  C13 UNL     1      45.179  26.055  46.660  1.00  0.00     0.042 C 
HETATM   11  C10 UNL     1      45.554  26.402  43.779  1.00  0.00    -0.010 C 
HETATM   12  C11 UNL     1      44.531  25.437  44.330  1.00  0.00     0.042 C 
HETATM   13  C15 UNL     1      46.848  25.656  43.628  1.00  0.00     0.024 C 
HETATM   14  C12 UNL     1      44.996  24.919  45.665  1.00  0.00     0.060 C 
HETATM   15  C14 UNL     1      46.295  24.195  45.491  1.00  0.00     0.057 C 
BRANCH  14  16
HETATM   16  O2  UNL     1      43.992  24.074  46.147  1.00  0.00    -0.390 OA
ATOM     17  H2  UNL     1      44.099  23.237  45.709  1.00  0.00     0.210 HD
ENDBRANCH  14  16
ENDBRANCH   4   6
BRANCH   1  18
HETATM   18  N3  UNL     1      50.732  24.008  41.802  1.00  0.00    -0.188 N 
HETATM   19  C3  UNL     1      51.995  24.435  41.309  1.00  0.00     0.672 C 
HETATM   20  N1  UNL     1      52.181  24.712  39.929  1.00  0.00    -0.227 N 
HETATM   21  N2  UNL     1      52.987  24.579  42.106  1.00  0.00    -0.235 N 
ATOM     22  H1  UNL     1      51.750  24.106  39.231  1.00  0.00     0.177 HD
ATOM     23  H22 UNL     1      53.892  24.885  41.752  1.00  0.00     0.174 HD
ATOM     24  H21 UNL     1      52.853  24.380  43.097  1.00  0.00     0.174 HD
ATOM     25  H3  UNL     1      50.103  23.508  41.174  1.00  0.00     0.185 HD
BRANCH  20  26
HETATM   26  C2  UNL     1      52.975  25.847  39.499  1.00  0.00     0.133 C 
HETATM   27  C1  UNL     1      52.209  27.125  39.736  1.00  0.00     0.027 C 
ENDBRANCH  20  26
ENDBRANCH   1  18
TORSDOF 4
ENDMDL
