MODEL 1
REMARK VINA RESULT: -5.338083270      0.000      0.000
REMARK  7 active torsions:
REMARK  status: ('A' for Active; 'I' for Inactive)
REMARK    1  A    between atoms: N1_2  and  C2_4 
REMARK    2  A    between atoms: C2_4  and  N2_6 
REMARK       I    between atoms: N2_6  and  C3_8 
REMARK       I    between atoms: C3_8  and  N3_10 
REMARK    3  A    between atoms: N3_10  and  C4_12 
REMARK    4  A    between atoms: C4_12  and  C5_13 
REMARK    5  A    between atoms: C5_13  and  N4_14 
REMARK    6  A    between atoms: N4_14  and  C6_16 
REMARK    7  A    between atoms: C6_16  and  N5_18 
ROOT
HETATM    1  N2  UNL     1      44.586  21.442  51.985  1.00  0.00    -0.286 N 
ATOM      2  H2  UNL     1      44.389  21.543  50.989  1.00  0.00     0.173 HD
HETATM    3  C3  UNL     1      44.341  22.558  52.794  1.00  0.00     0.322 C 
HETATM    4  O1  UNL     1      44.536  22.577  54.027  1.00  0.00    -0.247 OA
HETATM    5  N3  UNL     1      43.831  23.775  52.201  1.00  0.00    -0.341 N 
ATOM      6  H3  UNL     1      43.657  23.804  51.196  1.00  0.00     0.164 HD
ENDROOT
BRANCH   5   7
HETATM    7  C4  UNL     1      43.564  24.949  52.996  1.00  0.00     0.144 C 
BRANCH   7   8
HETATM    8  C5  UNL     1      42.143  24.931  53.443  1.00  0.00     0.141 C 
BRANCH   8   9
HETATM    9  N4  UNL     1      41.939  24.345  54.743  1.00  0.00    -0.366 N 
ATOM     10  H4  UNL     1      42.229  23.376  54.876  1.00  0.00     0.161 HD
BRANCH   9  11
HETATM   11  C6  UNL     1      41.369  25.010  55.842  1.00  0.00     0.169 C 
HETATM   12  S2  UNL     1      42.302  25.880  56.839  1.00  0.00    -0.041 SA
BRANCH  11  13
HETATM   13  N5  UNL     1      39.981  24.941  56.084  1.00  0.00    -0.358 N 
HETATM   14  C7  UNL     1      38.926  24.762  55.067  1.00  0.00     0.125 C 
HETATM   15  C8  UNL     1      37.728  24.298  55.903  1.00  0.00     0.021 C 
HETATM   16  C9  UNL     1      37.909  25.180  57.125  1.00  0.00     0.021 C 
HETATM   17  C10 UNL     1      39.385  25.032  57.402  1.00  0.00     0.125 C 
ENDBRANCH  11  13
ENDBRANCH   9  11
ENDBRANCH   8   9
ENDBRANCH   7   8
ENDBRANCH   5   7
BRANCH   1  18
HETATM   18  C2  UNL     1      45.073  20.205  52.408  1.00  0.00     0.175 C 
HETATM   19  S1  UNL     1      44.610  18.884  51.496  1.00  0.00    -0.041 SA
BRANCH  18  20
HETATM   20  N1  UNL     1      45.903  19.939  53.506  1.00  0.00    -0.371 N 
HETATM   21  C1  UNL     1      45.802  18.654  54.191  1.00  0.00     0.148 C 
ATOM     22  H1  UNL     1      46.574  20.638  53.824  1.00  0.00     0.161 HD
ENDBRANCH  18  20
ENDBRANCH   1  18
TORSDOF 7
ENDMDL
MODEL 2
REMARK VINA RESULT: -5.336398372      1.755      2.160
REMARK  7 active torsions:
REMARK  status: ('A' for Active; 'I' for Inactive)
REMARK    1  A    between atoms: N1_2  and  C2_4 
REMARK    2  A    between atoms: C2_4  and  N2_6 
REMARK       I    between atoms: N2_6  and  C3_8 
REMARK       I    between atoms: C3_8  and  N3_10 
REMARK    3  A    between atoms: N3_10  and  C4_12 
REMARK    4  A    between atoms: C4_12  and  C5_13 
REMARK    5  A    between atoms: C5_13  and  N4_14 
REMARK    6  A    between atoms: N4_14  and  C6_16 
REMARK    7  A    between atoms: C6_16  and  N5_18 
ROOT
HETATM    1  N2  UNL     1      45.617  21.334  53.983  1.00  0.00    -0.286 N 
ATOM      2  H2  UNL     1      46.170  21.220  54.833  1.00  0.00     0.173 HD
HETATM    3  C3  UNL     1      45.081  22.604  53.743  1.00  0.00     0.322 C 
HETATM    4  O1  UNL     1      44.386  22.887  52.745  1.00  0.00    -0.247 OA
HETATM    5  N3  UNL     1      45.326  23.676  54.685  1.00  0.00    -0.341 N 
ATOM      6  H3  UNL     1      45.890  23.489  55.515  1.00  0.00     0.164 HD
ENDROOT
BRANCH   5   7
HETATM    7  C4  UNL     1      44.794  25.001  54.478  1.00  0.00     0.144 C 
BRANCH   7   8
HETATM    8  C5  UNL     1      43.606  25.199  55.355  1.00  0.00     0.141 C 
BRANCH   8   9
HETATM    9  N4  UNL     1      42.474  24.378  55.013  1.00  0.00    -0.366 N 
ATOM     10  H4  UNL     1      42.599  23.365  55.040  1.00  0.00     0.161 HD
BRANCH   9  11
HETATM   11  C6  UNL     1      41.210  24.867  54.644  1.00  0.00     0.169 C 
HETATM   12  S2  UNL     1      40.954  25.405  53.138  1.00  0.00    -0.041 SA
BRANCH  11  13
HETATM   13  N5  UNL     1      40.146  24.884  55.570  1.00  0.00    -0.358 N 
HETATM   14  C7  UNL     1      40.265  25.046  57.032  1.00  0.00     0.125 C 
HETATM   15  C8  UNL     1      38.845  25.454  57.442  1.00  0.00     0.021 C 
HETATM   16  C9  UNL     1      38.042  24.556  56.519  1.00  0.00     0.021 C 
HETATM   17  C10 UNL     1      38.751  24.748  55.201  1.00  0.00     0.125 C 
ENDBRANCH  11  13
ENDBRANCH   9  11
ENDBRANCH   8   9
ENDBRANCH   7   8
ENDBRANCH   5   7
BRANCH   1  18
HETATM   18  C2  UNL     1      45.470  20.208  53.173  1.00  0.00     0.175 C 
HETATM   19  S1  UNL     1      45.637  18.730  53.934  1.00  0.00    -0.041 SA
BRANCH  18  20
HETATM   20  N1  UNL     1      45.201  20.169  51.798  1.00  0.00    -0.371 N 
HETATM   21  C1  UNL     1      44.074  19.382  51.306  1.00  0.00     0.148 C 
ATOM     22  H1  UNL     1      45.788  20.687  51.145  1.00  0.00     0.161 HD
ENDBRANCH  18  20
ENDBRANCH   1  18
TORSDOF 7
ENDMDL
MODEL 3
REMARK VINA RESULT: -5.314185261      1.933      2.317
REMARK  7 active torsions:
REMARK  status: ('A' for Active; 'I' for Inactive)
REMARK    1  A    between atoms: N1_2  and  C2_4 
REMARK    2  A    between atoms: C2_4  and  N2_6 
REMARK       I    between atoms: N2_6  and  C3_8 
REMARK       I    between atoms: C3_8  and  N3_10 
REMARK    3  A    between atoms: N3_10  and  C4_12 
REMARK    4  A    between atoms: C4_12  and  C5_13 
REMARK    5  A    between atoms: C5_13  and  N4_14 
REMARK    6  A    between atoms: N4_14  and  C6_16 
REMARK    7  A    between atoms: C6_16  and  N5_18 
ROOT
HETATM    1  N2  UNL     1      45.634  20.703  53.937  1.00  0.00    -0.286 N 
ATOM      2  H2  UNL     1      45.900  20.447  54.888  1.00  0.00     0.173 HD
HETATM    3  C3  UNL     1      45.532  22.071  53.656  1.00  0.00     0.322 C 
HETATM    4  O1  UNL     1      45.217  22.529  52.538  1.00  0.00    -0.247 OA
HETATM    5  N3  UNL     1      45.802  23.038  54.698  1.00  0.00    -0.341 N 
ATOM      6  H3  UNL     1      46.063  22.709  55.628  1.00  0.00     0.164 HD
ENDROOT
BRANCH   5   7
HETATM    7  C4  UNL     1      45.709  24.458  54.454  1.00  0.00     0.144 C 
BRANCH   7   8
HETATM    8  C5  UNL     1      44.415  24.968  54.987  1.00  0.00     0.141 C 
BRANCH   8   9
HETATM    9  N4  UNL     1      43.259  24.242  54.528  1.00  0.00    -0.366 N 
ATOM     10  H4  UNL     1      43.287  23.223  54.585  1.00  0.00     0.161 HD
BRANCH   9  11
HETATM   11  C6  UNL     1      42.095  24.832  54.008  1.00  0.00     0.169 C 
HETATM   12  S2  UNL     1      42.084  25.416  52.498  1.00  0.00    -0.041 SA
BRANCH  11  13
HETATM   13  N5  UNL     1      40.920  24.911  54.785  1.00  0.00    -0.358 N 
HETATM   14  C7  UNL     1      39.555  25.151  54.279  1.00  0.00     0.125 C 
HETATM   15  C8  UNL     1      38.676  24.676  55.442  1.00  0.00     0.021 C 
HETATM   16  C9  UNL     1      39.498  25.190  56.611  1.00  0.00     0.021 C 
HETATM   17  C10 UNL     1      40.892  24.760  56.226  1.00  0.00     0.125 C 
ENDBRANCH  11  13
ENDBRANCH   9  11
ENDBRANCH   8   9
ENDBRANCH   7   8
ENDBRANCH   5   7
BRANCH   1  18
HETATM   18  C2  UNL     1      45.407  19.657  53.042  1.00  0.00     0.175 C 
HETATM   19  S1  UNL     1      45.317  18.128  53.710  1.00  0.00    -0.041 SA
BRANCH  18  20
HETATM   20  N1  UNL     1      45.249  19.735  51.652  1.00  0.00    -0.371 N 
HETATM   21  C1  UNL     1      43.952  19.430  51.056  1.00  0.00     0.148 C 
ATOM     22  H1  UNL     1      46.034  20.004  51.060  1.00  0.00     0.161 HD
ENDBRANCH  18  20
ENDBRANCH   1  18
TORSDOF 7
ENDMDL
MODEL 4
REMARK VINA RESULT: -5.280089023      3.496      4.388
REMARK  7 active torsions:
REMARK  status: ('A' for Active; 'I' for Inactive)
REMARK    1  A    between atoms: N1_2  and  C2_4 
REMARK    2  A    between atoms: C2_4  and  N2_6 
REMARK       I    between atoms: N2_6  and  C3_8 
REMARK       I    between atoms: C3_8  and  N3_10 
REMARK    3  A    between atoms: N3_10  and  C4_12 
REMARK    4  A    between atoms: C4_12  and  C5_13 
REMARK    5  A    between atoms: C5_13  and  N4_14 
REMARK    6  A    between atoms: N4_14  and  C6_16 
REMARK    7  A    between atoms: C6_16  and  N5_18 
ROOT
HETATM    1  N2  UNL     1      45.891  20.573  52.552  1.00  0.00    -0.286 N 
ATOM      2  H2  UNL     1      46.885  20.423  52.376  1.00  0.00     0.173 HD
HETATM    3  C3  UNL     1      45.545  21.709  53.293  1.00  0.00     0.322 C 
HETATM    4  O1  UNL     1      44.370  22.017  53.582  1.00  0.00    -0.247 OA
HETATM    5  N3  UNL     1      46.582  22.601  53.765  1.00  0.00    -0.341 N 
ATOM      6  H3  UNL     1      47.557  22.388  53.551  1.00  0.00     0.164 HD
ENDROOT
BRANCH   5   7
HETATM    7  C4  UNL     1      46.271  23.783  54.532  1.00  0.00     0.144 C 
BRANCH   7   8
HETATM    8  C5  UNL     1      46.872  24.975  53.869  1.00  0.00     0.141 C 
BRANCH   8   9
HETATM    9  N4  UNL     1      46.295  25.293  52.588  1.00  0.00    -0.366 N 
ATOM     10  H4  UNL     1      46.836  25.058  51.755  1.00  0.00     0.161 HD
BRANCH   9  11
HETATM   11  C6  UNL     1      45.043  25.901  52.400  1.00  0.00     0.169 C 
HETATM   12  S2  UNL     1      44.882  27.503  52.583  1.00  0.00    -0.041 SA
BRANCH  11  13
HETATM   13  N5  UNL     1      43.916  25.134  52.039  1.00  0.00    -0.358 N 
HETATM   14  C7  UNL     1      42.683  24.969  52.832  1.00  0.00     0.125 C 
HETATM   15  C8  UNL     1      41.679  24.461  51.790  1.00  0.00     0.021 C 
HETATM   16  C9  UNL     1      42.580  23.535  50.994  1.00  0.00     0.021 C 
HETATM   17  C10 UNL     1      43.811  24.385  50.802  1.00  0.00     0.125 C 
ENDBRANCH  11  13
ENDBRANCH   9  11
ENDBRANCH   8   9
ENDBRANCH   7   8
ENDBRANCH   5   7
BRANCH   1  18
HETATM   18  C2  UNL     1      45.010  19.626  52.030  1.00  0.00     0.175 C 
HETATM   19  S1  UNL     1      44.281  20.023  50.580  1.00  0.00    -0.041 SA
BRANCH  18  20
HETATM   20  N1  UNL     1      44.662  18.383  52.578  1.00  0.00    -0.371 N 
HETATM   21  C1  UNL     1      45.217  17.982  53.867  1.00  0.00     0.148 C 
ATOM     22  H1  UNL     1      44.025  17.763  52.079  1.00  0.00     0.161 HD
ENDBRANCH  18  20
ENDBRANCH   1  18
TORSDOF 7
ENDMDL
MODEL 5
REMARK VINA RESULT: -5.241092116      1.869      2.258
REMARK  7 active torsions:
REMARK  status: ('A' for Active; 'I' for Inactive)
REMARK    1  A    between atoms: N1_2  and  C2_4 
REMARK    2  A    between atoms: C2_4  and  N2_6 
REMARK       I    between atoms: N2_6  and  C3_8 
REMARK       I    between atoms: C3_8  and  N3_10 
REMARK    3  A    between atoms: N3_10  and  C4_12 
REMARK    4  A    between atoms: C4_12  and  C5_13 
REMARK    5  A    between atoms: C5_13  and  N4_14 
REMARK    6  A    between atoms: N4_14  and  C6_16 
REMARK    7  A    between atoms: C6_16  and  N5_18 
ROOT
HETATM    1  N2  UNL     1      45.963  20.753  52.434  1.00  0.00    -0.286 N 
ATOM      2  H2  UNL     1      46.959  20.744  52.211  1.00  0.00     0.173 HD
HETATM    3  C3  UNL     1      45.515  21.772  53.282  1.00  0.00     0.322 C 
HETATM    4  O1  UNL     1      44.326  21.906  53.638  1.00  0.00    -0.247 OA
HETATM    5  N3  UNL     1      46.456  22.745  53.794  1.00  0.00    -0.341 N 
ATOM      6  H3  UNL     1      47.439  22.674  53.528  1.00  0.00     0.164 HD
ENDROOT
BRANCH   5   7
HETATM    7  C4  UNL     1      46.039  23.812  54.671  1.00  0.00     0.144 C 
BRANCH   7   8
HETATM    8  C5  UNL     1      45.033  24.662  53.973  1.00  0.00     0.141 C 
BRANCH   8   9
HETATM    9  N4  UNL     1      43.734  24.672  54.594  1.00  0.00    -0.366 N 
ATOM     10  H4  UNL     1      43.694  24.571  55.609  1.00  0.00     0.161 HD
BRANCH   9  11
HETATM   11  C6  UNL     1      42.517  24.810  53.907  1.00  0.00     0.169 C 
HETATM   12  S2  UNL     1      42.496  24.832  52.287  1.00  0.00    -0.041 SA
BRANCH  11  13
HETATM   13  N5  UNL     1      41.300  24.917  54.612  1.00  0.00    -0.358 N 
HETATM   14  C7  UNL     1      39.974  25.192  54.026  1.00  0.00     0.125 C 
HETATM   15  C8  UNL     1      39.016  24.737  55.133  1.00  0.00     0.021 C 
HETATM   16  C9  UNL     1      39.778  25.226  56.350  1.00  0.00     0.021 C 
HETATM   17  C10 UNL     1      41.182  24.763  56.048  1.00  0.00     0.125 C 
ENDBRANCH  11  13
ENDBRANCH   9  11
ENDBRANCH   8   9
ENDBRANCH   7   8
ENDBRANCH   5   7
BRANCH   1  18
HETATM   18  C2  UNL     1      45.181  19.749  51.862  1.00  0.00     0.175 C 
HETATM   19  S1  UNL     1      44.318  20.179  50.497  1.00  0.00    -0.041 SA
BRANCH  18  20
HETATM   20  N1  UNL     1      45.031  18.425  52.298  1.00  0.00    -0.371 N 
HETATM   21  C1  UNL     1      45.261  18.097  53.701  1.00  0.00     0.148 C 
ATOM     22  H1  UNL     1      44.762  17.696  51.638  1.00  0.00     0.161 HD
ENDBRANCH  18  20
ENDBRANCH   1  18
TORSDOF 7
ENDMDL
