MODEL 1
REMARK VINA RESULT: -6.203299482      0.000      0.000
REMARK  4 active torsions:
REMARK  status: ('A' for Active; 'I' for Inactive)
REMARK    1  A    between atoms: C2_2  and  C5_5 
REMARK    2  A    between atoms: C5_5  and  N1_6 
REMARK    3  A    between atoms: C5_5  and  C8_15 
REMARK       I    between atoms: N1_6  and  C6_8 
REMARK       I    between atoms: C6_8  and  N2_10 
REMARK       I    between atoms: C8_15  and  N5_17 
REMARK    4  A    between atoms: N5_17  and  C9_19 
ROOT
HETATM    1  C5  UNL     1      43.453  24.351  52.020  1.00  0.00     0.185 C 
ENDROOT
BRANCH   1   2
HETATM    2  C2  UNL     1      43.871  25.364  50.971  1.00  0.00    -0.022 C 
HETATM    3  C1  UNL     1      45.392  25.486  51.043  1.00  0.00     0.017 C 
HETATM    4  C3  UNL     1      43.527  24.944  49.577  1.00  0.00     0.017 C 
HETATM    5  C4  UNL     1      43.332  26.738  51.213  1.00  0.00     0.017 C 
ENDBRANCH   1   2
BRANCH   1   6
HETATM    6  N1  UNL     1      43.633  23.034  51.399  1.00  0.00    -0.329 N 
HETATM    7  C6  UNL     1      44.043  21.916  52.153  1.00  0.00     0.323 C 
HETATM    8  O1  UNL     1      44.274  22.009  53.410  1.00  0.00    -0.247 OA
HETATM    9  N2  UNL     1      44.233  20.626  51.609  1.00  0.00    -0.285 N 
HETATM   10  C7  UNL     1      45.116  19.778  52.053  1.00  0.00     0.204 C 
ATOM     11  H2  UNL     1      43.646  20.344  50.825  1.00  0.00     0.172 HD
HETATM   12  N3  UNL     1      45.233  18.495  51.435  1.00  0.00    -0.066 NA
HETATM   13  N4  UNL     1      45.923  20.177  53.137  1.00  0.00    -0.066 NA
ATOM     14  H1  UNL     1      43.458  22.924  50.400  1.00  0.00     0.165 HD
ENDBRANCH   1   6
BRANCH   1  15
HETATM   15  C8  UNL     1      42.029  24.522  52.421  1.00  0.00     0.241 C 
HETATM   16  O2  UNL     1      41.152  24.086  51.591  1.00  0.00    -0.271 OA
HETATM   17  N5  UNL     1      41.618  25.124  53.637  1.00  0.00    -0.355 N 
ATOM     18  H5  UNL     1      42.300  25.473  54.310  1.00  0.00     0.162 HD
BRANCH  17  19
HETATM   19  C9  UNL     1      40.191  25.226  53.892  1.00  0.00     0.084 C 
HETATM   20  C10 UNL     1      39.873  24.787  55.328  1.00  0.00     0.025 C 
HETATM   21  C11 UNL     1      38.403  25.214  55.397  1.00  0.00     0.002 C 
HETATM   22  C12 UNL     1      38.301  26.460  54.543  1.00  0.00     0.002 C 
HETATM   23  C13 UNL     1      39.681  26.632  53.895  1.00  0.00     0.025 C 
ENDBRANCH  17  19
ENDBRANCH   1  15
TORSDOF 4
ENDMDL
MODEL 2
REMARK VINA RESULT: -6.022808159      1.901      2.318
REMARK  4 active torsions:
REMARK  status: ('A' for Active; 'I' for Inactive)
REMARK    1  A    between atoms: C2_2  and  C5_5 
REMARK    2  A    between atoms: C5_5  and  N1_6 
REMARK    3  A    between atoms: C5_5  and  C8_15 
REMARK       I    between atoms: N1_6  and  C6_8 
REMARK       I    between atoms: C6_8  and  N2_10 
REMARK       I    between atoms: C8_15  and  N5_17 
REMARK    4  A    between atoms: N5_17  and  C9_19 
ROOT
HETATM    1  C5  UNL     1      43.617  24.751  53.921  1.00  0.00     0.185 C 
ENDROOT
BRANCH   1   2
HETATM    2  C2  UNL     1      44.479  25.948  53.567  1.00  0.00    -0.022 C 
HETATM    3  C1  UNL     1      45.936  25.497  53.656  1.00  0.00     0.017 C 
HETATM    4  C3  UNL     1      44.254  26.444  52.174  1.00  0.00     0.017 C 
HETATM    5  C4  UNL     1      44.339  27.092  54.520  1.00  0.00     0.017 C 
ENDBRANCH   1   2
BRANCH   1   6
HETATM    6  N1  UNL     1      43.335  24.071  52.651  1.00  0.00    -0.329 N 
HETATM    7  C6  UNL     1      43.727  22.735  52.430  1.00  0.00     0.323 C 
HETATM    8  O1  UNL     1      44.344  22.064  53.330  1.00  0.00    -0.247 OA
HETATM    9  N2  UNL     1      43.482  22.031  51.230  1.00  0.00    -0.285 N 
HETATM   10  C7  UNL     1      44.272  21.110  50.759  1.00  0.00     0.204 C 
ATOM     11  H2  UNL     1      42.639  22.259  50.702  1.00  0.00     0.172 HD
HETATM   12  N3  UNL     1      43.938  20.454  49.534  1.00  0.00    -0.066 NA
HETATM   13  N4  UNL     1      45.434  20.802  51.495  1.00  0.00    -0.066 NA
ATOM     14  H1  UNL     1      42.845  24.576  51.913  1.00  0.00     0.165 HD
ENDBRANCH   1   6
BRANCH   1  15
HETATM   15  C8  UNL     1      42.337  25.158  54.563  1.00  0.00     0.241 C 
HETATM   16  O2  UNL     1      42.346  25.235  55.845  1.00  0.00    -0.271 OA
HETATM   17  N5  UNL     1      41.152  25.455  53.843  1.00  0.00    -0.355 N 
ATOM     18  H5  UNL     1      41.126  25.404  52.825  1.00  0.00     0.162 HD
BRANCH  17  19
HETATM   19  C9  UNL     1      39.975  25.836  54.606  1.00  0.00     0.084 C 
HETATM   20  C10 UNL     1      38.995  26.617  53.720  1.00  0.00     0.025 C 
HETATM   21  C11 UNL     1      37.793  26.672  54.670  1.00  0.00     0.002 C 
HETATM   22  C12 UNL     1      37.832  25.374  55.449  1.00  0.00     0.002 C 
HETATM   23  C13 UNL     1      39.131  24.676  55.026  1.00  0.00     0.025 C 
ENDBRANCH  17  19
ENDBRANCH   1  15
TORSDOF 4
ENDMDL
MODEL 3
REMARK VINA RESULT: -5.965252295      1.959      2.432
REMARK  4 active torsions:
REMARK  status: ('A' for Active; 'I' for Inactive)
REMARK    1  A    between atoms: C2_2  and  C5_5 
REMARK    2  A    between atoms: C5_5  and  N1_6 
REMARK    3  A    between atoms: C5_5  and  C8_15 
REMARK       I    between atoms: N1_6  and  C6_8 
REMARK       I    between atoms: C6_8  and  N2_10 
REMARK       I    between atoms: C8_15  and  N5_17 
REMARK    4  A    between atoms: N5_17  and  C9_19 
ROOT
HETATM    1  C5  UNL     1      43.330  24.737  54.029  1.00  0.00     0.185 C 
ENDROOT
BRANCH   1   2
HETATM    2  C2  UNL     1      44.274  25.909  53.840  1.00  0.00    -0.022 C 
HETATM    3  C1  UNL     1      45.689  25.396  54.102  1.00  0.00     0.017 C 
HETATM    4  C3  UNL     1      44.255  26.462  52.450  1.00  0.00     0.017 C 
HETATM    5  C4  UNL     1      44.050  27.024  54.811  1.00  0.00     0.017 C 
ENDBRANCH   1   2
BRANCH   1   6
HETATM    6  N1  UNL     1      43.212  24.101  52.712  1.00  0.00    -0.329 N 
HETATM    7  C6  UNL     1      43.697  22.798  52.479  1.00  0.00     0.323 C 
HETATM    8  O1  UNL     1      44.260  22.120  53.409  1.00  0.00    -0.247 OA
HETATM    9  N2  UNL     1      43.611  22.137  51.233  1.00  0.00    -0.285 N 
HETATM   10  C7  UNL     1      44.493  21.279  50.808  1.00  0.00     0.204 C 
ATOM     11  H2  UNL     1      42.812  22.344  50.633  1.00  0.00     0.172 HD
HETATM   12  N3  UNL     1      44.318  20.663  49.531  1.00  0.00    -0.066 NA
HETATM   13  N4  UNL     1      45.593  21.000  51.644  1.00  0.00    -0.066 NA
ATOM     14  H1  UNL     1      42.769  24.612  51.949  1.00  0.00     0.165 HD
ENDBRANCH   1   6
BRANCH   1  15
HETATM   15  C8  UNL     1      41.985  25.176  54.493  1.00  0.00     0.241 C 
HETATM   16  O2  UNL     1      41.337  25.948  53.698  1.00  0.00    -0.271 OA
HETATM   17  N5  UNL     1      41.411  24.789  55.731  1.00  0.00    -0.355 N 
ATOM     18  H5  UNL     1      41.909  24.174  56.373  1.00  0.00     0.162 HD
BRANCH  17  19
HETATM   19  C9  UNL     1      40.089  25.300  56.052  1.00  0.00     0.084 C 
HETATM   20  C10 UNL     1      39.018  24.552  55.246  1.00  0.00     0.025 C 
HETATM   21  C11 UNL     1      37.763  25.098  55.936  1.00  0.00     0.002 C 
HETATM   22  C12 UNL     1      38.155  25.307  57.384  1.00  0.00     0.002 C 
HETATM   23  C13 UNL     1      39.658  25.010  57.454  1.00  0.00     0.025 C 
ENDBRANCH  17  19
ENDBRANCH   1  15
TORSDOF 4
ENDMDL
MODEL 4
REMARK VINA RESULT: -5.889433403      3.445      6.146
REMARK  4 active torsions:
REMARK  status: ('A' for Active; 'I' for Inactive)
REMARK    1  A    between atoms: C2_2  and  C5_5 
REMARK    2  A    between atoms: C5_5  and  N1_6 
REMARK    3  A    between atoms: C5_5  and  C8_15 
REMARK       I    between atoms: N1_6  and  C6_8 
REMARK       I    between atoms: C6_8  and  N2_10 
REMARK       I    between atoms: C8_15  and  N5_17 
REMARK    4  A    between atoms: N5_17  and  C9_19 
ROOT
HETATM    1  C5  UNL     1      45.211  24.494  52.920  1.00  0.00     0.185 C 
ENDROOT
BRANCH   1   2
HETATM    2  C2  UNL     1      44.673  25.169  51.672  1.00  0.00    -0.022 C 
HETATM    3  C1  UNL     1      45.526  26.413  51.430  1.00  0.00     0.017 C 
HETATM    4  C3  UNL     1      44.782  24.315  50.449  1.00  0.00     0.017 C 
HETATM    5  C4  UNL     1      43.264  25.649  51.807  1.00  0.00     0.017 C 
ENDBRANCH   1   2
BRANCH   1   6
HETATM    6  N1  UNL     1      46.673  24.534  52.800  1.00  0.00    -0.329 N 
HETATM    7  C6  UNL     1      47.501  24.622  53.937  1.00  0.00     0.323 C 
HETATM    8  O1  UNL     1      47.009  24.670  55.118  1.00  0.00    -0.247 OA
HETATM    9  N2  UNL     1      48.912  24.665  53.881  1.00  0.00    -0.285 N 
HETATM   10  C7  UNL     1      49.650  25.306  54.740  1.00  0.00     0.204 C 
ATOM     11  H2  UNL     1      49.379  24.164  53.124  1.00  0.00     0.172 HD
HETATM   12  N3  UNL     1      51.072  25.291  54.599  1.00  0.00    -0.066 NA
HETATM   13  N4  UNL     1      48.997  25.995  55.782  1.00  0.00    -0.066 NA
ATOM     14  H1  UNL     1      47.099  24.498  51.873  1.00  0.00     0.165 HD
ENDBRANCH   1   6
BRANCH   1  15
HETATM   15  C8  UNL     1      44.758  23.079  53.025  1.00  0.00     0.241 C 
HETATM   16  O2  UNL     1      43.625  22.889  53.598  1.00  0.00    -0.271 OA
HETATM   17  N5  UNL     1      45.500  21.975  52.536  1.00  0.00    -0.355 N 
ATOM     18  H5  UNL     1      46.400  22.106  52.075  1.00  0.00     0.162 HD
BRANCH  17  19
HETATM   19  C9  UNL     1      44.933  20.648  52.713  1.00  0.00     0.084 C 
HETATM   20  C10 UNL     1      44.698  19.982  51.350  1.00  0.00     0.025 C 
HETATM   21  C11 UNL     1      44.347  18.568  51.824  1.00  0.00     0.002 C 
HETATM   22  C12 UNL     1      45.176  18.339  53.070  1.00  0.00     0.002 C 
HETATM   23  C13 UNL     1      45.871  19.677  53.356  1.00  0.00     0.025 C 
ENDBRANCH  17  19
ENDBRANCH   1  15
TORSDOF 4
ENDMDL
MODEL 5
REMARK VINA RESULT: -5.812333236      3.537      5.920
REMARK  4 active torsions:
REMARK  status: ('A' for Active; 'I' for Inactive)
REMARK    1  A    between atoms: C2_2  and  C5_5 
REMARK    2  A    between atoms: C5_5  and  N1_6 
REMARK    3  A    between atoms: C5_5  and  C8_15 
REMARK       I    between atoms: N1_6  and  C6_8 
REMARK       I    between atoms: C6_8  and  N2_10 
REMARK       I    between atoms: C8_15  and  N5_17 
REMARK    4  A    between atoms: N5_17  and  C9_19 
ROOT
HETATM    1  C5  UNL     1      45.610  23.347  53.062  1.00  0.00     0.185 C 
ENDROOT
BRANCH   1   2
HETATM    2  C2  UNL     1      44.298  24.061  52.799  1.00  0.00    -0.022 C 
HETATM    3  C1  UNL     1      43.811  23.616  51.421  1.00  0.00     0.017 C 
HETATM    4  C3  UNL     1      43.227  23.705  53.781  1.00  0.00     0.017 C 
HETATM    5  C4  UNL     1      44.425  25.549  52.735  1.00  0.00     0.017 C 
ENDBRANCH   1   2
BRANCH   1   6
HETATM    6  N1  UNL     1      45.251  22.053  53.653  1.00  0.00    -0.329 N 
HETATM    7  C6  UNL     1      45.629  20.838  53.046  1.00  0.00     0.323 C 
HETATM    8  O1  UNL     1      46.301  20.819  51.956  1.00  0.00    -0.247 OA
HETATM    9  N2  UNL     1      45.311  19.565  53.569  1.00  0.00    -0.285 N 
HETATM   10  C7  UNL     1      45.099  18.513  52.831  1.00  0.00     0.204 C 
ATOM     11  H2  UNL     1      45.245  19.463  54.582  1.00  0.00     0.172 HD
HETATM   12  N3  UNL     1      44.783  17.267  53.454  1.00  0.00    -0.066 NA
HETATM   13  N4  UNL     1      45.194  18.663  51.432  1.00  0.00    -0.066 NA
ATOM     14  H1  UNL     1      44.717  22.031  54.522  1.00  0.00     0.165 HD
ENDBRANCH   1   6
BRANCH   1  15
HETATM   15  C8  UNL     1      46.474  24.105  54.010  1.00  0.00     0.241 C 
HETATM   16  O2  UNL     1      46.101  24.105  55.239  1.00  0.00    -0.271 OA
HETATM   17  N5  UNL     1      47.648  24.799  53.625  1.00  0.00    -0.355 N 
ATOM     18  H5  UNL     1      47.962  24.808  52.655  1.00  0.00     0.162 HD
BRANCH  17  19
HETATM   19  C9  UNL     1      48.390  25.499  54.661  1.00  0.00     0.084 C 
HETATM   20  C10 UNL     1      49.867  25.084  54.632  1.00  0.00     0.025 C 
HETATM   21  C11 UNL     1      50.432  26.113  55.618  1.00  0.00     0.002 C 
HETATM   22  C12 UNL     1      49.600  27.363  55.421  1.00  0.00     0.002 C 
HETATM   23  C13 UNL     1      48.494  26.973  54.432  1.00  0.00     0.025 C 
ENDBRANCH  17  19
ENDBRANCH   1  15
TORSDOF 4
ENDMDL
