MODEL 1
REMARK VINA RESULT: -4.979197045      0.000      0.000
REMARK  6 active torsions:
REMARK  status: ('A' for Active; 'I' for Inactive)
REMARK    1  A    between atoms: C2_2  and  O1_3 
REMARK    2  A    between atoms: C4_6  and  C5_7 
REMARK    3  A    between atoms: C5_7  and  N1_8 
REMARK       I    between atoms: N1_8  and  C6_10 
REMARK       I    between atoms: C6_10  and  N2_12 
REMARK    4  A    between atoms: N2_12  and  C7_14 
REMARK    5  A    between atoms: C7_14  and  N3_16 
REMARK    6  A    between atoms: N3_16  and  C8_18 
ROOT
HETATM    1  N1  UNL     1      43.344  24.005  50.580  1.00  0.00    -0.342 N 
ATOM      2  H1  UNL     1      42.897  23.346  49.942  1.00  0.00     0.164 HD
HETATM    3  C6  UNL     1      42.540  25.023  51.223  1.00  0.00     0.322 C 
HETATM    4  O2  UNL     1      43.154  25.791  51.997  1.00  0.00    -0.247 OA
HETATM    5  N2  UNL     1      41.165  25.064  50.930  1.00  0.00    -0.286 N 
ATOM      6  H2  UNL     1      40.796  24.371  50.277  1.00  0.00     0.173 HD
ENDROOT
BRANCH   1   7
HETATM    7  C5  UNL     1      44.748  23.901  50.818  1.00  0.00     0.129 C 
BRANCH   7   8
HETATM    8  C4  UNL     1      45.165  22.513  51.193  1.00  0.00     0.009 C 
HETATM    9  C3  UNL     1      44.262  21.811  52.176  1.00  0.00     0.043 C 
HETATM   10  C2  UNL     1      45.169  22.271  53.289  1.00  0.00     0.055 C 
HETATM   11  C1  UNL     1      44.718  23.501  54.038  1.00  0.00     0.045 C 
HETATM   12  C13 UNL     1      46.262  22.474  52.271  1.00  0.00     0.043 C 
BRANCH  10  13
HETATM   13  O1  UNL     1      45.503  21.210  54.144  1.00  0.00    -0.390 OA
ATOM     14  H1  UNL     1      44.845  20.525  54.151  1.00  0.00     0.210 HD
ENDBRANCH  10  13
ENDBRANCH   7   8
ENDBRANCH   1   7
BRANCH   5  15
HETATM   15  C7  UNL     1      40.274  25.986  51.472  1.00  0.00     0.177 C 
HETATM   16  S1  UNL     1      39.329  26.778  50.338  1.00  0.00    -0.041 SA
BRANCH  15  17
HETATM   17  N3  UNL     1      40.091  26.320  52.837  1.00  0.00    -0.339 N 
ATOM     18  H3  UNL     1      40.080  27.304  53.108  1.00  0.00     0.164 HD
BRANCH  17  19
HETATM   19  C8  UNL     1      39.920  25.308  53.861  1.00  0.00     0.291 C 
HETATM   20  C9  UNL     1      40.965  25.207  54.915  1.00  0.00     0.083 C 
HETATM   21  C10 UNL     1      40.074  26.206  55.664  1.00  0.00     0.242 C 
HETATM   22  N4  UNL     1      38.969  25.713  54.868  1.00  0.00    -0.054 N 
HETATM   23  C11 UNL     1      38.085  26.797  54.535  1.00  0.00     0.274 C 
HETATM   24  C12 UNL     1      38.259  24.615  55.505  1.00  0.00     0.274 C 
ENDBRANCH  17  19
ENDBRANCH  15  17
ENDBRANCH   5  15
TORSDOF 6
ENDMDL
MODEL 2
REMARK VINA RESULT: -4.949705777      2.405      6.565
REMARK  6 active torsions:
REMARK  status: ('A' for Active; 'I' for Inactive)
REMARK    1  A    between atoms: C2_2  and  O1_3 
REMARK    2  A    between atoms: C4_6  and  C5_7 
REMARK    3  A    between atoms: C5_7  and  N1_8 
REMARK       I    between atoms: N1_8  and  C6_10 
REMARK       I    between atoms: C6_10  and  N2_12 
REMARK    4  A    between atoms: N2_12  and  C7_14 
REMARK    5  A    between atoms: C7_14  and  N3_16 
REMARK    6  A    between atoms: N3_16  and  C8_18 
ROOT
HETATM    1  N1  UNL     1      39.497  26.144  53.220  1.00  0.00    -0.342 N 
ATOM      2  H1  UNL     1      38.781  26.127  52.493  1.00  0.00     0.164 HD
HETATM    3  C6  UNL     1      40.809  25.603  52.934  1.00  0.00     0.322 C 
HETATM    4  O2  UNL     1      41.637  25.664  53.870  1.00  0.00    -0.247 OA
HETATM    5  N2  UNL     1      41.038  25.064  51.655  1.00  0.00    -0.286 N 
ATOM      6  H2  UNL     1      40.268  25.081  50.986  1.00  0.00     0.173 HD
ENDROOT
BRANCH   1   7
HETATM    7  C5  UNL     1      39.181  26.702  54.496  1.00  0.00     0.129 C 
BRANCH   7   8
HETATM    8  C4  UNL     1      37.984  26.057  55.124  1.00  0.00     0.009 C 
HETATM    9  C3  UNL     1      37.795  26.342  56.593  1.00  0.00     0.043 C 
HETATM   10  C2  UNL     1      38.519  25.057  56.902  1.00  0.00     0.055 C 
HETATM   11  C1  UNL     1      39.979  25.193  57.255  1.00  0.00     0.045 C 
HETATM   12  C13 UNL     1      38.212  24.585  55.504  1.00  0.00     0.043 C 
BRANCH  10  13
HETATM   13  O1  UNL     1      37.808  24.285  57.834  1.00  0.00    -0.390 OA
ATOM     14  H1  UNL     1      37.434  24.809  58.533  1.00  0.00     0.210 HD
ENDBRANCH  10  13
ENDBRANCH   7   8
ENDBRANCH   1   7
BRANCH   5  15
HETATM   15  C7  UNL     1      42.247  24.510  51.242  1.00  0.00     0.177 C 
HETATM   16  S1  UNL     1      42.878  25.196  49.850  1.00  0.00    -0.041 SA
BRANCH  15  17
HETATM   17  N3  UNL     1      42.974  23.456  51.851  1.00  0.00    -0.339 N 
ATOM     18  H3  UNL     1      42.574  22.517  51.853  1.00  0.00     0.164 HD
BRANCH  17  19
HETATM   19  C8  UNL     1      44.267  23.671  52.470  1.00  0.00     0.291 C 
HETATM   20  C9  UNL     1      44.400  23.354  53.918  1.00  0.00     0.083 C 
HETATM   21  C10 UNL     1      44.803  21.965  53.409  1.00  0.00     0.242 C 
HETATM   22  N4  UNL     1      45.193  22.605  52.171  1.00  0.00    -0.054 N 
HETATM   23  C11 UNL     1      44.872  21.753  51.057  1.00  0.00     0.274 C 
HETATM   24  C12 UNL     1      46.591  23.007  52.157  1.00  0.00     0.274 C 
ENDBRANCH  17  19
ENDBRANCH  15  17
ENDBRANCH   5  15
TORSDOF 6
ENDMDL
MODEL 3
REMARK VINA RESULT: -4.922445995      5.535      8.717
REMARK  6 active torsions:
REMARK  status: ('A' for Active; 'I' for Inactive)
REMARK    1  A    between atoms: C2_2  and  O1_3 
REMARK    2  A    between atoms: C4_6  and  C5_7 
REMARK    3  A    between atoms: C5_7  and  N1_8 
REMARK       I    between atoms: N1_8  and  C6_10 
REMARK       I    between atoms: C6_10  and  N2_12 
REMARK    4  A    between atoms: N2_12  and  C7_14 
REMARK    5  A    between atoms: C7_14  and  N3_16 
REMARK    6  A    between atoms: N3_16  and  C8_18 
ROOT
HETATM    1  N1  UNL     1      44.401  25.233  48.809  1.00  0.00    -0.342 N 
ATOM      2  H1  UNL     1      44.033  26.151  49.061  1.00  0.00     0.164 HD
HETATM    3  C6  UNL     1      44.592  24.908  47.411  1.00  0.00     0.322 C 
HETATM    4  O2  UNL     1      45.053  23.768  47.177  1.00  0.00    -0.247 OA
HETATM    5  N2  UNL     1      44.251  25.880  46.453  1.00  0.00    -0.286 N 
ATOM      6  H2  UNL     1      43.885  26.771  46.788  1.00  0.00     0.173 HD
ENDROOT
BRANCH   1   7
HETATM    7  C5  UNL     1      44.716  24.300  49.842  1.00  0.00     0.129 C 
BRANCH   7   8
HETATM    8  C4  UNL     1      44.218  24.739  51.185  1.00  0.00     0.009 C 
HETATM    9  C3  UNL     1      45.005  24.226  52.364  1.00  0.00     0.043 C 
HETATM   10  C2  UNL     1      44.019  23.092  52.487  1.00  0.00     0.055 C 
HETATM   11  C1  UNL     1      44.443  21.782  51.871  1.00  0.00     0.045 C 
HETATM   12  C13 UNL     1      43.029  23.910  51.698  1.00  0.00     0.043 C 
BRANCH  10  13
HETATM   13  O1  UNL     1      43.573  22.947  53.809  1.00  0.00    -0.390 OA
ATOM     14  H1  UNL     1      42.896  23.574  54.037  1.00  0.00     0.210 HD
ENDBRANCH  10  13
ENDBRANCH   7   8
ENDBRANCH   1   7
BRANCH   5  15
HETATM   15  C7  UNL     1      44.380  25.705  45.078  1.00  0.00     0.177 C 
HETATM   16  S1  UNL     1      43.013  26.114  44.200  1.00  0.00    -0.041 SA
BRANCH  15  17
HETATM   17  N3  UNL     1      45.509  25.228  44.364  1.00  0.00    -0.339 N 
ATOM     18  H3  UNL     1      45.759  24.241  44.439  1.00  0.00     0.164 HD
BRANCH  17  19
HETATM   19  C8  UNL     1      46.317  26.097  43.532  1.00  0.00     0.291 C 
HETATM   20  C9  UNL     1      46.610  27.464  44.041  1.00  0.00     0.083 C 
HETATM   21  C10 UNL     1      47.846  26.794  44.653  1.00  0.00     0.242 C 
HETATM   22  N4  UNL     1      47.722  25.781  43.627  1.00  0.00    -0.054 N 
HETATM   23  C11 UNL     1      48.069  24.493  44.166  1.00  0.00     0.274 C 
HETATM   24  C12 UNL     1      48.492  26.090  42.432  1.00  0.00     0.274 C 
ENDBRANCH  17  19
ENDBRANCH  15  17
ENDBRANCH   5  15
TORSDOF 6
ENDMDL
MODEL 4
REMARK VINA RESULT: -4.903293278     10.091     13.237
REMARK  6 active torsions:
REMARK  status: ('A' for Active; 'I' for Inactive)
REMARK    1  A    between atoms: C2_2  and  O1_3 
REMARK    2  A    between atoms: C4_6  and  C5_7 
REMARK    3  A    between atoms: C5_7  and  N1_8 
REMARK       I    between atoms: N1_8  and  C6_10 
REMARK       I    between atoms: C6_10  and  N2_12 
REMARK    4  A    between atoms: N2_12  and  C7_14 
REMARK    5  A    between atoms: C7_14  and  N3_16 
REMARK    6  A    between atoms: N3_16  and  C8_18 
ROOT
HETATM    1  N1  UNL     1      45.183  25.667  43.119  1.00  0.00    -0.342 N 
ATOM      2  H1  UNL     1      44.878  24.698  43.024  1.00  0.00     0.164 HD
HETATM    3  C6  UNL     1      46.514  25.945  43.616  1.00  0.00     0.322 C 
HETATM    4  O2  UNL     1      46.822  27.155  43.699  1.00  0.00    -0.247 OA
HETATM    5  N2  UNL     1      47.334  24.853  43.956  1.00  0.00    -0.286 N 
ATOM      6  H2  UNL     1      46.952  23.915  43.836  1.00  0.00     0.173 HD
ENDROOT
BRANCH   1   7
HETATM    7  C5  UNL     1      44.287  26.719  42.759  1.00  0.00     0.129 C 
BRANCH   7   8
HETATM    8  C4  UNL     1      42.854  26.363  43.008  1.00  0.00     0.009 C 
HETATM    9  C3  UNL     1      41.878  26.848  41.965  1.00  0.00     0.043 C 
HETATM   10  C2  UNL     1      41.616  28.061  42.821  1.00  0.00     0.055 C 
HETATM   11  C1  UNL     1      42.364  29.313  42.435  1.00  0.00     0.045 C 
HETATM   12  C13 UNL     1      42.155  27.301  44.006  1.00  0.00     0.043 C 
BRANCH  10  13
HETATM   13  O1  UNL     1      40.240  28.282  42.981  1.00  0.00    -0.390 OA
ATOM     14  H1  UNL     1      39.734  27.478  42.945  1.00  0.00     0.210 HD
ENDBRANCH  10  13
ENDBRANCH   7   8
ENDBRANCH   1   7
BRANCH   5  15
HETATM   15  C7  UNL     1      48.632  24.969  44.446  1.00  0.00     0.177 C 
HETATM   16  S1  UNL     1      48.723  25.462  46.044  1.00  0.00    -0.041 SA
BRANCH  15  17
HETATM   17  N3  UNL     1      49.847  24.728  43.755  1.00  0.00    -0.339 N 
ATOM     18  H3  UNL     1      50.295  23.816  43.848  1.00  0.00     0.164 HD
BRANCH  17  19
HETATM   19  C8  UNL     1      50.470  25.737  42.921  1.00  0.00     0.291 C 
HETATM   20  C9  UNL     1      51.464  26.642  43.558  1.00  0.00     0.083 C 
HETATM   21  C10 UNL     1      52.473  25.571  43.128  1.00  0.00     0.242 C 
HETATM   22  N4  UNL     1      51.525  25.185  42.104  1.00  0.00    -0.054 N 
HETATM   23  C11 UNL     1      51.542  23.757  41.934  1.00  0.00     0.274 C 
HETATM   24  C12 UNL     1      51.739  25.881  40.844  1.00  0.00     0.274 C 
ENDBRANCH  17  19
ENDBRANCH  15  17
ENDBRANCH   5  15
TORSDOF 6
ENDMDL
MODEL 5
REMARK VINA RESULT: -4.890667835      4.995      8.277
REMARK  6 active torsions:
REMARK  status: ('A' for Active; 'I' for Inactive)
REMARK    1  A    between atoms: C2_2  and  O1_3 
REMARK    2  A    between atoms: C4_6  and  C5_7 
REMARK    3  A    between atoms: C5_7  and  N1_8 
REMARK       I    between atoms: N1_8  and  C6_10 
REMARK       I    between atoms: C6_10  and  N2_12 
REMARK    4  A    between atoms: N2_12  and  C7_14 
REMARK    5  A    between atoms: C7_14  and  N3_16 
REMARK    6  A    between atoms: N3_16  and  C8_18 
ROOT
HETATM    1  N1  UNL     1      44.799  24.898  49.856  1.00  0.00    -0.342 N 
ATOM      2  H1  UNL     1      44.798  25.732  50.443  1.00  0.00     0.164 HD
HETATM    3  C6  UNL     1      44.870  25.045  48.417  1.00  0.00     0.322 C 
HETATM    4  O2  UNL     1      44.874  23.980  47.761  1.00  0.00    -0.247 OA
HETATM    5  N2  UNL     1      44.929  26.348  47.887  1.00  0.00    -0.286 N 
ATOM      6  H2  UNL     1      44.919  27.130  48.543  1.00  0.00     0.173 HD
ENDROOT
BRANCH   1   7
HETATM    7  C5  UNL     1      44.729  23.612  50.472  1.00  0.00     0.129 C 
BRANCH   7   8
HETATM    8  C4  UNL     1      45.179  23.634  51.900  1.00  0.00     0.009 C 
HETATM    9  C3  UNL     1      46.215  22.600  52.265  1.00  0.00     0.043 C 
HETATM   10  C2  UNL     1      45.101  21.701  52.740  1.00  0.00     0.055 C 
HETATM   11  C1  UNL     1      44.654  20.638  51.767  1.00  0.00     0.045 C 
HETATM   12  C13 UNL     1      44.214  22.913  52.856  1.00  0.00     0.043 C 
BRANCH  10  13
HETATM   13  O1  UNL     1      45.374  21.184  54.015  1.00  0.00    -0.390 OA
ATOM     14  H1  UNL     1      46.271  21.340  54.289  1.00  0.00     0.210 HD
ENDBRANCH  10  13
ENDBRANCH   7   8
ENDBRANCH   1   7
BRANCH   5  15
HETATM   15  C7  UNL     1      45.000  26.639  46.528  1.00  0.00     0.177 C 
HETATM   16  S1  UNL     1      44.022  27.912  46.045  1.00  0.00    -0.041 SA
BRANCH  15  17
HETATM   17  N3  UNL     1      45.781  25.991  45.539  1.00  0.00    -0.339 N 
ATOM     18  H3  UNL     1      45.313  25.417  44.837  1.00  0.00     0.164 HD
BRANCH  17  19
HETATM   19  C8  UNL     1      47.225  26.117  45.494  1.00  0.00     0.291 C 
HETATM   20  C9  UNL     1      48.034  24.893  45.739  1.00  0.00     0.083 C 
HETATM   21  C10 UNL     1      47.937  24.723  44.218  1.00  0.00     0.242 C 
HETATM   22  N4  UNL     1      47.722  26.152  44.139  1.00  0.00    -0.054 N 
HETATM   23  C11 UNL     1      46.771  26.447  43.101  1.00  0.00     0.274 C 
HETATM   24  C12 UNL     1      48.957  26.902  43.968  1.00  0.00     0.274 C 
ENDBRANCH  17  19
ENDBRANCH  15  17
ENDBRANCH   5  15
TORSDOF 6
ENDMDL
