MODEL 1
REMARK VINA RESULT: -6.687323081      0.000      0.000
REMARK  3 active torsions:
REMARK  status: ('A' for Active; 'I' for Inactive)
REMARK       I    between atoms: C1_4  and  N3_6 
REMARK    1  A    between atoms: C5_10  and  C6_11 
REMARK       I    between atoms: C6_11  and  N4_13 
REMARK    2  A    between atoms: N4_13  and  C7_15 
REMARK    3  A    between atoms: C11_19  and  C12_20 
ROOT
HETATM    1  C6  UNL     1      43.408  24.132  53.666  1.00  0.00     0.223 C 
HETATM    2  O1  UNL     1      43.695  25.135  52.938  1.00  0.00    -0.273 OA
HETATM    3  N4  UNL     1      42.304  24.170  54.526  1.00  0.00    -0.355 N 
ATOM      4  H4  UNL     1      42.083  23.359  55.104  1.00  0.00     0.162 HD
ENDROOT
BRANCH   1   5
HETATM    5  C5  UNL     1      44.259  22.901  53.598  1.00  0.00     0.096 C 
HETATM    6  C4  UNL     1      45.703  23.246  53.847  1.00  0.00     0.017 C 
HETATM    7  C3  UNL     1      46.620  22.780  52.749  1.00  0.00     0.021 C 
HETATM    8  C2  UNL     1      46.323  21.317  52.463  1.00  0.00     0.125 C 
HETATM    9  N3  UNL     1      44.984  21.267  51.906  1.00  0.00    -0.355 N 
HETATM   10  C1  UNL     1      44.547  20.247  51.040  1.00  0.00     0.183 C 
HETATM   11  C13 UNL     1      44.026  22.300  52.236  1.00  0.00     0.139 C 
HETATM   12  N1  UNL     1      44.568  20.437  49.781  1.00  0.00    -0.374 N 
HETATM   13  N2  UNL     1      44.093  19.027  51.569  1.00  0.00    -0.064 NA
ATOM     14  H12 UNL     1      44.252  19.698  49.153  1.00  0.00     0.158 HD
ATOM     15  H11 UNL     1      44.898  21.321  49.397  1.00  0.00     0.158 HD
ENDBRANCH   1   5
BRANCH   3  16
HETATM   16  C7  UNL     1      41.480  25.347  54.598  1.00  0.00     0.098 C 
HETATM   17  C8  UNL     1      41.103  25.558  56.051  1.00  0.00     0.026 C 
HETATM   18  C9  UNL     1      39.775  24.839  56.143  1.00  0.00     0.003 C 
HETATM   19  C10 UNL     1      39.094  25.330  54.859  1.00  0.00     0.017 C 
HETATM   20  C11 UNL     1      40.194  25.084  53.852  1.00  0.00     0.109 C 
BRANCH  20  21
HETATM   21  C12 UNL     1      40.029  26.034  52.707  1.00  0.00     0.179 C 
HETATM   22  O2  UNL     1      40.710  25.844  51.692  1.00  0.00    -0.648 OA
HETATM   23  O3  UNL     1      39.139  27.068  52.820  1.00  0.00    -0.648 OA
ENDBRANCH  20  21
ENDBRANCH   3  16
TORSDOF 3
ENDMDL
MODEL 2
REMARK VINA RESULT: -6.493463034      2.276      6.849
REMARK  3 active torsions:
REMARK  status: ('A' for Active; 'I' for Inactive)
REMARK       I    between atoms: C1_4  and  N3_6 
REMARK    1  A    between atoms: C5_10  and  C6_11 
REMARK       I    between atoms: C6_11  and  N4_13 
REMARK    2  A    between atoms: N4_13  and  C7_15 
REMARK    3  A    between atoms: C11_19  and  C12_20 
ROOT
HETATM    1  C6  UNL     1      42.850  23.795  51.551  1.00  0.00     0.223 C 
HETATM    2  O1  UNL     1      43.834  24.601  51.592  1.00  0.00    -0.273 OA
HETATM    3  N4  UNL     1      43.060  22.429  51.333  1.00  0.00    -0.355 N 
ATOM      4  H4  UNL     1      42.264  21.792  51.303  1.00  0.00     0.162 HD
ENDROOT
BRANCH   1   5
HETATM    5  C5  UNL     1      41.458  24.316  51.738  1.00  0.00     0.096 C 
HETATM    6  C4  UNL     1      41.132  25.336  50.680  1.00  0.00     0.017 C 
HETATM    7  C3  UNL     1      40.674  26.653  51.249  1.00  0.00     0.021 C 
HETATM    8  C2  UNL     1      39.585  26.380  52.273  1.00  0.00     0.125 C 
HETATM    9  N3  UNL     1      40.215  25.674  53.371  1.00  0.00    -0.355 N 
HETATM   10  C1  UNL     1      39.730  25.714  54.693  1.00  0.00     0.183 C 
HETATM   11  C13 UNL     1      41.401  24.880  53.134  1.00  0.00     0.139 C 
HETATM   12  N1  UNL     1      40.241  26.529  55.528  1.00  0.00    -0.374 N 
HETATM   13  N2  UNL     1      38.687  24.856  55.082  1.00  0.00    -0.064 NA
ATOM     14  H12 UNL     1      39.891  26.558  56.485  1.00  0.00     0.158 HD
ATOM     15  H11 UNL     1      40.998  27.151  55.246  1.00  0.00     0.158 HD
ENDBRANCH   1   5
BRANCH   3  16
HETATM   16  C7  UNL     1      44.393  21.918  51.152  1.00  0.00     0.098 C 
HETATM   17  C8  UNL     1      44.301  20.688  50.272  1.00  0.00     0.026 C 
HETATM   18  C9  UNL     1      44.203  19.573  51.291  1.00  0.00     0.003 C 
HETATM   19  C10 UNL     1      45.287  20.002  52.289  1.00  0.00     0.017 C 
HETATM   20  C11 UNL     1      44.918  21.454  52.490  1.00  0.00     0.109 C 
BRANCH  20  21
HETATM   21  C12 UNL     1      46.143  22.218  52.885  1.00  0.00     0.179 C 
HETATM   22  O2  UNL     1      47.092  22.244  52.091  1.00  0.00    -0.648 OA
HETATM   23  O3  UNL     1      46.172  22.855  54.096  1.00  0.00    -0.648 OA
ENDBRANCH  20  21
ENDBRANCH   3  16
TORSDOF 3
ENDMDL
MODEL 3
REMARK VINA RESULT: -6.340746852      4.817      6.659
REMARK  3 active torsions:
REMARK  status: ('A' for Active; 'I' for Inactive)
REMARK       I    between atoms: C1_4  and  N3_6 
REMARK    1  A    between atoms: C5_10  and  C6_11 
REMARK       I    between atoms: C6_11  and  N4_13 
REMARK    2  A    between atoms: N4_13  and  C7_15 
REMARK    3  A    between atoms: C11_19  and  C12_20 
ROOT
HETATM    1  C6  UNL     1      44.120  24.262  49.938  1.00  0.00     0.223 C 
HETATM    2  O1  UNL     1      42.858  24.163  49.815  1.00  0.00    -0.273 OA
HETATM    3  N4  UNL     1      44.822  23.393  50.781  1.00  0.00    -0.355 N 
ATOM      4  H4  UNL     1      45.834  23.481  50.871  1.00  0.00     0.162 HD
ENDROOT
BRANCH   1   5
HETATM    5  C5  UNL     1      44.859  25.319  49.175  1.00  0.00     0.096 C 
HETATM    6  C4  UNL     1      44.120  26.629  49.242  1.00  0.00     0.017 C 
HETATM    7  C3  UNL     1      43.821  27.211  47.887  1.00  0.00     0.021 C 
HETATM    8  C2  UNL     1      45.102  27.208  47.070  1.00  0.00     0.125 C 
HETATM    9  N3  UNL     1      45.442  25.817  46.836  1.00  0.00    -0.355 N 
HETATM   10  C1  UNL     1      46.194  25.383  45.727  1.00  0.00     0.183 C 
HETATM   11  C13 UNL     1      45.004  24.800  47.767  1.00  0.00     0.139 C 
HETATM   12  N1  UNL     1      45.595  24.933  44.697  1.00  0.00    -0.374 N 
HETATM   13  N2  UNL     1      47.597  25.450  45.764  1.00  0.00    -0.064 NA
ATOM     14  H12 UNL     1      46.140  24.618  43.894  1.00  0.00     0.158 HD
ATOM     15  H11 UNL     1      44.577  24.884  44.671  1.00  0.00     0.158 HD
ENDBRANCH   1   5
BRANCH   3  16
HETATM   16  C7  UNL     1      44.123  22.374  51.518  1.00  0.00     0.098 C 
HETATM   17  C8  UNL     1      44.162  22.757  52.984  1.00  0.00     0.026 C 
HETATM   18  C9  UNL     1      45.390  22.019  53.474  1.00  0.00     0.003 C 
HETATM   19  C10 UNL     1      45.185  20.651  52.809  1.00  0.00     0.017 C 
HETATM   20  C11 UNL     1      44.884  21.076  51.390  1.00  0.00     0.109 C 
BRANCH  20  21
HETATM   21  C12 UNL     1      44.049  20.022  50.732  1.00  0.00     0.179 C 
HETATM   22  O2  UNL     1      43.704  19.047  51.411  1.00  0.00    -0.648 OA
HETATM   23  O3  UNL     1      43.700  20.171  49.417  1.00  0.00    -0.648 OA
ENDBRANCH  20  21
ENDBRANCH   3  16
TORSDOF 3
ENDMDL
MODEL 4
REMARK VINA RESULT: -6.226013991      1.242      1.625
REMARK  3 active torsions:
REMARK  status: ('A' for Active; 'I' for Inactive)
REMARK       I    between atoms: C1_4  and  N3_6 
REMARK    1  A    between atoms: C5_10  and  C6_11 
REMARK       I    between atoms: C6_11  and  N4_13 
REMARK    2  A    between atoms: N4_13  and  C7_15 
REMARK    3  A    between atoms: C11_19  and  C12_20 
ROOT
HETATM    1  C6  UNL     1      43.105  24.034  53.745  1.00  0.00     0.223 C 
HETATM    2  O1  UNL     1      42.511  24.516  52.728  1.00  0.00    -0.273 OA
HETATM    3  N4  UNL     1      42.765  24.459  55.034  1.00  0.00    -0.355 N 
ATOM      4  H4  UNL     1      43.247  24.066  55.842  1.00  0.00     0.162 HD
ENDROOT
BRANCH   1   5
HETATM    5  C5  UNL     1      44.176  23.003  53.558  1.00  0.00     0.096 C 
HETATM    6  C4  UNL     1      45.535  23.651  53.562  1.00  0.00     0.017 C 
HETATM    7  C3  UNL     1      46.347  23.332  52.336  1.00  0.00     0.021 C 
HETATM    8  C2  UNL     1      46.325  21.828  52.124  1.00  0.00     0.125 C 
HETATM    9  N3  UNL     1      44.958  21.475  51.794  1.00  0.00    -0.355 N 
HETATM   10  C1  UNL     1      44.617  20.345  51.026  1.00  0.00     0.183 C 
HETATM   11  C13 UNL     1      43.866  22.302  52.260  1.00  0.00     0.139 C 
HETATM   12  N1  UNL     1      44.400  20.473  49.778  1.00  0.00    -0.374 N 
HETATM   13  N2  UNL     1      44.520  19.084  51.641  1.00  0.00    -0.064 NA
ATOM     14  H12 UNL     1      44.153  19.655  49.222  1.00  0.00     0.158 HD
ATOM     15  H11 UNL     1      44.470  21.387  49.332  1.00  0.00     0.158 HD
ENDBRANCH   1   5
BRANCH   3  16
HETATM   16  C7  UNL     1      41.738  25.448  55.226  1.00  0.00     0.098 C 
HETATM   17  C8  UNL     1      42.251  26.459  56.231  1.00  0.00     0.026 C 
HETATM   18  C9  UNL     1      41.718  25.910  57.537  1.00  0.00     0.003 C 
HETATM   19  C10 UNL     1      40.281  25.553  57.131  1.00  0.00     0.017 C 
HETATM   20  C11 UNL     1      40.537  24.783  55.856  1.00  0.00     0.109 C 
BRANCH  20  21
HETATM   21  C12 UNL     1      39.334  24.888  54.972  1.00  0.00     0.179 C 
HETATM   22  O2  UNL     1      39.459  25.471  53.888  1.00  0.00    -0.648 OA
HETATM   23  O3  UNL     1      38.149  24.342  55.388  1.00  0.00    -0.648 OA
ENDBRANCH  20  21
ENDBRANCH   3  16
TORSDOF 3
ENDMDL
MODEL 5
REMARK VINA RESULT: -6.036999399      9.935     11.534
REMARK  3 active torsions:
REMARK  status: ('A' for Active; 'I' for Inactive)
REMARK       I    between atoms: C1_4  and  N3_6 
REMARK    1  A    between atoms: C5_10  and  C6_11 
REMARK       I    between atoms: C6_11  and  N4_13 
REMARK    2  A    between atoms: N4_13  and  C7_15 
REMARK    3  A    between atoms: C11_19  and  C12_20 
ROOT
HETATM    1  C6  UNL     1      49.016  25.075  43.678  1.00  0.00     0.223 C 
HETATM    2  O1  UNL     1      48.326  25.249  42.624  1.00  0.00    -0.273 OA
HETATM    3  N4  UNL     1      48.439  25.243  44.941  1.00  0.00    -0.355 N 
ATOM      4  H4  UNL     1      49.002  25.100  45.780  1.00  0.00     0.162 HD
ENDROOT
BRANCH   1   5
HETATM    5  C5  UNL     1      50.459  24.688  43.562  1.00  0.00     0.096 C 
HETATM    6  C4  UNL     1      51.345  25.863  43.880  1.00  0.00     0.017 C 
HETATM    7  C3  UNL     1      52.331  26.174  42.786  1.00  0.00     0.021 C 
HETATM    8  C2  UNL     1      53.041  24.887  42.401  1.00  0.00     0.125 C 
HETATM    9  N3  UNL     1      52.041  24.026  41.797  1.00  0.00    -0.355 N 
HETATM   10  C1  UNL     1      52.352  23.027  40.855  1.00  0.00     0.183 C 
HETATM   11  C13 UNL     1      50.648  24.174  42.158  1.00  0.00     0.139 C 
HETATM   12  N1  UNL     1      52.227  23.272  39.612  1.00  0.00    -0.374 N 
HETATM   13  N2  UNL     1      52.797  21.767  41.292  1.00  0.00    -0.064 NA
ATOM     14  H12 UNL     1      52.451  22.548  38.929  1.00  0.00     0.158 HD
ATOM     15  H11 UNL     1      51.904  24.185  39.295  1.00  0.00     0.158 HD
ENDBRANCH   1   5
BRANCH   3  16
HETATM   16  C7  UNL     1      47.054  25.614  45.064  1.00  0.00     0.098 C 
HETATM   17  C8  UNL     1      46.986  27.127  45.130  1.00  0.00     0.026 C 
HETATM   18  C9  UNL     1      47.002  27.381  46.622  1.00  0.00     0.003 C 
HETATM   19  C10 UNL     1      46.005  26.319  47.104  1.00  0.00     0.017 C 
HETATM   20  C11 UNL     1      46.530  25.099  46.383  1.00  0.00     0.109 C 
BRANCH  20  21
HETATM   21  C12 UNL     1      45.407  24.132  46.179  1.00  0.00     0.179 C 
HETATM   22  O2  UNL     1      45.543  23.257  45.315  1.00  0.00    -0.648 OA
HETATM   23  O3  UNL     1      44.279  24.246  46.946  1.00  0.00    -0.648 OA
ENDBRANCH  20  21
ENDBRANCH   3  16
TORSDOF 3
ENDMDL
