MODEL 1
REMARK VINA RESULT: -8.208904388      0.000      0.000
REMARK  4 active torsions:
REMARK  status: ('A' for Active; 'I' for Inactive)
REMARK    1  A    between atoms: C2_2  and  N1_3 
REMARK    2  A    between atoms: C2_2  and  C8_10 
REMARK       I    between atoms: N1_3  and  C3_4 
REMARK    3  A    between atoms: C3_4  and  C4_6 
REMARK       I    between atoms: C8_10  and  N2_12 
REMARK    4  A    between atoms: N2_12  and  C9_14 
REMARK       I    between atoms: N3_17  and  C12_18 
ROOT
HETATM    1  C8  UNL     1      14.964 -13.133  19.115  1.00  0.00     0.253 C 
HETATM    2  O2  UNL     1      14.371 -12.507  18.218  1.00  0.00    -0.270 OA
HETATM    3  N2  UNL     1      14.483 -13.227  20.411  1.00  0.00    -0.354 N 
ATOM      4  H2  UNL     1      15.044 -13.728  21.102  1.00  0.00     0.163 HD
ENDROOT
BRANCH   3   5
HETATM    5  C9  UNL     1      13.205 -12.642  20.840  1.00  0.00     0.087 C 
HETATM    6  C10 UNL     1      13.306 -11.194  21.107  1.00  0.00     0.045 C 
HETATM    7  C11 UNL     1      12.067 -10.650  21.793  1.00  0.00     0.127 C 
HETATM    8  N3  UNL     1      11.610 -11.505  22.850  1.00  0.00    -0.356 N 
HETATM    9  C12 UNL     1      11.210 -10.985  24.080  1.00  0.00     0.183 C 
HETATM   10  C13 UNL     1      11.570 -12.951  22.667  1.00  0.00     0.127 C 
HETATM   11  N4  UNL     1      10.529 -11.571  24.970  1.00  0.00    -0.374 N 
HETATM   12  N5  UNL     1      11.497  -9.578  24.409  1.00  0.00    -0.064 NA
ATOM     13  H42 UNL     1      10.331 -12.546  24.743  1.00  0.00     0.158 HD
ATOM     14  H41 UNL     1      10.237 -11.191  25.870  1.00  0.00     0.158 HD
HETATM   15  C14 UNL     1      12.858 -13.449  22.083  1.00  0.00     0.045 C 
ENDBRANCH   3   5
BRANCH   1  16
HETATM   16  C2  UNL     1      16.288 -13.813  18.685  1.00  0.00     0.254 C 
HETATM   17  C1  UNL     1      15.900 -15.264  18.577  1.00  0.00     0.058 C 
BRANCH  16  18
HETATM   18  N1  UNL     1      17.306 -13.418  19.474  1.00  0.00    -0.400 NA
HETATM   19  C3  UNL     1      18.353 -13.011  20.287  1.00  0.00     0.295 C 
HETATM   20  O1  UNL     1      18.380 -12.254  21.258  1.00  0.00    -0.257 OA
BRANCH  19  21
HETATM   21  C4  UNL     1      19.753 -13.582  19.941  1.00  0.00     0.043 C 
HETATM   22  C5  UNL     1      19.873 -15.031  20.374  1.00  0.00     0.026 C 
HETATM   23  C6  UNL     1      20.789 -12.830  20.756  1.00  0.00     0.026 C 
HETATM   24  C7  UNL     1      20.055 -13.399  18.480  1.00  0.00     0.026 C 
ENDBRANCH  19  21
ENDBRANCH  16  18
ENDBRANCH   1  16
TORSDOF 4
ENDMDL
MODEL 2
REMARK VINA RESULT: -7.940095372      1.291      1.477
REMARK  4 active torsions:
REMARK  status: ('A' for Active; 'I' for Inactive)
REMARK    1  A    between atoms: C2_2  and  N1_3 
REMARK    2  A    between atoms: C2_2  and  C8_10 
REMARK       I    between atoms: N1_3  and  C3_4 
REMARK    3  A    between atoms: C3_4  and  C4_6 
REMARK       I    between atoms: C8_10  and  N2_12 
REMARK    4  A    between atoms: N2_12  and  C9_14 
REMARK       I    between atoms: N3_17  and  C12_18 
ROOT
HETATM    1  C8  UNL     1      15.066 -13.103  18.675  1.00  0.00     0.253 C 
HETATM    2  O2  UNL     1      14.503 -12.400  17.817  1.00  0.00    -0.270 OA
HETATM    3  N2  UNL     1      14.542 -13.309  19.941  1.00  0.00    -0.354 N 
ATOM      4  H2  UNL     1      15.080 -13.869  20.604  1.00  0.00     0.163 HD
ENDROOT
BRANCH   3   5
HETATM    5  C9  UNL     1      13.250 -12.761  20.377  1.00  0.00     0.087 C 
HETATM    6  C10 UNL     1      13.372 -11.402  20.940  1.00  0.00     0.045 C 
HETATM    7  C11 UNL     1      12.094 -10.948  21.621  1.00  0.00     0.127 C 
HETATM    8  N3  UNL     1      11.520 -11.974  22.442  1.00  0.00    -0.356 N 
HETATM    9  C12 UNL     1      11.030 -11.692  23.716  1.00  0.00     0.183 C 
HETATM   10  C13 UNL     1      11.452 -13.350  21.966  1.00  0.00     0.127 C 
HETATM   11  N4  UNL     1      10.255 -12.411  24.410  1.00  0.00    -0.374 N 
HETATM   12  N5  UNL     1      11.329 -10.394  24.345  1.00  0.00    -0.064 NA
ATOM     13  H42 UNL     1      10.048 -13.310  23.975  1.00  0.00     0.158 HD
ATOM     14  H41 UNL     1       9.897 -12.205  25.343  1.00  0.00     0.158 HD
HETATM   15  C14 UNL     1      12.770 -13.782  21.398  1.00  0.00     0.045 C 
ENDBRANCH   3   5
BRANCH   1  16
HETATM   16  C2  UNL     1      16.404 -13.745  18.232  1.00  0.00     0.254 C 
HETATM   17  C1  UNL     1      15.992 -14.614  17.074  1.00  0.00     0.058 C 
BRANCH  16  18
HETATM   18  N1  UNL     1      17.062 -14.256  19.291  1.00  0.00    -0.400 NA
HETATM   19  C3  UNL     1      17.739 -14.784  20.380  1.00  0.00     0.295 C 
HETATM   20  O1  UNL     1      17.703 -15.902  20.895  1.00  0.00    -0.257 OA
BRANCH  19  21
HETATM   21  C4  UNL     1      18.719 -13.827  21.109  1.00  0.00     0.043 C 
HETATM   22  C5  UNL     1      19.060 -14.346  22.492  1.00  0.00     0.026 C 
HETATM   23  C6  UNL     1      18.012 -12.503  21.336  1.00  0.00     0.026 C 
HETATM   24  C7  UNL     1      19.946 -13.588  20.273  1.00  0.00     0.026 C 
ENDBRANCH  19  21
ENDBRANCH  16  18
ENDBRANCH   1  16
TORSDOF 4
ENDMDL
MODEL 3
REMARK VINA RESULT: -7.811907226      0.814      1.033
REMARK  4 active torsions:
REMARK  status: ('A' for Active; 'I' for Inactive)
REMARK    1  A    between atoms: C2_2  and  N1_3 
REMARK    2  A    between atoms: C2_2  and  C8_10 
REMARK       I    between atoms: N1_3  and  C3_4 
REMARK    3  A    between atoms: C3_4  and  C4_6 
REMARK       I    between atoms: C8_10  and  N2_12 
REMARK    4  A    between atoms: N2_12  and  C9_14 
REMARK       I    between atoms: N3_17  and  C12_18 
ROOT
HETATM    1  C8  UNL     1      14.813 -12.980  19.123  1.00  0.00     0.253 C 
HETATM    2  O2  UNL     1      14.140 -12.435  18.230  1.00  0.00    -0.270 OA
HETATM    3  N2  UNL     1      14.392 -13.057  20.441  1.00  0.00    -0.354 N 
ATOM      4  H2  UNL     1      15.015 -13.489  21.124  1.00  0.00     0.163 HD
ENDROOT
BRANCH   3   5
HETATM    5  C9  UNL     1      13.094 -12.547  20.903  1.00  0.00     0.087 C 
HETATM    6  C10 UNL     1      13.124 -11.100  21.192  1.00  0.00     0.045 C 
HETATM    7  C11 UNL     1      11.871 -10.634  21.909  1.00  0.00     0.127 C 
HETATM    8  N3  UNL     1      11.480 -11.528  22.960  1.00  0.00    -0.356 N 
HETATM    9  C12 UNL     1      11.077 -11.050  24.206  1.00  0.00     0.183 C 
HETATM   10  C13 UNL     1      11.513 -12.971  22.754  1.00  0.00     0.127 C 
HETATM   11  N4  UNL     1      10.444 -11.685  25.098  1.00  0.00    -0.374 N 
HETATM   12  N5  UNL     1      11.294  -9.635  24.553  1.00  0.00    -0.064 NA
ATOM     13  H42 UNL     1      10.294 -12.665  24.858  1.00  0.00     0.158 HD
ATOM     14  H41 UNL     1      10.150 -11.335  26.009  1.00  0.00     0.158 HD
HETATM   15  C14 UNL     1      12.813 -13.391  22.138  1.00  0.00     0.045 C 
ENDBRANCH   3   5
BRANCH   1  16
HETATM   16  C2  UNL     1      16.164 -13.582  18.661  1.00  0.00     0.254 C 
HETATM   17  C1  UNL     1      15.776 -14.961  18.197  1.00  0.00     0.058 C 
BRANCH  16  18
HETATM   18  N1  UNL     1      17.113 -13.400  19.600  1.00  0.00    -0.400 NA
HETATM   19  C3  UNL     1      18.089 -13.211  20.566  1.00  0.00     0.295 C 
HETATM   20  O1  UNL     1      18.514 -12.187  21.102  1.00  0.00    -0.257 OA
BRANCH  19  21
HETATM   21  C4  UNL     1      18.798 -14.490  21.085  1.00  0.00     0.043 C 
HETATM   22  C5  UNL     1      17.870 -15.689  21.027  1.00  0.00     0.026 C 
HETATM   23  C6  UNL     1      19.114 -14.295  22.557  1.00  0.00     0.026 C 
HETATM   24  C7  UNL     1      20.080 -14.727  20.337  1.00  0.00     0.026 C 
ENDBRANCH  19  21
ENDBRANCH  16  18
ENDBRANCH   1  16
TORSDOF 4
ENDMDL
MODEL 4
REMARK VINA RESULT: -7.715409293      2.387      3.565
REMARK  4 active torsions:
REMARK  status: ('A' for Active; 'I' for Inactive)
REMARK    1  A    between atoms: C2_2  and  N1_3 
REMARK    2  A    between atoms: C2_2  and  C8_10 
REMARK       I    between atoms: N1_3  and  C3_4 
REMARK    3  A    between atoms: C3_4  and  C4_6 
REMARK       I    between atoms: C8_10  and  N2_12 
REMARK    4  A    between atoms: N2_12  and  C9_14 
REMARK       I    between atoms: N3_17  and  C12_18 
ROOT
HETATM    1  C8  UNL     1      14.588 -12.856  18.889  1.00  0.00     0.253 C 
HETATM    2  O2  UNL     1      13.964 -12.122  18.103  1.00  0.00    -0.270 OA
HETATM    3  N2  UNL     1      14.161 -13.109  20.182  1.00  0.00    -0.354 N 
ATOM      4  H2  UNL     1      14.746 -13.694  20.780  1.00  0.00     0.163 HD
ENDROOT
BRANCH   3   5
HETATM    5  C9  UNL     1      12.908 -12.577  20.735  1.00  0.00     0.087 C 
HETATM    6  C10 UNL     1      12.992 -11.135  21.042  1.00  0.00     0.045 C 
HETATM    7  C11 UNL     1      11.800 -10.651  21.846  1.00  0.00     0.127 C 
HETATM    8  N3  UNL     1      11.456 -11.553  22.907  1.00  0.00    -0.356 N 
HETATM    9  C12 UNL     1      11.146 -11.085  24.183  1.00  0.00     0.183 C 
HETATM   10  C13 UNL     1      11.441 -12.993  22.679  1.00  0.00     0.127 C 
HETATM   11  N4  UNL     1      10.558 -11.719  25.106  1.00  0.00    -0.374 N 
HETATM   12  N5  UNL     1      11.420  -9.681  24.535  1.00  0.00    -0.064 NA
ATOM     13  H42 UNL     1      10.368 -12.691  24.863  1.00  0.00     0.158 HD
ATOM     14  H41 UNL     1      10.332 -11.376  26.039  1.00  0.00     0.158 HD
HETATM   15  C14 UNL     1      12.688 -13.433  21.974  1.00  0.00     0.045 C 
ENDBRANCH   3   5
BRANCH   1  16
HETATM   16  C2  UNL     1      15.887 -13.483  18.321  1.00  0.00     0.254 C 
HETATM   17  C1  UNL     1      16.715 -13.716  19.556  1.00  0.00     0.058 C 
BRANCH  16  18
HETATM   18  N1  UNL     1      16.357 -12.755  17.290  1.00  0.00    -0.400 NA
HETATM   19  C3  UNL     1      16.843 -12.005  16.229  1.00  0.00     0.295 C 
HETATM   20  O1  UNL     1      17.703 -11.125  16.184  1.00  0.00    -0.257 OA
BRANCH  19  21
HETATM   21  C4  UNL     1      16.214 -12.292  14.841  1.00  0.00     0.043 C 
HETATM   22  C5  UNL     1      16.749 -11.336  13.792  1.00  0.00     0.026 C 
HETATM   23  C6  UNL     1      14.725 -12.009  14.924  1.00  0.00     0.026 C 
HETATM   24  C7  UNL     1      16.417 -13.731  14.453  1.00  0.00     0.026 C 
ENDBRANCH  19  21
ENDBRANCH  16  18
ENDBRANCH   1  16
TORSDOF 4
ENDMDL
MODEL 5
REMARK VINA RESULT: -7.683570575      1.891      3.107
REMARK  4 active torsions:
REMARK  status: ('A' for Active; 'I' for Inactive)
REMARK    1  A    between atoms: C2_2  and  N1_3 
REMARK    2  A    between atoms: C2_2  and  C8_10 
REMARK       I    between atoms: N1_3  and  C3_4 
REMARK    3  A    between atoms: C3_4  and  C4_6 
REMARK       I    between atoms: C8_10  and  N2_12 
REMARK    4  A    between atoms: N2_12  and  C9_14 
REMARK       I    between atoms: N3_17  and  C12_18 
ROOT
HETATM    1  C8  UNL     1      15.447 -13.363  20.042  1.00  0.00     0.253 C 
HETATM    2  O2  UNL     1      14.702 -14.246  19.582  1.00  0.00    -0.270 OA
HETATM    3  N2  UNL     1      14.976 -12.294  20.786  1.00  0.00    -0.354 N 
ATOM      4  H2  UNL     1      15.644 -11.589  21.099  1.00  0.00     0.163 HD
ENDROOT
BRANCH   3   5
HETATM    5  C9  UNL     1      13.561 -12.125  21.147  1.00  0.00     0.087 C 
HETATM    6  C10 UNL     1      13.223 -10.725  21.474  1.00  0.00     0.045 C 
HETATM    7  C11 UNL     1      11.844 -10.599  22.092  1.00  0.00     0.127 C 
HETATM    8  N3  UNL     1      11.596 -11.606  23.082  1.00  0.00    -0.356 N 
HETATM    9  C12 UNL     1      10.995 -11.293  24.300  1.00  0.00     0.183 C 
HETATM   10  C13 UNL     1      11.988 -12.990  22.844  1.00  0.00     0.127 C 
HETATM   11  N4  UNL     1      10.465 -12.097  25.118  1.00  0.00    -0.374 N 
HETATM   12  N5  UNL     1      10.842  -9.883  24.700  1.00  0.00    -0.064 NA
ATOM     13  H42 UNL     1      10.571 -13.074  24.842  1.00  0.00     0.158 HD
ATOM     14  H41 UNL     1      10.025 -11.868  26.010  1.00  0.00     0.158 HD
HETATM   15  C14 UNL     1      13.394 -13.065  22.332  1.00  0.00     0.045 C 
ENDBRANCH   3   5
BRANCH   1  16
HETATM   16  C2  UNL     1      16.955 -13.539  19.730  1.00  0.00     0.254 C 
HETATM   17  C1  UNL     1      17.619 -12.777  20.846  1.00  0.00     0.058 C 
BRANCH  16  18
HETATM   18  N1  UNL     1      17.212 -13.254  18.439  1.00  0.00    -0.400 NA
HETATM   19  C3  UNL     1      17.478 -12.961  17.110  1.00  0.00     0.295 C 
HETATM   20  O1  UNL     1      18.455 -12.436  16.574  1.00  0.00    -0.257 OA
BRANCH  19  21
HETATM   21  C4  UNL     1      16.374 -13.341  16.089  1.00  0.00     0.043 C 
HETATM   22  C5  UNL     1      15.097 -12.566  16.353  1.00  0.00     0.026 C 
HETATM   23  C6  UNL     1      16.013 -14.800  16.297  1.00  0.00     0.026 C 
HETATM   24  C7  UNL     1      16.869 -13.156  14.681  1.00  0.00     0.026 C 
ENDBRANCH  19  21
ENDBRANCH  16  18
ENDBRANCH   1  16
TORSDOF 4
ENDMDL
