MODEL 1
REMARK VINA RESULT: -7.523349015      0.000      0.000
REMARK  4 active torsions:
REMARK  status: ('A' for Active; 'I' for Inactive)
REMARK    1  A    between atoms: C2_2  and  N1_3 
REMARK    2  A    between atoms: C2_2  and  C10_18 
REMARK       I    between atoms: N1_3  and  C3_5 
REMARK       I    between atoms: C3_5  and  N2_7 
REMARK    3  A    between atoms: N2_7  and  C4_9 
REMARK       I    between atoms: C10_18  and  N4_20 
REMARK    4  A    between atoms: N4_20  and  C11_22 
ROOT
HETATM    1  N1  UNL     1      18.257 -12.926  21.117  1.00  0.00    -0.330 N 
ATOM      2  H1  UNL     1      18.559 -12.006  21.435  1.00  0.00     0.165 HD
HETATM    3  C3  UNL     1      16.868 -13.164  20.987  1.00  0.00     0.317 C 
HETATM    4  O1  UNL     1      16.525 -14.305  20.593  1.00  0.00    -0.247 OA
HETATM    5  N2  UNL     1      15.912 -12.167  21.287  1.00  0.00    -0.325 N 
ATOM      6  H2  UNL     1      16.258 -11.259  21.597  1.00  0.00     0.165 HD
ENDROOT
BRANCH   1   7
HETATM    7  C2  UNL     1      19.270 -13.909  20.825  1.00  0.00     0.174 C 
HETATM    8  C1  UNL     1      20.447 -13.315  20.084  1.00  0.00     0.042 C 
BRANCH   7   9
HETATM    9  C10 UNL     1      19.715 -14.475  22.148  1.00  0.00     0.240 C 
HETATM   10  O3  UNL     1      18.900 -14.955  22.965  1.00  0.00    -0.271 OA
HETATM   11  N4  UNL     1      21.096 -14.450  22.447  1.00  0.00    -0.351 N 
ATOM     12  H4  UNL     1      21.764 -14.059  21.783  1.00  0.00     0.163 HD
BRANCH  11  13
HETATM   13  C11 UNL     1      21.543 -14.987  23.706  1.00  0.00     0.022 C 
HETATM   14  C12 UNL     1      20.776 -14.366  24.858  1.00  0.00     0.037 C 
HETATM   15  C13 UNL     1      21.352 -16.473  23.700  1.00  0.00     0.037 C 
HETATM   16  C14 UNL     1      23.004 -14.618  23.897  1.00  0.00     0.037 C 
ENDBRANCH  11  13
ENDBRANCH   7   9
ENDBRANCH   1   7
BRANCH   5  17
HETATM   17  C4  UNL     1      14.482 -12.337  21.186  1.00  0.00     0.112 C 
HETATM   18  C5  UNL     1      13.835 -10.956  21.374  1.00  0.00     0.049 C 
HETATM   19  C6  UNL     1      14.008 -13.229  22.276  1.00  0.00     0.042 C 
HETATM   20  C7  UNL     1      12.602 -13.736  22.137  1.00  0.00     0.023 C 
HETATM   21  C8  UNL     1      12.366 -14.453  20.830  1.00  0.00     0.122 C 
HETATM   22  N3  UNL     1      13.316 -14.044  19.814  1.00  0.00    -0.359 N 
HETATM   23  C9  UNL     1      14.042 -12.828  19.882  1.00  0.00     0.245 C 
ATOM     24  H3  UNL     1      13.470 -14.660  19.015  1.00  0.00     0.162 HD
HETATM   25  O2  UNL     1      14.256 -12.249  18.786  1.00  0.00    -0.271 OA
ENDBRANCH   5  17
TORSDOF 4
ENDMDL
MODEL 2
REMARK VINA RESULT: -7.450677496      1.169      1.683
REMARK  4 active torsions:
REMARK  status: ('A' for Active; 'I' for Inactive)
REMARK    1  A    between atoms: C2_2  and  N1_3 
REMARK    2  A    between atoms: C2_2  and  C10_18 
REMARK       I    between atoms: N1_3  and  C3_5 
REMARK       I    between atoms: C3_5  and  N2_7 
REMARK    3  A    between atoms: N2_7  and  C4_9 
REMARK       I    between atoms: C10_18  and  N4_20 
REMARK    4  A    between atoms: N4_20  and  C11_22 
ROOT
HETATM    1  N1  UNL     1      18.279 -12.855  21.007  1.00  0.00    -0.330 N 
ATOM      2  H1  UNL     1      18.574 -11.915  21.272  1.00  0.00     0.165 HD
HETATM    3  C3  UNL     1      16.891 -13.122  20.934  1.00  0.00     0.317 C 
HETATM    4  O1  UNL     1      16.557 -14.286  20.606  1.00  0.00    -0.247 OA
HETATM    5  N2  UNL     1      15.927 -12.128  21.217  1.00  0.00    -0.325 N 
ATOM      6  H2  UNL     1      16.266 -11.201  21.474  1.00  0.00     0.165 HD
ENDROOT
BRANCH   1   7
HETATM    7  C2  UNL     1      19.300 -13.833  20.729  1.00  0.00     0.174 C 
HETATM    8  C1  UNL     1      20.485 -13.234  20.003  1.00  0.00     0.042 C 
BRANCH   7   9
HETATM    9  C10 UNL     1      19.730 -14.396  22.058  1.00  0.00     0.240 C 
HETATM   10  O3  UNL     1      20.907 -14.765  22.267  1.00  0.00    -0.271 OA
HETATM   11  N4  UNL     1      18.758 -14.500  23.079  1.00  0.00    -0.351 N 
ATOM     12  H4  UNL     1      17.797 -14.201  22.912  1.00  0.00     0.163 HD
BRANCH  11  13
HETATM   13  C11 UNL     1      19.147 -15.035  24.356  1.00  0.00     0.022 C 
HETATM   14  C12 UNL     1      19.831 -16.379  24.191  1.00  0.00     0.037 C 
HETATM   15  C13 UNL     1      20.070 -14.066  25.032  1.00  0.00     0.037 C 
HETATM   16  C14 UNL     1      17.895 -15.274  25.183  1.00  0.00     0.037 C 
ENDBRANCH  11  13
ENDBRANCH   7   9
ENDBRANCH   1   7
BRANCH   5  17
HETATM   17  C4  UNL     1      14.498 -12.327  21.171  1.00  0.00     0.112 C 
HETATM   18  C5  UNL     1      13.831 -10.959  21.383  1.00  0.00     0.049 C 
HETATM   19  C6  UNL     1      14.084 -13.227  22.279  1.00  0.00     0.042 C 
HETATM   20  C7  UNL     1      12.684 -13.762  22.194  1.00  0.00     0.023 C 
HETATM   21  C8  UNL     1      12.413 -14.485  20.897  1.00  0.00     0.122 C 
HETATM   22  N3  UNL     1      13.315 -14.059  19.846  1.00  0.00    -0.359 N 
HETATM   23  C9  UNL     1      14.018 -12.828  19.885  1.00  0.00     0.245 C 
ATOM     24  H3  UNL     1      13.451 -14.672  19.042  1.00  0.00     0.162 HD
HETATM   25  O2  UNL     1      14.179 -12.247  18.781  1.00  0.00    -0.271 OA
ENDBRANCH   5  17
TORSDOF 4
ENDMDL
MODEL 3
REMARK VINA RESULT: -6.817200749      1.529      2.196
REMARK  4 active torsions:
REMARK  status: ('A' for Active; 'I' for Inactive)
REMARK    1  A    between atoms: C2_2  and  N1_3 
REMARK    2  A    between atoms: C2_2  and  C10_18 
REMARK       I    between atoms: N1_3  and  C3_5 
REMARK       I    between atoms: C3_5  and  N2_7 
REMARK    3  A    between atoms: N2_7  and  C4_9 
REMARK       I    between atoms: C10_18  and  N4_20 
REMARK    4  A    between atoms: N4_20  and  C11_22 
ROOT
HETATM    1  N1  UNL     1      17.876 -13.340  21.218  1.00  0.00    -0.330 N 
ATOM      2  H1  UNL     1      18.225 -12.687  21.918  1.00  0.00     0.165 HD
HETATM    3  C3  UNL     1      16.500 -13.293  20.888  1.00  0.00     0.317 C 
HETATM    4  O1  UNL     1      16.099 -14.108  20.023  1.00  0.00    -0.247 OA
HETATM    5  N2  UNL     1      15.620 -12.372  21.502  1.00  0.00    -0.325 N 
ATOM      6  H2  UNL     1      16.013 -11.734  22.194  1.00  0.00     0.165 HD
ENDROOT
BRANCH   1   7
HETATM    7  C2  UNL     1      18.813 -14.259  20.621  1.00  0.00     0.174 C 
HETATM    8  C1  UNL     1      19.684 -13.593  19.579  1.00  0.00     0.042 C 
BRANCH   7   9
HETATM    9  C10 UNL     1      19.659 -14.800  21.743  1.00  0.00     0.240 C 
HETATM   10  O3  UNL     1      20.591 -15.608  21.534  1.00  0.00    -0.271 OA
HETATM   11  N4  UNL     1      19.372 -14.366  23.058  1.00  0.00    -0.351 N 
ATOM     12  H4  UNL     1      18.613 -13.707  23.232  1.00  0.00     0.163 HD
BRANCH  11  13
HETATM   13  C11 UNL     1      20.169 -14.870  24.144  1.00  0.00     0.022 C 
HETATM   14  C12 UNL     1      19.857 -16.331  24.408  1.00  0.00     0.037 C 
HETATM   15  C13 UNL     1      21.620 -14.705  23.806  1.00  0.00     0.037 C 
HETATM   16  C14 UNL     1      19.805 -14.106  25.406  1.00  0.00     0.037 C 
ENDBRANCH  11  13
ENDBRANCH   7   9
ENDBRANCH   1   7
BRANCH   5  17
HETATM   17  C4  UNL     1      14.208 -12.269  21.223  1.00  0.00     0.112 C 
HETATM   18  C5  UNL     1      13.998 -12.637  19.747  1.00  0.00     0.049 C 
HETATM   19  C6  UNL     1      13.762 -10.865  21.425  1.00  0.00     0.042 C 
HETATM   20  C7  UNL     1      12.276 -10.654  21.459  1.00  0.00     0.023 C 
HETATM   21  C8  UNL     1      11.589 -11.502  22.502  1.00  0.00     0.122 C 
HETATM   22  N3  UNL     1      12.374 -12.671  22.845  1.00  0.00    -0.359 N 
HETATM   23  C9  UNL     1      13.389 -13.194  22.003  1.00  0.00     0.245 C 
ATOM     24  H3  UNL     1      12.190 -13.138  23.733  1.00  0.00     0.162 HD
HETATM   25  O2  UNL     1      13.508 -14.446  21.992  1.00  0.00    -0.271 OA
ENDBRANCH   5  17
TORSDOF 4
ENDMDL
MODEL 4
REMARK VINA RESULT: -6.489990210      1.680      2.033
REMARK  4 active torsions:
REMARK  status: ('A' for Active; 'I' for Inactive)
REMARK    1  A    between atoms: C2_2  and  N1_3 
REMARK    2  A    between atoms: C2_2  and  C10_18 
REMARK       I    between atoms: N1_3  and  C3_5 
REMARK       I    between atoms: C3_5  and  N2_7 
REMARK    3  A    between atoms: N2_7  and  C4_9 
REMARK       I    between atoms: C10_18  and  N4_20 
REMARK    4  A    between atoms: N4_20  and  C11_22 
ROOT
HETATM    1  N1  UNL     1      18.286 -13.968  22.097  1.00  0.00    -0.330 N 
ATOM      2  H1  UNL     1      18.388 -13.369  22.915  1.00  0.00     0.165 HD
HETATM    3  C3  UNL     1      17.003 -14.081  21.508  1.00  0.00     0.317 C 
HETATM    4  O1  UNL     1      16.908 -14.825  20.503  1.00  0.00    -0.247 OA
HETATM    5  N2  UNL     1      15.884 -13.391  22.027  1.00  0.00    -0.325 N 
ATOM      6  H2  UNL     1      16.032 -12.798  22.844  1.00  0.00     0.165 HD
ENDROOT
BRANCH   1   7
HETATM    7  C2  UNL     1      19.457 -14.651  21.606  1.00  0.00     0.174 C 
HETATM    8  C1  UNL     1      20.255 -13.800  20.643  1.00  0.00     0.042 C 
BRANCH   7   9
HETATM    9  C10 UNL     1      20.289 -14.999  22.812  1.00  0.00     0.240 C 
HETATM   10  O3  UNL     1      21.185 -15.870  22.765  1.00  0.00    -0.271 OA
HETATM   11  N4  UNL     1      20.031 -14.306  24.017  1.00  0.00    -0.351 N 
ATOM     12  H4  UNL     1      19.301 -13.594  24.060  1.00  0.00     0.163 HD
BRANCH  11  13
HETATM   13  C11 UNL     1      20.815 -14.622  25.181  1.00  0.00     0.022 C 
HETATM   14  C12 UNL     1      20.529 -13.644  26.305  1.00  0.00     0.037 C 
HETATM   15  C13 UNL     1      20.498 -16.019  25.621  1.00  0.00     0.037 C 
HETATM   16  C14 UNL     1      22.285 -14.473  24.829  1.00  0.00     0.037 C 
ENDBRANCH  11  13
ENDBRANCH   7   9
ENDBRANCH   1   7
BRANCH   5  17
HETATM   17  C4  UNL     1      14.547 -13.462  21.487  1.00  0.00     0.112 C 
HETATM   18  C5  UNL     1      14.670 -13.603  19.962  1.00  0.00     0.049 C 
HETATM   19  C6  UNL     1      13.823 -12.198  21.784  1.00  0.00     0.042 C 
HETATM   20  C7  UNL     1      12.340 -12.228  21.548  1.00  0.00     0.023 C 
HETATM   21  C8  UNL     1      11.650 -13.335  22.306  1.00  0.00     0.122 C 
HETATM   22  N3  UNL     1      12.565 -14.410  22.637  1.00  0.00    -0.359 N 
HETATM   23  C9  UNL     1      13.789 -14.620  21.953  1.00  0.00     0.245 C 
ATOM     24  H3  UNL     1      12.317 -15.043  23.398  1.00  0.00     0.162 HD
HETATM   25  O2  UNL     1      14.136 -15.818  21.795  1.00  0.00    -0.271 OA
ENDBRANCH   5  17
TORSDOF 4
ENDMDL
MODEL 5
REMARK VINA RESULT: -6.372247827      1.681      7.336
REMARK  4 active torsions:
REMARK  status: ('A' for Active; 'I' for Inactive)
REMARK    1  A    between atoms: C2_2  and  N1_3 
REMARK    2  A    between atoms: C2_2  and  C10_18 
REMARK       I    between atoms: N1_3  and  C3_5 
REMARK       I    between atoms: C3_5  and  N2_7 
REMARK    3  A    between atoms: N2_7  and  C4_9 
REMARK       I    between atoms: C10_18  and  N4_20 
REMARK    4  A    between atoms: N4_20  and  C11_22 
ROOT
HETATM    1  N1  UNL     1      17.026 -14.266  21.746  1.00  0.00    -0.330 N 
ATOM      2  H1  UNL     1      16.278 -14.945  21.879  1.00  0.00     0.165 HD
HETATM    3  C3  UNL     1      18.166 -14.358  22.580  1.00  0.00     0.317 C 
HETATM    4  O1  UNL     1      19.071 -13.509  22.393  1.00  0.00    -0.247 OA
HETATM    5  N2  UNL     1      18.281 -15.355  23.575  1.00  0.00    -0.325 N 
ATOM      6  H2  UNL     1      17.511 -16.017  23.670  1.00  0.00     0.165 HD
ENDROOT
BRANCH   1   7
HETATM    7  C2  UNL     1      16.862 -13.268  20.718  1.00  0.00     0.174 C 
HETATM    8  C1  UNL     1      17.571 -13.643  19.436  1.00  0.00     0.042 C 
BRANCH   7   9
HETATM    9  C10 UNL     1      15.380 -13.138  20.479  1.00  0.00     0.240 C 
HETATM   10  O3  UNL     1      14.918 -12.858  19.351  1.00  0.00    -0.271 OA
HETATM   11  N4  UNL     1      14.512 -13.343  21.575  1.00  0.00    -0.351 N 
ATOM     12  H4  UNL     1      14.885 -13.571  22.497  1.00  0.00     0.163 HD
BRANCH  11  13
HETATM   13  C11 UNL     1      13.093 -13.223  21.368  1.00  0.00     0.022 C 
HETATM   14  C12 UNL     1      12.340 -13.427  22.669  1.00  0.00     0.037 C 
HETATM   15  C13 UNL     1      12.792 -11.868  20.804  1.00  0.00     0.037 C 
HETATM   16  C14 UNL     1      12.648 -14.326  20.423  1.00  0.00     0.037 C 
ENDBRANCH  11  13
ENDBRANCH   7   9
ENDBRANCH   1   7
BRANCH   5  17
HETATM   17  C4  UNL     1      19.406 -15.507  24.465  1.00  0.00     0.112 C 
HETATM   18  C5  UNL     1      19.252 -16.858  25.182  1.00  0.00     0.049 C 
HETATM   19  C6  UNL     1      19.382 -14.428  25.488  1.00  0.00     0.042 C 
HETATM   20  C7  UNL     1      20.634 -14.275  26.301  1.00  0.00     0.023 C 
HETATM   21  C8  UNL     1      21.862 -14.065  25.450  1.00  0.00     0.122 C 
HETATM   22  N3  UNL     1      21.678 -14.578  24.106  1.00  0.00    -0.359 N 
HETATM   23  C9  UNL     1      20.695 -15.546  23.778  1.00  0.00     0.245 C 
ATOM     24  H3  UNL     1      22.282 -14.226  23.363  1.00  0.00     0.162 HD
HETATM   25  O2  UNL     1      21.016 -16.385  22.898  1.00  0.00    -0.271 OA
ENDBRANCH   5  17
TORSDOF 4
ENDMDL
