MODEL 1
REMARK VINA RESULT: -6.769444895      0.000      0.000
REMARK  7 active torsions:
REMARK  status: ('A' for Active; 'I' for Inactive)
REMARK       I    between atoms: C1_2  and  N1_3 
REMARK    1  A    between atoms: C1_2  and  C7_15 
REMARK    2  A    between atoms: N1_3  and  N2_5 
REMARK    3  A    between atoms: N2_5  and  C2_7 
REMARK    4  A    between atoms: C2_7  and  N3_9 
REMARK    5  A    between atoms: N3_9  and  C3_11 
REMARK    6  A    between atoms: C3_11  and  C4_12 
REMARK       I    between atoms: C7_15  and  N4_17 
REMARK    7  A    between atoms: N4_17  and  C8_19 
ROOT
HETATM    1  O1  UNL     1      18.230 -12.089  21.105  1.00  0.00    -0.261 OA
HETATM    2  C1  UNL     1      17.580 -13.152  20.812  1.00  0.00     0.327 C 
HETATM    3  N1  UNL     1      18.321 -14.357  20.670  1.00  0.00    -0.260 N 
ATOM      4  H1  UNL     1      17.853 -15.231  20.433  1.00  0.00     0.190 HD
ENDROOT
BRANCH   2   5
HETATM    5  C7  UNL     1      16.141 -13.061  20.648  1.00  0.00     0.311 C 
HETATM    6  O2  UNL     1      15.586 -13.851  19.839  1.00  0.00    -0.262 OA
HETATM    7  N4  UNL     1      15.437 -12.105  21.398  1.00  0.00    -0.348 N 
ATOM      8  H4  UNL     1      15.947 -11.489  22.031  1.00  0.00     0.163 HD
BRANCH   7   9
HETATM    9  C8  UNL     1      13.991 -11.977  21.288  1.00  0.00     0.084 C 
HETATM   10  C9  UNL     1      13.418 -12.918  22.316  1.00  0.00     0.025 C 
HETATM   11  C10 UNL     1      11.991 -12.801  22.629  1.00  0.00     0.002 C 
HETATM   12  C11 UNL     1      11.400 -11.432  22.535  1.00  0.00     0.000 C 
HETATM   13  C12 UNL     1      12.038 -10.557  21.511  1.00  0.00     0.002 C 
HETATM   14  C13 UNL     1      13.541 -10.577  21.637  1.00  0.00     0.025 C 
ENDBRANCH   7   9
ENDBRANCH   2   5
BRANCH   3  15
HETATM   15  N2  UNL     1      19.691 -14.318  20.861  1.00  0.00    -0.273 N 
ATOM     16  H2  UNL     1      20.255 -13.708  20.269  1.00  0.00     0.189 HD
BRANCH  15  17
HETATM   17  C2  UNL     1      20.326 -15.086  21.835  1.00  0.00     0.186 C 
HETATM   18  S1  UNL     1      19.792 -16.654  21.993  1.00  0.00    -0.040 SA
BRANCH  17  19
HETATM   19  N3  UNL     1      21.360 -14.647  22.700  1.00  0.00    -0.366 N 
ATOM     20  H3  UNL     1      22.164 -14.143  22.326  1.00  0.00     0.161 HD
BRANCH  19  21
HETATM   21  C3  UNL     1      21.265 -14.922  24.123  1.00  0.00     0.126 C 
BRANCH  21  22
HETATM   22  C4  UNL     1      20.220 -14.050  24.785  1.00  0.00     0.003 A 
HETATM   23  C5  UNL     1      20.536 -13.573  26.153  1.00  0.00     0.007 A 
HETATM   24  C6  UNL     1      19.494 -14.615  25.962  1.00  0.00     0.007 A 
ENDBRANCH  21  22
ENDBRANCH  19  21
ENDBRANCH  17  19
ENDBRANCH  15  17
ENDBRANCH   3  15
TORSDOF 7
ENDMDL
MODEL 2
REMARK VINA RESULT: -6.749487046      2.639      7.718
REMARK  7 active torsions:
REMARK  status: ('A' for Active; 'I' for Inactive)
REMARK       I    between atoms: C1_2  and  N1_3 
REMARK    1  A    between atoms: C1_2  and  C7_15 
REMARK    2  A    between atoms: N1_3  and  N2_5 
REMARK    3  A    between atoms: N2_5  and  C2_7 
REMARK    4  A    between atoms: C2_7  and  N3_9 
REMARK    5  A    between atoms: N3_9  and  C3_11 
REMARK    6  A    between atoms: C3_11  and  C4_12 
REMARK       I    between atoms: C7_15  and  N4_17 
REMARK    7  A    between atoms: N4_17  and  C8_19 
ROOT
HETATM    1  O1  UNL     1      16.570 -15.776  20.895  1.00  0.00    -0.261 OA
HETATM    2  C1  UNL     1      16.540 -15.004  21.916  1.00  0.00     0.327 C 
HETATM    3  N1  UNL     1      15.293 -14.838  22.577  1.00  0.00    -0.260 N 
ATOM      4  H1  UNL     1      15.213 -14.231  23.393  1.00  0.00     0.190 HD
ENDROOT
BRANCH   2   5
HETATM    5  C7  UNL     1      17.770 -14.356  22.330  1.00  0.00     0.311 C 
HETATM    6  O2  UNL     1      18.057 -13.244  21.812  1.00  0.00    -0.262 OA
HETATM    7  N4  UNL     1      18.578 -14.993  23.287  1.00  0.00    -0.348 N 
ATOM      8  H4  UNL     1      18.293 -15.897  23.662  1.00  0.00     0.163 HD
BRANCH   7   9
HETATM    9  C8  UNL     1      19.816 -14.385  23.753  1.00  0.00     0.084 C 
HETATM   10  C9  UNL     1      19.611 -14.115  25.221  1.00  0.00     0.025 C 
HETATM   11  C10 UNL     1      20.786 -13.759  26.020  1.00  0.00     0.002 C 
HETATM   12  C11 UNL     1      22.085 -14.369  25.601  1.00  0.00     0.000 C 
HETATM   13  C12 UNL     1      22.198 -14.626  24.138  1.00  0.00     0.002 C 
HETATM   14  C13 UNL     1      20.978 -15.342  23.613  1.00  0.00     0.025 C 
ENDBRANCH   7   9
ENDBRANCH   2   5
BRANCH   3  15
HETATM   15  N2  UNL     1      14.190 -15.518  22.092  1.00  0.00    -0.273 N 
ATOM     16  H2  UNL     1      14.284 -16.504  21.849  1.00  0.00     0.189 HD
BRANCH  15  17
HETATM   17  C2  UNL     1      12.952 -14.899  21.924  1.00  0.00     0.186 C 
HETATM   18  S1  UNL     1      12.305 -14.960  20.393  1.00  0.00    -0.040 SA
BRANCH  17  19
HETATM   19  N3  UNL     1      12.219 -14.217  22.928  1.00  0.00    -0.366 N 
ATOM     20  H3  UNL     1      12.223 -14.557  23.888  1.00  0.00     0.161 HD
BRANCH  19  21
HETATM   21  C3  UNL     1      11.461 -13.029  22.574  1.00  0.00     0.126 C 
BRANCH  21  22
HETATM   22  C4  UNL     1      12.346 -11.802  22.531  1.00  0.00     0.003 A 
HETATM   23  C5  UNL     1      11.831 -10.598  23.228  1.00  0.00     0.007 A 
HETATM   24  C6  UNL     1      11.862 -10.629  21.743  1.00  0.00     0.007 A 
ENDBRANCH  21  22
ENDBRANCH  19  21
ENDBRANCH  17  19
ENDBRANCH  15  17
ENDBRANCH   3  15
TORSDOF 7
ENDMDL
MODEL 3
REMARK VINA RESULT: -6.563449367      2.974      7.858
REMARK  7 active torsions:
REMARK  status: ('A' for Active; 'I' for Inactive)
REMARK       I    between atoms: C1_2  and  N1_3 
REMARK    1  A    between atoms: C1_2  and  C7_15 
REMARK    2  A    between atoms: N1_3  and  N2_5 
REMARK    3  A    between atoms: N2_5  and  C2_7 
REMARK    4  A    between atoms: C2_7  and  N3_9 
REMARK    5  A    between atoms: N3_9  and  C3_11 
REMARK    6  A    between atoms: C3_11  and  C4_12 
REMARK       I    between atoms: C7_15  and  N4_17 
REMARK    7  A    between atoms: N4_17  and  C8_19 
ROOT
HETATM    1  O1  UNL     1      16.362 -13.585  22.229  1.00  0.00    -0.261 OA
HETATM    2  C1  UNL     1      16.380 -14.791  22.661  1.00  0.00     0.327 C 
HETATM    3  N1  UNL     1      15.280 -15.625  22.323  1.00  0.00    -0.260 N 
ATOM      4  H1  UNL     1      15.242 -16.592  22.644  1.00  0.00     0.190 HD
ENDROOT
BRANCH   2   5
HETATM    5  C7  UNL     1      17.512 -15.224  23.457  1.00  0.00     0.311 C 
HETATM    6  O2  UNL     1      17.413 -16.312  24.084  1.00  0.00    -0.262 OA
HETATM    7  N4  UNL     1      18.663 -14.419  23.487  1.00  0.00    -0.348 N 
ATOM      8  H4  UNL     1      18.677 -13.545  22.962  1.00  0.00     0.163 HD
BRANCH   7   9
HETATM    9  C8  UNL     1      19.836 -14.809  24.255  1.00  0.00     0.084 C 
HETATM   10  C9  UNL     1      21.002 -14.688  23.309  1.00  0.00     0.025 C 
HETATM   11  C10 UNL     1      22.352 -14.749  23.877  1.00  0.00     0.002 C 
HETATM   12  C11 UNL     1      22.517 -14.201  25.258  1.00  0.00     0.000 C 
HETATM   13  C12 UNL     1      21.311 -14.340  26.122  1.00  0.00     0.002 C 
HETATM   14  C13 UNL     1      20.071 -13.861  25.409  1.00  0.00     0.025 C 
ENDBRANCH   7   9
ENDBRANCH   2   5
BRANCH   3  15
HETATM   15  N2  UNL     1      14.262 -15.098  21.548  1.00  0.00    -0.273 N 
ATOM     16  H2  UNL     1      14.499 -14.620  20.679  1.00  0.00     0.189 HD
BRANCH  15  17
HETATM   17  C2  UNL     1      12.921 -15.199  21.917  1.00  0.00     0.186 C 
HETATM   18  S1  UNL     1      12.053 -16.421  21.195  1.00  0.00    -0.040 SA
BRANCH  17  19
HETATM   19  N3  UNL     1      12.242 -14.352  22.829  1.00  0.00    -0.366 N 
ATOM     20  H3  UNL     1      12.263 -14.551  23.829  1.00  0.00     0.161 HD
BRANCH  19  21
HETATM   21  C3  UNL     1      11.517 -13.198  22.326  1.00  0.00     0.126 C 
BRANCH  21  22
HETATM   22  C4  UNL     1      12.255 -11.910  22.621  1.00  0.00     0.003 A 
HETATM   23  C5  UNL     1      11.472 -10.846  23.296  1.00  0.00     0.007 A 
HETATM   24  C6  UNL     1      11.841 -10.689  21.866  1.00  0.00     0.007 A 
ENDBRANCH  21  22
ENDBRANCH  19  21
ENDBRANCH  17  19
ENDBRANCH  15  17
ENDBRANCH   3  15
TORSDOF 7
ENDMDL
MODEL 4
REMARK VINA RESULT: -6.517719242      2.571      7.266
REMARK  7 active torsions:
REMARK  status: ('A' for Active; 'I' for Inactive)
REMARK       I    between atoms: C1_2  and  N1_3 
REMARK    1  A    between atoms: C1_2  and  C7_15 
REMARK    2  A    between atoms: N1_3  and  N2_5 
REMARK    3  A    between atoms: N2_5  and  C2_7 
REMARK    4  A    between atoms: C2_7  and  N3_9 
REMARK    5  A    between atoms: N3_9  and  C3_11 
REMARK    6  A    between atoms: C3_11  and  C4_12 
REMARK       I    between atoms: C7_15  and  N4_17 
REMARK    7  A    between atoms: N4_17  and  C8_19 
ROOT
HETATM    1  O1  UNL     1      14.565 -12.120  20.502  1.00  0.00    -0.261 OA
HETATM    2  C1  UNL     1      15.244 -13.171  20.774  1.00  0.00     0.327 C 
HETATM    3  N1  UNL     1      14.570 -14.421  20.716  1.00  0.00    -0.260 N 
ATOM      4  H1  UNL     1      15.063 -15.289  20.927  1.00  0.00     0.190 HD
ENDROOT
BRANCH   2   5
HETATM    5  C7  UNL     1      16.646 -13.020  21.117  1.00  0.00     0.311 C 
HETATM    6  O2  UNL     1      17.293 -12.091  20.566  1.00  0.00    -0.262 OA
HETATM    7  N4  UNL     1      17.212 -13.910  22.045  1.00  0.00    -0.348 N 
ATOM      8  H4  UNL     1      16.635 -14.647  22.449  1.00  0.00     0.163 HD
BRANCH   7   9
HETATM    9  C8  UNL     1      18.609 -13.798  22.439  1.00  0.00     0.084 C 
HETATM   10  C9  UNL     1      18.699 -14.428  23.805  1.00  0.00     0.025 C 
HETATM   11  C10 UNL     1      20.034 -14.711  24.339  1.00  0.00     0.002 C 
HETATM   12  C11 UNL     1      21.089 -15.063  23.341  1.00  0.00     0.000 C 
HETATM   13  C12 UNL     1      20.914 -14.418  22.010  1.00  0.00     0.002 C 
HETATM   14  C13 UNL     1      19.502 -14.583  21.505  1.00  0.00     0.025 C 
ENDBRANCH   7   9
ENDBRANCH   2   5
BRANCH   3  15
HETATM   15  N2  UNL     1      13.230 -14.436  20.367  1.00  0.00    -0.273 N 
ATOM     16  H2  UNL     1      12.953 -14.074  19.455  1.00  0.00     0.189 HD
BRANCH  15  17
HETATM   17  C2  UNL     1      12.247 -14.931  21.223  1.00  0.00     0.186 C 
HETATM   18  S1  UNL     1      11.976 -16.571  21.155  1.00  0.00    -0.040 SA
BRANCH  17  19
HETATM   19  N3  UNL     1      11.461 -14.165  22.119  1.00  0.00    -0.366 N 
ATOM     20  H3  UNL     1      10.469 -14.369  22.237  1.00  0.00     0.161 HD
BRANCH  19  21
HETATM   21  C3  UNL     1      12.081 -13.085  22.868  1.00  0.00     0.126 C 
BRANCH  21  22
HETATM   22  C4  UNL     1      11.269 -11.811  22.775  1.00  0.00     0.003 A 
HETATM   23  C5  UNL     1      12.010 -10.545  22.997  1.00  0.00     0.007 A 
HETATM   24  C6  UNL     1      11.061 -11.031  24.032  1.00  0.00     0.007 A 
ENDBRANCH  21  22
ENDBRANCH  19  21
ENDBRANCH  17  19
ENDBRANCH  15  17
ENDBRANCH   3  15
TORSDOF 7
ENDMDL
MODEL 5
REMARK VINA RESULT: -6.451974391      1.487      1.511
REMARK  7 active torsions:
REMARK  status: ('A' for Active; 'I' for Inactive)
REMARK       I    between atoms: C1_2  and  N1_3 
REMARK    1  A    between atoms: C1_2  and  C7_15 
REMARK    2  A    between atoms: N1_3  and  N2_5 
REMARK    3  A    between atoms: N2_5  and  C2_7 
REMARK    4  A    between atoms: C2_7  and  N3_9 
REMARK    5  A    between atoms: N3_9  and  C3_11 
REMARK    6  A    between atoms: C3_11  and  C4_12 
REMARK       I    between atoms: C7_15  and  N4_17 
REMARK    7  A    between atoms: N4_17  and  C8_19 
ROOT
HETATM    1  O1  UNL     1      16.735 -15.147  19.522  1.00  0.00    -0.261 OA
HETATM    2  C1  UNL     1      16.551 -14.240  20.408  1.00  0.00     0.327 C 
HETATM    3  N1  UNL     1      17.570 -14.057  21.381  1.00  0.00    -0.260 N 
ATOM      4  H1  UNL     1      17.473 -13.352  22.111  1.00  0.00     0.190 HD
ENDROOT
BRANCH   2   5
HETATM    5  C7  UNL     1      15.327 -13.463  20.359  1.00  0.00     0.311 C 
HETATM    6  O2  UNL     1      15.061 -12.846  19.293  1.00  0.00    -0.262 OA
HETATM    7  N4  UNL     1      14.499 -13.437  21.493  1.00  0.00    -0.348 N 
ATOM      8  H4  UNL     1      14.776 -13.953  22.328  1.00  0.00     0.163 HD
BRANCH   7   9
HETATM    9  C8  UNL     1      13.251 -12.688  21.497  1.00  0.00     0.084 C 
HETATM   10  C9  UNL     1      12.410 -13.301  22.586  1.00  0.00     0.025 C 
HETATM   11  C10 UNL     1      11.209 -12.577  23.011  1.00  0.00     0.002 C 
HETATM   12  C11 UNL     1      11.270 -11.086  22.938  1.00  0.00     0.000 C 
HETATM   13  C12 UNL     1      12.141 -10.560  21.849  1.00  0.00     0.002 C 
HETATM   14  C13 UNL     1      13.489 -11.238  21.854  1.00  0.00     0.025 C 
ENDBRANCH   7   9
ENDBRANCH   2   5
BRANCH   3  15
HETATM   15  N2  UNL     1      18.699 -14.856  21.318  1.00  0.00    -0.273 N 
ATOM     16  H2  UNL     1      18.585 -15.864  21.206  1.00  0.00     0.189 HD
BRANCH  15  17
HETATM   17  C2  UNL     1      19.986 -14.329  21.403  1.00  0.00     0.186 C 
HETATM   18  S1  UNL     1      20.449 -13.325  20.159  1.00  0.00    -0.040 SA
BRANCH  17  19
HETATM   19  N3  UNL     1      20.925 -14.584  22.434  1.00  0.00    -0.366 N 
ATOM     20  H3  UNL     1      21.908 -14.348  22.305  1.00  0.00     0.161 HD
BRANCH  19  21
HETATM   21  C3  UNL     1      20.473 -15.186  23.677  1.00  0.00     0.126 C 
BRANCH  21  22
HETATM   22  C4  UNL     1      19.848 -14.157  24.594  1.00  0.00     0.003 A 
HETATM   23  C5  UNL     1      20.639 -13.781  25.791  1.00  0.00     0.007 A 
HETATM   24  C6  UNL     1      19.418 -14.612  25.950  1.00  0.00     0.007 A 
ENDBRANCH  21  22
ENDBRANCH  19  21
ENDBRANCH  17  19
ENDBRANCH  15  17
ENDBRANCH   3  15
TORSDOF 7
ENDMDL
