MODEL 1
REMARK VINA RESULT: -7.383494322      0.000      0.000
REMARK  3 active torsions:
REMARK  status: ('A' for Active; 'I' for Inactive)
REMARK    1  A    between atoms: C3_3  and  N1_4 
REMARK    2  A    between atoms: C3_3  and  C15_22 
REMARK       I    between atoms: N1_4  and  C4_6 
REMARK       I    between atoms: C4_6  and  N2_8 
REMARK    3  A    between atoms: N2_8  and  C5_10 
ROOT
HETATM    1  C1  UNL     1      12.273 -14.871  20.360  1.00  0.00     0.015 C 
HETATM    2  C2  UNL     1      13.214 -14.240  20.716  1.00  0.00    -0.081 C 
HETATM    3  C3  UNL     1      14.400 -13.472  21.166  1.00  0.00     0.266 C 
ENDROOT
BRANCH   3   4
HETATM    4  N1  UNL     1      14.999 -14.183  22.270  1.00  0.00    -0.319 N 
HETATM    5  C4  UNL     1      16.405 -14.101  22.440  1.00  0.00     0.317 C 
HETATM    6  O1  UNL     1      17.134 -13.434  21.661  1.00  0.00    -0.247 OA
HETATM    7  N2  UNL     1      17.042 -14.776  23.503  1.00  0.00    -0.336 N 
ATOM      8  H2  UNL     1      16.468 -15.323  24.144  1.00  0.00     0.164 HD
ATOM      9  H1  UNL     1      14.427 -14.731  22.911  1.00  0.00     0.166 HD
BRANCH   7  10
HETATM   10  C5  UNL     1      18.474 -14.728  23.725  1.00  0.00     0.108 C 
HETATM   11  C6  UNL     1      19.092 -15.862  22.965  1.00  0.00     0.032 C 
HETATM   12  C7  UNL     1      20.563 -16.013  23.193  1.00  0.00    -0.010 C 
HETATM   13  C8  UNL     1      21.260 -14.781  23.635  1.00  0.00     0.009 C 
HETATM   14  C12 UNL     1      20.781 -17.192  24.116  1.00  0.00     0.029 C 
HETATM   15  C9  UNL     1      21.204 -14.490  25.088  1.00  0.00    -0.010 C 
HETATM   16  C10 UNL     1      21.419 -15.743  25.947  1.00  0.00     0.029 C 
HETATM   17  C14 UNL     1      19.874 -13.934  25.547  1.00  0.00     0.031 C 
HETATM   18  C11 UNL     1      20.367 -16.722  25.510  1.00  0.00     0.077 C 
HETATM   19  N3  UNL     1      19.037 -16.250  25.577  1.00  0.00    -0.411 N 
HETATM   20  C13 UNL     1      18.798 -14.912  25.201  1.00  0.00     0.100 C 
ATOM     21  H3  UNL     1      18.277 -16.856  25.887  1.00  0.00     0.154 HD
ENDBRANCH   7  10
ENDBRANCH   3   4
BRANCH   3  22
HETATM   22  C15 UNL     1      13.918 -12.142  21.549  1.00  0.00     0.209 C 
HETATM   23  O2  UNL     1      13.150 -12.006  22.519  1.00  0.00    -0.646 OA
HETATM   24  O3  UNL     1      14.312 -11.033  20.835  1.00  0.00    -0.646 OA
ENDBRANCH   3  22
TORSDOF 3
ENDMDL
MODEL 2
REMARK VINA RESULT: -7.002640247      2.164      7.415
REMARK  3 active torsions:
REMARK  status: ('A' for Active; 'I' for Inactive)
REMARK    1  A    between atoms: C3_3  and  N1_4 
REMARK    2  A    between atoms: C3_3  and  C15_22 
REMARK       I    between atoms: N1_4  and  C4_6 
REMARK       I    between atoms: C4_6  and  N2_8 
REMARK    3  A    between atoms: N2_8  and  C5_10 
ROOT
HETATM    1  C1  UNL     1      20.579 -13.573  26.765  1.00  0.00     0.015 C 
HETATM    2  C2  UNL     1      20.315 -13.910  25.656  1.00  0.00    -0.081 C 
HETATM    3  C3  UNL     1      19.962 -14.323  24.277  1.00  0.00     0.266 C 
ENDROOT
BRANCH   3   4
HETATM    4  N1  UNL     1      18.605 -14.814  24.290  1.00  0.00    -0.319 N 
HETATM    5  C4  UNL     1      17.795 -14.584  23.150  1.00  0.00     0.317 C 
HETATM    6  O1  UNL     1      18.222 -13.968  22.140  1.00  0.00    -0.247 OA
HETATM    7  N2  UNL     1      16.460 -15.043  23.111  1.00  0.00    -0.336 N 
ATOM      8  H2  UNL     1      16.094 -15.543  23.920  1.00  0.00     0.164 HD
ATOM      9  H1  UNL     1      18.239 -15.314  25.100  1.00  0.00     0.166 HD
BRANCH   7  10
HETATM   10  C5  UNL     1      15.585 -14.836  21.973  1.00  0.00     0.108 C 
HETATM   11  C6  UNL     1      14.815 -13.573  22.214  1.00  0.00     0.032 C 
HETATM   12  C7  UNL     1      13.779 -13.289  21.172  1.00  0.00    -0.010 C 
HETATM   13  C8  UNL     1      14.027 -13.918  19.852  1.00  0.00     0.009 C 
HETATM   14  C12 UNL     1      12.421 -13.619  21.750  1.00  0.00     0.029 C 
HETATM   15  C9  UNL     1      13.583 -15.326  19.711  1.00  0.00    -0.010 C 
HETATM   16  C10 UNL     1      12.206 -15.574  20.339  1.00  0.00     0.029 C 
HETATM   17  C14 UNL     1      14.498 -16.323  20.387  1.00  0.00     0.031 C 
HETATM   18  C11 UNL     1      12.328 -15.145  21.774  1.00  0.00     0.077 C 
HETATM   19  N3  UNL     1      13.367 -15.764  22.503  1.00  0.00    -0.411 N 
HETATM   20  C13 UNL     1      14.593 -15.982  21.839  1.00  0.00     0.100 C 
ATOM     21  H3  UNL     1      13.235 -16.045  23.475  1.00  0.00     0.154 HD
ENDBRANCH   7  10
ENDBRANCH   3   4
BRANCH   3  22
HETATM   22  C15 UNL     1      20.929 -15.354  23.888  1.00  0.00     0.209 C 
HETATM   23  O2  UNL     1      21.737 -15.144  22.964  1.00  0.00    -0.646 OA
HETATM   24  O3  UNL     1      20.951 -16.563  24.545  1.00  0.00    -0.646 OA
ENDBRANCH   3  22
TORSDOF 3
ENDMDL
MODEL 3
REMARK VINA RESULT: -6.923062905      1.302      1.628
REMARK  3 active torsions:
REMARK  status: ('A' for Active; 'I' for Inactive)
REMARK    1  A    between atoms: C3_3  and  N1_4 
REMARK    2  A    between atoms: C3_3  and  C15_22 
REMARK       I    between atoms: N1_4  and  C4_6 
REMARK       I    between atoms: C4_6  and  N2_8 
REMARK    3  A    between atoms: N2_8  and  C5_10 
ROOT
HETATM    1  C1  UNL     1      15.676 -14.260  18.386  1.00  0.00     0.015 C 
HETATM    2  C2  UNL     1      15.753 -13.676  19.418  1.00  0.00    -0.081 C 
HETATM    3  C3  UNL     1      15.866 -12.963  20.712  1.00  0.00     0.266 C 
ENDROOT
BRANCH   3   4
HETATM    4  N1  UNL     1      16.309 -13.910  21.707  1.00  0.00    -0.319 N 
HETATM    5  C4  UNL     1      17.608 -13.753  22.256  1.00  0.00     0.317 C 
HETATM    6  O1  UNL     1      18.375 -12.821  21.900  1.00  0.00    -0.247 OA
HETATM    7  N2  UNL     1      18.091 -14.650  23.232  1.00  0.00    -0.336 N 
ATOM      8  H2  UNL     1      17.484 -15.413  23.533  1.00  0.00     0.164 HD
ATOM      9  H1  UNL     1      15.704 -14.673  22.008  1.00  0.00     0.166 HD
BRANCH   7  10
HETATM   10  C5  UNL     1      19.408 -14.539  23.827  1.00  0.00     0.108 C 
HETATM   11  C6  UNL     1      20.306 -15.519  23.134  1.00  0.00     0.032 C 
HETATM   12  C7  UNL     1      21.679 -15.603  23.723  1.00  0.00    -0.010 C 
HETATM   13  C8  UNL     1      22.118 -14.397  24.466  1.00  0.00     0.009 C 
HETATM   14  C12 UNL     1      21.771 -16.876  24.534  1.00  0.00     0.029 C 
HETATM   15  C9  UNL     1      21.668 -14.305  25.877  1.00  0.00    -0.010 C 
HETATM   16  C10 UNL     1      21.781 -15.644  26.617  1.00  0.00     0.029 C 
HETATM   17  C14 UNL     1      20.218 -13.903  26.029  1.00  0.00     0.031 C 
HETATM   18  C11 UNL     1      20.974 -16.624  25.813  1.00  0.00     0.077 C 
HETATM   19  N3  UNL     1      19.631 -16.253  25.581  1.00  0.00    -0.411 N 
HETATM   20  C13 UNL     1      19.365 -14.895  25.306  1.00  0.00     0.100 C 
ATOM     21  H3  UNL     1      18.880 -16.943  25.610  1.00  0.00     0.154 HD
ENDBRANCH   7  10
ENDBRANCH   3   4
BRANCH   3  22
HETATM   22  C15 UNL     1      14.539 -12.417  21.008  1.00  0.00     0.209 C 
HETATM   23  O2  UNL     1      13.968 -11.671  20.191  1.00  0.00    -0.646 OA
HETATM   24  O3  UNL     1      13.914 -12.726  22.195  1.00  0.00    -0.646 OA
ENDBRANCH   3  22
TORSDOF 3
ENDMDL
MODEL 4
REMARK VINA RESULT: -6.862899885      1.287      1.514
REMARK  3 active torsions:
REMARK  status: ('A' for Active; 'I' for Inactive)
REMARK    1  A    between atoms: C3_3  and  N1_4 
REMARK    2  A    between atoms: C3_3  and  C15_22 
REMARK       I    between atoms: N1_4  and  C4_6 
REMARK       I    between atoms: C4_6  and  N2_8 
REMARK    3  A    between atoms: N2_8  and  C5_10 
ROOT
HETATM    1  C1  UNL     1      11.917 -15.114  20.282  1.00  0.00     0.015 C 
HETATM    2  C2  UNL     1      12.583 -14.298  20.833  1.00  0.00    -0.081 C 
HETATM    3  C3  UNL     1      13.432 -13.298  21.523  1.00  0.00     0.266 C 
ENDROOT
BRANCH   3   4
HETATM    4  N1  UNL     1      14.305 -14.002  22.430  1.00  0.00    -0.319 N 
HETATM    5  C4  UNL     1      15.704 -13.935  22.207  1.00  0.00     0.317 C 
HETATM    6  O1  UNL     1      16.197 -13.287  21.248  1.00  0.00    -0.247 OA
HETATM    7  N2  UNL     1      16.603 -14.605  23.064  1.00  0.00    -0.336 N 
ATOM      8  H2  UNL     1      16.223 -15.137  23.847  1.00  0.00     0.164 HD
ATOM      9  H1  UNL     1      13.926 -14.535  23.213  1.00  0.00     0.166 HD
BRANCH   7  10
HETATM   10  C5  UNL     1      18.041 -14.572  22.885  1.00  0.00     0.108 C 
HETATM   11  C6  UNL     1      18.368 -15.385  21.668  1.00  0.00     0.032 C 
HETATM   12  C7  UNL     1      19.835 -15.541  21.421  1.00  0.00    -0.010 C 
HETATM   13  C8  UNL     1      20.688 -14.483  22.013  1.00  0.00     0.009 C 
HETATM   14  C12 UNL     1      20.240 -16.939  21.831  1.00  0.00     0.029 C 
HETATM   15  C9  UNL     1      21.050 -14.664  23.441  1.00  0.00    -0.010 C 
HETATM   16  C10 UNL     1      21.429 -16.113  23.770  1.00  0.00     0.029 C 
HETATM   17  C14 UNL     1      19.927 -14.333  24.400  1.00  0.00     0.031 C 
HETATM   18  C11 UNL     1      20.249 -16.948  23.360  1.00  0.00     0.077 C 
HETATM   19  N3  UNL     1      19.015 -16.574  23.936  1.00  0.00    -0.411 N 
HETATM   20  C13 UNL     1      18.750 -15.195  24.078  1.00  0.00     0.100 C 
ATOM     21  H3  UNL     1      18.340 -17.276  24.240  1.00  0.00     0.154 HD
ENDBRANCH   7  10
ENDBRANCH   3   4
BRANCH   3  22
HETATM   22  C15 UNL     1      12.521 -12.382  22.216  1.00  0.00     0.209 C 
HETATM   23  O2  UNL     1      12.063 -12.677  23.335  1.00  0.00    -0.646 OA
HETATM   24  O3  UNL     1      12.167 -11.188  21.631  1.00  0.00    -0.646 OA
ENDBRANCH   3  22
TORSDOF 3
ENDMDL
MODEL 5
REMARK VINA RESULT: -6.837259126      5.738      7.021
REMARK  3 active torsions:
REMARK  status: ('A' for Active; 'I' for Inactive)
REMARK    1  A    between atoms: C3_3  and  N1_4 
REMARK    2  A    between atoms: C3_3  and  C15_22 
REMARK       I    between atoms: N1_4  and  C4_6 
REMARK       I    between atoms: C4_6  and  N2_8 
REMARK    3  A    between atoms: N2_8  and  C5_10 
ROOT
HETATM    1  C1  UNL     1      10.937 -10.718  24.276  1.00  0.00     0.015 C 
HETATM    2  C2  UNL     1      11.459 -11.180  23.314  1.00  0.00    -0.081 C 
HETATM    3  C3  UNL     1      12.104 -11.778  22.121  1.00  0.00     0.266 C 
ENDROOT
BRANCH   3   4
HETATM    4  N1  UNL     1      12.574 -13.094  22.479  1.00  0.00    -0.319 N 
HETATM    5  C4  UNL     1      12.488 -14.127  21.511  1.00  0.00     0.317 C 
HETATM    6  O1  UNL     1      12.017 -13.928  20.362  1.00  0.00    -0.247 OA
HETATM    7  N2  UNL     1      12.934 -15.433  21.809  1.00  0.00    -0.336 N 
ATOM      8  H2  UNL     1      13.318 -15.615  22.736  1.00  0.00     0.164 HD
ATOM      9  H1  UNL     1      12.957 -13.278  23.406  1.00  0.00     0.166 HD
BRANCH   7  10
HETATM   10  C5  UNL     1      12.870 -16.527  20.860  1.00  0.00     0.108 C 
HETATM   11  C6  UNL     1      11.572 -17.244  21.077  1.00  0.00     0.032 C 
HETATM   12  C7  UNL     1      11.416 -18.477  20.243  1.00  0.00    -0.010 C 
HETATM   13  C8  UNL     1      12.226 -18.502  19.001  1.00  0.00     0.009 C 
HETATM   14  C12 UNL     1      11.638 -19.681  21.130  1.00  0.00     0.029 C 
HETATM   15  C9  UNL     1      13.632 -18.950  19.153  1.00  0.00    -0.010 C 
HETATM   16  C10 UNL     1      13.764 -20.164  20.081  1.00  0.00     0.029 C 
HETATM   17  C14 UNL     1      14.542 -17.904  19.757  1.00  0.00     0.031 C 
HETATM   18  C11 UNL     1      13.143 -19.751  21.385  1.00  0.00     0.077 C 
HETATM   19  N3  UNL     1      13.675 -18.577  21.962  1.00  0.00    -0.411 N 
HETATM   20  C13 UNL     1      14.005 -17.513  21.096  1.00  0.00     0.100 C 
ATOM     21  H3  UNL     1      13.815 -18.501  22.970  1.00  0.00     0.154 HD
ENDBRANCH   7  10
ENDBRANCH   3   4
BRANCH   3  22
HETATM   22  C15 UNL     1      13.194 -10.877  21.737  1.00  0.00     0.209 C 
HETATM   23  O2  UNL     1      13.466  -9.884  22.437  1.00  0.00    -0.646 OA
HETATM   24  O3  UNL     1      13.925 -11.125  20.598  1.00  0.00    -0.646 OA
ENDBRANCH   3  22
TORSDOF 3
ENDMDL
