MODEL 1
REMARK VINA RESULT: -8.512911799      0.000      0.000
REMARK  3 active torsions:
REMARK  status: ('A' for Active; 'I' for Inactive)
REMARK    1  A    between atoms: C2_2  and  C3_3 
REMARK    2  A    between atoms: C14_22  and  C15_23 
REMARK    3  A    between atoms: C15_23  and  N5_24 
REMARK       I    between atoms: N5_24  and  C16_26 
ROOT
HETATM    1  C3  UNL     1      16.059 -13.849  19.384  1.00  0.00     0.015 A 
HETATM    2  N1  UNL     1      16.664 -13.942  20.496  1.00  0.00    -0.327 N 
HETATM    3  C4  UNL     1      15.763 -13.454  21.513  1.00  0.00     0.497 A 
HETATM    4  N2  UNL     1      15.631 -14.327  22.647  1.00  0.00    -0.028 N 
ATOM      5  H21 UNL     1      14.896 -15.018  22.495  1.00  0.00     0.281 HD
ATOM      6  H22 UNL     1      15.229 -13.835  23.445  1.00  0.00     0.281 HD
HETATM    7  C5  UNL     1      16.880 -14.964  23.001  1.00  0.00     0.239 C 
HETATM    8  C6  UNL     1      18.065 -14.320  22.344  1.00  0.00     0.059 C 
HETATM    9  C7  UNL     1      17.965 -14.413  20.807  1.00  0.00     0.037 C 
HETATM   10  C8  UNL     1      19.114 -13.605  20.325  1.00  0.00     0.031 C 
HETATM   11  C9  UNL     1      20.408 -14.095  20.994  1.00  0.00     0.002 C 
HETATM   12  C10 UNL     1      20.597 -15.562  20.793  1.00  0.00     0.000 C 
HETATM   13  C11 UNL     1      19.424 -16.422  21.112  1.00  0.00     0.002 C 
HETATM   14  C12 UNL     1      18.213 -15.858  20.406  1.00  0.00     0.031 C 
HETATM   15  N3  UNL     1      14.593 -12.994  20.940  1.00  0.00     0.038 N 
HETATM   16  C13 UNL     1      14.329 -11.538  21.037  1.00  0.00     0.478 C 
HETATM   17  N4  UNL     1      12.982 -11.938  20.582  1.00  0.00    -0.019 N 
ATOM     18  H41 UNL     1      12.708 -11.948  19.600  1.00  0.00     0.281 HD
ATOM     19  H42 UNL     1      12.150 -11.371  20.742  1.00  0.00     0.281 HD
HETATM   20  C14 UNL     1      13.281 -13.172  21.351  1.00  0.00     0.413 C 
HETATM   21  C17 UNL     1      14.677 -13.302  19.531  1.00  0.00     0.299 A 
ENDROOT
BRANCH  20  22
HETATM   22  C15 UNL     1      12.745 -13.001  22.702  1.00  0.00     0.185 C 
BRANCH  22  23
HETATM   23  N5  UNL     1      12.006 -11.729  22.729  1.00  0.00    -0.361 N 
HETATM   24  C16 UNL     1      11.512 -11.165  23.909  1.00  0.00     0.181 C 
HETATM   25  N6  UNL     1      10.863 -11.879  24.744  1.00  0.00    -0.374 N 
HETATM   26  N7  UNL     1      11.730  -9.801  24.182  1.00  0.00    -0.064 NA
ATOM     27  H62 UNL     1      10.705 -12.868  24.547  1.00  0.00     0.158 HD
ATOM     28  H61 UNL     1      10.501 -11.468  25.605  1.00  0.00     0.158 HD
ATOM     29  H5  UNL     1      11.849 -11.238  21.849  1.00  0.00     0.162 HD
ENDBRANCH  22  23
ENDBRANCH  20  22
BRANCH   1  30
HETATM   30  C2  UNL     1      16.504 -14.203  18.005  1.00  0.00     0.050 C 
HETATM   31  C1  UNL     1      15.931 -13.221  16.990  1.00  0.00     0.011 C 
ENDBRANCH   1  30
TORSDOF 3
ENDMDL
MODEL 2
REMARK VINA RESULT: -8.326285798      7.561     10.432
REMARK  3 active torsions:
REMARK  status: ('A' for Active; 'I' for Inactive)
REMARK    1  A    between atoms: C2_2  and  C3_3 
REMARK    2  A    between atoms: C14_22  and  C15_23 
REMARK    3  A    between atoms: C15_23  and  N5_24 
REMARK       I    between atoms: N5_24  and  C16_26 
ROOT
HETATM    1  C3  UNL     1      19.297 -15.530  12.102  1.00  0.00     0.015 A 
HETATM    2  N1  UNL     1      19.135 -14.809  11.069  1.00  0.00    -0.327 N 
HETATM    3  C4  UNL     1      17.999 -13.956  11.321  1.00  0.00     0.497 A 
HETATM    4  N2  UNL     1      18.233 -12.568  11.030  1.00  0.00    -0.028 N 
ATOM      5  H21 UNL     1      18.625 -12.084  11.839  1.00  0.00     0.281 HD
ATOM      6  H22 UNL     1      17.354 -12.056  10.944  1.00  0.00     0.281 HD
HETATM    7  C5  UNL     1      19.061 -12.381   9.859  1.00  0.00     0.239 C 
HETATM    8  C6  UNL     1      19.192 -13.630   9.038  1.00  0.00     0.059 C 
HETATM    9  C7  UNL     1      19.858 -14.761   9.851  1.00  0.00     0.037 C 
HETATM   10  C8  UNL     1      19.767 -15.944   8.958  1.00  0.00     0.031 C 
HETATM   11  C9  UNL     1      20.359 -15.600   7.582  1.00  0.00     0.002 C 
HETATM   12  C10 UNL     1      21.747 -15.067   7.710  1.00  0.00     0.000 C 
HETATM   13  C11 UNL     1      21.940 -13.977   8.706  1.00  0.00     0.002 C 
HETATM   14  C12 UNL     1      21.329 -14.416  10.017  1.00  0.00     0.031 C 
HETATM   15  N3  UNL     1      17.436 -14.250  12.548  1.00  0.00     0.038 N 
HETATM   16  C13 UNL     1      16.073 -14.834  12.536  1.00  0.00     0.478 C 
HETATM   17  N4  UNL     1      16.130 -14.533  13.981  1.00  0.00    -0.019 N 
ATOM     18  H41 UNL     1      16.441 -15.209  14.677  1.00  0.00     0.281 HD
ATOM     19  H42 UNL     1      15.297 -14.418  14.558  1.00  0.00     0.281 HD
HETATM   20  C14 UNL     1      16.966 -13.392  13.531  1.00  0.00     0.413 C 
HETATM   21  C17 UNL     1      18.297 -15.230  13.170  1.00  0.00     0.299 A 
ENDROOT
BRANCH  20  22
HETATM   22  C15 UNL     1      16.090 -12.234  13.351  1.00  0.00     0.185 C 
BRANCH  22  23
HETATM   23  N5  UNL     1      16.562 -11.175  14.256  1.00  0.00    -0.361 N 
HETATM   24  C16 UNL     1      16.142 -11.070  15.585  1.00  0.00     0.181 C 
HETATM   25  N6  UNL     1      14.903 -11.153  15.880  1.00  0.00    -0.374 N 
HETATM   26  N7  UNL     1      17.089 -10.873  16.609  1.00  0.00    -0.064 NA
ATOM     27  H62 UNL     1      14.217 -11.295  15.138  1.00  0.00     0.158 HD
ATOM     28  H61 UNL     1      14.596 -11.076  16.850  1.00  0.00     0.158 HD
ATOM     29  H5  UNL     1      17.225 -10.487  13.897  1.00  0.00     0.162 HD
ENDBRANCH  22  23
ENDBRANCH  20  22
BRANCH   1  30
HETATM   30  C2  UNL     1      20.309 -16.585  12.400  1.00  0.00     0.050 C 
HETATM   31  C1  UNL     1      19.662 -17.964  12.388  1.00  0.00     0.011 C 
ENDBRANCH   1  30
TORSDOF 3
ENDMDL
MODEL 3
REMARK VINA RESULT: -8.309959338      3.896      6.939
REMARK  3 active torsions:
REMARK  status: ('A' for Active; 'I' for Inactive)
REMARK    1  A    between atoms: C2_2  and  C3_3 
REMARK    2  A    between atoms: C14_22  and  C15_23 
REMARK    3  A    between atoms: C15_23  and  N5_24 
REMARK       I    between atoms: N5_24  and  C16_26 
ROOT
HETATM    1  C3  UNL     1      20.112 -14.164  21.239  1.00  0.00     0.015 A 
HETATM    2  N1  UNL     1      19.000 -14.682  21.569  1.00  0.00    -0.327 N 
HETATM    3  C4  UNL     1      19.270 -15.637  22.616  1.00  0.00     0.497 A 
HETATM    4  N2  UNL     1      18.413 -15.507  23.764  1.00  0.00    -0.028 N 
ATOM      5  H21 UNL     1      18.797 -14.841  24.435  1.00  0.00     0.281 HD
ATOM      6  H22 UNL     1      18.437 -16.350  24.338  1.00  0.00     0.281 HD
HETATM    7  C5  UNL     1      17.057 -15.160  23.402  1.00  0.00     0.239 C 
HETATM    8  C6  UNL     1      16.780 -15.353  21.940  1.00  0.00     0.059 C 
HETATM    9  C7  UNL     1      17.690 -14.451  21.080  1.00  0.00     0.037 C 
HETATM   10  C8  UNL     1      17.399 -14.876  19.686  1.00  0.00     0.031 C 
HETATM   11  C9  UNL     1      15.884 -14.822  19.434  1.00  0.00     0.002 C 
HETATM   12  C10 UNL     1      15.331 -13.476  19.765  1.00  0.00     0.000 C 
HETATM   13  C11 UNL     1      15.712 -12.919  21.092  1.00  0.00     0.002 C 
HETATM   14  C12 UNL     1      17.213 -13.017  21.236  1.00  0.00     0.031 C 
HETATM   15  N3  UNL     1      20.628 -15.719  22.859  1.00  0.00     0.038 N 
HETATM   16  C13 UNL     1      21.292 -16.999  22.518  1.00  0.00     0.478 C 
HETATM   17  N4  UNL     1      22.406 -16.417  23.293  1.00  0.00    -0.019 N 
ATOM     18  H41 UNL     1      23.161 -15.882  22.865  1.00  0.00     0.281 HD
ATOM     19  H42 UNL     1      23.137 -16.981  23.726  1.00  0.00     0.281 HD
HETATM   20  C14 UNL     1      21.306 -15.787  24.066  1.00  0.00     0.413 C 
HETATM   21  C17 UNL     1      21.252 -14.703  22.041  1.00  0.00     0.299 A 
ENDROOT
BRANCH  20  22
HETATM   22  C15 UNL     1      21.001 -16.654  25.205  1.00  0.00     0.185 C 
BRANCH  22  23
HETATM   23  N5  UNL     1      20.567 -15.791  26.315  1.00  0.00    -0.361 N 
HETATM   24  C16 UNL     1      21.428 -14.903  26.966  1.00  0.00     0.181 C 
HETATM   25  N6  UNL     1      22.584 -15.285  27.349  1.00  0.00    -0.374 N 
HETATM   26  N7  UNL     1      21.022 -13.574  27.201  1.00  0.00    -0.064 NA
ATOM     27  H62 UNL     1      22.878 -16.248  27.178  1.00  0.00     0.158 HD
ATOM     28  H61 UNL     1      23.212 -14.637  27.824  1.00  0.00     0.158 HD
ATOM     29  H5  UNL     1      19.596 -15.845  26.623  1.00  0.00     0.162 HD
ENDBRANCH  22  23
ENDBRANCH  20  22
BRANCH   1  30
HETATM   30  C2  UNL     1      20.434 -13.127  20.217  1.00  0.00     0.050 C 
HETATM   31  C1  UNL     1      20.635 -13.769  18.850  1.00  0.00     0.011 C 
ENDBRANCH   1  30
TORSDOF 3
ENDMDL
MODEL 4
REMARK VINA RESULT: -8.280383809      2.256      5.288
REMARK  3 active torsions:
REMARK  status: ('A' for Active; 'I' for Inactive)
REMARK    1  A    between atoms: C2_2  and  C3_3 
REMARK    2  A    between atoms: C14_22  and  C15_23 
REMARK    3  A    between atoms: C15_23  and  N5_24 
REMARK       I    between atoms: N5_24  and  C16_26 
ROOT
HETATM    1  C3  UNL     1      18.142 -13.358  17.762  1.00  0.00     0.015 A 
HETATM    2  N1  UNL     1      17.054 -13.259  17.115  1.00  0.00    -0.327 N 
HETATM    3  C4  UNL     1      15.983 -13.553  18.036  1.00  0.00     0.497 A 
HETATM    4  N2  UNL     1      14.917 -12.588  18.023  1.00  0.00    -0.028 N 
ATOM      5  H21 UNL     1      15.105 -11.824  18.672  1.00  0.00     0.281 HD
ATOM      6  H22 UNL     1      14.074 -12.965  18.456  1.00  0.00     0.281 HD
HETATM    7  C5  UNL     1      14.641 -12.089  16.695  1.00  0.00     0.239 C 
HETATM    8  C6  UNL     1      15.273 -12.924  15.620  1.00  0.00     0.059 C 
HETATM    9  C7  UNL     1      16.811 -12.934  15.757  1.00  0.00     0.037 C 
HETATM   10  C8  UNL     1      17.254 -13.913  14.732  1.00  0.00     0.031 C 
HETATM   11  C9  UNL     1      16.654 -13.542  13.367  1.00  0.00     0.002 C 
HETATM   12  C10 UNL     1      16.972 -12.129  13.005  1.00  0.00     0.000 C 
HETATM   13  C11 UNL     1      16.695 -11.107  14.051  1.00  0.00     0.002 C 
HETATM   14  C12 UNL     1      17.327 -11.566  15.345  1.00  0.00     0.031 C 
HETATM   15  N3  UNL     1      16.491 -13.904  19.272  1.00  0.00     0.038 N 
HETATM   16  C13 UNL     1      16.275 -15.303  19.711  1.00  0.00     0.478 C 
HETATM   17  N4  UNL     1      16.730 -14.772  21.012  1.00  0.00    -0.019 N 
ATOM     18  H41 UNL     1      17.703 -14.801  21.315  1.00  0.00     0.281 HD
ATOM     19  H42 UNL     1      16.507 -15.217  21.903  1.00  0.00     0.281 HD
HETATM   20  C14 UNL     1      16.066 -13.532  20.538  1.00  0.00     0.413 C 
HETATM   21  C17 UNL     1      17.922 -13.714  19.197  1.00  0.00     0.299 A 
ENDROOT
BRANCH  20  22
HETATM   22  C15 UNL     1      14.694 -13.533  21.048  1.00  0.00     0.185 C 
BRANCH  22  23
HETATM   23  N5  UNL     1      14.507 -12.296  21.822  1.00  0.00    -0.361 N 
HETATM   24  C16 UNL     1      13.426 -11.432  21.621  1.00  0.00     0.181 C 
HETATM   25  N6  UNL     1      13.097 -11.072  20.442  1.00  0.00    -0.374 N 
HETATM   26  N7  UNL     1      12.693 -10.954  22.725  1.00  0.00    -0.064 NA
ATOM     27  H62 UNL     1      13.628 -11.418  19.642  1.00  0.00     0.158 HD
ATOM     28  H61 UNL     1      12.309 -10.441  20.295  1.00  0.00     0.158 HD
ATOM     29  H5  UNL     1      15.196 -12.059  22.536  1.00  0.00     0.162 HD
ENDBRANCH  22  23
ENDBRANCH  20  22
BRANCH   1  30
HETATM   30  C2  UNL     1      19.554 -13.166  17.322  1.00  0.00     0.050 C 
HETATM   31  C1  UNL     1      20.517 -13.507  18.451  1.00  0.00     0.011 C 
ENDBRANCH   1  30
TORSDOF 3
ENDMDL
MODEL 5
REMARK VINA RESULT: -8.243068828      2.997      4.811
REMARK  3 active torsions:
REMARK  status: ('A' for Active; 'I' for Inactive)
REMARK    1  A    between atoms: C2_2  and  C3_3 
REMARK    2  A    between atoms: C14_22  and  C15_23 
REMARK    3  A    between atoms: C15_23  and  N5_24 
REMARK       I    between atoms: N5_24  and  C16_26 
ROOT
HETATM    1  C3  UNL     1      19.842 -16.365  21.956  1.00  0.00     0.015 A 
HETATM    2  N1  UNL     1      19.824 -15.818  23.102  1.00  0.00    -0.327 N 
HETATM    3  C4  UNL     1      18.830 -14.773  23.060  1.00  0.00     0.497 A 
HETATM    4  N2  UNL     1      17.904 -14.799  24.159  1.00  0.00    -0.028 N 
ATOM      5  H21 UNL     1      17.107 -15.403  23.955  1.00  0.00     0.281 HD
ATOM      6  H22 UNL     1      17.415 -13.909  24.250  1.00  0.00     0.281 HD
HETATM    7  C5  UNL     1      18.537 -15.176  25.404  1.00  0.00     0.239 C 
HETATM    8  C6  UNL     1      20.035 -15.114  25.334  1.00  0.00     0.059 C 
HETATM    9  C7  UNL     1      20.580 -16.090  24.270  1.00  0.00     0.037 C 
HETATM   10  C8  UNL     1      22.035 -15.791  24.223  1.00  0.00     0.031 C 
HETATM   11  C9  UNL     1      22.624 -15.866  25.641  1.00  0.00     0.002 C 
HETATM   12  C10 UNL     1      22.315 -17.176  26.284  1.00  0.00     0.000 C 
HETATM   13  C11 UNL     1      20.892 -17.613  26.230  1.00  0.00     0.002 C 
HETATM   14  C12 UNL     1      20.415 -17.504  24.800  1.00  0.00     0.031 C 
HETATM   15  N3  UNL     1      18.289 -14.672  21.792  1.00  0.00     0.038 N 
HETATM   16  C13 UNL     1      18.576 -13.428  21.040  1.00  0.00     0.478 C 
HETATM   17  N4  UNL     1      17.517 -13.940  20.147  1.00  0.00    -0.019 N 
ATOM     18  H41 UNL     1      17.712 -14.511  19.325  1.00  0.00     0.281 HD
ATOM     19  H42 UNL     1      16.978 -13.340  19.522  1.00  0.00     0.281 HD
HETATM   20  C14 UNL     1      16.968 -14.497  21.408  1.00  0.00     0.413 C 
HETATM   21  C17 UNL     1      18.849 -15.757  21.019  1.00  0.00     0.299 A 
ENDROOT
BRANCH  20  22
HETATM   22  C15 UNL     1      16.010 -13.531  21.948  1.00  0.00     0.185 C 
BRANCH  22  23
HETATM   23  N5  UNL     1      14.824 -14.282  22.389  1.00  0.00    -0.361 N 
HETATM   24  C16 UNL     1      13.519 -13.813  22.208  1.00  0.00     0.181 C 
HETATM   25  N6  UNL     1      13.216 -12.612  22.515  1.00  0.00    -0.374 N 
HETATM   26  N7  UNL     1      12.530 -14.667  21.683  1.00  0.00    -0.064 NA
ATOM     27  H62 UNL     1      13.932 -11.993  22.896  1.00  0.00     0.158 HD
ATOM     28  H61 UNL     1      12.264 -12.269  22.384  1.00  0.00     0.158 HD
ATOM     29  H5  UNL     1      14.959 -15.184  22.846  1.00  0.00     0.162 HD
ENDBRANCH  22  23
ENDBRANCH  20  22
BRANCH   1  30
HETATM   30  C2  UNL     1      20.669 -17.489  21.430  1.00  0.00     0.050 C 
HETATM   31  C1  UNL     1      19.876 -18.790  21.451  1.00  0.00     0.011 C 
ENDBRANCH   1  30
TORSDOF 3
ENDMDL
