MODEL 1
REMARK VINA RESULT: -6.795902571      0.000      0.000
REMARK  6 active torsions:
REMARK  status: ('A' for Active; 'I' for Inactive)
REMARK    1  A    between atoms: C2_2  and  N1_4 
REMARK    2  A    between atoms: C4_6  and  O1_7 
REMARK    3  A    between atoms: C4_6  and  N2_9 
REMARK       I    between atoms: C5_11  and  N3_12 
REMARK       I    between atoms: C5_11  and  N6_19 
REMARK    4  A    between atoms: N3_12  and  N4_14 
REMARK       I    between atoms: N6_19  and  C6_21 
REMARK       I    between atoms: N8_23  and  C7_25 
REMARK    5  A    between atoms: C7_25  and  C8_27 
REMARK    6  A    between atoms: C8_27  and  N9_28 
ROOT
HETATM    1  N2  UNL     1      14.414 -14.089  22.589  1.00  0.00    -0.154 N 
ATOM      2  H2  UNL     1      14.345 -14.431  23.547  1.00  0.00     0.188 HD
HETATM    3  C5  UNL     1      15.458 -14.361  21.904  1.00  0.00     0.703 C 
HETATM    4  N3  UNL     1      16.464 -15.147  22.570  1.00  0.00    -0.118 N 
ATOM      5  H3  UNL     1      17.347 -14.724  22.856  1.00  0.00     0.207 HD
HETATM    6  N6  UNL     1      15.689 -13.950  20.572  1.00  0.00    -0.162 N 
ATOM      7  H6  UNL     1      15.501 -12.989  20.288  1.00  0.00     0.187 HD
HETATM    8  C6  UNL     1      16.184 -14.892  19.640  1.00  0.00     0.209 C 
HETATM    9  N7  UNL     1      15.300 -15.815  19.020  1.00  0.00    -0.063 NA
HETATM   10  N8  UNL     1      17.434 -14.903  19.360  1.00  0.00    -0.299 N 
ATOM     11  H8  UNL     1      17.793 -15.581  18.688  1.00  0.00     0.171 HD
HETATM   12  C7  UNL     1      18.314 -13.997  19.967  1.00  0.00     0.252 C 
HETATM   13  O2  UNL     1      17.934 -12.861  20.321  1.00  0.00    -0.271 OA
ENDROOT
BRANCH   1  14
HETATM   14  C4  UNL     1      13.361 -13.332  22.057  1.00  0.00     0.231 C 
HETATM   15  N1  UNL     1      13.130 -12.178  22.608  1.00  0.00    -0.352 N 
ATOM     16  H1  UNL     1      13.729 -11.903  23.386  1.00  0.00     0.163 HD
BRANCH  15  17
HETATM   17  C2  UNL     1      12.109 -11.262  22.213  1.00  0.00     0.076 C 
HETATM   18  C1  UNL     1      11.549 -10.612  23.472  1.00  0.00     0.032 C 
HETATM   19  C3  UNL     1      12.524 -10.237  21.204  1.00  0.00     0.032 C 
ENDBRANCH  15  17
BRANCH  14  20
HETATM   20  O1  UNL     1      12.538 -13.681  21.004  1.00  0.00    -0.332 OA
ATOM     21  H1  UNL     1      12.417 -14.612  20.857  1.00  0.00     0.220 HD
ENDBRANCH  14  20
ENDBRANCH   1  14
BRANCH   4  22
HETATM   22  N4  UNL     1      16.211 -16.494  22.816  1.00  0.00    -0.235 N 
HETATM   23  N5  UNL     1      16.799 -17.043  23.795  1.00  0.00    -0.330 N 
ATOM     24  H52 UNL     1      17.437 -16.500  24.377  1.00  0.00     0.178 HD
ATOM     25  H51 UNL     1      16.615 -18.030  23.976  1.00  0.00     0.178 HD
ATOM     26  H4  UNL     1      15.571 -17.024  22.225  1.00  0.00     0.208 HD
ENDBRANCH   4  22
BRANCH  12  27
HETATM   27  C8  UNL     1      19.722 -14.371  20.206  1.00  0.00     0.374 C 
BRANCH  27  28
HETATM   28  N9  UNL     1      19.855 -14.853  21.556  1.00  0.00     0.097 N 
HETATM   29  C9  UNL     1      19.596 -16.245  21.627  1.00  0.00     0.273 C 
HETATM   30  C10 UNL     1      20.925 -16.974  21.737  1.00  0.00     0.030 C 
HETATM   31  C11 UNL     1      21.517 -16.653  23.086  1.00  0.00     0.003 C 
HETATM   32  C12 UNL     1      21.478 -15.171  23.370  1.00  0.00     0.030 C 
HETATM   33  C13 UNL     1      21.031 -14.362  22.172  1.00  0.00     0.273 C 
ENDBRANCH  27  28
ENDBRANCH  12  27
TORSDOF 6
ENDMDL
MODEL 2
REMARK VINA RESULT: -6.579360406      2.004      7.471
REMARK  6 active torsions:
REMARK  status: ('A' for Active; 'I' for Inactive)
REMARK    1  A    between atoms: C2_2  and  N1_4 
REMARK    2  A    between atoms: C4_6  and  O1_7 
REMARK    3  A    between atoms: C4_6  and  N2_9 
REMARK       I    between atoms: C5_11  and  N3_12 
REMARK       I    between atoms: C5_11  and  N6_19 
REMARK    4  A    between atoms: N3_12  and  N4_14 
REMARK       I    between atoms: N6_19  and  C6_21 
REMARK       I    between atoms: N8_23  and  C7_25 
REMARK    5  A    between atoms: C7_25  and  C8_27 
REMARK    6  A    between atoms: C8_27  and  N9_28 
ROOT
HETATM    1  N2  UNL     1      20.410 -14.229  21.350  1.00  0.00    -0.154 N 
ATOM      2  H2  UNL     1      20.990 -13.582  20.815  1.00  0.00     0.188 HD
HETATM    3  C5  UNL     1      19.155 -14.278  21.116  1.00  0.00     0.703 C 
HETATM    4  N3  UNL     1      18.666 -13.392  20.093  1.00  0.00    -0.118 N 
ATOM      5  H3  UNL     1      18.101 -12.578  20.338  1.00  0.00     0.207 HD
HETATM    6  N6  UNL     1      18.236 -15.121  21.780  1.00  0.00    -0.162 N 
ATOM      7  H6  UNL     1      18.260 -15.215  22.795  1.00  0.00     0.187 HD
HETATM    8  C6  UNL     1      17.281 -15.833  21.017  1.00  0.00     0.209 C 
HETATM    9  N7  UNL     1      17.648 -17.039  20.360  1.00  0.00    -0.063 NA
HETATM   10  N8  UNL     1      16.086 -15.381  20.923  1.00  0.00    -0.299 N 
ATOM     11  H8  UNL     1      15.396 -15.893  20.373  1.00  0.00     0.171 HD
HETATM   12  C7  UNL     1      15.715 -14.193  21.567  1.00  0.00     0.252 C 
HETATM   13  O2  UNL     1      16.258 -13.836  22.633  1.00  0.00    -0.271 OA
ENDROOT
BRANCH   1  14
HETATM   14  C4  UNL     1      21.012 -15.042  22.320  1.00  0.00     0.231 C 
HETATM   15  N1  UNL     1      21.414 -14.456  23.409  1.00  0.00    -0.352 N 
ATOM     16  H1  UNL     1      21.264 -13.450  23.482  1.00  0.00     0.163 HD
BRANCH  15  17
HETATM   17  C2  UNL     1      22.047 -15.105  24.512  1.00  0.00     0.076 C 
HETATM   18  C1  UNL     1      23.546 -14.857  24.405  1.00  0.00     0.032 C 
HETATM   19  C3  UNL     1      21.522 -14.726  25.862  1.00  0.00     0.032 C 
ENDBRANCH  15  17
BRANCH  14  20
HETATM   20  O1  UNL     1      21.224 -16.404  22.246  1.00  0.00    -0.332 OA
ATOM     21  H1  UNL     1      20.451 -16.953  22.309  1.00  0.00     0.220 HD
ENDBRANCH  14  20
ENDBRANCH   1  14
BRANCH   4  22
HETATM   22  N4  UNL     1      18.976 -13.663  18.763  1.00  0.00    -0.235 N 
HETATM   23  N5  UNL     1      18.055 -13.552  17.900  1.00  0.00    -0.330 N 
ATOM     24  H52 UNL     1      17.118 -13.270  18.187  1.00  0.00     0.178 HD
ATOM     25  H51 UNL     1      18.282 -13.751  16.925  1.00  0.00     0.178 HD
ATOM     26  H4  UNL     1      19.918 -13.944  18.491  1.00  0.00     0.208 HD
ENDBRANCH   4  22
BRANCH  12  27
HETATM   27  C8  UNL     1      14.666 -13.329  20.990  1.00  0.00     0.374 C 
BRANCH  27  28
HETATM   28  N9  UNL     1      14.117 -12.501  22.032  1.00  0.00     0.097 N 
HETATM   29  C9  UNL     1      14.127 -11.135  21.652  1.00  0.00     0.273 C 
HETATM   30  C10 UNL     1      12.717 -10.742  21.245  1.00  0.00     0.030 C 
HETATM   31  C11 UNL     1      11.856 -10.761  22.483  1.00  0.00     0.003 C 
HETATM   32  C12 UNL     1      12.054 -12.031  23.276  1.00  0.00     0.030 C 
HETATM   33  C13 UNL     1      12.915 -13.040  22.548  1.00  0.00     0.273 C 
ENDBRANCH  27  28
ENDBRANCH  12  27
TORSDOF 6
ENDMDL
MODEL 3
REMARK VINA RESULT: -6.489091255      9.187     12.547
REMARK  6 active torsions:
REMARK  status: ('A' for Active; 'I' for Inactive)
REMARK    1  A    between atoms: C2_2  and  N1_4 
REMARK    2  A    between atoms: C4_6  and  O1_7 
REMARK    3  A    between atoms: C4_6  and  N2_9 
REMARK       I    between atoms: C5_11  and  N3_12 
REMARK       I    between atoms: C5_11  and  N6_19 
REMARK    4  A    between atoms: N3_12  and  N4_14 
REMARK       I    between atoms: N6_19  and  C6_21 
REMARK       I    between atoms: N8_23  and  C7_25 
REMARK    5  A    between atoms: C7_25  and  C8_27 
REMARK    6  A    between atoms: C8_27  and  N9_28 
ROOT
HETATM    1  N2  UNL     1      15.827 -11.968  12.124  1.00  0.00    -0.154 N 
ATOM      2  H2  UNL     1      16.110 -11.108  11.654  1.00  0.00     0.188 HD
HETATM    3  C5  UNL     1      14.880 -12.666  11.625  1.00  0.00     0.703 C 
HETATM    4  N3  UNL     1      14.288 -12.159  10.415  1.00  0.00    -0.118 N 
ATOM      5  H3  UNL     1      13.347 -11.765  10.424  1.00  0.00     0.207 HD
HETATM    6  N6  UNL     1      14.384 -13.872  12.170  1.00  0.00    -0.162 N 
ATOM      7  H6  UNL     1      14.192 -13.948  13.168  1.00  0.00     0.187 HD
HETATM    8  C6  UNL     1      14.158 -14.972  11.310  1.00  0.00     0.209 C 
HETATM    9  N7  UNL     1      15.241 -15.800  10.909  1.00  0.00    -0.063 NA
HETATM   10  N8  UNL     1      12.969 -15.214  10.897  1.00  0.00    -0.299 N 
ATOM     11  H8  UNL     1      12.804 -16.006  10.276  1.00  0.00     0.171 HD
HETATM   12  C7  UNL     1      11.895 -14.403  11.286  1.00  0.00     0.252 C 
HETATM   13  O2  UNL     1      11.886 -13.823  12.391  1.00  0.00    -0.271 OA
ENDROOT
BRANCH   1  14
HETATM   14  C4  UNL     1      16.487 -12.352  13.299  1.00  0.00     0.231 C 
HETATM   15  N1  UNL     1      16.111 -11.774  14.400  1.00  0.00    -0.352 N 
ATOM     16  H1  UNL     1      15.364 -11.082  14.334  1.00  0.00     0.163 HD
BRANCH  15  17
HETATM   17  C2  UNL     1      16.656 -12.026  15.695  1.00  0.00     0.076 C 
HETATM   18  C1  UNL     1      17.261 -10.727  16.211  1.00  0.00     0.032 C 
HETATM   19  C3  UNL     1      15.701 -12.618  16.685  1.00  0.00     0.032 C 
ENDBRANCH  15  17
BRANCH  14  20
HETATM   20  O1  UNL     1      17.498 -13.286  13.415  1.00  0.00    -0.332 OA
ATOM     21  H1  UNL     1      17.862 -13.614  12.600  1.00  0.00     0.220 HD
ENDBRANCH  14  20
ENDBRANCH   1  14
BRANCH   4  22
HETATM   22  N4  UNL     1      15.021 -12.215   9.233  1.00  0.00    -0.235 N 
HETATM   23  N5  UNL     1      15.795 -13.203   9.056  1.00  0.00    -0.330 N 
ATOM     24  H52 UNL     1      15.868 -13.928   9.769  1.00  0.00     0.178 HD
ATOM     25  H51 UNL     1      16.333 -13.244   8.190  1.00  0.00     0.178 HD
ATOM     26  H4  UNL     1      14.938 -11.482   8.528  1.00  0.00     0.208 HD
ENDBRANCH   4  22
BRANCH  12  27
HETATM   27  C8  UNL     1      10.740 -14.213  10.385  1.00  0.00     0.374 C 
BRANCH  27  28
HETATM   28  N9  UNL     1      10.347 -12.828  10.416  1.00  0.00     0.097 N 
HETATM   29  C9  UNL     1      10.695 -12.175   9.207  1.00  0.00     0.273 C 
HETATM   30  C10 UNL     1       9.439 -12.025   8.365  1.00  0.00     0.030 C 
HETATM   31  C11 UNL     1       8.534 -11.036   9.057  1.00  0.00     0.003 C 
HETATM   32  C12 UNL     1       8.389 -11.351  10.526  1.00  0.00     0.030 C 
HETATM   33  C13 UNL     1       9.027 -12.671  10.902  1.00  0.00     0.273 C 
ENDBRANCH  27  28
ENDBRANCH  12  27
TORSDOF 6
ENDMDL
MODEL 4
REMARK VINA RESULT: -6.400747555      9.489     13.077
REMARK  6 active torsions:
REMARK  status: ('A' for Active; 'I' for Inactive)
REMARK    1  A    between atoms: C2_2  and  N1_4 
REMARK    2  A    between atoms: C4_6  and  O1_7 
REMARK    3  A    between atoms: C4_6  and  N2_9 
REMARK       I    between atoms: C5_11  and  N3_12 
REMARK       I    between atoms: C5_11  and  N6_19 
REMARK    4  A    between atoms: N3_12  and  N4_14 
REMARK       I    between atoms: N6_19  and  C6_21 
REMARK       I    between atoms: N8_23  and  C7_25 
REMARK    5  A    between atoms: C7_25  and  C8_27 
REMARK    6  A    between atoms: C8_27  and  N9_28 
ROOT
HETATM    1  N2  UNL     1      16.873 -12.767  11.565  1.00  0.00    -0.154 N 
ATOM      2  H2  UNL     1      17.354 -12.086  10.978  1.00  0.00     0.188 HD
HETATM    3  C5  UNL     1      15.597 -12.831  11.526  1.00  0.00     0.703 C 
HETATM    4  N3  UNL     1      14.943 -11.910  10.633  1.00  0.00    -0.118 N 
ATOM      5  H3  UNL     1      14.413 -11.120  11.001  1.00  0.00     0.207 HD
HETATM    6  N6  UNL     1      14.803 -13.721  12.284  1.00  0.00    -0.162 N 
ATOM      7  H6  UNL     1      14.986 -13.859  13.277  1.00  0.00     0.187 HD
HETATM    8  C6  UNL     1      13.751 -14.418  11.644  1.00  0.00     0.209 C 
HETATM    9  N7  UNL     1      14.028 -15.585  10.883  1.00  0.00    -0.063 NA
HETATM   10  N8  UNL     1      12.550 -13.986  11.758  1.00  0.00    -0.299 N 
ATOM     11  H8  UNL     1      11.790 -14.487  11.298  1.00  0.00     0.171 HD
HETATM   12  C7  UNL     1      12.268 -12.835  12.506  1.00  0.00     0.252 C 
HETATM   13  O2  UNL     1      12.965 -12.514  13.491  1.00  0.00    -0.271 OA
ENDROOT
BRANCH   1  14
HETATM   14  C4  UNL     1      17.629 -13.610  12.392  1.00  0.00     0.231 C 
HETATM   15  N1  UNL     1      18.373 -14.497  11.803  1.00  0.00    -0.352 N 
ATOM     16  H1  UNL     1      18.356 -14.520  10.784  1.00  0.00     0.163 HD
BRANCH  15  17
HETATM   17  C2  UNL     1      19.213 -15.443  12.464  1.00  0.00     0.076 C 
HETATM   18  C1  UNL     1      18.478 -16.776  12.506  1.00  0.00     0.032 C 
HETATM   19  C3  UNL     1      20.587 -15.590  11.886  1.00  0.00     0.032 C 
ENDBRANCH  15  17
BRANCH  14  20
HETATM   20  O1  UNL     1      17.670 -13.597  13.772  1.00  0.00    -0.332 OA
ATOM     21  H1  UNL     1      17.973 -14.395  14.190  1.00  0.00     0.220 HD
ENDBRANCH  14  20
ENDBRANCH   1  14
BRANCH   4  22
HETATM   22  N4  UNL     1      15.047 -12.116   9.260  1.00  0.00    -0.235 N 
HETATM   23  N5  UNL     1      14.256 -12.945   8.719  1.00  0.00    -0.330 N 
ATOM     24  H52 UNL     1      13.568 -13.440   9.287  1.00  0.00     0.178 HD
ATOM     25  H51 UNL     1      14.332 -13.097   7.713  1.00  0.00     0.178 HD
ATOM     26  H4  UNL     1      15.741 -11.614   8.705  1.00  0.00     0.208 HD
ENDBRANCH   4  22
BRANCH  12  27
HETATM   27  C8  UNL     1      11.131 -11.968  12.139  1.00  0.00     0.374 C 
BRANCH  27  28
HETATM   28  N9  UNL     1      10.574 -12.430  10.894  1.00  0.00     0.097 N 
HETATM   29  C9  UNL     1       9.168 -12.585  10.994  1.00  0.00     0.273 C 
HETATM   30  C10 UNL     1       8.507 -11.401  10.308  1.00  0.00     0.030 C 
HETATM   31  C11 UNL     1       8.774 -11.517   8.828  1.00  0.00     0.003 C 
HETATM   32  C12 UNL     1      10.231 -11.795   8.548  1.00  0.00     0.030 C 
HETATM   33  C13 UNL     1      11.088 -11.706   9.791  1.00  0.00     0.273 C 
ENDBRANCH  27  28
ENDBRANCH  12  27
TORSDOF 6
ENDMDL
MODEL 5
REMARK VINA RESULT: -6.352064083      9.907     12.980
REMARK  6 active torsions:
REMARK  status: ('A' for Active; 'I' for Inactive)
REMARK    1  A    between atoms: C2_2  and  N1_4 
REMARK    2  A    between atoms: C4_6  and  O1_7 
REMARK    3  A    between atoms: C4_6  and  N2_9 
REMARK       I    between atoms: C5_11  and  N3_12 
REMARK       I    between atoms: C5_11  and  N6_19 
REMARK    4  A    between atoms: N3_12  and  N4_14 
REMARK       I    between atoms: N6_19  and  C6_21 
REMARK       I    between atoms: N8_23  and  C7_25 
REMARK    5  A    between atoms: C7_25  and  C8_27 
REMARK    6  A    between atoms: C8_27  and  N9_28 
ROOT
HETATM    1  N2  UNL     1      14.625 -11.783  12.425  1.00  0.00    -0.154 N 
ATOM      2  H2  UNL     1      14.964 -10.907  12.028  1.00  0.00     0.188 HD
HETATM    3  C5  UNL     1      14.023 -12.618  11.667  1.00  0.00     0.703 C 
HETATM    4  N3  UNL     1      13.878 -12.230  10.288  1.00  0.00    -0.118 N 
ATOM      5  H3  UNL     1      12.964 -11.967   9.918  1.00  0.00     0.207 HD
HETATM    6  N6  UNL     1      13.501 -13.864  12.081  1.00  0.00    -0.162 N 
ATOM      7  H6  UNL     1      12.957 -13.937  12.940  1.00  0.00     0.187 HD
HETATM    8  C6  UNL     1      13.744 -15.008  11.285  1.00  0.00     0.209 C 
HETATM    9  N7  UNL     1      14.986 -15.692  11.379  1.00  0.00    -0.063 NA
HETATM   10  N8  UNL     1      12.835 -15.420  10.482  1.00  0.00    -0.299 N 
ATOM     11  H8  UNL     1      13.008 -16.245   9.907  1.00  0.00     0.171 HD
HETATM   12  C7  UNL     1      11.607 -14.752  10.382  1.00  0.00     0.252 C 
HETATM   13  O2  UNL     1      11.116 -14.147  11.357  1.00  0.00    -0.271 OA
ENDROOT
BRANCH   1  14
HETATM   14  C4  UNL     1      14.833 -12.041  13.787  1.00  0.00     0.231 C 
HETATM   15  N1  UNL     1      16.034 -11.846  14.245  1.00  0.00    -0.352 N 
ATOM     16  H1  UNL     1      16.739 -11.520  13.585  1.00  0.00     0.163 HD
BRANCH  15  17
HETATM   17  C2  UNL     1      16.447 -12.049  15.596  1.00  0.00     0.076 C 
HETATM   18  C1  UNL     1      17.194 -13.374  15.664  1.00  0.00     0.032 C 
HETATM   19  C3  UNL     1      17.249 -10.935  16.193  1.00  0.00     0.032 C 
ENDBRANCH  15  17
BRANCH  14  20
HETATM   20  O1  UNL     1      13.896 -12.481  14.700  1.00  0.00    -0.332 OA
ATOM     21  H1  UNL     1      14.204 -13.095  15.357  1.00  0.00     0.220 HD
ENDBRANCH  14  20
ENDBRANCH   1  14
BRANCH   4  22
HETATM   22  N4  UNL     1      15.004 -12.220   9.469  1.00  0.00    -0.235 N 
HETATM   23  N5  UNL     1      15.477 -13.332   9.090  1.00  0.00    -0.330 N 
ATOM     24  H52 UNL     1      15.034 -14.202   9.386  1.00  0.00     0.178 HD
ATOM     25  H51 UNL     1      16.302 -13.325   8.491  1.00  0.00     0.178 HD
ATOM     26  H4  UNL     1      15.436 -11.341   9.183  1.00  0.00     0.208 HD
ENDBRANCH   4  22
BRANCH  12  27
HETATM   27  C8  UNL     1      10.864 -14.745   9.106  1.00  0.00     0.374 C 
BRANCH  27  28
HETATM   28  N9  UNL     1      11.006 -13.452   8.489  1.00  0.00     0.097 N 
HETATM   29  C9  UNL     1      11.686 -13.553   7.248  1.00  0.00     0.273 C 
HETATM   30  C10 UNL     1      10.660 -13.451   6.132  1.00  0.00     0.030 C 
HETATM   31  C11 UNL     1      10.120 -12.043   6.128  1.00  0.00     0.003 C 
HETATM   32  C12 UNL     1       9.727 -11.596   7.516  1.00  0.00     0.030 C 
HETATM   33  C13 UNL     1       9.796 -12.719   8.527  1.00  0.00     0.273 C 
ENDBRANCH  27  28
ENDBRANCH  12  27
TORSDOF 6
ENDMDL
