MODEL 1
REMARK VINA RESULT: -7.336526619      0.000      0.000
REMARK  5 active torsions:
REMARK  status: ('A' for Active; 'I' for Inactive)
REMARK    1  A    between atoms: C4_6  and  N2_7 
REMARK    2  A    between atoms: N2_7  and  C5_9 
REMARK    3  A    between atoms: C6_10  and  C7_11 
REMARK       I    between atoms: C7_11  and  N3_13 
REMARK       I    between atoms: C8_15  and  N4_16 
REMARK       I    between atoms: C8_15  and  N7_23 
REMARK    4  A    between atoms: N4_16  and  N5_18 
REMARK       I    between atoms: N7_23  and  C9_25 
REMARK       I    between atoms: C9_25  and  N8_27 
REMARK    5  A    between atoms: N8_27  and  C11_29 
ROOT
HETATM    1  C7  UNL     1      15.243 -12.790  17.381  1.00  0.00     0.260 C 
HETATM    2  O1  UNL     1      15.960 -13.782  17.318  1.00  0.00    -0.268 OA
HETATM    3  N3  UNL     1      14.425 -12.423  18.419  1.00  0.00    -0.154 N 
ATOM      4  H3  UNL     1      13.631 -11.832  18.174  1.00  0.00     0.187 HD
HETATM    5  C8  UNL     1      14.538 -12.741  19.691  1.00  0.00     0.704 C 
HETATM    6  N4  UNL     1      13.556 -12.233  20.559  1.00  0.00    -0.118 N 
ATOM      7  H4  UNL     1      13.275 -12.826  21.340  1.00  0.00     0.207 HD
HETATM    8  N7  UNL     1      15.573 -13.557  20.092  1.00  0.00    -0.140 N 
ATOM      9  H7  UNL     1      16.186 -13.892  19.349  1.00  0.00     0.189 HD
HETATM   10  C9  UNL     1      15.907 -14.003  21.430  1.00  0.00     0.336 C 
HETATM   11  O2  UNL     1      15.194 -13.616  22.373  1.00  0.00    -0.246 OA
HETATM   12  N8  UNL     1      17.026 -14.860  21.618  1.00  0.00    -0.334 N 
HETATM   13  C10 UNL     1      17.816 -15.252  20.480  1.00  0.00     0.154 C 
ENDROOT
BRANCH   6  14
HETATM   14  N5  UNL     1      12.928 -10.989  20.448  1.00  0.00    -0.235 N 
HETATM   15  N6  UNL     1      12.200 -10.583  21.381  1.00  0.00    -0.330 N 
ATOM     16  H62 UNL     1      12.075 -11.167  22.207  1.00  0.00     0.178 HD
ATOM     17  H61 UNL     1      11.742  -9.675  21.300  1.00  0.00     0.178 HD
ATOM     18  H5  UNL     1      13.063 -10.417  19.614  1.00  0.00     0.208 HD
ENDBRANCH   6  14
BRANCH   1  19
HETATM   19  C6  UNL     1      15.332 -11.915  16.133  1.00  0.00     0.092 C 
HETATM   20  C5  UNL     1      14.750 -12.371  15.124  1.00  0.00     0.111 C 
BRANCH  20  21
HETATM   21  N2  UNL     1      14.648 -11.781  13.846  1.00  0.00    -0.202 N 
ATOM     22  H2  UNL     1      15.411 -11.175  13.544  1.00  0.00     0.183 HD
BRANCH  21  23
HETATM   23  C4  UNL     1      13.677 -11.950  13.046  1.00  0.00     0.682 A 
HETATM   24  N1  UNL     1      13.309 -11.309  11.930  1.00  0.00    -0.200 N 
HETATM   25  C3  UNL     1      12.274 -11.885  11.334  1.00  0.00     0.131 A 
ATOM     26  H1  UNL     1      13.772 -10.471  11.578  1.00  0.00     0.183 HD
HETATM   27  C2  UNL     1      11.923 -12.965  12.087  1.00  0.00     0.038 A 
HETATM   28  C1  UNL     1      10.812 -13.937  11.786  1.00  0.00     0.070 C 
HETATM   29  N9  UNL     1      12.774 -12.998  13.117  1.00  0.00    -0.194 N 
ATOM     30  H9  UNL     1      12.760 -13.699  13.857  1.00  0.00     0.184 HD
ENDBRANCH  21  23
ENDBRANCH  20  21
ENDBRANCH   1  19
BRANCH  12  31
HETATM   31  C11 UNL     1      17.359 -15.344  22.904  1.00  0.00     0.080 C 
HETATM   32  C12 UNL     1      17.362 -16.858  22.881  1.00  0.00     0.032 C 
HETATM   33  C13 UNL     1      18.697 -14.810  23.393  1.00  0.00     0.032 C 
ENDBRANCH  12  31
TORSDOF 5
ENDMDL
MODEL 2
REMARK VINA RESULT: -7.211937169      5.419      8.013
REMARK  5 active torsions:
REMARK  status: ('A' for Active; 'I' for Inactive)
REMARK    1  A    between atoms: C4_6  and  N2_7 
REMARK    2  A    between atoms: N2_7  and  C5_9 
REMARK    3  A    between atoms: C6_10  and  C7_11 
REMARK       I    between atoms: C7_11  and  N3_13 
REMARK       I    between atoms: C8_15  and  N4_16 
REMARK       I    between atoms: C8_15  and  N7_23 
REMARK    4  A    between atoms: N4_16  and  N5_18 
REMARK       I    between atoms: N7_23  and  C9_25 
REMARK       I    between atoms: C9_25  and  N8_27 
REMARK    5  A    between atoms: N8_27  and  C11_29 
ROOT
HETATM    1  C7  UNL     1      14.892 -14.405  21.953  1.00  0.00     0.260 C 
HETATM    2  O1  UNL     1      14.908 -14.369  20.727  1.00  0.00    -0.268 OA
HETATM    3  N3  UNL     1      15.899 -14.823  22.784  1.00  0.00    -0.154 N 
ATOM      4  H3  UNL     1      15.610 -15.164  23.701  1.00  0.00     0.187 HD
HETATM    5  C8  UNL     1      17.193 -14.840  22.544  1.00  0.00     0.704 C 
HETATM    6  N4  UNL     1      18.020 -15.324  23.572  1.00  0.00    -0.118 N 
ATOM      7  H4  UNL     1      18.851 -15.846  23.292  1.00  0.00     0.207 HD
HETATM    8  N7  UNL     1      17.656 -14.417  21.317  1.00  0.00    -0.140 N 
ATOM      9  H7  UNL     1      16.940 -14.136  20.647  1.00  0.00     0.189 HD
HETATM   10  C9  UNL     1      19.025 -14.319  20.851  1.00  0.00     0.336 C 
HETATM   11  O2  UNL     1      19.936 -14.644  21.633  1.00  0.00    -0.246 OA
HETATM   12  N8  UNL     1      19.278 -13.861  19.529  1.00  0.00    -0.334 N 
HETATM   13  C10 UNL     1      18.173 -13.486  18.686  1.00  0.00     0.154 C 
ENDROOT
BRANCH   6  14
HETATM   14  N5  UNL     1      17.808 -15.155  24.943  1.00  0.00    -0.235 N 
HETATM   15  N6  UNL     1      17.818 -16.155  25.694  1.00  0.00    -0.330 N 
ATOM     16  H62 UNL     1      17.981 -17.079  25.294  1.00  0.00     0.178 HD
ATOM     17  H61 UNL     1      17.663 -16.031  26.695  1.00  0.00     0.178 HD
ATOM     18  H5  UNL     1      17.646 -14.224  25.328  1.00  0.00     0.208 HD
ENDBRANCH   6  14
BRANCH   1  19
HETATM   19  C6  UNL     1      13.573 -13.909  22.541  1.00  0.00     0.092 C 
HETATM   20  C5  UNL     1      13.007 -13.006  21.886  1.00  0.00     0.111 C 
BRANCH  20  21
HETATM   21  N2  UNL     1      11.780 -12.372  22.172  1.00  0.00    -0.202 N 
ATOM     22  H2  UNL     1      11.002 -12.538  21.534  1.00  0.00     0.183 HD
BRANCH  21  23
HETATM   23  C4  UNL     1      11.574 -11.609  23.167  1.00  0.00     0.682 A 
HETATM   24  N1  UNL     1      10.997 -11.818  24.357  1.00  0.00    -0.200 N 
HETATM   25  C3  UNL     1      11.085 -10.763  25.154  1.00  0.00     0.131 A 
ATOM     26  H1  UNL     1      10.541 -12.691  24.621  1.00  0.00     0.183 HD
HETATM   27  C2  UNL     1      11.749  -9.791  24.467  1.00  0.00     0.038 A 
HETATM   28  C1  UNL     1      12.103  -8.420  24.981  1.00  0.00     0.070 C 
HETATM   29  N9  UNL     1      12.041 -10.310  23.269  1.00  0.00    -0.194 N 
ATOM     30  H9  UNL     1      12.539  -9.815  22.531  1.00  0.00     0.184 HD
ENDBRANCH  21  23
ENDBRANCH  20  21
ENDBRANCH   1  19
BRANCH  12  31
HETATM   31  C11 UNL     1      20.599 -13.789  19.029  1.00  0.00     0.080 C 
HETATM   32  C12 UNL     1      20.566 -13.270  17.607  1.00  0.00     0.032 C 
HETATM   33  C13 UNL     1      21.498 -12.921  19.898  1.00  0.00     0.032 C 
ENDBRANCH  12  31
TORSDOF 5
ENDMDL
MODEL 3
REMARK VINA RESULT: -7.185049462      1.361      1.799
REMARK  5 active torsions:
REMARK  status: ('A' for Active; 'I' for Inactive)
REMARK    1  A    between atoms: C4_6  and  N2_7 
REMARK    2  A    between atoms: N2_7  and  C5_9 
REMARK    3  A    between atoms: C6_10  and  C7_11 
REMARK       I    between atoms: C7_11  and  N3_13 
REMARK       I    between atoms: C8_15  and  N4_16 
REMARK       I    between atoms: C8_15  and  N7_23 
REMARK    4  A    between atoms: N4_16  and  N5_18 
REMARK       I    between atoms: N7_23  and  C9_25 
REMARK       I    between atoms: C9_25  and  N8_27 
REMARK    5  A    between atoms: N8_27  and  C11_29 
ROOT
HETATM    1  C7  UNL     1      15.898 -13.800  17.755  1.00  0.00     0.260 C 
HETATM    2  O1  UNL     1      16.560 -14.832  17.800  1.00  0.00    -0.268 OA
HETATM    3  N3  UNL     1      15.140 -13.257  18.759  1.00  0.00    -0.154 N 
ATOM      4  H3  UNL     1      14.369 -12.658  18.463  1.00  0.00     0.187 HD
HETATM    5  C8  UNL     1      15.283 -13.413  20.058  1.00  0.00     0.704 C 
HETATM    6  N4  UNL     1      14.362 -12.742  20.881  1.00  0.00    -0.118 N 
ATOM      7  H4  UNL     1      14.081 -13.213  21.742  1.00  0.00     0.207 HD
HETATM    8  N7  UNL     1      16.289 -14.228  20.531  1.00  0.00    -0.140 N 
ATOM      9  H7  UNL     1      16.855 -14.690  19.820  1.00  0.00     0.189 HD
HETATM   10  C9  UNL     1      16.649 -14.516  21.906  1.00  0.00     0.336 C 
HETATM   11  O2  UNL     1      15.993 -13.970  22.811  1.00  0.00    -0.246 OA
HETATM   12  N8  UNL     1      17.727 -15.403  22.170  1.00  0.00    -0.334 N 
HETATM   13  C10 UNL     1      18.453 -15.983  21.070  1.00  0.00     0.154 C 
ENDROOT
BRANCH   6  14
HETATM   14  N5  UNL     1      13.797 -11.489  20.628  1.00  0.00    -0.235 N 
HETATM   15  N6  UNL     1      14.292 -10.472  21.162  1.00  0.00    -0.330 N 
ATOM     16  H62 UNL     1      15.101 -10.574  21.775  1.00  0.00     0.178 HD
ATOM     17  H61 UNL     1      13.880  -9.558  20.976  1.00  0.00     0.178 HD
ATOM     18  H5  UNL     1      12.987 -11.405  20.012  1.00  0.00     0.208 HD
ENDBRANCH   6  14
BRANCH   1  19
HETATM   19  C6  UNL     1      15.986 -13.101  16.400  1.00  0.00     0.092 C 
HETATM   20  C5  UNL     1      15.028 -12.343  16.132  1.00  0.00     0.111 C 
BRANCH  20  21
HETATM   21  N2  UNL     1      14.846 -11.558  14.974  1.00  0.00    -0.202 N 
ATOM     22  H2  UNL     1      14.919 -10.546  15.073  1.00  0.00     0.183 HD
BRANCH  21  23
HETATM   23  C4  UNL     1      14.598 -12.021  13.817  1.00  0.00     0.682 A 
HETATM   24  N1  UNL     1      13.535 -12.659  13.312  1.00  0.00    -0.200 N 
HETATM   25  C3  UNL     1      13.647 -12.878  12.010  1.00  0.00     0.131 A 
ATOM     26  H1  UNL     1      12.729 -12.946  13.868  1.00  0.00     0.183 HD
HETATM   27  C2  UNL     1      14.848 -12.366  11.616  1.00  0.00     0.038 A 
HETATM   28  C1  UNL     1      15.398 -12.364  10.214  1.00  0.00     0.070 C 
HETATM   29  N9  UNL     1      15.415 -11.851  12.712  1.00  0.00    -0.194 N 
ATOM     30  H9  UNL     1      16.326 -11.395  12.731  1.00  0.00     0.184 HD
ENDBRANCH  21  23
ENDBRANCH  20  21
ENDBRANCH   1  19
BRANCH  12  31
HETATM   31  C11 UNL     1      18.082 -15.736  23.498  1.00  0.00     0.080 C 
HETATM   32  C12 UNL     1      18.385 -17.216  23.577  1.00  0.00     0.032 C 
HETATM   33  C13 UNL     1      19.262 -14.917  24.002  1.00  0.00     0.032 C 
ENDBRANCH  12  31
TORSDOF 5
ENDMDL
MODEL 4
REMARK VINA RESULT: -7.169810462      2.218      3.938
REMARK  5 active torsions:
REMARK  status: ('A' for Active; 'I' for Inactive)
REMARK    1  A    between atoms: C4_6  and  N2_7 
REMARK    2  A    between atoms: N2_7  and  C5_9 
REMARK    3  A    between atoms: C6_10  and  C7_11 
REMARK       I    between atoms: C7_11  and  N3_13 
REMARK       I    between atoms: C8_15  and  N4_16 
REMARK       I    between atoms: C8_15  and  N7_23 
REMARK    4  A    between atoms: N4_16  and  N5_18 
REMARK       I    between atoms: N7_23  and  C9_25 
REMARK       I    between atoms: C9_25  and  N8_27 
REMARK    5  A    between atoms: N8_27  and  C11_29 
ROOT
HETATM    1  C7  UNL     1      15.680 -12.775  16.818  1.00  0.00     0.260 C 
HETATM    2  O1  UNL     1      15.368 -11.643  17.172  1.00  0.00    -0.268 OA
HETATM    3  N3  UNL     1      15.977 -13.844  17.623  1.00  0.00    -0.154 N 
ATOM      4  H3  UNL     1      16.580 -14.558  17.213  1.00  0.00     0.187 HD
HETATM    5  C8  UNL     1      15.582 -14.062  18.859  1.00  0.00     0.704 C 
HETATM    6  N4  UNL     1      16.035 -15.245  19.468  1.00  0.00    -0.118 N 
ATOM      7  H4  UNL     1      16.231 -15.206  20.469  1.00  0.00     0.207 HD
HETATM    8  N7  UNL     1      14.785 -13.128  19.486  1.00  0.00    -0.140 N 
ATOM      9  H7  UNL     1      14.571 -12.292  18.942  1.00  0.00     0.189 HD
HETATM   10  C9  UNL     1      14.212 -13.176  20.817  1.00  0.00     0.336 C 
HETATM   11  O2  UNL     1      14.438 -14.178  21.518  1.00  0.00    -0.246 OA
HETATM   12  N8  UNL     1      13.419 -12.086  21.271  1.00  0.00    -0.334 N 
HETATM   13  C10 UNL     1      13.186 -10.967  20.395  1.00  0.00     0.154 C 
ENDROOT
BRANCH   6  14
HETATM   14  N5  UNL     1      16.241 -16.470  18.827  1.00  0.00    -0.235 N 
HETATM   15  N6  UNL     1      15.254 -17.169  18.506  1.00  0.00    -0.330 N 
ATOM     16  H62 UNL     1      14.314 -16.833  18.718  1.00  0.00     0.178 HD
ATOM     17  H61 UNL     1      15.404 -18.062  18.038  1.00  0.00     0.178 HD
ATOM     18  H5  UNL     1      17.187 -16.791  18.623  1.00  0.00     0.208 HD
ENDBRANCH   6  14
BRANCH   1  19
HETATM   19  C6  UNL     1      15.711 -12.930  15.299  1.00  0.00     0.092 C 
HETATM   20  C5  UNL     1      15.045 -12.082  14.665  1.00  0.00     0.111 C 
BRANCH  20  21
HETATM   21  N2  UNL     1      14.903 -11.966  13.267  1.00  0.00    -0.202 N 
ATOM     22  H2  UNL     1      15.693 -11.592  12.741  1.00  0.00     0.183 HD
BRANCH  21  23
HETATM   23  C4  UNL     1      13.863 -12.292  12.615  1.00  0.00     0.682 A 
HETATM   24  N1  UNL     1      13.216 -13.456  12.476  1.00  0.00    -0.200 N 
HETATM   25  C3  UNL     1      12.096 -13.332  11.779  1.00  0.00     0.131 A 
ATOM     26  H1  UNL     1      13.549 -14.340  12.862  1.00  0.00     0.183 HD
HETATM   27  C2  UNL     1      11.982 -12.021  11.426  1.00  0.00     0.038 A 
HETATM   28  C1  UNL     1      10.853 -11.405  10.642  1.00  0.00     0.070 C 
HETATM   29  N9  UNL     1      13.051 -11.401  11.934  1.00  0.00    -0.194 N 
ATOM     30  H9  UNL     1      13.244 -10.404  11.833  1.00  0.00     0.184 HD
ENDBRANCH  21  23
ENDBRANCH  20  21
ENDBRANCH   1  19
BRANCH  12  31
HETATM   31  C11 UNL     1      12.875 -12.082  22.576  1.00  0.00     0.080 C 
HETATM   32  C12 UNL     1      12.692 -10.651  23.035  1.00  0.00     0.032 C 
HETATM   33  C13 UNL     1      11.561 -12.845  22.655  1.00  0.00     0.032 C 
ENDBRANCH  12  31
TORSDOF 5
ENDMDL
MODEL 5
REMARK VINA RESULT: -7.164760639      4.674      9.562
REMARK  5 active torsions:
REMARK  status: ('A' for Active; 'I' for Inactive)
REMARK    1  A    between atoms: C4_6  and  N2_7 
REMARK    2  A    between atoms: N2_7  and  C5_9 
REMARK    3  A    between atoms: C6_10  and  C7_11 
REMARK       I    between atoms: C7_11  and  N3_13 
REMARK       I    between atoms: C8_15  and  N4_16 
REMARK       I    between atoms: C8_15  and  N7_23 
REMARK    4  A    between atoms: N4_16  and  N5_18 
REMARK       I    between atoms: N7_23  and  C9_25 
REMARK       I    between atoms: C9_25  and  N8_27 
REMARK    5  A    between atoms: N8_27  and  C11_29 
ROOT
HETATM    1  C7  UNL     1      17.851 -15.837  20.823  1.00  0.00     0.260 C 
HETATM    2  O1  UNL     1      16.998 -16.153  21.645  1.00  0.00    -0.268 OA
HETATM    3  N3  UNL     1      17.669 -15.100  19.681  1.00  0.00    -0.154 N 
ATOM      4  H3  UNL     1      18.347 -15.259  18.935  1.00  0.00     0.187 HD
HETATM    5  C8  UNL     1      16.729 -14.214  19.429  1.00  0.00     0.704 C 
HETATM    6  N4  UNL     1      16.766 -13.595  18.167  1.00  0.00    -0.118 N 
ATOM      7  H4  UNL     1      15.870 -13.370  17.735  1.00  0.00     0.207 HD
HETATM    8  N7  UNL     1      15.766 -13.965  20.382  1.00  0.00    -0.140 N 
ATOM      9  H7  UNL     1      15.833 -14.521  21.235  1.00  0.00     0.189 HD
HETATM   10  C9  UNL     1      14.669 -13.019  20.333  1.00  0.00     0.336 C 
HETATM   11  O2  UNL     1      14.548 -12.312  19.317  1.00  0.00    -0.246 OA
HETATM   12  N8  UNL     1      13.777 -12.932  21.437  1.00  0.00    -0.334 N 
HETATM   13  C10 UNL     1      13.991 -13.770  22.588  1.00  0.00     0.154 C 
ENDROOT
BRANCH   6  14
HETATM   14  N5  UNL     1      17.919 -13.260  17.452  1.00  0.00    -0.235 N 
HETATM   15  N6  UNL     1      17.866 -12.355  16.590  1.00  0.00    -0.330 N 
ATOM     16  H62 UNL     1      16.981 -11.877  16.422  1.00  0.00     0.178 HD
ATOM     17  H61 UNL     1      18.707 -12.111  16.068  1.00  0.00     0.178 HD
ATOM     18  H5  UNL     1      18.797 -13.749  17.632  1.00  0.00     0.208 HD
ENDBRANCH   6  14
BRANCH   1  19
HETATM   19  C6  UNL     1      19.241 -16.353  21.186  1.00  0.00     0.092 C 
HETATM   20  C5  UNL     1      19.982 -15.524  21.760  1.00  0.00     0.111 C 
BRANCH  20  21
HETATM   21  N2  UNL     1      21.299 -15.720  22.224  1.00  0.00    -0.202 N 
ATOM     22  H2  UNL     1      21.929 -16.270  21.641  1.00  0.00     0.183 HD
BRANCH  21  23
HETATM   23  C4  UNL     1      21.757 -15.261  23.316  1.00  0.00     0.682 A 
HETATM   24  N1  UNL     1      22.989 -14.893  23.691  1.00  0.00    -0.200 N 
HETATM   25  C3  UNL     1      23.010 -14.362  24.905  1.00  0.00     0.131 A 
ATOM     26  H1  UNL     1      23.818 -15.010  23.109  1.00  0.00     0.183 HD
HETATM   27  C2  UNL     1      21.731 -14.375  25.375  1.00  0.00     0.038 A 
HETATM   28  C1  UNL     1      21.267 -13.850  26.709  1.00  0.00     0.070 C 
HETATM   29  N9  UNL     1      20.982 -14.919  24.411  1.00  0.00    -0.194 N 
ATOM     30  H9  UNL     1      19.974 -15.062  24.473  1.00  0.00     0.184 HD
ENDBRANCH  21  23
ENDBRANCH  20  21
ENDBRANCH   1  19
BRANCH  12  31
HETATM   31  C11 UNL     1      12.675 -12.046  21.409  1.00  0.00     0.080 C 
HETATM   32  C12 UNL     1      11.626 -12.524  22.390  1.00  0.00     0.032 C 
HETATM   33  C13 UNL     1      13.080 -10.611  21.710  1.00  0.00     0.032 C 
ENDBRANCH  12  31
TORSDOF 5
ENDMDL
