MODEL 1
REMARK VINA RESULT: -7.141250136      0.000      0.000
REMARK  6 active torsions:
REMARK  status: ('A' for Active; 'I' for Inactive)
REMARK    1  A    between atoms: C3_3  and  N1_4 
REMARK    2  A    between atoms: C5_9  and  C6_10 
REMARK    3  A    between atoms: C6_10  and  C7_11 
REMARK    4  A    between atoms: C9_15  and  N4_16 
REMARK    5  A    between atoms: C13_25  and  C14_26 
REMARK    6  A    between atoms: C14_26  and  O3_28 
ROOT
HETATM    1  C1  UNL     1      20.309 -14.693  24.808  1.00  0.00     0.014 C 
HETATM    2  C2  UNL     1      20.065 -15.155  23.722  1.00  0.00    -0.097 C 
HETATM    3  C3  UNL     1      19.767 -15.731  22.429  1.00  0.00     0.223 C 
ENDROOT
BRANCH   3   4
HETATM    4  N1  UNL     1      18.829 -14.876  21.730  1.00  0.00    -0.300 N 
HETATM    5  C4  UNL     1      17.466 -15.070  22.166  1.00  0.00     0.321 C 
HETATM    6  O1  UNL     1      17.234 -16.168  22.774  1.00  0.00    -0.247 OA
HETATM    7  N2  UNL     1      16.337 -14.221  22.021  1.00  0.00    -0.329 N 
HETATM    8  C5  UNL     1      16.004 -13.329  20.931  1.00  0.00     0.184 C 
ATOM      9  H2  UNL     1      15.669 -14.243  22.792  1.00  0.00     0.165 HD
HETATM   10  C12 UNL     1      16.903 -13.528  19.763  1.00  0.00     0.242 C 
HETATM   11  O2  UNL     1      16.338 -13.289  18.661  1.00  0.00    -0.271 OA
HETATM   12  N6  UNL     1      18.243 -13.926  19.650  1.00  0.00    -0.335 N 
HETATM   13  C13 UNL     1      19.235 -13.963  20.717  1.00  0.00     0.220 C 
ATOM     14  H6  UNL     1      18.556 -14.219  18.725  1.00  0.00     0.164 HD
BRANCH   8  15
HETATM   15  C6  UNL     1      14.604 -13.680  20.477  1.00  0.00     0.094 C 
BRANCH  15  16
HETATM   16  C7  UNL     1      13.546 -13.264  21.398  1.00  0.00     0.045 A 
HETATM   17  C8  UNL     1      12.337 -13.963  21.497  1.00  0.00     0.131 A 
HETATM   18  N3  UNL     1      11.567 -13.362  22.414  1.00  0.00    -0.200 N 
HETATM   19  C9  UNL     1      12.265 -12.299  22.895  1.00  0.00     0.679 A 
ATOM     20  H3  UNL     1      10.630 -13.649  22.699  1.00  0.00     0.183 HD
HETATM   21  N5  UNL     1      13.455 -12.252  22.274  1.00  0.00    -0.194 N 
ATOM     22  H5  UNL     1      14.180 -11.555  22.443  1.00  0.00     0.184 HD
BRANCH  19  23
HETATM   23  N4  UNL     1      11.854 -11.465  23.804  1.00  0.00    -0.226 N 
HETATM   24  C10 UNL     1      12.022 -10.035  23.655  1.00  0.00     0.168 C 
HETATM   25  C11 UNL     1      11.216 -11.952  24.989  1.00  0.00     0.168 C 
ENDBRANCH  19  23
ENDBRANCH  15  16
ENDBRANCH   8  15
BRANCH  13  26
HETATM   26  C14 UNL     1      20.615 -14.096  20.189  1.00  0.00     0.156 C 
HETATM   27  C15 UNL     1      20.568 -13.711  18.702  1.00  0.00     0.043 C 
BRANCH  26  28
HETATM   28  O3  UNL     1      21.464 -13.197  20.793  1.00  0.00    -0.392 OA
ATOM     29  H3  UNL     1      21.554 -12.408  20.272  1.00  0.00     0.210 HD
ENDBRANCH  26  28
ENDBRANCH  13  26
ENDBRANCH   3   4
TORSDOF 6
ENDMDL
MODEL 2
REMARK VINA RESULT: -6.774882733      1.649      1.942
REMARK  6 active torsions:
REMARK  status: ('A' for Active; 'I' for Inactive)
REMARK    1  A    between atoms: C3_3  and  N1_4 
REMARK    2  A    between atoms: C5_9  and  C6_10 
REMARK    3  A    between atoms: C6_10  and  C7_11 
REMARK    4  A    between atoms: C9_15  and  N4_16 
REMARK    5  A    between atoms: C13_25  and  C14_26 
REMARK    6  A    between atoms: C14_26  and  O3_28 
ROOT
HETATM    1  C1  UNL     1      18.791 -17.764  25.484  1.00  0.00     0.014 C 
HETATM    2  C2  UNL     1      18.768 -17.618  24.287  1.00  0.00    -0.097 C 
HETATM    3  C3  UNL     1      18.727 -17.464  22.849  1.00  0.00     0.223 C 
ENDROOT
BRANCH   3   4
HETATM    4  N1  UNL     1      18.238 -16.139  22.525  1.00  0.00    -0.300 N 
HETATM    5  C4  UNL     1      16.811 -16.109  22.308  1.00  0.00     0.321 C 
HETATM    6  O1  UNL     1      16.269 -17.235  22.054  1.00  0.00    -0.247 OA
HETATM    7  N2  UNL     1      15.912 -15.009  22.336  1.00  0.00    -0.329 N 
HETATM    8  C5  UNL     1      16.139 -13.638  21.930  1.00  0.00     0.184 C 
ATOM      9  H2  UNL     1      14.978 -15.214  22.690  1.00  0.00     0.165 HD
HETATM   10  C12 UNL     1      17.438 -13.483  21.222  1.00  0.00     0.242 C 
HETATM   11  O2  UNL     1      17.418 -12.567  20.355  1.00  0.00    -0.271 OA
HETATM   12  N6  UNL     1      18.667 -14.149  21.330  1.00  0.00    -0.335 N 
HETATM   13  C13 UNL     1      19.099 -15.011  22.422  1.00  0.00     0.220 C 
ATOM     14  H6  UNL     1      19.327 -14.016  20.564  1.00  0.00     0.164 HD
BRANCH   8  15
HETATM   15  C6  UNL     1      15.050 -13.278  20.943  1.00  0.00     0.094 C 
BRANCH  15  16
HETATM   16  C7  UNL     1      13.976 -12.456  21.499  1.00  0.00     0.045 A 
HETATM   17  C8  UNL     1      13.236 -11.573  20.704  1.00  0.00     0.131 A 
HETATM   18  N3  UNL     1      12.325 -10.962  21.474  1.00  0.00    -0.200 N 
HETATM   19  C9  UNL     1      12.475 -11.441  22.737  1.00  0.00     0.679 A 
ATOM     20  H3  UNL     1      11.645 -10.266  21.169  1.00  0.00     0.183 HD
HETATM   21  N5  UNL     1      13.473 -12.341  22.738  1.00  0.00    -0.194 N 
ATOM     22  H5  UNL     1      13.798 -12.858  23.554  1.00  0.00     0.184 HD
BRANCH  19  23
HETATM   23  N4  UNL     1      11.773 -11.091  23.774  1.00  0.00    -0.226 N 
HETATM   24  C10 UNL     1      11.664  -9.708  24.186  1.00  0.00     0.168 C 
HETATM   25  C11 UNL     1      11.083 -12.082  24.541  1.00  0.00     0.168 C 
ENDBRANCH  19  23
ENDBRANCH  15  16
ENDBRANCH   8  15
BRANCH  13  26
HETATM   26  C14 UNL     1      20.561 -15.265  22.385  1.00  0.00     0.156 C 
HETATM   27  C15 UNL     1      21.171 -14.250  21.406  1.00  0.00     0.043 C 
BRANCH  26  28
HETATM   28  O3  UNL     1      21.137 -15.016  23.609  1.00  0.00    -0.392 OA
ATOM     29  H3  UNL     1      21.762 -15.695  23.837  1.00  0.00     0.210 HD
ENDBRANCH  26  28
ENDBRANCH  13  26
ENDBRANCH   3   4
TORSDOF 6
ENDMDL
MODEL 3
REMARK VINA RESULT: -6.700536802      2.242      3.483
REMARK  6 active torsions:
REMARK  status: ('A' for Active; 'I' for Inactive)
REMARK    1  A    between atoms: C3_3  and  N1_4 
REMARK    2  A    between atoms: C5_9  and  C6_10 
REMARK    3  A    between atoms: C6_10  and  C7_11 
REMARK    4  A    between atoms: C9_15  and  N4_16 
REMARK    5  A    between atoms: C13_25  and  C14_26 
REMARK    6  A    between atoms: C14_26  and  O3_28 
ROOT
HETATM    1  C1  UNL     1      21.081 -13.286  27.456  1.00  0.00     0.014 C 
HETATM    2  C2  UNL     1      20.862 -14.322  26.881  1.00  0.00    -0.097 C 
HETATM    3  C3  UNL     1      20.584 -15.574  26.210  1.00  0.00     0.223 C 
ENDROOT
BRANCH   3   4
HETATM    4  N1  UNL     1      20.126 -15.302  24.862  1.00  0.00    -0.300 N 
HETATM    5  C4  UNL     1      18.686 -15.289  24.754  1.00  0.00     0.321 C 
HETATM    6  O1  UNL     1      18.058 -15.872  25.699  1.00  0.00    -0.247 OA
HETATM    7  N2  UNL     1      17.857 -14.722  23.750  1.00  0.00    -0.329 N 
HETATM    8  C5  UNL     1      18.100 -14.607  22.327  1.00  0.00     0.184 C 
ATOM      9  H2  UNL     1      16.967 -14.345  24.076  1.00  0.00     0.165 HD
HETATM   10  C12 UNL     1      19.302 -15.377  21.911  1.00  0.00     0.242 C 
HETATM   11  O2  UNL     1      19.218 -15.821  20.734  1.00  0.00    -0.271 OA
HETATM   12  N6  UNL     1      20.499 -15.702  22.566  1.00  0.00    -0.335 N 
HETATM   13  C13 UNL     1      21.024 -15.089  23.779  1.00  0.00     0.220 C 
ATOM     14  H6  UNL     1      21.060 -16.444  22.149  1.00  0.00     0.164 HD
BRANCH   8  15
HETATM   15  C6  UNL     1      16.912 -15.222  21.619  1.00  0.00     0.094 C 
BRANCH  15  16
HETATM   16  C7  UNL     1      15.813 -14.293  21.360  1.00  0.00     0.045 A 
HETATM   17  C8  UNL     1      15.409 -13.972  20.059  1.00  0.00     0.131 A 
HETATM   18  N3  UNL     1      14.386 -13.108  20.127  1.00  0.00    -0.200 N 
HETATM   19  C9  UNL     1      14.138 -12.878  21.444  1.00  0.00     0.679 A 
ATOM     20  H3  UNL     1      13.887 -12.699  19.337  1.00  0.00     0.183 HD
HETATM   21  N5  UNL     1      15.004 -13.598  22.175  1.00  0.00    -0.194 N 
ATOM     22  H5  UNL     1      15.042 -13.615  23.194  1.00  0.00     0.184 HD
BRANCH  19  23
HETATM   23  N4  UNL     1      13.217 -12.093  21.920  1.00  0.00    -0.226 N 
HETATM   24  C10 UNL     1      11.938 -12.605  22.366  1.00  0.00     0.168 C 
HETATM   25  C11 UNL     1      13.453 -10.686  22.014  1.00  0.00     0.168 C 
ENDBRANCH  19  23
ENDBRANCH  15  16
ENDBRANCH   8  15
BRANCH  13  26
HETATM   26  C14 UNL     1      22.453 -15.423  23.997  1.00  0.00     0.156 C 
HETATM   27  C15 UNL     1      22.630 -16.906  23.637  1.00  0.00     0.043 C 
BRANCH  26  28
HETATM   28  O3  UNL     1      23.263 -14.717  23.137  1.00  0.00    -0.392 OA
ATOM     29  H3  UNL     1      24.181 -14.850  23.346  1.00  0.00     0.210 HD
ENDBRANCH  26  28
ENDBRANCH  13  26
ENDBRANCH   3   4
TORSDOF 6
ENDMDL
MODEL 4
REMARK VINA RESULT: -6.660202441      1.986      2.870
REMARK  6 active torsions:
REMARK  status: ('A' for Active; 'I' for Inactive)
REMARK    1  A    between atoms: C3_3  and  N1_4 
REMARK    2  A    between atoms: C5_9  and  C6_10 
REMARK    3  A    between atoms: C6_10  and  C7_11 
REMARK    4  A    between atoms: C9_15  and  N4_16 
REMARK    5  A    between atoms: C13_25  and  C14_26 
REMARK    6  A    between atoms: C14_26  and  O3_28 
ROOT
HETATM    1  C1  UNL     1      20.316 -14.030  20.844  1.00  0.00     0.014 C 
HETATM    2  C2  UNL     1      19.319 -14.683  20.663  1.00  0.00    -0.097 C 
HETATM    3  C3  UNL     1      18.129 -15.482  20.464  1.00  0.00     0.223 C 
ENDROOT
BRANCH   3   4
HETATM    4  N1  UNL     1      16.963 -14.625  20.526  1.00  0.00    -0.300 N 
HETATM    5  C4  UNL     1      16.188 -14.822  21.729  1.00  0.00     0.321 C 
HETATM    6  O1  UNL     1      16.394 -15.922  22.341  1.00  0.00    -0.247 OA
HETATM    7  N2  UNL     1      15.227 -13.973  22.339  1.00  0.00    -0.329 N 
HETATM    8  C5  UNL     1      14.278 -13.077  21.714  1.00  0.00     0.184 C 
ATOM      9  H2  UNL     1      15.202 -13.999  23.359  1.00  0.00     0.165 HD
HETATM   10  C12 UNL     1      14.228 -13.270  20.240  1.00  0.00     0.242 C 
HETATM   11  O2  UNL     1      13.092 -13.027  19.750  1.00  0.00    -0.271 OA
HETATM   12  N6  UNL     1      15.189 -13.666  19.299  1.00  0.00    -0.335 N 
HETATM   13  C13 UNL     1      16.633 -13.707  19.490  1.00  0.00     0.220 C 
ATOM     14  H6  UNL     1      14.841 -13.955  18.384  1.00  0.00     0.164 HD
BRANCH   8  15
HETATM   15  C6  UNL     1      12.909 -13.428  22.254  1.00  0.00     0.094 C 
BRANCH  15  16
HETATM   16  C7  UNL     1      12.299 -12.389  23.084  1.00  0.00     0.045 A 
HETATM   17  C8  UNL     1      11.129 -12.620  23.815  1.00  0.00     0.131 A 
HETATM   18  N3  UNL     1      10.808 -11.502  24.479  1.00  0.00    -0.200 N 
HETATM   19  C9  UNL     1      11.752 -10.570  24.182  1.00  0.00     0.679 A 
ATOM     20  H3  UNL     1      10.004 -11.373  25.094  1.00  0.00     0.183 HD
HETATM   21  N5  UNL     1      12.644 -11.118  23.341  1.00  0.00    -0.194 N 
ATOM     22  H5  UNL     1      13.460 -10.641  22.956  1.00  0.00     0.184 HD
BRANCH  19  23
HETATM   23  N4  UNL     1      11.789  -9.351  24.634  1.00  0.00    -0.226 N 
HETATM   24  C10 UNL     1      12.913  -8.478  24.373  1.00  0.00     0.168 C 
HETATM   25  C11 UNL     1      10.700  -8.841  25.410  1.00  0.00     0.168 C 
ENDBRANCH  19  23
ENDBRANCH  15  16
ENDBRANCH   8  15
BRANCH  13  26
HETATM   26  C14 UNL     1      17.361 -13.836  18.203  1.00  0.00     0.156 C 
HETATM   27  C15 UNL     1      16.414 -14.536  17.216  1.00  0.00     0.043 C 
BRANCH  26  28
HETATM   28  O3  UNL     1      17.635 -12.599  17.665  1.00  0.00    -0.392 OA
ATOM     29  H3  UNL     1      17.992 -12.681  16.788  1.00  0.00     0.210 HD
ENDBRANCH  26  28
ENDBRANCH  13  26
ENDBRANCH   3   4
TORSDOF 6
ENDMDL
MODEL 5
REMARK VINA RESULT: -6.577536678      5.427      7.896
REMARK  6 active torsions:
REMARK  status: ('A' for Active; 'I' for Inactive)
REMARK    1  A    between atoms: C3_3  and  N1_4 
REMARK    2  A    between atoms: C5_9  and  C6_10 
REMARK    3  A    between atoms: C6_10  and  C7_11 
REMARK    4  A    between atoms: C9_15  and  N4_16 
REMARK    5  A    between atoms: C13_25  and  C14_26 
REMARK    6  A    between atoms: C14_26  and  O3_28 
ROOT
HETATM    1  C1  UNL     1      17.103 -16.930  20.499  1.00  0.00     0.014 C 
HETATM    2  C2  UNL     1      16.907 -15.741  20.538  1.00  0.00    -0.097 C 
HETATM    3  C3  UNL     1      16.696 -14.311  20.591  1.00  0.00     0.223 C 
ENDROOT
BRANCH   3   4
HETATM    4  N1  UNL     1      16.121 -13.866  19.338  1.00  0.00    -0.300 N 
HETATM    5  C4  UNL     1      17.104 -13.729  18.289  1.00  0.00     0.321 C 
HETATM    6  O1  UNL     1      18.315 -13.636  18.680  1.00  0.00    -0.247 OA
HETATM    7  N2  UNL     1      16.929 -13.683  16.881  1.00  0.00    -0.329 N 
HETATM    8  C5  UNL     1      15.839 -13.112  16.118  1.00  0.00     0.184 C 
ATOM      9  H2  UNL     1      17.674 -14.111  16.331  1.00  0.00     0.165 HD
HETATM   10  C12 UNL     1      14.922 -12.318  16.980  1.00  0.00     0.242 C 
HETATM   11  O2  UNL     1      14.383 -11.356  16.368  1.00  0.00    -0.271 OA
HETATM   12  N6  UNL     1      14.544 -12.432  18.325  1.00  0.00    -0.335 N 
HETATM   13  C13 UNL     1      14.733 -13.588  19.190  1.00  0.00     0.220 C 
ATOM     14  H6  UNL     1      14.088 -11.619  18.741  1.00  0.00     0.164 HD
BRANCH   8  15
HETATM   15  C6  UNL     1      16.447 -12.154  15.117  1.00  0.00     0.094 C 
BRANCH  15  16
HETATM   16  C7  UNL     1      15.843 -12.203  13.786  1.00  0.00     0.045 A 
HETATM   17  C8  UNL     1      16.593 -11.973  12.627  1.00  0.00     0.131 A 
HETATM   18  N3  UNL     1      15.786 -12.086  11.563  1.00  0.00    -0.200 N 
HETATM   19  C9  UNL     1      14.543 -12.384  12.028  1.00  0.00     0.679 A 
ATOM     20  H3  UNL     1      16.054 -11.971  10.586  1.00  0.00     0.183 HD
HETATM   21  N5  UNL     1      14.593 -12.452  13.368  1.00  0.00    -0.194 N 
ATOM     22  H5  UNL     1      13.801 -12.660  13.976  1.00  0.00     0.184 HD
BRANCH  19  23
HETATM   23  N4  UNL     1      13.482 -12.572  11.300  1.00  0.00    -0.226 N 
HETATM   24  C10 UNL     1      13.518 -13.378  10.098  1.00  0.00     0.168 C 
HETATM   25  C11 UNL     1      12.238 -11.977  11.679  1.00  0.00     0.168 C 
ENDBRANCH  19  23
ENDBRANCH  15  16
ENDBRANCH   8  15
BRANCH  13  26
HETATM   26  C14 UNL     1      13.917 -13.497  20.427  1.00  0.00     0.156 C 
HETATM   27  C15 UNL     1      13.504 -12.026  20.588  1.00  0.00     0.043 C 
BRANCH  26  28
HETATM   28  O3  UNL     1      12.750 -14.216  20.303  1.00  0.00    -0.392 OA
ATOM     29  H3  UNL     1      12.226 -14.155  21.093  1.00  0.00     0.210 HD
ENDBRANCH  26  28
ENDBRANCH  13  26
ENDBRANCH   3   4
TORSDOF 6
ENDMDL
