MODEL 1
REMARK VINA RESULT: -5.729484559      0.000      0.000
REMARK  3 active torsions:
REMARK  status: ('A' for Active; 'I' for Inactive)
REMARK    1  A    between atoms: O1_1  and  C1_3 
REMARK    2  A    between atoms: C7_11  and  O3_12 
REMARK    3  A    between atoms: C10_16  and  O4_17 
ROOT
HETATM    1  C1  UNL     1      11.322 -18.567   5.217  1.00  0.00     0.188 C 
HETATM    2  C2  UNL     1      10.765 -17.733   4.124  1.00  0.00     0.195 A 
HETATM    3  O2  UNL     1       9.371 -17.596   4.259  1.00  0.00    -0.370 OA
HETATM    4  C3  UNL     1       9.209 -18.267   3.071  1.00  0.00     0.177 A 
HETATM    5  C4  UNL     1       8.421 -19.507   3.120  1.00  0.00     0.090 C 
HETATM    6 BR1  UNL     1       8.509 -20.273   1.315  1.00  0.00    -0.088 Br
HETATM    7  C5  UNL     1       8.721 -20.539   4.088  1.00  0.00     0.022 C 
HETATM    8  C6  UNL     1       9.482 -20.191   5.316  1.00  0.00     0.046 C 
HETATM    9  C7  UNL     1      10.960 -20.016   5.062  1.00  0.00     0.104 C 
HETATM   10  C8  UNL     1      11.356 -20.548   3.718  1.00  0.00     0.012 C 
HETATM   11  C9  UNL     1      11.188 -19.729   2.689  1.00  0.00     0.015 C 
HETATM   12  C10 UNL     1      10.656 -18.386   2.799  1.00  0.00     0.131 A 
ENDROOT
BRANCH   1  13
HETATM   13  O1  UNL     1      12.706 -18.416   5.274  1.00  0.00    -0.390 OA
ATOM     14  H1  UNL     1      13.132 -19.229   5.027  1.00  0.00     0.210 HD
ENDBRANCH   1  13
BRANCH   9  15
HETATM   15  O3  UNL     1      11.741 -20.728   5.993  1.00  0.00    -0.383 OA
ATOM     16  H3  UNL     1      11.416 -20.498   6.854  1.00  0.00     0.211 HD
ENDBRANCH   9  15
BRANCH  12  17
HETATM   17  O4  UNL     1      11.151 -17.522   1.794  1.00  0.00    -0.380 OA
ATOM     18  H4  UNL     1      11.409 -18.028   1.032  1.00  0.00     0.211 HD
ENDBRANCH  12  17
TORSDOF 3
ENDMDL
MODEL 2
REMARK VINA RESULT: -5.527847507      1.651      2.347
REMARK  3 active torsions:
REMARK  status: ('A' for Active; 'I' for Inactive)
REMARK    1  A    between atoms: O1_1  and  C1_3 
REMARK    2  A    between atoms: C7_11  and  O3_12 
REMARK    3  A    between atoms: C10_16  and  O4_17 
ROOT
HETATM    1  C1  UNL     1      11.186 -17.894   2.765  1.00  0.00     0.188 C 
HETATM    2  C2  UNL     1      11.108 -18.412   1.378  1.00  0.00     0.195 A 
HETATM    3  O2  UNL     1       9.838 -18.167   0.823  1.00  0.00    -0.370 OA
HETATM    4  C3  UNL     1       9.632 -19.522   0.743  1.00  0.00     0.177 A 
HETATM    5  C4  UNL     1       8.473 -20.054   1.475  1.00  0.00     0.090 C 
HETATM    6 BR1  UNL     1       8.556 -22.005   1.271  1.00  0.00    -0.088 Br
HETATM    7  C5  UNL     1       8.263 -19.731   2.869  1.00  0.00     0.022 C 
HETATM    8  C6  UNL     1       8.912 -18.525   3.445  1.00  0.00     0.046 C 
HETATM    9  C7  UNL     1      10.383 -18.724   3.725  1.00  0.00     0.104 C 
HETATM   10  C8  UNL     1      10.765 -20.172   3.663  1.00  0.00     0.012 C 
HETATM   11  C9  UNL     1      11.034 -20.659   2.459  1.00  0.00     0.015 C 
HETATM   12  C10 UNL     1      10.977 -19.881   1.239  1.00  0.00     0.131 A 
ENDROOT
BRANCH   1  13
HETATM   13  O1  UNL     1      12.516 -17.831   3.176  1.00  0.00    -0.390 OA
ATOM     14  H1  UNL     1      12.688 -18.501   3.827  1.00  0.00     0.210 HD
ENDBRANCH   1  13
BRANCH   9  15
HETATM   15  O3  UNL     1      10.734 -18.298   5.020  1.00  0.00    -0.383 OA
ATOM     16  H3  UNL     1      11.664 -18.465   5.118  1.00  0.00     0.211 HD
ENDBRANCH   9  15
BRANCH  12  17
HETATM   17  O4  UNL     1      11.874 -20.353   0.252  1.00  0.00    -0.380 OA
ATOM     18  H4  UNL     1      12.393 -19.631  -0.084  1.00  0.00     0.211 HD
ENDBRANCH  12  17
TORSDOF 3
ENDMDL
MODEL 3
REMARK VINA RESULT: -5.328993171      1.444      2.469
REMARK  3 active torsions:
REMARK  status: ('A' for Active; 'I' for Inactive)
REMARK    1  A    between atoms: O1_1  and  C1_3 
REMARK    2  A    between atoms: C7_11  and  O3_12 
REMARK    3  A    between atoms: C10_16  and  O4_17 
ROOT
HETATM    1  C1  UNL     1      10.817 -19.794   5.451  1.00  0.00     0.188 C 
HETATM    2  C2  UNL     1       9.352 -19.812   5.218  1.00  0.00     0.195 A 
HETATM    3  O2  UNL     1       8.965 -20.992   4.557  1.00  0.00    -0.370 OA
HETATM    4  C3  UNL     1       8.560 -20.237   3.484  1.00  0.00     0.177 A 
HETATM    5  C4  UNL     1       9.211 -20.523   2.197  1.00  0.00     0.090 C 
HETATM    6 BR1  UNL     1       8.518 -19.190   0.934  1.00  0.00    -0.088 Br
HETATM    7  C5  UNL     1      10.653 -20.574   2.090  1.00  0.00     0.022 C 
HETATM    8  C6  UNL     1      11.469 -20.806   3.310  1.00  0.00     0.046 C 
HETATM    9  C7  UNL     1      11.588 -19.578   4.181  1.00  0.00     0.104 C 
HETATM   10  C8  UNL     1      11.138 -18.344   3.459  1.00  0.00     0.012 C 
HETATM   11  C9  UNL     1       9.836 -18.098   3.470  1.00  0.00     0.015 C 
HETATM   12  C10 UNL     1       8.857 -18.940   4.127  1.00  0.00     0.131 A 
ENDROOT
BRANCH   1  13
HETATM   13  O1  UNL     1      11.138 -18.813   6.386  1.00  0.00    -0.390 OA
ATOM     14  H1  UNL     1      12.008 -18.969   6.736  1.00  0.00     0.210 HD
ENDBRANCH   1  13
BRANCH   9  15
HETATM   15  O3  UNL     1      12.922 -19.327   4.556  1.00  0.00    -0.383 OA
ATOM     16  H3  UNL     1      13.449 -19.431   3.773  1.00  0.00     0.211 HD
ENDBRANCH   9  15
BRANCH  12  17
HETATM   17  O4  UNL     1       7.724 -18.215   4.566  1.00  0.00    -0.380 OA
ATOM     18  H4  UNL     1       7.374 -18.611   5.356  1.00  0.00     0.211 HD
ENDBRANCH  12  17
TORSDOF 3
ENDMDL
MODEL 4
REMARK VINA RESULT: -5.284501388      1.647      3.084
REMARK  3 active torsions:
REMARK  status: ('A' for Active; 'I' for Inactive)
REMARK    1  A    between atoms: O1_1  and  C1_3 
REMARK    2  A    between atoms: C7_11  and  O3_12 
REMARK    3  A    between atoms: C10_16  and  O4_17 
ROOT
HETATM    1  C1  UNL     1      11.447 -19.274   4.958  1.00  0.00     0.188 C 
HETATM    2  C2  UNL     1      10.747 -20.440   4.366  1.00  0.00     0.195 A 
HETATM    3  O2  UNL     1      11.340 -20.813   3.146  1.00  0.00    -0.370 OA
HETATM    4  C3  UNL     1      10.170 -20.495   2.501  1.00  0.00     0.177 A 
HETATM    5  C4  UNL     1      10.255 -19.461   1.459  1.00  0.00     0.090 C 
HETATM    6 BR1  UNL     1       8.413 -19.152   0.855  1.00  0.00    -0.088 Br
HETATM    7  C5  UNL     1      10.887 -18.188   1.727  1.00  0.00     0.022 C 
HETATM    8  C6  UNL     1      11.848 -18.071   2.855  1.00  0.00     0.046 C 
HETATM    9  C7  UNL     1      11.170 -18.006   4.202  1.00  0.00     0.104 C 
HETATM   10  C8  UNL     1       9.700 -17.747   4.069  1.00  0.00     0.012 C 
HETATM   11  C9  UNL     1       8.934 -18.806   3.850  1.00  0.00     0.015 C 
HETATM   12  C10 UNL     1       9.435 -20.161   3.738  1.00  0.00     0.131 A 
ENDROOT
BRANCH   1  13
HETATM   13  O1  UNL     1      11.085 -19.129   6.295  1.00  0.00    -0.390 OA
ATOM     14  H1  UNL     1      10.444 -18.434   6.385  1.00  0.00     0.210 HD
ENDBRANCH   1  13
BRANCH   9  15
HETATM   15  O3  UNL     1      11.667 -16.950   4.990  1.00  0.00    -0.383 OA
ATOM     16  H3  UNL     1      11.619 -16.166   4.456  1.00  0.00     0.211 HD
ENDBRANCH   9  15
BRANCH  12  17
HETATM   17  O4  UNL     1       8.488 -21.126   4.153  1.00  0.00    -0.380 OA
ATOM     18  H4  UNL     1       8.219 -21.655   3.410  1.00  0.00     0.211 HD
ENDBRANCH  12  17
TORSDOF 3
ENDMDL
MODEL 5
REMARK VINA RESULT: -5.201501980      2.849      4.141
REMARK  3 active torsions:
REMARK  status: ('A' for Active; 'I' for Inactive)
REMARK    1  A    between atoms: O1_1  and  C1_3 
REMARK    2  A    between atoms: C7_11  and  O3_12 
REMARK    3  A    between atoms: C10_16  and  O4_17 
ROOT
HETATM    1  C1  UNL     1      10.002 -21.650   0.614  1.00  0.00     0.188 C 
HETATM    2  C2  UNL     1      10.990 -20.812   1.336  1.00  0.00     0.195 A 
HETATM    3  O2  UNL     1      11.056 -21.174   2.693  1.00  0.00    -0.370 OA
HETATM    4  C3  UNL     1      10.591 -19.927   3.031  1.00  0.00     0.177 A 
HETATM    5  C4  UNL     1       9.336 -19.878   3.794  1.00  0.00     0.090 C 
HETATM    6 BR1  UNL     1       8.890 -17.975   3.978  1.00  0.00    -0.088 Br
HETATM    7  C5  UNL     1       8.165 -20.599   3.344  1.00  0.00     0.022 C 
HETATM    8  C6  UNL     1       8.326 -21.741   2.406  1.00  0.00     0.046 C 
HETATM    9  C7  UNL     1       8.588 -21.304   0.985  1.00  0.00     0.104 C 
HETATM   10  C8  UNL     1       8.304 -19.844   0.795  1.00  0.00     0.012 C 
HETATM   11  C9  UNL     1       9.280 -19.008   1.123  1.00  0.00     0.015 C 
HETATM   12  C10 UNL     1      10.567 -19.426   1.641  1.00  0.00     0.131 A 
ENDROOT
BRANCH   1  13
HETATM   13  O1  UNL     1      10.185 -21.525  -0.761  1.00  0.00    -0.390 OA
ATOM     14  H1  UNL     1      11.077 -21.256  -0.948  1.00  0.00     0.210 HD
ENDBRANCH   1  13
BRANCH   9  15
HETATM   15  O3  UNL     1       7.755 -21.971   0.067  1.00  0.00    -0.383 OA
ATOM     16  H3  UNL     1       8.080 -22.861   0.001  1.00  0.00     0.211 HD
ENDBRANCH   9  15
BRANCH  12  17
HETATM   17  O4  UNL     1      11.604 -18.522   1.310  1.00  0.00    -0.380 OA
ATOM     18  H4  UNL     1      11.481 -17.704   1.779  1.00  0.00     0.211 HD
ENDBRANCH  12  17
TORSDOF 3
ENDMDL
