MODEL 1
REMARK VINA RESULT: -6.357911023      0.000      0.000
REMARK  2 active torsions:
REMARK  status: ('A' for Active; 'I' for Inactive)
REMARK    1  A    between atoms: N2_5  and  C4_6 
REMARK    2  A    between atoms: C4_6  and  O1_7 
ROOT
HETATM    1  C4  UNL     1      10.703 -18.880   1.719  1.00  0.00     0.355 C 
HETATM    2  N3  UNL     1      11.274 -19.782   2.702  1.00  0.00    -0.322 N 
ATOM      3  H3  UNL     1      11.861 -20.570   2.428  1.00  0.00     0.165 HD
HETATM    4  C5  UNL     1      10.976 -19.512   4.068  1.00  0.00     0.074 C 
HETATM    5  N4  UNL     1      11.492 -20.189   5.031  1.00  0.00    -0.389 N 
ATOM      6  H41 UNL     1      11.278 -19.996   6.010  1.00  0.00     0.157 HD
ATOM      7  H42 UNL     1      12.144 -20.955   4.861  1.00  0.00     0.157 HD
HETATM    8  C6  UNL     1      10.017 -18.386   4.318  1.00  0.00     0.077 C 
HETATM    9  C7  UNL     1       8.858 -18.476   3.377  1.00  0.00     0.030 C 
HETATM   10  C8  UNL     1       9.210 -18.698   1.960  1.00  0.00     0.147 C 
HETATM   11 BR1  UNL     1       8.400 -20.379   1.373  1.00  0.00    -0.084 Br
ENDROOT
BRANCH   1  12
HETATM   12  N2  UNL     1      10.810 -19.504   0.434  1.00  0.00     0.175 N 
HETATM   13  C3  UNL     1      11.297 -20.862   0.484  1.00  0.00     0.311 C 
HETATM   14  C2  UNL     1      11.531 -21.099  -1.016  1.00  0.00     0.304 C 
HETATM   15  N1  UNL     1      12.213 -19.872  -1.379  1.00  0.00     0.114 N 
HETATM   16  C1  UNL     1      11.931 -19.467  -2.743  1.00  0.00     0.312 C 
HETATM   17  C9  UNL     1      11.788 -18.865  -0.423  1.00  0.00     0.548 C 
ENDBRANCH   1  12
BRANCH   1  18
HETATM   18  O1  UNL     1      11.374 -17.655   1.754  1.00  0.00    -0.346 OA
ATOM     19  H1  UNL     1      10.802 -16.951   2.038  1.00  0.00     0.214 HD
ENDBRANCH   1  18
TORSDOF 2
ENDMDL
MODEL 2
REMARK VINA RESULT: -5.425194258      2.453      2.882
REMARK  2 active torsions:
REMARK  status: ('A' for Active; 'I' for Inactive)
REMARK    1  A    between atoms: N2_5  and  C4_6 
REMARK    2  A    between atoms: C4_6  and  O1_7 
ROOT
HETATM    1  C4  UNL     1       9.955 -19.732   2.442  1.00  0.00     0.355 C 
HETATM    2  N3  UNL     1      11.103 -19.861   3.321  1.00  0.00    -0.322 N 
ATOM      3  H3  UNL     1      11.647 -20.723   3.366  1.00  0.00     0.165 HD
HETATM    4  C5  UNL     1      11.431 -18.728   4.117  1.00  0.00     0.074 C 
HETATM    5  N4  UNL     1      12.473 -18.694   4.869  1.00  0.00    -0.389 N 
ATOM      6  H41 UNL     1      12.708 -17.881   5.439  1.00  0.00     0.157 HD
ATOM      7  H42 UNL     1      13.118 -19.482   4.930  1.00  0.00     0.157 HD
HETATM    8  C6  UNL     1      10.483 -17.568   4.027  1.00  0.00     0.077 C 
HETATM    9  C7  UNL     1       9.069 -18.052   4.088  1.00  0.00     0.030 C 
HETATM   10  C8  UNL     1       8.752 -19.192   3.205  1.00  0.00     0.147 C 
HETATM   11 BR1  UNL     1       8.150 -20.689   4.312  1.00  0.00    -0.084 Br
ENDROOT
BRANCH   1  12
HETATM   12  N2  UNL     1       9.578 -21.045   2.013  1.00  0.00     0.175 N 
HETATM   13  C3  UNL     1      10.582 -21.708   1.214  1.00  0.00     0.311 C 
HETATM   14  C2  UNL     1       9.760 -22.913   0.730  1.00  0.00     0.304 C 
HETATM   15  N1  UNL     1       8.530 -22.258   0.332  1.00  0.00     0.114 N 
HETATM   16  C1  UNL     1       7.368 -23.105   0.521  1.00  0.00     0.312 C 
HETATM   17  C9  UNL     1       8.437 -21.040   1.119  1.00  0.00     0.548 C 
ENDBRANCH   1  12
BRANCH   1  18
HETATM   18  O1  UNL     1      10.278 -18.909   1.360  1.00  0.00    -0.346 OA
ATOM     19  H1  UNL     1       9.926 -18.033   1.469  1.00  0.00     0.214 HD
ENDBRANCH   1  18
TORSDOF 2
ENDMDL
MODEL 3
REMARK VINA RESULT: -5.299103262      8.540     10.194
REMARK  2 active torsions:
REMARK  status: ('A' for Active; 'I' for Inactive)
REMARK    1  A    between atoms: N2_5  and  C4_6 
REMARK    2  A    between atoms: C4_6  and  O1_7 
ROOT
HETATM    1  C4  UNL     1       9.716 -19.786  -8.029  1.00  0.00     0.355 C 
HETATM    2  N3  UNL     1       9.777 -21.121  -7.464  1.00  0.00    -0.322 N 
ATOM      3  H3  UNL     1      10.341 -21.327  -6.639  1.00  0.00     0.165 HD
HETATM    4  C5  UNL     1       9.014 -22.128  -8.119  1.00  0.00     0.074 C 
HETATM    5  N4  UNL     1       8.923 -23.327  -7.663  1.00  0.00    -0.389 N 
ATOM      6  H41 UNL     1       8.376 -24.049  -8.133  1.00  0.00     0.157 HD
ATOM      7  H42 UNL     1       9.396 -23.614  -6.806  1.00  0.00     0.157 HD
HETATM    8  C6  UNL     1       8.318 -21.707  -9.380  1.00  0.00     0.077 C 
HETATM    9  C7  UNL     1       9.243 -20.897 -10.232  1.00  0.00     0.030 C 
HETATM   10  C8  UNL     1       9.974 -19.823  -9.530  1.00  0.00     0.147 C 
HETATM   11 BR1  UNL     1      11.893 -20.162  -9.699  1.00  0.00    -0.084 Br
ENDROOT
BRANCH   1  12
HETATM   12  N2  UNL     1      10.794 -19.022  -7.475  1.00  0.00     0.175 N 
HETATM   13  C3  UNL     1      11.057 -19.309  -6.084  1.00  0.00     0.311 C 
HETATM   14  C2  UNL     1      12.039 -18.168  -5.776  1.00  0.00     0.304 C 
HETATM   15  N1  UNL     1      11.350 -17.048  -6.385  1.00  0.00     0.114 N 
HETATM   16  C1  UNL     1      12.268 -16.048  -6.896  1.00  0.00     0.312 C 
HETATM   17  C9  UNL     1      10.518 -17.600  -7.441  1.00  0.00     0.548 C 
ENDBRANCH   1  12
BRANCH   1  18
HETATM   18  O1  UNL     1       8.476 -19.208  -7.743  1.00  0.00    -0.346 OA
ATOM     19  H1  UNL     1       7.960 -19.756  -7.163  1.00  0.00     0.214 HD
ENDBRANCH   1  18
TORSDOF 2
ENDMDL
MODEL 4
REMARK VINA RESULT: -5.050520416      6.469      9.389
REMARK  2 active torsions:
REMARK  status: ('A' for Active; 'I' for Inactive)
REMARK    1  A    between atoms: N2_5  and  C4_6 
REMARK    2  A    between atoms: C4_6  and  O1_7 
ROOT
HETATM    1  C4  UNL     1      11.086 -19.277  -6.731  1.00  0.00     0.355 C 
HETATM    2  N3  UNL     1      12.056 -19.510  -7.784  1.00  0.00    -0.322 N 
ATOM      3  H3  UNL     1      13.012 -19.161  -7.718  1.00  0.00     0.165 HD
HETATM    4  C5  UNL     1      11.608 -20.250  -8.915  1.00  0.00     0.074 C 
HETATM    5  N4  UNL     1      12.397 -20.591  -9.871  1.00  0.00    -0.389 N 
ATOM      6  H41 UNL     1      12.075 -21.121 -10.681  1.00  0.00     0.157 HD
ATOM      7  H42 UNL     1      13.388 -20.347  -9.863  1.00  0.00     0.157 HD
HETATM    8  C6  UNL     1      10.151 -20.610  -8.926  1.00  0.00     0.077 C 
HETATM    9  C7  UNL     1       9.326 -19.431  -8.517  1.00  0.00     0.030 C 
HETATM   10  C8  UNL     1       9.789 -18.724  -7.306  1.00  0.00     0.147 C 
HETATM   11 BR1  UNL     1      10.204 -16.874  -7.786  1.00  0.00    -0.084 Br
ENDROOT
BRANCH   1  12
HETATM   12  N2  UNL     1      11.598 -18.244  -5.881  1.00  0.00     0.175 N 
HETATM   13  C3  UNL     1      12.908 -17.770  -6.262  1.00  0.00     0.311 C 
HETATM   14  C2  UNL     1      13.232 -16.912  -5.030  1.00  0.00     0.304 C 
HETATM   15  N1  UNL     1      12.836 -17.812  -3.964  1.00  0.00     0.114 N 
HETATM   16  C1  UNL     1      12.343 -17.102  -2.799  1.00  0.00     0.312 C 
HETATM   17  C9  UNL     1      11.826 -18.693  -4.522  1.00  0.00     0.548 C 
ENDBRANCH   1  12
BRANCH   1  18
HETATM   18  O1  UNL     1      10.861 -20.461  -6.024  1.00  0.00    -0.346 OA
ATOM     19  H1  UNL     1      11.450 -20.544  -5.283  1.00  0.00     0.214 HD
ENDBRANCH   1  18
TORSDOF 2
ENDMDL
MODEL 5
REMARK VINA RESULT: -4.989308506      1.821      5.028
REMARK  2 active torsions:
REMARK  status: ('A' for Active; 'I' for Inactive)
REMARK    1  A    between atoms: N2_5  and  C4_6 
REMARK    2  A    between atoms: C4_6  and  O1_7 
ROOT
HETATM    1  C4  UNL     1      10.364 -20.156   1.928  1.00  0.00     0.355 C 
HETATM    2  N3  UNL     1      10.589 -19.043   1.024  1.00  0.00    -0.322 N 
ATOM      3  H3  UNL     1      10.159 -18.131   1.181  1.00  0.00     0.165 HD
HETATM    4  C5  UNL     1      11.437 -19.287  -0.092  1.00  0.00     0.074 C 
HETATM    5  N4  UNL     1      11.777 -18.358  -0.914  1.00  0.00    -0.389 N 
ATOM      6  H41 UNL     1      12.385 -18.533  -1.714  1.00  0.00     0.157 HD
ATOM      7  H42 UNL     1      11.453 -17.397  -0.803  1.00  0.00     0.157 HD
HETATM    8  C6  UNL     1      11.914 -20.700  -0.256  1.00  0.00     0.077 C 
HETATM    9  C7  UNL     1      10.781 -21.654  -0.045  1.00  0.00     0.030 C 
HETATM   10  C8  UNL     1       9.958 -21.404   1.155  1.00  0.00     0.147 C 
HETATM   11 BR1  UNL     1       8.117 -21.064   0.589  1.00  0.00    -0.084 Br
ENDROOT
BRANCH   1  12
HETATM   12  N2  UNL     1       9.238 -19.834   2.753  1.00  0.00     0.175 N 
HETATM   13  C3  UNL     1       9.229 -18.468   3.221  1.00  0.00     0.311 C 
HETATM   14  C2  UNL     1       8.086 -18.561   4.243  1.00  0.00     0.304 C 
HETATM   15  N1  UNL     1       8.442 -19.785   4.934  1.00  0.00     0.114 N 
HETATM   16  C1  UNL     1       7.278 -20.508   5.410  1.00  0.00     0.312 C 
HETATM   17  C9  UNL     1       9.218 -20.577   3.996  1.00  0.00     0.548 C 
ENDBRANCH   1  12
BRANCH   1  18
HETATM   18  O1  UNL     1      11.512 -20.384   2.691  1.00  0.00    -0.346 OA
ATOM     19  H1  UNL     1      11.976 -21.161   2.401  1.00  0.00     0.214 HD
ENDBRANCH   1  18
TORSDOF 2
ENDMDL
