MODEL 1
REMARK VINA RESULT: -6.049444592      0.000      0.000
REMARK  3 active torsions:
REMARK  status: ('A' for Active; 'I' for Inactive)
REMARK    1  A    between atoms: C4_4  and  O1_6 
REMARK    2  A    between atoms: C9_11  and  O2_12 
REMARK    3  A    between atoms: C11_17  and  O3_18 
ROOT
HETATM    1  C1  UNL     1      11.243 -18.622  -0.124  1.00  0.00     0.014 C 
HETATM    2  C2  UNL     1      11.268 -19.789   0.863  1.00  0.00     0.029 C 
HETATM    3  C3  UNL     1      10.475 -20.900   0.249  1.00  0.00     0.045 C 
HETATM    4  C4  UNL     1       9.471 -21.368   1.288  1.00  0.00     0.061 C 
HETATM    5  C5  UNL     1       8.056 -21.109   0.885  1.00  0.00     0.046 C 
HETATM    6  C6  UNL     1       9.897 -20.731   2.553  1.00  0.00     0.065 C 
HETATM    7  C7  UNL     1       8.801 -20.353   3.492  1.00  0.00     0.020 C 
HETATM    8  C8  UNL     1       9.430 -19.672   4.681  1.00  0.00     0.046 C 
HETATM    9  C9  UNL     1      10.282 -20.683   5.415  1.00  0.00     0.214 C 
HETATM   10  N1  UNL     1      11.644 -20.228   5.220  1.00  0.00    -0.196 NA
HETATM   11  C10 UNL     1      11.574 -18.864   5.161  1.00  0.00     0.182 A 
HETATM   12  N2  UNL     1      12.050 -19.699   4.033  1.00  0.00    -0.187 NA
HETATM   13  C11 UNL     1      11.290 -18.852   3.198  1.00  0.00     0.176 C 
HETATM   14  C12 UNL     1      10.350 -18.561   4.340  1.00  0.00     0.044 C 
HETATM   15  C13 UNL     1       9.797 -17.189   4.429  1.00  0.00     0.023 C 
HETATM   16  C14 UNL     1      10.516 -19.424   2.078  1.00  0.00     0.160 C 
HETATM   17  F1  UNL     1       9.492 -18.527   1.763  1.00  0.00    -0.237 F 
ENDROOT
BRANCH   4  18
HETATM   18  O1  UNL     1       9.622 -22.774   1.350  1.00  0.00    -0.390 OA
ATOM     19  H1  UNL     1       8.861 -23.089   1.825  1.00  0.00     0.210 HD
ENDBRANCH   4  18
BRANCH  13  20
HETATM   20  O3  UNL     1      12.018 -17.687   2.901  1.00  0.00    -0.370 OA
ATOM     21  H3  UNL     1      12.172 -17.626   1.966  1.00  0.00     0.212 HD
ENDBRANCH  13  20
BRANCH   9  22
HETATM   22  O2  UNL     1      10.001 -20.524   6.780  1.00  0.00    -0.379 OA
ATOM     23  H2  UNL     1      10.753 -20.865   7.251  1.00  0.00     0.211 HD
ENDBRANCH   9  22
TORSDOF 3
ENDMDL
MODEL 2
REMARK VINA RESULT: -5.739720214      1.904      4.774
REMARK  3 active torsions:
REMARK  status: ('A' for Active; 'I' for Inactive)
REMARK    1  A    between atoms: C4_4  and  O1_6 
REMARK    2  A    between atoms: C9_11  and  O2_12 
REMARK    3  A    between atoms: C11_17  and  O3_18 
ROOT
HETATM    1  C1  UNL     1       8.694 -20.666   5.401  1.00  0.00     0.014 C 
HETATM    2  C2  UNL     1      10.035 -20.589   4.673  1.00  0.00     0.029 C 
HETATM    3  C3  UNL     1      10.914 -19.674   5.467  1.00  0.00     0.045 C 
HETATM    4  C4  UNL     1      11.486 -18.647   4.505  1.00  0.00     0.061 C 
HETATM    5  C5  UNL     1      11.013 -17.259   4.789  1.00  0.00     0.046 C 
HETATM    6  C6  UNL     1      11.168 -19.162   3.155  1.00  0.00     0.065 C 
HETATM    7  C7  UNL     1      10.887 -18.129   2.116  1.00  0.00     0.020 C 
HETATM    8  C8  UNL     1      10.529 -18.849   0.840  1.00  0.00     0.046 C 
HETATM    9  C9  UNL     1      11.748 -19.605   0.361  1.00  0.00     0.214 C 
HETATM   10  N1  UNL     1      11.397 -21.004   0.514  1.00  0.00    -0.196 NA
HETATM   11  C10 UNL     1      10.050 -21.073   0.293  1.00  0.00     0.182 A 
HETATM   12  N2  UNL     1      10.676 -21.438   1.585  1.00  0.00    -0.187 NA
HETATM   13  C11 UNL     1       9.606 -20.754   2.199  1.00  0.00     0.176 C 
HETATM   14  C12 UNL     1       9.466 -19.871   0.984  1.00  0.00     0.044 C 
HETATM   15  C13 UNL     1       8.096 -19.465   0.597  1.00  0.00     0.023 C 
HETATM   16  C14 UNL     1       9.858 -19.903   3.380  1.00  0.00     0.160 C 
HETATM   17  F1  UNL     1       8.819 -18.972   3.465  1.00  0.00    -0.237 F 
ENDROOT
BRANCH   4  18
HETATM   18  O1  UNL     1      12.883 -18.654   4.735  1.00  0.00    -0.390 OA
ATOM     19  H1  UNL     1      13.173 -19.529   4.500  1.00  0.00     0.210 HD
ENDBRANCH   4  18
BRANCH  13  20
HETATM   20  O3  UNL     1       8.481 -21.592   2.283  1.00  0.00    -0.370 OA
ATOM     21  H3  UNL     1       7.844 -21.226   2.885  1.00  0.00     0.212 HD
ENDBRANCH  13  20
BRANCH   9  22
HETATM   22  O2  UNL     1      11.847 -19.369  -1.018  1.00  0.00    -0.379 OA
ATOM     23  H2  UNL     1      10.992 -19.562  -1.387  1.00  0.00     0.211 HD
ENDBRANCH   9  22
TORSDOF 3
ENDMDL
MODEL 3
REMARK VINA RESULT: -5.577864978      9.481     10.895
REMARK  3 active torsions:
REMARK  status: ('A' for Active; 'I' for Inactive)
REMARK    1  A    between atoms: C4_4  and  O1_6 
REMARK    2  A    between atoms: C9_11  and  O2_12 
REMARK    3  A    between atoms: C11_17  and  O3_18 
ROOT
HETATM    1  C1  UNL     1       7.787 -21.676  -9.893  1.00  0.00     0.014 C 
HETATM    2  C2  UNL     1       8.984 -21.967  -8.989  1.00  0.00     0.029 C 
HETATM    3  C3  UNL     1       8.561 -23.036  -8.030  1.00  0.00     0.045 C 
HETATM    4  C4  UNL     1       8.914 -22.556  -6.633  1.00  0.00     0.061 C 
HETATM    5  C5  UNL     1       7.711 -22.324  -5.778  1.00  0.00     0.046 C 
HETATM    6  C6  UNL     1       9.785 -21.378  -6.836  1.00  0.00     0.065 C 
HETATM    7  C7  UNL     1       9.662 -20.296  -5.817  1.00  0.00     0.020 C 
HETATM    8  C8  UNL     1      10.578 -19.171  -6.231  1.00  0.00     0.046 C 
HETATM    9  C9  UNL     1      12.006 -19.663  -6.151  1.00  0.00     0.214 C 
HETATM   10  N1  UNL     1      12.458 -19.706  -7.527  1.00  0.00    -0.196 NA
HETATM   11  C10 UNL     1      11.807 -18.686  -8.163  1.00  0.00     0.182 A 
HETATM   12  N2  UNL     1      11.632 -20.110  -8.531  1.00  0.00    -0.187 NA
HETATM   13  C11 UNL     1      10.254 -19.823  -8.640  1.00  0.00     0.176 C 
HETATM   14  C12 UNL     1      10.400 -18.713  -7.629  1.00  0.00     0.044 C 
HETATM   15  C13 UNL     1       9.575 -17.500  -7.832  1.00  0.00     0.023 C 
HETATM   16  C14 UNL     1       9.260 -20.794  -8.140  1.00  0.00     0.160 C 
HETATM   17  F1  UNL     1       8.076 -20.097  -7.878  1.00  0.00    -0.237 F 
ENDROOT
BRANCH   4  18
HETATM   18  O1  UNL     1       9.632 -23.623  -6.040  1.00  0.00    -0.390 OA
ATOM     19  H1  UNL     1       8.985 -24.123  -5.555  1.00  0.00     0.210 HD
ENDBRANCH   4  18
BRANCH  13  20
HETATM   20  O3  UNL     1       9.975 -19.260  -9.896  1.00  0.00    -0.370 OA
ATOM     21  H3  UNL     1       9.988 -18.311  -9.840  1.00  0.00     0.212 HD
ENDBRANCH  13  20
BRANCH   9  22
HETATM   22  O2  UNL     1      12.742 -18.648  -5.521  1.00  0.00    -0.379 OA
ATOM     23  H2  UNL     1      13.069 -18.085  -6.213  1.00  0.00     0.211 HD
ENDBRANCH   9  22
TORSDOF 3
ENDMDL
MODEL 4
REMARK VINA RESULT: -5.044170552      9.667     11.823
REMARK  3 active torsions:
REMARK  status: ('A' for Active; 'I' for Inactive)
REMARK    1  A    between atoms: C4_4  and  O1_6 
REMARK    2  A    between atoms: C9_11  and  O2_12 
REMARK    3  A    between atoms: C11_17  and  O3_18 
ROOT
HETATM    1  C1  UNL     1      10.774 -18.745  -6.069  1.00  0.00     0.014 C 
HETATM    2  C2  UNL     1      11.064 -19.965  -6.942  1.00  0.00     0.029 C 
HETATM    3  C3  UNL     1      11.885 -19.491  -8.101  1.00  0.00     0.045 C 
HETATM    4  C4  UNL     1      11.224 -20.010  -9.366  1.00  0.00     0.061 C 
HETATM    5  C5  UNL     1      10.688 -18.917 -10.231  1.00  0.00     0.046 C 
HETATM    6  C6  UNL     1      10.228 -21.001  -8.905  1.00  0.00     0.065 C 
HETATM    7  C7  UNL     1       8.979 -21.093  -9.716  1.00  0.00     0.020 C 
HETATM    8  C8  UNL     1       8.076 -22.104  -9.055  1.00  0.00     0.046 C 
HETATM    9  C9  UNL     1       8.736 -23.462  -9.143  1.00  0.00     0.214 C 
HETATM   10  N1  UNL     1       9.075 -23.796  -7.774  1.00  0.00    -0.196 NA
HETATM   11  C10 UNL     1       8.101 -23.226  -7.002  1.00  0.00     0.182 A 
HETATM   12  N2  UNL     1       9.531 -22.849  -6.908  1.00  0.00    -0.187 NA
HETATM   13  C11 UNL     1       9.083 -21.513  -6.826  1.00  0.00     0.176 C 
HETATM   14  C12 UNL     1       7.846 -21.874  -7.610  1.00  0.00     0.044 C 
HETATM   15  C13 UNL     1       6.586 -21.190  -7.237  1.00  0.00     0.023 C 
HETATM   16  C14 UNL     1       9.810 -20.449  -7.549  1.00  0.00     0.160 C 
HETATM   17  F1  UNL     1       8.926 -19.385  -7.746  1.00  0.00    -0.237 F 
ENDROOT
BRANCH   4  18
HETATM   18  O1  UNL     1      12.261 -20.636 -10.101  1.00  0.00    -0.390 OA
ATOM     19  H1  UNL     1      13.067 -20.255  -9.773  1.00  0.00     0.210 HD
ENDBRANCH   4  18
BRANCH  13  20
HETATM   20  O3  UNL     1       8.712 -21.207  -5.506  1.00  0.00    -0.370 OA
ATOM     21  H3  UNL     1       7.856 -20.793  -5.495  1.00  0.00     0.212 HD
ENDBRANCH  13  20
BRANCH   9  22
HETATM   22  O2  UNL     1       7.737 -24.365  -9.536  1.00  0.00    -0.379 OA
ATOM     23  H2  UNL     1       8.178 -25.178  -9.753  1.00  0.00     0.211 HD
ENDBRANCH   9  22
TORSDOF 3
ENDMDL
MODEL 5
REMARK VINA RESULT: -4.649944184      5.446      7.697
REMARK  3 active torsions:
REMARK  status: ('A' for Active; 'I' for Inactive)
REMARK    1  A    between atoms: C4_4  and  O1_6 
REMARK    2  A    between atoms: C9_11  and  O2_12 
REMARK    3  A    between atoms: C11_17  and  O3_18 
ROOT
HETATM    1  C1  UNL     1       7.088 -24.115  -2.396  1.00  0.00     0.014 C 
HETATM    2  C2  UNL     1       7.234 -24.338  -0.891  1.00  0.00     0.029 C 
HETATM    3  C3  UNL     1       7.508 -23.001  -0.274  1.00  0.00     0.045 C 
HETATM    4  C4  UNL     1       8.731 -23.154   0.612  1.00  0.00     0.061 C 
HETATM    5  C5  UNL     1       9.901 -22.361   0.127  1.00  0.00     0.046 C 
HETATM    6  C6  UNL     1       8.954 -24.612   0.718  1.00  0.00     0.065 C 
HETATM    7  C7  UNL     1      10.377 -25.047   0.821  1.00  0.00     0.020 C 
HETATM    8  C8  UNL     1      10.395 -26.555   0.859  1.00  0.00     0.046 C 
HETATM    9  C9  UNL     1       9.724 -27.008   2.136  1.00  0.00     0.214 C 
HETATM   10  N1  UNL     1       8.502 -27.654   1.701  1.00  0.00    -0.196 NA
HETATM   11  C10 UNL     1       8.793 -28.221   0.491  1.00  0.00     0.182 A 
HETATM   12  N2  UNL     1       7.772 -27.160   0.662  1.00  0.00    -0.187 NA
HETATM   13  C11 UNL     1       8.291 -26.591  -0.521  1.00  0.00     0.176 C 
HETATM   14  C12 UNL     1       9.637 -27.208  -0.234  1.00  0.00     0.044 C 
HETATM   15  C13 UNL     1      10.422 -27.687  -1.395  1.00  0.00     0.023 C 
HETATM   16  C14 UNL     1       8.451 -25.126  -0.623  1.00  0.00     0.160 C 
HETATM   17  F1  UNL     1       9.419 -24.869  -1.598  1.00  0.00    -0.237 F 
ENDROOT
BRANCH   4  18
HETATM   18  O1  UNL     1       8.360 -22.604   1.863  1.00  0.00    -0.390 OA
ATOM     19  H1  UNL     1       9.178 -22.415   2.308  1.00  0.00     0.210 HD
ENDBRANCH   4  18
BRANCH  13  20
HETATM   20  O3  UNL     1       7.733 -27.222  -1.646  1.00  0.00    -0.370 OA
ATOM     21  H3  UNL     1       8.401 -27.708  -2.114  1.00  0.00     0.212 HD
ENDBRANCH  13  20
BRANCH   9  22
HETATM   22  O2  UNL     1      10.536 -28.016   2.676  1.00  0.00    -0.379 OA
ATOM     23  H2  UNL     1      11.239 -28.159   2.052  1.00  0.00     0.211 HD
ENDBRANCH   9  22
TORSDOF 3
ENDMDL
