MODEL 1
REMARK VINA RESULT: -7.709752688      0.000      0.000
REMARK  12 active torsions:
REMARK  status: ('A' for Active; 'I' for Inactive)
REMARK    1  A    between atoms: C3_3  and  N1_4 
REMARK    2  A    between atoms: C6_7  and  C7_8 
REMARK    3  A    between atoms: C14_16  and  O2_17 
REMARK    4  A    between atoms: O2_17  and  C15_18 
REMARK    5  A    between atoms: C16_20  and  C17_21 
REMARK    6  A    between atoms: C17_21  and  O4_22 
REMARK    7  A    between atoms: C19_24  and  O5_25 
REMARK    8  A    between atoms: C20_27  and  O6_28 
REMARK    9  A    between atoms: C21_30  and  C22_31 
REMARK   10  A    between atoms: N2_34  and  C23_35 
REMARK   11  A    between atoms: C23_35  and  O9_36 
REMARK   12  A    between atoms: C23_35  and  C24_38 
ROOT
HETATM    1  C1  UNL     1      20.535 -14.408  26.561  1.00  0.00     0.013 C 
HETATM    2  C2  UNL     1      20.586 -14.324  25.359  1.00  0.00    -0.089 C 
HETATM    3  C3  UNL     1      20.645 -14.248  23.899  1.00  0.00     0.330 C 
ENDROOT
BRANCH   3   4
HETATM    4  N1  UNL     1      19.479 -14.902  23.308  1.00  0.00    -0.055 N 
HETATM    5  C4  UNL     1      19.822 -15.965  22.432  1.00  0.00     0.239 C 
HETATM    6  C5  UNL     1      18.817 -17.130  22.450  1.00  0.00     0.039 C 
HETATM    7  C6  UNL     1      17.381 -16.555  22.617  1.00  0.00    -0.014 C 
HETATM    8  C9  UNL     1      17.433 -16.083  24.088  1.00  0.00     0.039 C 
HETATM    9  C11 UNL     1      17.188 -15.492  21.644  1.00  0.00     0.131 C 
HETATM   10  C10 UNL     1      18.609 -15.244  24.401  1.00  0.00     0.239 C 
HETATM   11  C12 UNL     1      17.394 -14.130  22.290  1.00  0.00     0.175 C 
HETATM   12  N2  UNL     1      15.887 -15.379  20.960  1.00  0.00    -0.316 N 
HETATM   13  C13 UNL     1      18.859 -13.840  22.481  1.00  0.00     0.272 C 
HETATM   14  O1  UNL     1      16.881 -13.181  21.420  1.00  0.00    -0.346 OA
HETATM   15  C14 UNL     1      15.480 -13.124  21.752  1.00  0.00     0.321 C 
HETATM   16  C21 UNL     1      14.969 -14.522  21.659  1.00  0.00     0.146 C 
BRANCH   7  17
HETATM   17  C7  UNL     1      16.450 -17.716  22.536  1.00  0.00     0.007 C 
HETATM   18  C8  UNL     1      15.739 -18.040  23.828  1.00  0.00     0.006 C 
ENDBRANCH   7  17
BRANCH  15  19
HETATM   19  O2  UNL     1      14.971 -12.164  20.944  1.00  0.00    -0.323 OA
BRANCH  19  20
HETATM   20  C15 UNL     1      14.213 -11.213  21.598  1.00  0.00     0.295 C 
HETATM   21  O3  UNL     1      13.814 -11.493  22.870  1.00  0.00    -0.348 OA
HETATM   22  C16 UNL     1      12.730 -10.600  23.067  1.00  0.00     0.179 C 
HETATM   23  C19 UNL     1      11.886 -11.001  21.879  1.00  0.00     0.182 C 
HETATM   24  C20 UNL     1      12.935 -11.017  20.775  1.00  0.00     0.204 C 
BRANCH  22  25
HETATM   25  C17 UNL     1      12.050 -10.846  24.374  1.00  0.00     0.201 C 
BRANCH  25  26
HETATM   26  O4  UNL     1      11.311  -9.747  24.808  1.00  0.00    -0.393 OA
HETATM   27  C18 UNL     1      12.160  -8.644  24.773  1.00  0.00     0.201 C 
ENDBRANCH  25  26
ENDBRANCH  22  25
BRANCH  23  28
HETATM   28  O5  UNL     1      11.481 -12.311  22.088  1.00  0.00    -0.390 OA
ATOM     29  H5  UNL     1      12.110 -12.872  21.649  1.00  0.00     0.210 HD
ENDBRANCH  23  28
BRANCH  24  30
HETATM   30  O6  UNL     1      12.930  -9.768  20.138  1.00  0.00    -0.388 OA
ATOM     31  H6  UNL     1      12.043  -9.470  19.976  1.00  0.00     0.210 HD
ENDBRANCH  24  30
ENDBRANCH  19  20
ENDBRANCH  15  19
BRANCH  16  32
HETATM   32  C22 UNL     1      13.559 -14.608  21.414  1.00  0.00     0.227 C 
HETATM   33  O7  UNL     1      12.751 -14.872  22.381  1.00  0.00    -0.643 OA
HETATM   34  O8  UNL     1      12.904 -14.438  20.206  1.00  0.00    -0.643 OA
ENDBRANCH  16  32
BRANCH  12  35
HETATM   35  C23 UNL     1      15.700 -15.981  19.746  1.00  0.00     0.128 C 
BRANCH  35  36
HETATM   36  O9  UNL     1      15.652 -15.121  18.737  1.00  0.00    -0.349 OA
ATOM     37  H9  UNL     1      15.157 -15.443  17.993  1.00  0.00     0.219 HD
ENDBRANCH  35  36
BRANCH  35  38
HETATM   38  C24 UNL     1      15.532 -17.340  19.266  1.00  0.00     0.169 C 
HETATM   39 BR1  UNL     1      13.881 -18.205  19.756  1.00  0.00    -0.088 Br
ENDBRANCH  35  38
ENDBRANCH  12  35
ENDBRANCH   3   4
TORSDOF 12
ENDMDL
MODEL 2
REMARK VINA RESULT: -7.344469469      2.830      6.873
REMARK  12 active torsions:
REMARK  status: ('A' for Active; 'I' for Inactive)
REMARK    1  A    between atoms: C3_3  and  N1_4 
REMARK    2  A    between atoms: C6_7  and  C7_8 
REMARK    3  A    between atoms: C14_16  and  O2_17 
REMARK    4  A    between atoms: O2_17  and  C15_18 
REMARK    5  A    between atoms: C16_20  and  C17_21 
REMARK    6  A    between atoms: C17_21  and  O4_22 
REMARK    7  A    between atoms: C19_24  and  O5_25 
REMARK    8  A    between atoms: C20_27  and  O6_28 
REMARK    9  A    between atoms: C21_30  and  C22_31 
REMARK   10  A    between atoms: N2_34  and  C23_35 
REMARK   11  A    between atoms: C23_35  and  O9_36 
REMARK   12  A    between atoms: C23_35  and  C24_38 
ROOT
HETATM    1  C1  UNL     1      12.421 -10.275  23.554  1.00  0.00     0.013 C 
HETATM    2  C2  UNL     1      13.080 -10.621  22.605  1.00  0.00    -0.089 C 
HETATM    3  C3  UNL     1      13.893 -11.057  21.470  1.00  0.00     0.330 C 
ENDROOT
BRANCH   3   4
HETATM    4  N1  UNL     1      13.838 -12.512  21.333  1.00  0.00    -0.055 N 
HETATM    5  C4  UNL     1      12.715 -13.089  21.981  1.00  0.00     0.239 C 
HETATM    6  C5  UNL     1      12.148 -14.321  21.255  1.00  0.00     0.039 C 
HETATM    7  C6  UNL     1      13.326 -15.133  20.643  1.00  0.00    -0.014 C 
HETATM    8  C9  UNL     1      13.757 -14.189  19.497  1.00  0.00     0.039 C 
HETATM    9  C11 UNL     1      14.333 -15.340  21.672  1.00  0.00     0.131 C 
HETATM   10  C10 UNL     1      13.965 -12.791  19.927  1.00  0.00     0.239 C 
HETATM   11  C12 UNL     1      15.461 -14.330  21.529  1.00  0.00     0.175 C 
HETATM   12  N2  UNL     1      15.017 -16.644  21.746  1.00  0.00    -0.316 N 
HETATM   13  C13 UNL     1      15.045 -12.981  22.053  1.00  0.00     0.272 C 
HETATM   14  O1  UNL     1      16.517 -14.782  22.305  1.00  0.00    -0.346 OA
HETATM   15  C14 UNL     1      17.224 -15.689  21.437  1.00  0.00     0.321 C 
HETATM   16  C21 UNL     1      16.219 -16.682  20.959  1.00  0.00     0.146 C 
BRANCH   7  17
HETATM   17  C7  UNL     1      12.725 -16.354  20.035  1.00  0.00     0.007 C 
HETATM   18  C8  UNL     1      13.248 -16.691  18.660  1.00  0.00     0.006 C 
ENDBRANCH   7  17
BRANCH  15  19
HETATM   19  O2  UNL     1      18.290 -16.103  22.162  1.00  0.00    -0.323 OA
BRANCH  19  20
HETATM   20  C15 UNL     1      18.557 -15.329  23.274  1.00  0.00     0.295 C 
HETATM   21  O3  UNL     1      19.815 -14.822  23.399  1.00  0.00    -0.348 OA
HETATM   22  C16 UNL     1      19.895 -14.508  24.780  1.00  0.00     0.179 C 
HETATM   23  C19 UNL     1      19.543 -15.866  25.343  1.00  0.00     0.182 C 
HETATM   24  C20 UNL     1      18.322 -16.216  24.502  1.00  0.00     0.204 C 
BRANCH  22  25
HETATM   25  C17 UNL     1      21.268 -14.058  25.159  1.00  0.00     0.201 C 
BRANCH  25  26
HETATM   26  O4  UNL     1      22.210 -14.320  24.168  1.00  0.00    -0.393 OA
HETATM   27  C18 UNL     1      23.463 -14.281  24.774  1.00  0.00     0.201 C 
ENDBRANCH  25  26
ENDBRANCH  22  25
BRANCH  23  28
HETATM   28  O5  UNL     1      20.560 -16.735  24.982  1.00  0.00    -0.390 OA
ATOM     29  H5  UNL     1      20.433 -17.537  25.477  1.00  0.00     0.210 HD
ENDBRANCH  23  28
BRANCH  24  30
HETATM   30  O6  UNL     1      17.172 -15.820  25.200  1.00  0.00    -0.388 OA
ATOM     31  H6  UNL     1      17.007 -16.392  25.940  1.00  0.00     0.210 HD
ENDBRANCH  24  30
ENDBRANCH  19  20
ENDBRANCH  15  19
BRANCH  16  32
HETATM   32  C22 UNL     1      16.789 -17.935  20.556  1.00  0.00     0.227 C 
HETATM   33  O7  UNL     1      16.512 -18.426  19.398  1.00  0.00    -0.643 OA
HETATM   34  O8  UNL     1      17.648 -18.741  21.284  1.00  0.00    -0.643 OA
ENDBRANCH  16  32
BRANCH  12  35
HETATM   35  C23 UNL     1      14.539 -17.619  22.579  1.00  0.00     0.128 C 
BRANCH  35  36
HETATM   36  O9  UNL     1      15.153 -17.649  23.755  1.00  0.00    -0.349 OA
ATOM     37  H9  UNL     1      14.787 -18.293  24.351  1.00  0.00     0.219 HD
ENDBRANCH  35  36
BRANCH  35  38
HETATM   38  C24 UNL     1      13.521 -18.650  22.508  1.00  0.00     0.169 C 
HETATM   39 BR1  UNL     1      13.746 -19.955  21.107  1.00  0.00    -0.088 Br
ENDBRANCH  35  38
ENDBRANCH  12  35
ENDBRANCH   3   4
TORSDOF 12
ENDMDL
MODEL 3
REMARK VINA RESULT: -7.302421043      2.938      5.658
REMARK  12 active torsions:
REMARK  status: ('A' for Active; 'I' for Inactive)
REMARK    1  A    between atoms: C3_3  and  N1_4 
REMARK    2  A    between atoms: C6_7  and  C7_8 
REMARK    3  A    between atoms: C14_16  and  O2_17 
REMARK    4  A    between atoms: O2_17  and  C15_18 
REMARK    5  A    between atoms: C16_20  and  C17_21 
REMARK    6  A    between atoms: C17_21  and  O4_22 
REMARK    7  A    between atoms: C19_24  and  O5_25 
REMARK    8  A    between atoms: C20_27  and  O6_28 
REMARK    9  A    between atoms: C21_30  and  C22_31 
REMARK   10  A    between atoms: N2_34  and  C23_35 
REMARK   11  A    between atoms: C23_35  and  O9_36 
REMARK   12  A    between atoms: C23_35  and  C24_38 
ROOT
HETATM    1  C1  UNL     1      21.513 -17.300  25.593  1.00  0.00     0.013 C 
HETATM    2  C2  UNL     1      20.529 -17.591  24.959  1.00  0.00    -0.089 C 
HETATM    3  C3  UNL     1      19.323 -17.925  24.202  1.00  0.00     0.330 C 
ENDROOT
BRANCH   3   4
HETATM    4  N1  UNL     1      18.796 -16.737  23.533  1.00  0.00    -0.055 N 
HETATM    5  C4  UNL     1      18.582 -15.649  24.419  1.00  0.00     0.239 C 
HETATM    6  C5  UNL     1      18.844 -14.272  23.784  1.00  0.00     0.039 C 
HETATM    7  C6  UNL     1      18.377 -14.304  22.300  1.00  0.00    -0.014 C 
HETATM    8  C9  UNL     1      19.462 -15.215  21.681  1.00  0.00     0.039 C 
HETATM    9  C11 UNL     1      17.028 -14.844  22.248  1.00  0.00     0.131 C 
HETATM   10  C10 UNL     1      19.670 -16.477  22.420  1.00  0.00     0.239 C 
HETATM   11  C12 UNL     1      17.053 -16.317  21.870  1.00  0.00     0.175 C 
HETATM   12  N2  UNL     1      16.057 -14.244  21.314  1.00  0.00    -0.316 N 
HETATM   13  C13 UNL     1      17.465 -17.166  23.044  1.00  0.00     0.272 C 
HETATM   14  O1  UNL     1      15.761 -16.673  21.519  1.00  0.00    -0.346 OA
HETATM   15  C14 UNL     1      15.669 -16.320  20.125  1.00  0.00     0.321 C 
HETATM   16  C21 UNL     1      16.060 -14.885  20.028  1.00  0.00     0.146 C 
BRANCH   7  17
HETATM   17  C7  UNL     1      18.571 -12.926  21.768  1.00  0.00     0.007 C 
HETATM   18  C8  UNL     1      19.391 -12.853  20.503  1.00  0.00     0.006 C 
ENDBRANCH   7  17
BRANCH  15  19
HETATM   19  O2  UNL     1      14.427 -16.708  19.750  1.00  0.00    -0.323 OA
BRANCH  19  20
HETATM   20  C15 UNL     1      13.755 -17.459  20.695  1.00  0.00     0.295 C 
HETATM   21  O3  UNL     1      13.141 -18.598  20.272  1.00  0.00    -0.348 OA
HETATM   22  C16 UNL     1      12.205 -18.858  21.306  1.00  0.00     0.179 C 
HETATM   23  C19 UNL     1      11.480 -17.531  21.295  1.00  0.00     0.182 C 
HETATM   24  C20 UNL     1      12.657 -16.563  21.277  1.00  0.00     0.204 C 
BRANCH  22  25
HETATM   25  C17 UNL     1      11.318 -20.009  20.964  1.00  0.00     0.201 C 
BRANCH  25  26
HETATM   26  O4  UNL     1      11.253 -20.246  19.593  1.00  0.00    -0.393 OA
HETATM   27  C18 UNL     1      10.441 -21.363  19.409  1.00  0.00     0.201 C 
ENDBRANCH  25  26
ENDBRANCH  22  25
BRANCH  23  28
HETATM   28  O5  UNL     1      10.837 -17.426  20.072  1.00  0.00    -0.390 OA
ATOM     29  H5  UNL     1      10.686 -16.501  19.912  1.00  0.00     0.210 HD
ENDBRANCH  23  28
BRANCH  24  30
HETATM   30  O6  UNL     1      12.951 -16.196  22.598  1.00  0.00    -0.388 OA
ATOM     31  H6  UNL     1      13.338 -15.329  22.634  1.00  0.00     0.210 HD
ENDBRANCH  24  30
ENDBRANCH  19  20
ENDBRANCH  15  19
BRANCH  16  32
HETATM   32  C22 UNL     1      15.527 -14.216  18.877  1.00  0.00     0.227 C 
HETATM   33  O7  UNL     1      16.315 -13.592  18.071  1.00  0.00    -0.643 OA
HETATM   34  O8  UNL     1      14.201 -14.141  18.488  1.00  0.00    -0.643 OA
ENDBRANCH  16  32
BRANCH  12  35
HETATM   35  C23 UNL     1      15.217 -13.255  21.746  1.00  0.00     0.128 C 
BRANCH  35  36
HETATM   36  O9  UNL     1      14.499 -13.603  22.806  1.00  0.00    -0.349 OA
ATOM     37  H9  UNL     1      14.108 -12.862  23.253  1.00  0.00     0.219 HD
ENDBRANCH  35  36
BRANCH  35  38
HETATM   38  C24 UNL     1      14.897 -11.900  21.336  1.00  0.00     0.169 C 
HETATM   39 BR1  UNL     1      13.440 -11.061  22.280  1.00  0.00    -0.088 Br
ENDBRANCH  35  38
ENDBRANCH  12  35
ENDBRANCH   3   4
TORSDOF 12
ENDMDL
MODEL 4
REMARK VINA RESULT: -7.257485664      2.671      5.247
REMARK  12 active torsions:
REMARK  status: ('A' for Active; 'I' for Inactive)
REMARK    1  A    between atoms: C3_3  and  N1_4 
REMARK    2  A    between atoms: C6_7  and  C7_8 
REMARK    3  A    between atoms: C14_16  and  O2_17 
REMARK    4  A    between atoms: O2_17  and  C15_18 
REMARK    5  A    between atoms: C16_20  and  C17_21 
REMARK    6  A    between atoms: C17_21  and  O4_22 
REMARK    7  A    between atoms: C19_24  and  O5_25 
REMARK    8  A    between atoms: C20_27  and  O6_28 
REMARK    9  A    between atoms: C21_30  and  C22_31 
REMARK   10  A    between atoms: N2_34  and  C23_35 
REMARK   11  A    between atoms: C23_35  and  O9_36 
REMARK   12  A    between atoms: C23_35  and  C24_38 
ROOT
HETATM    1  C1  UNL     1      11.790 -22.259  21.159  1.00  0.00     0.013 C 
HETATM    2  C2  UNL     1      11.570 -21.075  21.218  1.00  0.00    -0.089 C 
HETATM    3  C3  UNL     1      11.322 -19.636  21.308  1.00  0.00     0.330 C 
ENDROOT
BRANCH   3   4
HETATM    4  N1  UNL     1      12.579 -18.895  21.219  1.00  0.00    -0.055 N 
HETATM    5  C4  UNL     1      13.450 -19.146  22.311  1.00  0.00     0.239 C 
HETATM    6  C5  UNL     1      14.941 -19.125  21.930  1.00  0.00     0.039 C 
HETATM    7  C6  UNL     1      15.171 -18.026  20.854  1.00  0.00    -0.014 C 
HETATM    8  C9  UNL     1      14.481 -18.676  19.632  1.00  0.00     0.039 C 
HETATM    9  C11 UNL     1      14.558 -16.789  21.311  1.00  0.00     0.131 C 
HETATM   10  C10 UNL     1      13.116 -19.164  19.912  1.00  0.00     0.239 C 
HETATM   11  C12 UNL     1      13.195 -16.595  20.665  1.00  0.00     0.175 C 
HETATM   12  N2  UNL     1      15.261 -15.515  21.073  1.00  0.00    -0.316 N 
HETATM   13  C13 UNL     1      12.161 -17.477  21.313  1.00  0.00     0.272 C 
HETATM   14  O1  UNL     1      12.825 -15.276  20.876  1.00  0.00    -0.346 OA
HETATM   15  C14 UNL     1      13.440 -14.562  19.787  1.00  0.00     0.321 C 
HETATM   16  C21 UNL     1      14.890 -14.906  19.825  1.00  0.00     0.146 C 
BRANCH   7  17
HETATM   17  C7  UNL     1      16.638 -17.992  20.593  1.00  0.00     0.007 C 
HETATM   18  C8  UNL     1      17.438 -18.998  21.385  1.00  0.00     0.006 C 
ENDBRANCH   7  17
BRANCH  15  19
HETATM   19  O2  UNL     1      13.048 -13.276  19.949  1.00  0.00    -0.323 OA
BRANCH  19  20
HETATM   20  C15 UNL     1      13.132 -12.815  21.248  1.00  0.00     0.295 C 
HETATM   21  O3  UNL     1      11.972 -12.711  21.954  1.00  0.00    -0.348 OA
HETATM   22  C16 UNL     1      12.316 -11.817  23.000  1.00  0.00     0.179 C 
HETATM   23  C19 UNL     1      12.821 -10.667  22.159  1.00  0.00     0.182 C 
HETATM   24  C20 UNL     1      13.729 -11.405  21.182  1.00  0.00     0.204 C 
BRANCH  22  25
HETATM   25  C17 UNL     1      11.124 -11.455  23.824  1.00  0.00     0.201 C 
BRANCH  25  26
HETATM   26  O4  UNL     1      11.471 -10.928  25.066  1.00  0.00    -0.393 OA
HETATM   27  C18 UNL     1      11.362  -9.543  24.968  1.00  0.00     0.201 C 
ENDBRANCH  25  26
ENDBRANCH  22  25
BRANCH  23  28
HETATM   28  O5  UNL     1      11.742 -10.180  21.438  1.00  0.00    -0.390 OA
ATOM     29  H5  UNL     1      11.084 -10.866  21.421  1.00  0.00     0.210 HD
ENDBRANCH  23  28
BRANCH  24  30
HETATM   30  O6  UNL     1      15.036 -11.385  21.687  1.00  0.00    -0.388 OA
ATOM     31  H6  UNL     1      15.094 -10.844  22.466  1.00  0.00     0.210 HD
ENDBRANCH  24  30
ENDBRANCH  19  20
ENDBRANCH  15  19
BRANCH  16  32
HETATM   32  C22 UNL     1      15.736 -13.923  19.213  1.00  0.00     0.227 C 
HETATM   33  O7  UNL     1      16.357 -13.062  19.942  1.00  0.00    -0.643 OA
HETATM   34  O8  UNL     1      15.992 -13.757  17.862  1.00  0.00    -0.643 OA
ENDBRANCH  16  32
BRANCH  12  35
HETATM   35  C23 UNL     1      16.082 -14.998  22.037  1.00  0.00     0.128 C 
BRANCH  35  36
HETATM   36  O9  UNL     1      15.497 -14.067  22.778  1.00  0.00    -0.349 OA
ATOM     37  H9  UNL     1      15.153 -14.403  23.598  1.00  0.00     0.219 HD
ENDBRANCH  35  36
BRANCH  35  38
HETATM   38  C24 UNL     1      17.454 -15.204  22.465  1.00  0.00     0.169 C 
HETATM   39 BR1  UNL     1      17.685 -16.271  24.052  1.00  0.00    -0.088 Br
ENDBRANCH  35  38
ENDBRANCH  12  35
ENDBRANCH   3   4
TORSDOF 12
ENDMDL
MODEL 5
REMARK VINA RESULT: -7.238783639      1.008      1.106
REMARK  12 active torsions:
REMARK  status: ('A' for Active; 'I' for Inactive)
REMARK    1  A    between atoms: C3_3  and  N1_4 
REMARK    2  A    between atoms: C6_7  and  C7_8 
REMARK    3  A    between atoms: C14_16  and  O2_17 
REMARK    4  A    between atoms: O2_17  and  C15_18 
REMARK    5  A    between atoms: C16_20  and  C17_21 
REMARK    6  A    between atoms: C17_21  and  O4_22 
REMARK    7  A    between atoms: C19_24  and  O5_25 
REMARK    8  A    between atoms: C20_27  and  O6_28 
REMARK    9  A    between atoms: C21_30  and  C22_31 
REMARK   10  A    between atoms: N2_34  and  C23_35 
REMARK   11  A    between atoms: C23_35  and  O9_36 
REMARK   12  A    between atoms: C23_35  and  C24_38 
ROOT
HETATM    1  C1  UNL     1      20.181 -15.123  26.542  1.00  0.00     0.013 C 
HETATM    2  C2  UNL     1      20.161 -14.791  25.383  1.00  0.00    -0.089 C 
HETATM    3  C3  UNL     1      20.138 -14.414  23.969  1.00  0.00     0.330 C 
ENDROOT
BRANCH   3   4
HETATM    4  N1  UNL     1      19.120 -15.181  23.253  1.00  0.00    -0.055 N 
HETATM    5  C4  UNL     1      19.652 -15.954  22.189  1.00  0.00     0.239 C 
HETATM    6  C5  UNL     1      18.925 -17.292  21.971  1.00  0.00     0.039 C 
HETATM    7  C6  UNL     1      17.405 -17.090  22.238  1.00  0.00    -0.014 C 
HETATM    8  C9  UNL     1      17.409 -16.911  23.774  1.00  0.00     0.039 C 
HETATM    9  C11 UNL     1      16.951 -15.927  21.492  1.00  0.00     0.131 C 
HETATM   10  C10 UNL     1      18.385 -15.911  24.253  1.00  0.00     0.239 C 
HETATM   11  C12 UNL     1      16.881 -14.704  22.394  1.00  0.00     0.175 C 
HETATM   12  N2  UNL     1      15.632 -15.974  20.835  1.00  0.00    -0.316 N 
HETATM   13  C13 UNL     1      18.255 -14.143  22.647  1.00  0.00     0.272 C 
HETATM   14  O1  UNL     1      16.143 -13.742  21.723  1.00  0.00    -0.346 OA
HETATM   15  C14 UNL     1      14.777 -14.059  22.051  1.00  0.00     0.321 C 
HETATM   16  C21 UNL     1      14.577 -15.489  21.682  1.00  0.00     0.146 C 
BRANCH   7  17
HETATM   17  C7  UNL     1      16.746 -18.389  21.926  1.00  0.00     0.007 C 
HETATM   18  C8  UNL     1      17.600 -19.352  21.138  1.00  0.00     0.006 C 
ENDBRANCH   7  17
BRANCH  15  19
HETATM   19  O2  UNL     1      14.042 -13.097  21.444  1.00  0.00    -0.323 OA
BRANCH  19  20
HETATM   20  C15 UNL     1      13.947 -11.918  22.157  1.00  0.00     0.295 C 
HETATM   21  O3  UNL     1      13.049 -11.874  23.181  1.00  0.00    -0.348 OA
HETATM   22  C16 UNL     1      12.862 -10.482  23.379  1.00  0.00     0.179 C 
HETATM   23  C19 UNL     1      12.459 -10.103  21.973  1.00  0.00     0.182 C 
HETATM   24  C20 UNL     1      13.528 -10.829  21.164  1.00  0.00     0.204 C 
BRANCH  22  25
HETATM   25  C17 UNL     1      11.791 -10.213  24.384  1.00  0.00     0.201 C 
BRANCH  25  26
HETATM   26  O4  UNL     1      12.166  -9.255  25.323  1.00  0.00    -0.393 OA
HETATM   27  C18 UNL     1      12.089  -8.014  24.695  1.00  0.00     0.201 C 
ENDBRANCH  25  26
ENDBRANCH  22  25
BRANCH  23  28
HETATM   28  O5  UNL     1      11.248 -10.725  21.712  1.00  0.00    -0.390 OA
ATOM     29  H5  UNL     1      10.730 -10.122  21.190  1.00  0.00     0.210 HD
ENDBRANCH  23  28
BRANCH  24  30
HETATM   30  O6  UNL     1      14.581  -9.937  20.918  1.00  0.00    -0.388 OA
ATOM     31  H6  UNL     1      15.127  -9.830  21.689  1.00  0.00     0.210 HD
ENDBRANCH  24  30
ENDBRANCH  19  20
ENDBRANCH  15  19
BRANCH  16  32
HETATM   32  C22 UNL     1      13.211 -15.834  21.416  1.00  0.00     0.227 C 
HETATM   33  O7  UNL     1      12.652 -16.800  22.059  1.00  0.00    -0.643 OA
HETATM   34  O8  UNL     1      12.355 -15.237  20.506  1.00  0.00    -0.643 OA
ENDBRANCH  16  32
BRANCH  12  35
HETATM   35  C23 UNL     1      15.535 -16.356  19.525  1.00  0.00     0.128 C 
BRANCH  35  36
HETATM   36  O9  UNL     1      15.520 -15.333  18.681  1.00  0.00    -0.349 OA
ATOM     37  H9  UNL     1      14.944 -15.470  17.938  1.00  0.00     0.219 HD
ENDBRANCH  35  36
BRANCH  35  38
HETATM   38  C24 UNL     1      15.438 -17.613  18.806  1.00  0.00     0.169 C 
HETATM   39 BR1  UNL     1      13.688 -18.419  18.759  1.00  0.00    -0.088 Br
ENDBRANCH  35  38
ENDBRANCH  12  35
ENDBRANCH   3   4
TORSDOF 12
ENDMDL
