MODEL 1
REMARK VINA RESULT: -7.495146279      0.000      0.000
REMARK  9 active torsions:
REMARK  status: ('A' for Active; 'I' for Inactive)
REMARK    1  A    between atoms: O1_2  and  C2_3 
REMARK    2  A    between atoms: C2_3  and  C3_5 
REMARK    3  A    between atoms: C3_5  and  C4_6 
REMARK    4  A    between atoms: C3_5  and  N1_10 
REMARK    5  A    between atoms: C4_6  and  C5_7 
REMARK    6  A    between atoms: C5_7  and  C6_8 
REMARK       I    between atoms: N1_10  and  C7_12 
REMARK       I    between atoms: C7_12  and  N2_14 
REMARK    7  A    between atoms: C11_18  and  C13_20 
REMARK       I    between atoms: C13_20  and  N3_22 
REMARK    8  A    between atoms: C14_23  and  C15_24 
REMARK       I    between atoms: C15_24  and  N4_26 
REMARK    9  A    between atoms: C18_29  and  C19_30 
ROOT
HETATM    1  C13 UNL     1      15.550 -17.045  21.318  1.00  0.00     0.250 C 
HETATM    2  O4  UNL     1      16.304 -16.076  21.109  1.00  0.00    -0.270 OA
HETATM    3  N3  UNL     1      14.364 -17.170  20.569  1.00  0.00    -0.318 N 
HETATM    4  C14 UNL     1      13.664 -16.434  19.594  1.00  0.00     0.195 C 
HETATM    5  C21 UNL     1      13.829 -17.247  18.280  1.00  0.00     0.177 C 
HETATM    6  S1  UNL     1      13.287 -18.820  18.984  1.00  0.00     0.168 S 
HETATM    7  O8  UNL     1      11.840 -19.037  18.727  1.00  0.00    -0.226 OA
HETATM    8  O9  UNL     1      14.161 -19.935  18.557  1.00  0.00    -0.226 OA
HETATM    9  C22 UNL     1      13.527 -18.400  20.721  1.00  0.00     0.207 C 
HETATM   10  C23 UNL     1      12.262 -18.028  21.403  1.00  0.00     0.049 C 
ENDROOT
BRANCH   1  11
HETATM   11  C11 UNL     1      15.974 -18.003  22.359  1.00  0.00     0.116 C 
HETATM   12  N2  UNL     1      17.268 -17.633  22.963  1.00  0.00    -0.312 N 
HETATM   13  C7  UNL     1      17.785 -16.498  23.633  1.00  0.00     0.320 C 
HETATM   14  C8  UNL     1      17.837 -18.913  22.622  1.00  0.00     0.089 C 
HETATM   15  N1  UNL     1      19.123 -16.444  24.160  1.00  0.00    -0.329 N 
HETATM   16  O3  UNL     1      17.078 -15.463  23.800  1.00  0.00    -0.247 OA
ATOM     17  H1  UNL     1      19.726 -17.258  24.047  1.00  0.00     0.165 HD
HETATM   18  C9  UNL     1      19.136 -18.775  21.831  1.00  0.00     0.032 C 
HETATM   19  C10 UNL     1      16.627 -19.206  21.782  1.00  0.00     0.066 C 
HETATM   20  C12 UNL     1      15.003 -18.201  23.494  1.00  0.00     0.049 C 
BRANCH  15  21
HETATM   21  C3  UNL     1      19.636 -15.309  24.828  1.00  0.00     0.186 C 
BRANCH  21  22
HETATM   22  C2  UNL     1      20.555 -15.587  25.973  1.00  0.00     0.281 C 
HETATM   23  O2  UNL     1      20.496 -14.834  26.964  1.00  0.00    -0.263 OA
BRANCH  22  24
HETATM   24  O1  UNL     1      21.452 -16.628  25.966  1.00  0.00    -0.325 OA
HETATM   25  C1  UNL     1      22.742 -16.575  25.401  1.00  0.00     0.213 C 
ENDBRANCH  22  24
ENDBRANCH  21  22
BRANCH  21  26
HETATM   26  C4  UNL     1      20.168 -14.195  24.003  1.00  0.00     0.037 C 
BRANCH  26  27
HETATM   27  C5  UNL     1      20.489 -14.445  22.582  1.00  0.00     0.017 C 
BRANCH  27  28
HETATM   28  C6  UNL     1      19.486 -13.958  21.599  1.00  0.00     0.115 C 
HETATM   29 CL1  UNL     1      20.345 -13.256  20.171  1.00  0.00    -0.130 Cl
ENDBRANCH  27  28
ENDBRANCH  26  27
ENDBRANCH  21  26
ENDBRANCH  15  21
ENDBRANCH   1  11
BRANCH   4  30
HETATM   30  C15 UNL     1      13.828 -15.026  19.399  1.00  0.00     0.244 C 
HETATM   31  O5  UNL     1      14.474 -14.439  18.509  1.00  0.00    -0.271 OA
HETATM   32  N4  UNL     1      13.185 -14.126  20.331  1.00  0.00    -0.344 N 
HETATM   33  C16 UNL     1      12.360 -14.306  21.494  1.00  0.00     0.134 C 
HETATM   34  C20 UNL     1      13.065 -12.696  20.547  1.00  0.00     0.108 A 
HETATM   35  C17 UNL     1      12.735 -12.950  22.006  1.00  0.00     0.044 A 
HETATM   36  C18 UNL     1      13.929 -12.200  21.655  1.00  0.00     0.117 A 
BRANCH  36  37
HETATM   37  C19 UNL     1      13.882 -10.721  21.866  1.00  0.00     0.179 C 
HETATM   38  O6  UNL     1      14.233  -9.922  20.948  1.00  0.00    -0.648 OA
HETATM   39  O7  UNL     1      13.458 -10.170  23.063  1.00  0.00    -0.648 OA
ENDBRANCH  36  37
ENDBRANCH   4  30
TORSDOF 9
ENDMDL
MODEL 2
REMARK VINA RESULT: -7.344607578      1.910      2.204
REMARK  9 active torsions:
REMARK  status: ('A' for Active; 'I' for Inactive)
REMARK    1  A    between atoms: O1_2  and  C2_3 
REMARK    2  A    between atoms: C2_3  and  C3_5 
REMARK    3  A    between atoms: C3_5  and  C4_6 
REMARK    4  A    between atoms: C3_5  and  N1_10 
REMARK    5  A    between atoms: C4_6  and  C5_7 
REMARK    6  A    between atoms: C5_7  and  C6_8 
REMARK       I    between atoms: N1_10  and  C7_12 
REMARK       I    between atoms: C7_12  and  N2_14 
REMARK    7  A    between atoms: C11_18  and  C13_20 
REMARK       I    between atoms: C13_20  and  N3_22 
REMARK    8  A    between atoms: C14_23  and  C15_24 
REMARK       I    between atoms: C15_24  and  N4_26 
REMARK    9  A    between atoms: C18_29  and  C19_30 
ROOT
HETATM    1  C13 UNL     1      15.742 -15.745  21.478  1.00  0.00     0.250 C 
HETATM    2  O4  UNL     1      16.358 -14.665  21.561  1.00  0.00    -0.270 OA
HETATM    3  N3  UNL     1      14.543 -15.799  20.744  1.00  0.00    -0.318 N 
HETATM    4  C14 UNL     1      13.705 -14.907  20.047  1.00  0.00     0.195 C 
HETATM    5  C21 UNL     1      13.898 -15.263  18.546  1.00  0.00     0.177 C 
HETATM    6  S1  UNL     1      13.594 -17.033  18.751  1.00  0.00     0.168 S 
HETATM    7  O8  UNL     1      12.172 -17.355  18.462  1.00  0.00    -0.226 OA
HETATM    8  O9  UNL     1      14.574 -17.843  17.995  1.00  0.00    -0.226 OA
HETATM    9  C22 UNL     1      13.873 -17.119  20.530  1.00  0.00     0.207 C 
HETATM   10  C23 UNL     1      12.611 -17.140  21.311  1.00  0.00     0.049 C 
ENDROOT
BRANCH   1  11
HETATM   11  C11 UNL     1      16.337 -16.902  22.176  1.00  0.00     0.116 C 
HETATM   12  N2  UNL     1      17.604 -16.557  22.849  1.00  0.00    -0.312 N 
HETATM   13  C7  UNL     1      18.007 -15.614  23.826  1.00  0.00     0.320 C 
HETATM   14  C8  UNL     1      18.312 -17.587  22.131  1.00  0.00     0.089 C 
HETATM   15  N1  UNL     1      19.353 -15.538  24.330  1.00  0.00    -0.329 N 
HETATM   16  O3  UNL     1      17.184 -14.782  24.307  1.00  0.00    -0.247 OA
ATOM     17  H1  UNL     1      20.047 -16.192  23.969  1.00  0.00     0.165 HD
HETATM   18  C9  UNL     1      19.541 -17.043  21.404  1.00  0.00     0.032 C 
HETATM   19  C10 UNL     1      17.107 -17.778  21.255  1.00  0.00     0.066 C 
HETATM   20  C12 UNL     1      15.459 -17.560  23.209  1.00  0.00     0.049 C 
BRANCH  15  21
HETATM   21  C3  UNL     1      19.752 -14.596  25.305  1.00  0.00     0.186 C 
BRANCH  21  22
HETATM   22  C2  UNL     1      19.922 -15.125  26.692  1.00  0.00     0.281 C 
HETATM   23  O2  UNL     1      20.673 -14.500  27.466  1.00  0.00    -0.263 OA
BRANCH  22  24
HETATM   24  O1  UNL     1      19.290 -16.263  27.133  1.00  0.00    -0.325 OA
HETATM   25  C1  UNL     1      19.724 -17.578  26.866  1.00  0.00     0.213 C 
ENDBRANCH  22  24
ENDBRANCH  21  22
BRANCH  21  26
HETATM   26  C4  UNL     1      20.866 -13.674  24.968  1.00  0.00     0.037 C 
BRANCH  26  27
HETATM   27  C5  UNL     1      22.008 -14.186  24.183  1.00  0.00     0.017 C 
BRANCH  27  28
HETATM   28  C6  UNL     1      23.215 -14.561  24.966  1.00  0.00     0.115 C 
HETATM   29 CL1  UNL     1      23.165 -16.331  25.328  1.00  0.00    -0.130 Cl
ENDBRANCH  27  28
ENDBRANCH  26  27
ENDBRANCH  21  26
ENDBRANCH  15  21
ENDBRANCH   1  11
BRANCH   4  30
HETATM   30  C15 UNL     1      13.683 -13.496  20.283  1.00  0.00     0.244 C 
HETATM   31  O5  UNL     1      14.413 -12.618  19.784  1.00  0.00    -0.271 OA
HETATM   32  N4  UNL     1      12.709 -12.974  21.216  1.00  0.00    -0.344 N 
HETATM   33  C16 UNL     1      11.681 -13.561  22.029  1.00  0.00     0.134 C 
HETATM   34  C20 UNL     1      12.318 -11.688  21.765  1.00  0.00     0.108 A 
HETATM   35  C17 UNL     1      11.709 -12.392  22.963  1.00  0.00     0.044 A 
HETATM   36  C18 UNL     1      12.816 -11.470  23.152  1.00  0.00     0.117 A 
BRANCH  36  37
HETATM   37  C19 UNL     1      12.488 -10.131  23.727  1.00  0.00     0.179 C 
HETATM   38  O6  UNL     1      11.334  -9.885  24.189  1.00  0.00    -0.648 OA
HETATM   39  O7  UNL     1      13.424  -9.112  23.777  1.00  0.00    -0.648 OA
ENDBRANCH  36  37
ENDBRANCH   4  30
TORSDOF 9
ENDMDL
MODEL 3
REMARK VINA RESULT: -7.242179108      2.699      7.385
REMARK  9 active torsions:
REMARK  status: ('A' for Active; 'I' for Inactive)
REMARK    1  A    between atoms: O1_2  and  C2_3 
REMARK    2  A    between atoms: C2_3  and  C3_5 
REMARK    3  A    between atoms: C3_5  and  C4_6 
REMARK    4  A    between atoms: C3_5  and  N1_10 
REMARK    5  A    between atoms: C4_6  and  C5_7 
REMARK    6  A    between atoms: C5_7  and  C6_8 
REMARK       I    between atoms: N1_10  and  C7_12 
REMARK       I    between atoms: C7_12  and  N2_14 
REMARK    7  A    between atoms: C11_18  and  C13_20 
REMARK       I    between atoms: C13_20  and  N3_22 
REMARK    8  A    between atoms: C14_23  and  C15_24 
REMARK       I    between atoms: C15_24  and  N4_26 
REMARK    9  A    between atoms: C18_29  and  C19_30 
ROOT
HETATM    1  C13 UNL     1      18.756 -15.970  22.551  1.00  0.00     0.250 C 
HETATM    2  O4  UNL     1      18.689 -16.437  21.398  1.00  0.00    -0.270 OA
HETATM    3  N3  UNL     1      18.526 -16.816  23.651  1.00  0.00    -0.318 N 
HETATM    4  C14 UNL     1      18.148 -18.154  23.878  1.00  0.00     0.195 C 
HETATM    5  C21 UNL     1      19.429 -18.847  24.421  1.00  0.00     0.177 C 
HETATM    6  S1  UNL     1      19.750 -17.624  25.712  1.00  0.00     0.168 S 
HETATM    7  O8  UNL     1      19.174 -18.068  27.007  1.00  0.00    -0.226 OA
HETATM    8  O9  UNL     1      21.183 -17.258  25.769  1.00  0.00    -0.226 OA
HETATM    9  C22 UNL     1      18.738 -16.293  25.036  1.00  0.00     0.207 C 
HETATM   10  C23 UNL     1      17.418 -16.177  25.704  1.00  0.00     0.049 C 
ENDROOT
BRANCH   1  11
HETATM   11  C11 UNL     1      19.079 -14.533  22.666  1.00  0.00     0.116 C 
HETATM   12  N2  UNL     1      18.032 -13.677  22.078  1.00  0.00    -0.312 N 
HETATM   13  C7  UNL     1      16.641 -13.499  22.274  1.00  0.00     0.320 C 
HETATM   14  C8  UNL     1      18.985 -13.047  21.200  1.00  0.00     0.089 C 
HETATM   15  N1  UNL     1      15.867 -12.526  21.548  1.00  0.00    -0.329 N 
HETATM   16  O3  UNL     1      16.006 -14.202  23.113  1.00  0.00    -0.247 OA
ATOM     17  H1  UNL     1      16.341 -11.938  20.863  1.00  0.00     0.165 HD
HETATM   18  C9  UNL     1      18.556 -13.114  19.736  1.00  0.00     0.032 C 
HETATM   19  C10 UNL     1      20.003 -14.078  21.596  1.00  0.00     0.066 C 
HETATM   20  C12 UNL     1      19.317 -14.031  24.067  1.00  0.00     0.049 C 
BRANCH  15  21
HETATM   21  C3  UNL     1      14.479 -12.351  21.747  1.00  0.00     0.186 C 
BRANCH  21  22
HETATM   22  C2  UNL     1      14.005 -10.936  21.827  1.00  0.00     0.281 C 
HETATM   23  O2  UNL     1      14.089 -10.235  20.801  1.00  0.00    -0.263 OA
BRANCH  22  24
HETATM   24  O1  UNL     1      13.491 -10.392  22.980  1.00  0.00    -0.325 OA
HETATM   25  C1  UNL     1      12.196 -10.641  23.478  1.00  0.00     0.213 C 
ENDBRANCH  22  24
ENDBRANCH  21  22
BRANCH  21  26
HETATM   26  C4  UNL     1      13.549 -13.156  20.914  1.00  0.00     0.037 C 
BRANCH  26  27
HETATM   27  C5  UNL     1      12.565 -14.034  21.582  1.00  0.00     0.017 C 
BRANCH  27  28
HETATM   28  C6  UNL     1      12.212 -15.280  20.853  1.00  0.00     0.115 C 
HETATM   29 CL1  UNL     1      13.298 -15.460  19.420  1.00  0.00    -0.130 Cl
ENDBRANCH  27  28
ENDBRANCH  26  27
ENDBRANCH  21  26
ENDBRANCH  15  21
ENDBRANCH   1  11
BRANCH   4  30
HETATM   30  C15 UNL     1      17.452 -18.952  22.915  1.00  0.00     0.244 C 
HETATM   31  O5  UNL     1      17.927 -19.756  22.090  1.00  0.00    -0.271 OA
HETATM   32  N4  UNL     1      16.012 -18.843  22.850  1.00  0.00    -0.344 N 
HETATM   33  C16 UNL     1      15.029 -18.075  23.562  1.00  0.00     0.134 C 
HETATM   34  C20 UNL     1      14.918 -19.409  22.081  1.00  0.00     0.108 A 
HETATM   35  C17 UNL     1      14.060 -18.206  22.429  1.00  0.00     0.044 A 
HETATM   36  C18 UNL     1      14.394 -18.479  21.041  1.00  0.00     0.117 A 
BRANCH  36  37
HETATM   37  C19 UNL     1      13.310 -19.051  20.186  1.00  0.00     0.179 C 
HETATM   38  O6  UNL     1      12.090 -18.840  20.455  1.00  0.00    -0.648 OA
HETATM   39  O7  UNL     1      13.593 -19.827  19.076  1.00  0.00    -0.648 OA
ENDBRANCH  36  37
ENDBRANCH   4  30
TORSDOF 9
ENDMDL
MODEL 4
REMARK VINA RESULT: -7.241704663      3.181      7.142
REMARK  9 active torsions:
REMARK  status: ('A' for Active; 'I' for Inactive)
REMARK    1  A    between atoms: O1_2  and  C2_3 
REMARK    2  A    between atoms: C2_3  and  C3_5 
REMARK    3  A    between atoms: C3_5  and  C4_6 
REMARK    4  A    between atoms: C3_5  and  N1_10 
REMARK    5  A    between atoms: C4_6  and  C5_7 
REMARK    6  A    between atoms: C5_7  and  C6_8 
REMARK       I    between atoms: N1_10  and  C7_12 
REMARK       I    between atoms: C7_12  and  N2_14 
REMARK    7  A    between atoms: C11_18  and  C13_20 
REMARK       I    between atoms: C13_20  and  N3_22 
REMARK    8  A    between atoms: C14_23  and  C15_24 
REMARK       I    between atoms: C15_24  and  N4_26 
REMARK    9  A    between atoms: C18_29  and  C19_30 
ROOT
HETATM    1  C13 UNL     1      18.127 -16.409  21.998  1.00  0.00     0.250 C 
HETATM    2  O4  UNL     1      17.284 -16.331  21.085  1.00  0.00    -0.270 OA
HETATM    3  N3  UNL     1      18.584 -17.677  22.406  1.00  0.00    -0.318 N 
HETATM    4  C14 UNL     1      18.316 -19.028  22.111  1.00  0.00     0.195 C 
HETATM    5  C21 UNL     1      19.568 -19.527  21.337  1.00  0.00     0.177 C 
HETATM    6  S1  UNL     1      20.767 -18.947  22.559  1.00  0.00     0.168 S 
HETATM    7  O8  UNL     1      21.128 -20.041  23.497  1.00  0.00    -0.226 OA
HETATM    8  O9  UNL     1      21.921 -18.282  21.914  1.00  0.00    -0.226 OA
HETATM    9  C22 UNL     1      19.694 -17.769  23.404  1.00  0.00     0.207 C 
HETATM   10  C23 UNL     1      19.142 -18.302  24.675  1.00  0.00     0.049 C 
ENDROOT
BRANCH   1  11
HETATM   11  C11 UNL     1      18.586 -15.136  22.588  1.00  0.00     0.116 C 
HETATM   12  N2  UNL     1      17.914 -13.968  21.986  1.00  0.00    -0.312 N 
HETATM   13  C7  UNL     1      16.573 -13.544  21.824  1.00  0.00     0.320 C 
HETATM   14  C8  UNL     1      19.179 -13.381  21.620  1.00  0.00     0.089 C 
HETATM   15  N1  UNL     1      16.218 -12.294  21.206  1.00  0.00    -0.329 N 
HETATM   16  O3  UNL     1      15.610 -14.260  22.224  1.00  0.00    -0.247 OA
ATOM     17  H1  UNL     1      16.965 -11.686  20.869  1.00  0.00     0.165 HD
HETATM   18  C9  UNL     1      19.246 -13.033  20.135  1.00  0.00     0.032 C 
HETATM   19  C10 UNL     1      19.861 -14.666  21.989  1.00  0.00     0.066 C 
HETATM   20  C12 UNL     1      18.418 -15.014  24.081  1.00  0.00     0.049 C 
BRANCH  15  21
HETATM   21  C3  UNL     1      14.878 -11.873  21.045  1.00  0.00     0.186 C 
BRANCH  21  22
HETATM   22  C2  UNL     1      14.134 -12.489  19.904  1.00  0.00     0.281 C 
HETATM   23  O2  UNL     1      14.375 -12.066  18.757  1.00  0.00    -0.263 OA
BRANCH  22  24
HETATM   24  O1  UNL     1      13.206 -13.487  20.078  1.00  0.00    -0.325 OA
HETATM   25  C1  UNL     1      13.425 -14.848  19.782  1.00  0.00     0.213 C 
ENDBRANCH  22  24
ENDBRANCH  21  22
BRANCH  21  26
HETATM   26  C4  UNL     1      14.014 -11.822  22.252  1.00  0.00     0.037 C 
BRANCH  26  27
HETATM   27  C5  UNL     1      13.172 -10.630  22.481  1.00  0.00     0.017 C 
BRANCH  27  28
HETATM   28  C6  UNL     1      11.713 -10.885  22.605  1.00  0.00     0.115 C 
HETATM   29 CL1  UNL     1      11.298 -11.136  24.346  1.00  0.00    -0.130 Cl
ENDBRANCH  27  28
ENDBRANCH  26  27
ENDBRANCH  21  26
ENDBRANCH  15  21
ENDBRANCH   1  11
BRANCH   4  30
HETATM   30  C15 UNL     1      17.089 -19.480  21.532  1.00  0.00     0.244 C 
HETATM   31  O5  UNL     1      16.920 -20.083  20.454  1.00  0.00    -0.271 OA
HETATM   32  N4  UNL     1      15.859 -19.226  22.248  1.00  0.00    -0.344 N 
HETATM   33  C16 UNL     1      15.535 -18.580  23.490  1.00  0.00     0.134 C 
HETATM   34  C20 UNL     1      14.438 -19.469  22.079  1.00  0.00     0.108 A 
HETATM   35  C17 UNL     1      14.135 -18.323  23.027  1.00  0.00     0.044 A 
HETATM   36  C18 UNL     1      13.686 -18.257  21.647  1.00  0.00     0.117 A 
BRANCH  36  37
HETATM   37  C19 UNL     1      12.230 -18.484  21.399  1.00  0.00     0.179 C 
HETATM   38  O6  UNL     1      11.451 -17.514  21.161  1.00  0.00    -0.648 OA
HETATM   39  O7  UNL     1      11.678 -19.754  21.421  1.00  0.00    -0.648 OA
ENDBRANCH  36  37
ENDBRANCH   4  30
TORSDOF 9
ENDMDL
MODEL 5
REMARK VINA RESULT: -7.226563907      2.877      7.023
REMARK  9 active torsions:
REMARK  status: ('A' for Active; 'I' for Inactive)
REMARK    1  A    between atoms: O1_2  and  C2_3 
REMARK    2  A    between atoms: C2_3  and  C3_5 
REMARK    3  A    between atoms: C3_5  and  C4_6 
REMARK    4  A    between atoms: C3_5  and  N1_10 
REMARK    5  A    between atoms: C4_6  and  C5_7 
REMARK    6  A    between atoms: C5_7  and  C6_8 
REMARK       I    between atoms: N1_10  and  C7_12 
REMARK       I    between atoms: C7_12  and  N2_14 
REMARK    7  A    between atoms: C11_18  and  C13_20 
REMARK       I    between atoms: C13_20  and  N3_22 
REMARK    8  A    between atoms: C14_23  and  C15_24 
REMARK       I    between atoms: C15_24  and  N4_26 
REMARK    9  A    between atoms: C18_29  and  C19_30 
ROOT
HETATM    1  C13 UNL     1      17.905 -16.411  22.157  1.00  0.00     0.250 C 
HETATM    2  O4  UNL     1      17.120 -16.339  21.193  1.00  0.00    -0.270 OA
HETATM    3  N3  UNL     1      18.396 -17.670  22.552  1.00  0.00    -0.318 N 
HETATM    4  C14 UNL     1      18.214 -19.020  22.195  1.00  0.00     0.195 C 
HETATM    5  C21 UNL     1      19.537 -19.431  21.490  1.00  0.00     0.177 C 
HETATM    6  S1  UNL     1      20.623 -18.841  22.808  1.00  0.00     0.168 S 
HETATM    7  O8  UNL     1      20.976 -19.951  23.731  1.00  0.00    -0.226 OA
HETATM    8  O9  UNL     1      21.783 -18.100  22.264  1.00  0.00    -0.226 OA
HETATM    9  C22 UNL     1      19.441 -17.747  23.619  1.00  0.00     0.207 C 
HETATM   10  C23 UNL     1      18.834 -18.351  24.831  1.00  0.00     0.049 C 
ENDROOT
BRANCH   1  11
HETATM   11  C11 UNL     1      18.261 -15.140  22.819  1.00  0.00     0.116 C 
HETATM   12  N2  UNL     1      17.536 -13.990  22.245  1.00  0.00    -0.312 N 
HETATM   13  C7  UNL     1      16.177 -13.644  22.053  1.00  0.00     0.320 C 
HETATM   14  C8  UNL     1      18.772 -13.308  21.951  1.00  0.00     0.089 C 
HETATM   15  N1  UNL     1      15.764 -12.391  21.478  1.00  0.00    -0.329 N 
HETATM   16  O3  UNL     1      15.249 -14.436  22.386  1.00  0.00    -0.247 OA
ATOM     17  H1  UNL     1      16.480 -11.723  21.196  1.00  0.00     0.165 HD
HETATM   18  C9  UNL     1      18.866 -12.890  20.485  1.00  0.00     0.032 C 
HETATM   19  C10 UNL     1      19.523 -14.564  22.287  1.00  0.00     0.066 C 
HETATM   20  C12 UNL     1      18.036 -15.098  24.308  1.00  0.00     0.049 C 
BRANCH  15  21
HETATM   21  C3  UNL     1      14.405 -12.048  21.287  1.00  0.00     0.186 C 
BRANCH  21  22
HETATM   22  C2  UNL     1      14.033 -10.644  21.638  1.00  0.00     0.281 C 
HETATM   23  O2  UNL     1      14.226  -9.760  20.782  1.00  0.00    -0.263 OA
BRANCH  22  24
HETATM   24  O1  UNL     1      13.495 -10.303  22.855  1.00  0.00    -0.325 OA
HETATM   25  C1  UNL     1      12.320 -10.861  23.400  1.00  0.00     0.213 C 
ENDBRANCH  22  24
ENDBRANCH  21  22
BRANCH  21  26
HETATM   26  C4  UNL     1      13.758 -12.447  20.012  1.00  0.00     0.037 C 
BRANCH  26  27
HETATM   27  C5  UNL     1      14.601 -12.942  18.904  1.00  0.00     0.017 C 
BRANCH  27  28
HETATM   28  C6  UNL     1      14.556 -14.407  18.662  1.00  0.00     0.115 C 
HETATM   29 CL1  UNL     1      13.263 -15.141  19.690  1.00  0.00    -0.130 Cl
ENDBRANCH  27  28
ENDBRANCH  26  27
ENDBRANCH  21  26
ENDBRANCH  15  21
ENDBRANCH   1  11
BRANCH   4  30
HETATM   30  C15 UNL     1      17.051 -19.508  21.520  1.00  0.00     0.244 C 
HETATM   31  O5  UNL     1      16.979 -20.054  20.402  1.00  0.00    -0.271 OA
HETATM   32  N4  UNL     1      15.770 -19.369  22.176  1.00  0.00    -0.344 N 
HETATM   33  C16 UNL     1      15.339 -18.819  23.431  1.00  0.00     0.134 C 
HETATM   34  C20 UNL     1      14.378 -19.684  21.911  1.00  0.00     0.108 A 
HETATM   35  C17 UNL     1      13.954 -18.617  22.902  1.00  0.00     0.044 A 
HETATM   36  C18 UNL     1      13.578 -18.495  21.504  1.00  0.00     0.117 A 
BRANCH  36  37
HETATM   37  C19 UNL     1      12.155 -18.791  21.159  1.00  0.00     0.179 C 
HETATM   38  O6  UNL     1      11.781 -19.973  20.900  1.00  0.00    -0.648 OA
HETATM   39  O7  UNL     1      11.197 -17.793  21.107  1.00  0.00    -0.648 OA
ENDBRANCH  36  37
ENDBRANCH   4  30
TORSDOF 9
ENDMDL
