MODEL 1
REMARK VINA RESULT: -10.296653695      0.000      0.000
REMARK  8 active torsions:
REMARK  status: ('A' for Active; 'I' for Inactive)
REMARK    1  A    between atoms: C1_4  and  C2_5 
REMARK    2  A    between atoms: C4_7  and  O1_8 
REMARK    3  A    between atoms: C6_11  and  C7_12 
REMARK    4  A    between atoms: C8_13  and  C9_14 
REMARK    5  A    between atoms: C16_21  and  O2_22 
REMARK    6  A    between atoms: C17_24  and  O3_25 
REMARK    7  A    between atoms: C18_27  and  O4_28 
REMARK    8  A    between atoms: C20_31  and  O5_32 
ROOT
HETATM    1  C2  UNL     1      18.765  14.271 160.207  1.00  0.00     0.015 A 
HETATM    2  C3  UNL     1      18.757  14.772 158.968  1.00  0.00     0.053 A 
HETATM    3  C4  UNL     1      19.922  15.360 158.443  1.00  0.00     0.078 A 
HETATM    4  C5  UNL     1      21.081  15.430 159.181  1.00  0.00     0.026 A 
HETATM    5  C6  UNL     1      22.172  16.054 158.675  1.00  0.00     0.014 A 
HETATM    6  C16 UNL     1      23.330  16.184 159.525  1.00  0.00     0.113 A 
HETATM    7  C17 UNL     1      23.314  15.681 160.785  1.00  0.00     0.134 A 
HETATM    8  C18 UNL     1      22.211  15.035 161.300  1.00  0.00     0.115 A 
HETATM    9  C19 UNL     1      21.076  14.901 160.496  1.00  0.00     0.048 A 
HETATM   10  C20 UNL     1      19.933  14.326 161.005  1.00  0.00     0.091 A 
ENDROOT
BRANCH   5  11
HETATM   11  C7  UNL     1      22.428  16.351 157.297  1.00  0.00     0.015 C 
HETATM   12  C8  UNL     1      22.457  15.640 156.210  1.00  0.00     0.001 C 
BRANCH  12  13
HETATM   13  C9  UNL     1      22.752  16.259 154.905  1.00  0.00     0.003 C 
HETATM   14  C10 UNL     1      21.826  16.768 154.126  1.00  0.00    -0.080 C 
HETATM   15  C11 UNL     1      22.210  17.368 152.838  1.00  0.00     0.034 C 
HETATM   16  C15 UNL     1      20.425  16.694 154.620  1.00  0.00     0.034 C 
HETATM   17  C12 UNL     1      21.156  18.353 152.381  1.00  0.00     0.004 C 
HETATM   18  C13 UNL     1      19.848  17.586 152.333  1.00  0.00     0.001 C 
HETATM   19  C14 UNL     1      19.421  17.344 153.741  1.00  0.00     0.004 C 
ENDBRANCH  12  13
ENDBRANCH   5  11
BRANCH   6  20
HETATM   20  O2  UNL     1      24.443  16.815 159.057  1.00  0.00    -0.357 OA
ATOM     21  H2  UNL     1      24.951  16.416 158.360  1.00  0.00     0.217 HD
ENDBRANCH   6  20
BRANCH   3  22
HETATM   22  O1  UNL     1      19.803  15.867 157.165  1.00  0.00    -0.360 OA
ATOM     23  H1  UNL     1      20.606  16.204 156.786  1.00  0.00     0.217 HD
ENDBRANCH   3  22
BRANCH   7  24
HETATM   24  O3  UNL     1      24.475  15.838 161.573  1.00  0.00    -0.356 OA
ATOM     25  H3  UNL     1      24.449  15.526 162.470  1.00  0.00     0.218 HD
ENDBRANCH   7  24
BRANCH   8  26
HETATM   26  O4  UNL     1      22.244  14.536 162.582  1.00  0.00    -0.357 OA
ATOM     27  H4  UNL     1      22.536  13.645 162.738  1.00  0.00     0.217 HD
ENDBRANCH   8  26
BRANCH  10  28
HETATM   28  O5  UNL     1      19.873  13.807 162.242  1.00  0.00    -0.359 OA
ATOM     29  H5  UNL     1      20.691  13.573 162.664  1.00  0.00     0.217 HD
ENDBRANCH  10  28
BRANCH   1  30
HETATM   30  C1  UNL     1      17.580  13.660 160.765  1.00  0.00     0.094 C 
HETATM   31  N1  UNL     1      16.917  14.286 161.670  1.00  0.00    -0.407 N 
ATOM     32  H12 UNL     1      17.237  15.204 161.981  1.00  0.00     0.155 HD
ATOM     33  H11 UNL     1      16.080  13.855 162.064  1.00  0.00     0.155 HD
ENDBRANCH   1  30
TORSDOF 8
ENDMDL
MODEL 2
REMARK VINA RESULT: -10.075628329      2.147      4.090
REMARK  8 active torsions:
REMARK  status: ('A' for Active; 'I' for Inactive)
REMARK    1  A    between atoms: C1_4  and  C2_5 
REMARK    2  A    between atoms: C4_7  and  O1_8 
REMARK    3  A    between atoms: C6_11  and  C7_12 
REMARK    4  A    between atoms: C8_13  and  C9_14 
REMARK    5  A    between atoms: C16_21  and  O2_22 
REMARK    6  A    between atoms: C17_24  and  O3_25 
REMARK    7  A    between atoms: C18_27  and  O4_28 
REMARK    8  A    between atoms: C20_31  and  O5_32 
ROOT
HETATM    1  C2  UNL     1      23.177  15.142 161.622  1.00  0.00     0.015 A 
HETATM    2  C3  UNL     1      23.166  15.698 160.405  1.00  0.00     0.053 A 
HETATM    3  C4  UNL     1      22.001  15.643 159.621  1.00  0.00     0.078 A 
HETATM    4  C5  UNL     1      20.858  15.030 160.080  1.00  0.00     0.026 A 
HETATM    5  C6  UNL     1      19.767  14.939 159.281  1.00  0.00     0.014 A 
HETATM    6  C16 UNL     1      18.630  14.202 159.775  1.00  0.00     0.113 A 
HETATM    7  C17 UNL     1      18.663  13.634 161.006  1.00  0.00     0.134 A 
HETATM    8  C18 UNL     1      19.766  13.733 161.827  1.00  0.00     0.115 A 
HETATM    9  C19 UNL     1      20.883  14.439 161.368  1.00  0.00     0.048 A 
HETATM   10  C20 UNL     1      22.026  14.494 162.133  1.00  0.00     0.091 A 
ENDROOT
BRANCH   5  11
HETATM   11  C7  UNL     1      19.488  15.728 158.119  1.00  0.00     0.015 C 
HETATM   12  C8  UNL     1      19.643  15.540 156.842  1.00  0.00     0.001 C 
BRANCH  12  13
HETATM   13  C9  UNL     1      19.237  16.571 155.869  1.00  0.00     0.003 C 
HETATM   14  C10 UNL     1      19.915  16.835 154.777  1.00  0.00    -0.080 C 
HETATM   15  C11 UNL     1      19.437  17.882 153.859  1.00  0.00     0.034 C 
HETATM   16  C15 UNL     1      21.147  16.033 154.548  1.00  0.00     0.034 C 
HETATM   17  C12 UNL     1      19.986  17.654 152.469  1.00  0.00     0.004 C 
HETATM   18  C13 UNL     1      21.496  17.606 152.609  1.00  0.00     0.001 C 
HETATM   19  C14 UNL     1      21.843  16.314 153.267  1.00  0.00     0.004 C 
ENDBRANCH  12  13
ENDBRANCH   5  11
BRANCH   6  20
HETATM   20  O2  UNL     1      17.517  14.079 158.997  1.00  0.00    -0.357 OA
ATOM     21  H2  UNL     1      17.469  14.541 158.169  1.00  0.00     0.217 HD
ENDBRANCH   6  20
BRANCH   3  22
HETATM   22  O1  UNL     1      22.101  16.226 158.373  1.00  0.00    -0.360 OA
ATOM     23  H1  UNL     1      22.364  15.642 157.672  1.00  0.00     0.217 HD
ENDBRANCH   3  22
BRANCH   7  24
HETATM   24  O3  UNL     1      17.522  12.924 161.437  1.00  0.00    -0.356 OA
ATOM     25  H3  UNL     1      17.366  12.857 162.372  1.00  0.00     0.218 HD
ENDBRANCH   7  24
BRANCH   8  26
HETATM   26  O4  UNL     1      19.752  13.144 163.071  1.00  0.00    -0.357 OA
ATOM     27  H4  UNL     1      20.151  12.291 163.197  1.00  0.00     0.217 HD
ENDBRANCH   8  26
BRANCH  10  28
HETATM   28  O5  UNL     1      22.103  13.955 163.360  1.00  0.00    -0.359 OA
ATOM     29  H5  UNL     1      21.464  13.292 163.594  1.00  0.00     0.217 HD
ENDBRANCH  10  28
BRANCH   1  30
HETATM   30  C1  UNL     1      24.363  15.188 162.445  1.00  0.00     0.094 C 
HETATM   31  N1  UNL     1      25.066  14.123 162.595  1.00  0.00    -0.407 N 
ATOM     32  H12 UNL     1      24.777  13.263 162.129  1.00  0.00     0.155 HD
ATOM     33  H11 UNL     1      25.904  14.156 163.176  1.00  0.00     0.155 HD
ENDBRANCH   1  30
TORSDOF 8
ENDMDL
MODEL 3
REMARK VINA RESULT: -9.390261327      3.336      7.678
REMARK  8 active torsions:
REMARK  status: ('A' for Active; 'I' for Inactive)
REMARK    1  A    between atoms: C1_4  and  C2_5 
REMARK    2  A    between atoms: C4_7  and  O1_8 
REMARK    3  A    between atoms: C6_11  and  C7_12 
REMARK    4  A    between atoms: C8_13  and  C9_14 
REMARK    5  A    between atoms: C16_21  and  O2_22 
REMARK    6  A    between atoms: C17_24  and  O3_25 
REMARK    7  A    between atoms: C18_27  and  O4_28 
REMARK    8  A    between atoms: C20_31  and  O5_32 
ROOT
HETATM    1  C2  UNL     1      24.319  16.537 156.483  1.00  0.00     0.015 A 
HETATM    2  C3  UNL     1      23.765  16.180 157.647  1.00  0.00     0.053 A 
HETATM    3  C4  UNL     1      22.371  16.020 157.739  1.00  0.00     0.078 A 
HETATM    4  C5  UNL     1      21.556  16.220 156.649  1.00  0.00     0.026 A 
HETATM    5  C6  UNL     1      20.211  16.116 156.778  1.00  0.00     0.014 A 
HETATM    6  C16 UNL     1      19.398  16.430 155.629  1.00  0.00     0.113 A 
HETATM    7  C17 UNL     1      19.977  16.802 154.460  1.00  0.00     0.134 A 
HETATM    8  C18 UNL     1      21.345  16.897 154.320  1.00  0.00     0.115 A 
HETATM    9  C19 UNL     1      22.154  16.603 155.422  1.00  0.00     0.048 A 
HETATM   10  C20 UNL     1      23.519  16.759 155.337  1.00  0.00     0.091 A 
ENDROOT
BRANCH   5  11
HETATM   11  C7  UNL     1      19.499  15.456 157.830  1.00  0.00     0.015 C 
HETATM   12  C8  UNL     1      19.000  14.265 157.975  1.00  0.00     0.001 C 
BRANCH  12  13
HETATM   13  C9  UNL     1      18.312  13.875 159.218  1.00  0.00     0.003 C 
HETATM   14  C10 UNL     1      18.061  12.628 159.542  1.00  0.00    -0.080 C 
HETATM   15  C11 UNL     1      17.368  12.329 160.805  1.00  0.00     0.034 C 
HETATM   16  C15 UNL     1      18.510  11.587 158.577  1.00  0.00     0.034 C 
HETATM   17  C12 UNL     1      17.670  10.915 161.249  1.00  0.00     0.004 C 
HETATM   18  C13 UNL     1      17.263  10.012 160.101  1.00  0.00     0.001 C 
HETATM   19  C14 UNL     1      18.270  10.190 159.015  1.00  0.00     0.004 C 
ENDBRANCH  12  13
ENDBRANCH   5  11
BRANCH   6  20
HETATM   20  O2  UNL     1      18.040  16.349 155.721  1.00  0.00    -0.357 OA
ATOM     21  H2  UNL     1      17.508  16.468 154.943  1.00  0.00     0.217 HD
ENDBRANCH   6  20
BRANCH   3  22
HETATM   22  O1  UNL     1      21.898  15.673 158.988  1.00  0.00    -0.360 OA
ATOM     23  H1  UNL     1      22.212  16.211 159.705  1.00  0.00     0.217 HD
ENDBRANCH   3  22
BRANCH   7  24
HETATM   24  O3  UNL     1      19.132  17.098 153.369  1.00  0.00    -0.356 OA
ATOM     25  H3  UNL     1      18.312  16.623 153.299  1.00  0.00     0.218 HD
ENDBRANCH   7  24
BRANCH   8  26
HETATM   26  O4  UNL     1      21.887  17.274 153.113  1.00  0.00    -0.357 OA
ATOM     27  H4  UNL     1      22.564  16.743 152.710  1.00  0.00     0.217 HD
ENDBRANCH   8  26
BRANCH  10  28
HETATM   28  O5  UNL     1      24.137  17.117 154.200  1.00  0.00    -0.359 OA
ATOM     29  H5  UNL     1      23.604  17.468 153.497  1.00  0.00     0.217 HD
ENDBRANCH  10  28
BRANCH   1  30
HETATM   30  C1  UNL     1      25.750  16.705 156.367  1.00  0.00     0.094 C 
HETATM   31  N1  UNL     1      26.219  17.828 155.955  1.00  0.00    -0.407 N 
ATOM     32  H12 UNL     1      25.575  18.583 155.717  1.00  0.00     0.155 HD
ATOM     33  H11 UNL     1      27.229  17.946 155.873  1.00  0.00     0.155 HD
ENDBRANCH   1  30
TORSDOF 8
ENDMDL
MODEL 4
REMARK VINA RESULT: -9.248511203      3.143      7.530
REMARK  8 active torsions:
REMARK  status: ('A' for Active; 'I' for Inactive)
REMARK    1  A    between atoms: C1_4  and  C2_5 
REMARK    2  A    between atoms: C4_7  and  O1_8 
REMARK    3  A    between atoms: C6_11  and  C7_12 
REMARK    4  A    between atoms: C8_13  and  C9_14 
REMARK    5  A    between atoms: C16_21  and  O2_22 
REMARK    6  A    between atoms: C17_24  and  O3_25 
REMARK    7  A    between atoms: C18_27  and  O4_28 
REMARK    8  A    between atoms: C20_31  and  O5_32 
ROOT
HETATM    1  C2  UNL     1      22.820  15.453 161.023  1.00  0.00     0.015 A 
HETATM    2  C3  UNL     1      21.953  14.733 161.743  1.00  0.00     0.053 A 
HETATM    3  C4  UNL     1      20.712  14.373 161.190  1.00  0.00     0.078 A 
HETATM    4  C5  UNL     1      20.366  14.743 159.911  1.00  0.00     0.026 A 
HETATM    5  C6  UNL     1      19.140  14.434 159.422  1.00  0.00     0.014 A 
HETATM    6  C16 UNL     1      18.792  14.929 158.113  1.00  0.00     0.113 A 
HETATM    7  C17 UNL     1      19.678  15.670 157.402  1.00  0.00     0.134 A 
HETATM    8  C18 UNL     1      20.931  15.977 157.890  1.00  0.00     0.115 A 
HETATM    9  C19 UNL     1      21.289  15.512 159.159  1.00  0.00     0.048 A 
HETATM   10  C20 UNL     1      22.503  15.863 159.705  1.00  0.00     0.091 A 
ENDROOT
BRANCH   5  11
HETATM   11  C7  UNL     1      18.246  13.432 159.920  1.00  0.00     0.015 C 
HETATM   12  C8  UNL     1      18.072  12.170 159.665  1.00  0.00     0.001 C 
BRANCH  12  13
HETATM   13  C9  UNL     1      17.043  11.387 160.373  1.00  0.00     0.003 C 
HETATM   14  C10 UNL     1      16.942  10.082 160.280  1.00  0.00    -0.080 C 
HETATM   15  C11 UNL     1      15.884   9.379 161.024  1.00  0.00     0.034 C 
HETATM   16  C15 UNL     1      17.933   9.397 159.406  1.00  0.00     0.034 C 
HETATM   17  C12 UNL     1      16.264   7.931 161.240  1.00  0.00     0.004 C 
HETATM   18  C13 UNL     1      16.533   7.352 159.864  1.00  0.00     0.001 C 
HETATM   19  C14 UNL     1      17.827   7.917 159.387  1.00  0.00     0.004 C 
ENDBRANCH  12  13
ENDBRANCH   5  11
BRANCH   6  20
HETATM   20  O2  UNL     1      17.564  14.649 157.590  1.00  0.00    -0.357 OA
ATOM     21  H2  UNL     1      16.789  14.754 158.129  1.00  0.00     0.217 HD
ENDBRANCH   6  20
BRANCH   3  22
HETATM   22  O1  UNL     1      19.882  13.650 162.022  1.00  0.00    -0.360 OA
ATOM     23  H1  UNL     1      19.947  12.705 161.941  1.00  0.00     0.217 HD
ENDBRANCH   3  22
BRANCH   7  24
HETATM   24  O3  UNL     1      19.284  16.129 156.127  1.00  0.00    -0.356 OA
ATOM     25  H3  UNL     1      19.530  15.609 155.371  1.00  0.00     0.218 HD
ENDBRANCH   7  24
BRANCH   8  26
HETATM   26  O4  UNL     1      21.799  16.727 157.130  1.00  0.00    -0.357 OA
ATOM     27  H4  UNL     1      22.392  17.338 157.552  1.00  0.00     0.217 HD
ENDBRANCH   8  26
BRANCH  10  28
HETATM   28  O5  UNL     1      23.416  16.586 159.037  1.00  0.00    -0.359 OA
ATOM     29  H5  UNL     1      24.212  16.828 159.495  1.00  0.00     0.217 HD
ENDBRANCH  10  28
BRANCH   1  30
HETATM   30  C1  UNL     1      24.101  15.833 161.572  1.00  0.00     0.094 C 
HETATM   31  N1  UNL     1      24.234  15.936 162.845  1.00  0.00    -0.407 N 
ATOM     32  H12 UNL     1      23.433  15.749 163.449  1.00  0.00     0.155 HD
ATOM     33  H11 UNL     1      25.139  16.204 163.233  1.00  0.00     0.155 HD
ENDBRANCH   1  30
TORSDOF 8
ENDMDL
MODEL 5
REMARK VINA RESULT: -9.240448970      2.643      7.111
REMARK  8 active torsions:
REMARK  status: ('A' for Active; 'I' for Inactive)
REMARK    1  A    between atoms: C1_4  and  C2_5 
REMARK    2  A    between atoms: C4_7  and  O1_8 
REMARK    3  A    between atoms: C6_11  and  C7_12 
REMARK    4  A    between atoms: C8_13  and  C9_14 
REMARK    5  A    between atoms: C16_21  and  O2_22 
REMARK    6  A    between atoms: C17_24  and  O3_25 
REMARK    7  A    between atoms: C18_27  and  O4_28 
REMARK    8  A    between atoms: C20_31  and  O5_32 
ROOT
HETATM    1  C2  UNL     1      20.432  15.976 157.365  1.00  0.00     0.015 A 
HETATM    2  C3  UNL     1      19.482  15.283 158.001  1.00  0.00     0.053 A 
HETATM    3  C4  UNL     1      19.710  14.820 159.309  1.00  0.00     0.078 A 
HETATM    4  C5  UNL     1      20.897  15.068 159.958  1.00  0.00     0.026 A 
HETATM    5  C6  UNL     1      21.115  14.560 161.195  1.00  0.00     0.014 A 
HETATM    6  C16 UNL     1      22.412  14.768 161.791  1.00  0.00     0.113 A 
HETATM    7  C17 UNL     1      23.368  15.463 161.125  1.00  0.00     0.134 A 
HETATM    8  C18 UNL     1      23.148  15.992 159.871  1.00  0.00     0.115 A 
HETATM    9  C19 UNL     1      21.900  15.799 159.272  1.00  0.00     0.048 A 
HETATM   10  C20 UNL     1      21.672  16.250 157.991  1.00  0.00     0.091 A 
ENDROOT
BRANCH   5  11
HETATM   11  C7  UNL     1      20.124  14.086 162.114  1.00  0.00     0.015 C 
HETATM   12  C8  UNL     1      19.444  14.639 163.073  1.00  0.00     0.001 C 
BRANCH  12  13
HETATM   13  C9  UNL     1      18.463  13.863 163.853  1.00  0.00     0.003 C 
HETATM   14  C10 UNL     1      17.165  14.023 163.740  1.00  0.00    -0.080 C 
HETATM   15  C11 UNL     1      16.257  13.204 164.559  1.00  0.00     0.034 C 
HETATM   16  C15 UNL     1      16.703  15.049 162.766  1.00  0.00     0.034 C 
HETATM   17  C12 UNL     1      14.892  13.124 163.912  1.00  0.00     0.004 C 
HETATM   18  C13 UNL     1      14.425  14.554 163.725  1.00  0.00     0.001 C 
HETATM   19  C14 UNL     1      15.230  15.147 162.618  1.00  0.00     0.004 C 
ENDBRANCH  12  13
ENDBRANCH   5  11
BRANCH   6  20
HETATM   20  O2  UNL     1      22.674  14.264 163.030  1.00  0.00    -0.357 OA
ATOM     21  H2  UNL     1      21.981  13.838 163.520  1.00  0.00     0.217 HD
ENDBRANCH   6  20
BRANCH   3  22
HETATM   22  O1  UNL     1      18.676  14.096 159.868  1.00  0.00    -0.360 OA
ATOM     23  H1  UNL     1      18.586  13.205 159.550  1.00  0.00     0.217 HD
ENDBRANCH   3  22
BRANCH   7  24
HETATM   24  O3  UNL     1      24.619  15.635 161.756  1.00  0.00    -0.356 OA
ATOM     25  H3  UNL     1      25.220  16.271 161.385  1.00  0.00     0.218 HD
ENDBRANCH   7  24
BRANCH   8  26
HETATM   26  O4  UNL     1      24.147  16.694 159.236  1.00  0.00    -0.357 OA
ATOM     27  H4  UNL     1      24.306  16.559 158.309  1.00  0.00     0.217 HD
ENDBRANCH   8  26
BRANCH  10  28
HETATM   28  O5  UNL     1      22.584  16.949 157.297  1.00  0.00    -0.359 OA
ATOM     29  H5  UNL     1      23.267  17.394 157.784  1.00  0.00     0.217 HD
ENDBRANCH  10  28
BRANCH   1  30
HETATM   30  C1  UNL     1      20.217  16.463 156.022  1.00  0.00     0.094 C 
HETATM   31  N1  UNL     1      20.897  15.960 155.054  1.00  0.00    -0.407 N 
ATOM     32  H12 UNL     1      21.577  15.225 155.250  1.00  0.00     0.155 HD
ATOM     33  H11 UNL     1      20.746  16.304 154.106  1.00  0.00     0.155 HD
ENDBRANCH   1  30
TORSDOF 8
ENDMDL
