MODEL 1
REMARK VINA RESULT: -9.748618395      0.000      0.000
REMARK  6 active torsions:
REMARK  status: ('A' for Active; 'I' for Inactive)
REMARK    1  A    between atoms: C3_3  and  O1_4 
REMARK    2  A    between atoms: C5_7  and  O2_8 
REMARK    3  A    between atoms: C6_10  and  O3_11 
REMARK    4  A    between atoms: C8_15  and  O4_16 
REMARK    5  A    between atoms: C12_22  and  C13_23 
REMARK    6  A    between atoms: C14_24  and  C15_25 
ROOT
HETATM    1  C1  UNL     1      23.931  16.509 159.019  1.00  0.00     0.054 C 
HETATM    2  C2  UNL     1      22.574  15.956 159.258  1.00  0.00     0.007 A 
HETATM    3  C3  UNL     1      22.291  15.368 160.473  1.00  0.00     0.088 A 
HETATM    4  C4  UNL     1      21.049  14.838 160.749  1.00  0.00     0.048 A 
HETATM    5  C5  UNL     1      20.823  14.259 161.990  1.00  0.00     0.115 A 
HETATM    6  C6  UNL     1      19.554  13.725 162.251  1.00  0.00     0.127 A 
HETATM    7  C7  UNL     1      18.575  13.775 161.319  1.00  0.00     0.116 A 
HETATM    8  N1  UNL     1      17.302  13.226 161.614  1.00  0.00    -0.096 NA
HETATM    9  C8  UNL     1      18.788  14.357 160.059  1.00  0.00     0.105 A 
HETATM   10  C9  UNL     1      20.016  14.873 159.805  1.00  0.00     0.030 A 
HETATM   11  C10 UNL     1      20.287  15.461 158.580  1.00  0.00     0.040 A 
HETATM   12  C11 UNL     1      19.524  15.657 157.464  1.00  0.00     0.094 A 
HETATM   13  N2  UNL     1      18.207  15.366 157.087  1.00  0.00    -0.098 NA
HETATM   14  C12 UNL     1      20.386  16.315 156.554  1.00  0.00     0.101 A 
HETATM   15  O5  UNL     1      21.549  16.470 157.138  1.00  0.00    -0.307 OA
HETATM   16  C18 UNL     1      21.562  15.991 158.331  1.00  0.00     0.098 A 
ENDROOT
BRANCH  14  17
HETATM   17  C13 UNL     1      20.060  16.751 155.209  1.00  0.00     0.035 C 
HETATM   18  C14 UNL     1      20.741  16.686 154.113  1.00  0.00    -0.020 C 
BRANCH  18  19
HETATM   19  C15 UNL     1      20.183  17.215 152.816  1.00  0.00    -0.000 C 
HETATM   20  C16 UNL     1      21.306  17.444 151.831  1.00  0.00     0.013 C 
HETATM   21  C17 UNL     1      19.358  18.449 153.038  1.00  0.00     0.013 C 
ENDBRANCH  18  19
ENDBRANCH  14  17
BRANCH   9  22
HETATM   22  O4  UNL     1      17.726  14.336 159.229  1.00  0.00    -0.358 OA
ATOM     23  H4  UNL     1      17.692  15.045 158.598  1.00  0.00     0.217 HD
ENDBRANCH   9  22
BRANCH   3  24
HETATM   24  O1  UNL     1      23.280  15.313 161.429  1.00  0.00    -0.359 OA
ATOM     25  H1  UNL     1      23.259  14.611 162.069  1.00  0.00     0.217 HD
ENDBRANCH   3  24
BRANCH   5  26
HETATM   26  O2  UNL     1      21.710  14.155 162.982  1.00  0.00    -0.357 OA
ATOM     27  H2  UNL     1      21.509  14.011 163.900  1.00  0.00     0.217 HD
ENDBRANCH   5  26
BRANCH   6  28
HETATM   28  O3  UNL     1      19.368  13.154 163.506  1.00  0.00    -0.356 OA
ATOM     29  H3  UNL     1      18.469  13.053 163.795  1.00  0.00     0.218 HD
ENDBRANCH   6  28
TORSDOF 6
ENDMDL
MODEL 2
REMARK VINA RESULT: -9.521709096      2.270      6.490
REMARK  6 active torsions:
REMARK  status: ('A' for Active; 'I' for Inactive)
REMARK    1  A    between atoms: C3_3  and  O1_4 
REMARK    2  A    between atoms: C5_7  and  O2_8 
REMARK    3  A    between atoms: C6_10  and  O3_11 
REMARK    4  A    between atoms: C8_15  and  O4_16 
REMARK    5  A    between atoms: C12_22  and  C13_23 
REMARK    6  A    between atoms: C14_24  and  C15_25 
ROOT
HETATM    1  C1  UNL     1      23.341  15.625 160.929  1.00  0.00     0.054 C 
HETATM    2  C2  UNL     1      22.578  15.701 159.658  1.00  0.00     0.007 A 
HETATM    3  C3  UNL     1      23.220  16.120 158.511  1.00  0.00     0.088 A 
HETATM    4  C4  UNL     1      22.560  16.209 157.304  1.00  0.00     0.048 A 
HETATM    5  C5  UNL     1      23.259  16.638 156.184  1.00  0.00     0.115 A 
HETATM    6  C6  UNL     1      22.571  16.723 154.966  1.00  0.00     0.127 A 
HETATM    7  C7  UNL     1      21.261  16.395 154.884  1.00  0.00     0.116 A 
HETATM    8  N1  UNL     1      20.594  16.491 153.638  1.00  0.00    -0.096 NA
HETATM    9  C8  UNL     1      20.541  15.960 156.009  1.00  0.00     0.105 A 
HETATM   10  C9  UNL     1      21.205  15.878 157.188  1.00  0.00     0.030 A 
HETATM   11  C10 UNL     1      20.549  15.456 158.332  1.00  0.00     0.040 A 
HETATM   12  C11 UNL     1      19.260  15.066 158.563  1.00  0.00     0.094 A 
HETATM   13  N2  UNL     1      18.101  14.930 157.790  1.00  0.00    -0.098 NA
HETATM   14  C12 UNL     1      19.224  14.756 159.944  1.00  0.00     0.101 A 
HETATM   15  O5  UNL     1      20.420  14.963 160.437  1.00  0.00    -0.307 OA
HETATM   16  C18 UNL     1      21.249  15.376 159.545  1.00  0.00     0.098 A 
ENDROOT
BRANCH  14  17
HETATM   17  C13 UNL     1      18.076  14.289 160.699  1.00  0.00     0.035 C 
HETATM   18  C14 UNL     1      17.406  14.853 161.649  1.00  0.00    -0.020 C 
BRANCH  18  19
HETATM   19  C15 UNL     1      16.230  14.158 162.291  1.00  0.00    -0.000 C 
HETATM   20  C16 UNL     1      15.635  13.161 161.324  1.00  0.00     0.013 C 
HETATM   21  C17 UNL     1      15.216  15.147 162.789  1.00  0.00     0.013 C 
ENDBRANCH  18  19
ENDBRANCH  14  17
BRANCH   9  22
HETATM   22  O4  UNL     1      19.245  15.668 155.783  1.00  0.00    -0.358 OA
ATOM     23  H4  UNL     1      18.797  16.253 155.183  1.00  0.00     0.217 HD
ENDBRANCH   9  22
BRANCH   3  24
HETATM   24  O1  UNL     1      24.553  16.455 158.583  1.00  0.00    -0.359 OA
ATOM     25  H1  UNL     1      25.092  16.355 157.807  1.00  0.00     0.217 HD
ENDBRANCH   3  24
BRANCH   5  26
HETATM   26  O2  UNL     1      24.548  16.985 156.146  1.00  0.00    -0.357 OA
ATOM     27  H2  UNL     1      24.892  17.833 155.890  1.00  0.00     0.217 HD
ENDBRANCH   5  26
BRANCH   6  28
HETATM   28  O3  UNL     1      23.307  17.156 153.868  1.00  0.00    -0.356 OA
ATOM     29  H3  UNL     1      23.243  16.627 153.082  1.00  0.00     0.218 HD
ENDBRANCH   6  28
TORSDOF 6
ENDMDL
MODEL 3
REMARK VINA RESULT: -9.448521886      2.171      3.546
REMARK  6 active torsions:
REMARK  status: ('A' for Active; 'I' for Inactive)
REMARK    1  A    between atoms: C3_3  and  O1_4 
REMARK    2  A    between atoms: C5_7  and  O2_8 
REMARK    3  A    between atoms: C6_10  and  O3_11 
REMARK    4  A    between atoms: C8_15  and  O4_16 
REMARK    5  A    between atoms: C12_22  and  C13_23 
REMARK    6  A    between atoms: C14_24  and  C15_25 
ROOT
HETATM    1  C1  UNL     1      17.540  13.846 159.517  1.00  0.00     0.054 C 
HETATM    2  C2  UNL     1      18.928  14.334 159.713  1.00  0.00     0.007 A 
HETATM    3  C3  UNL     1      19.565  14.088 160.913  1.00  0.00     0.088 A 
HETATM    4  C4  UNL     1      20.853  14.517 161.149  1.00  0.00     0.048 A 
HETATM    5  C5  UNL     1      21.441  14.241 162.376  1.00  0.00     0.115 A 
HETATM    6  C6  UNL     1      22.751  14.686 162.598  1.00  0.00     0.127 A 
HETATM    7  C7  UNL     1      23.424  15.366 161.642  1.00  0.00     0.116 A 
HETATM    8  N1  UNL     1      24.748  15.803 161.899  1.00  0.00    -0.096 NA
HETATM    9  C8  UNL     1      22.843  15.655 160.397  1.00  0.00     0.105 A 
HETATM   10  C9  UNL     1      21.575  15.224 160.181  1.00  0.00     0.030 A 
HETATM   11  C10 UNL     1      20.948  15.478 158.973  1.00  0.00     0.040 A 
HETATM   12  C11 UNL     1      21.357  16.125 157.841  1.00  0.00     0.094 A 
HETATM   13  N2  UNL     1      22.523  16.780 157.428  1.00  0.00    -0.098 NA
HETATM   14  C12 UNL     1      20.249  16.042 156.963  1.00  0.00     0.101 A 
HETATM   15  O5  UNL     1      19.293  15.388 157.577  1.00  0.00    -0.307 OA
HETATM   16  C18 UNL     1      19.636  15.027 158.763  1.00  0.00     0.098 A 
ENDROOT
BRANCH  14  17
HETATM   17  C13 UNL     1      20.166  16.577 155.617  1.00  0.00     0.035 C 
HETATM   18  C14 UNL     1      20.786  16.237 154.535  1.00  0.00    -0.020 C 
BRANCH  18  19
HETATM   19  C15 UNL     1      20.530  16.953 153.232  1.00  0.00    -0.000 C 
HETATM   20  C16 UNL     1      21.805  17.601 152.745  1.00  0.00     0.013 C 
HETATM   21  C17 UNL     1      19.404  17.937 153.362  1.00  0.00     0.013 C 
ENDBRANCH  18  19
ENDBRANCH  14  17
BRANCH   9  22
HETATM   22  O4  UNL     1      23.627  16.339 159.542  1.00  0.00    -0.358 OA
ATOM     23  H4  UNL     1      24.173  17.007 159.939  1.00  0.00     0.217 HD
ENDBRANCH   9  22
BRANCH   3  24
HETATM   24  O1  UNL     1      18.889  13.395 161.892  1.00  0.00    -0.359 OA
ATOM     25  H1  UNL     1      19.056  13.610 162.802  1.00  0.00     0.217 HD
ENDBRANCH   3  24
BRANCH   5  26
HETATM   26  O2  UNL     1      20.875  13.579 163.388  1.00  0.00    -0.357 OA
ATOM     27  H2  UNL     1      20.747  13.908 164.270  1.00  0.00     0.217 HD
ENDBRANCH   5  26
BRANCH   6  28
HETATM   28  O3  UNL     1      23.304  14.388 163.839  1.00  0.00    -0.356 OA
ATOM     29  H3  UNL     1      24.253  14.392 163.891  1.00  0.00     0.218 HD
ENDBRANCH   6  28
TORSDOF 6
ENDMDL
MODEL 4
REMARK VINA RESULT: -9.322095611      2.241      6.520
REMARK  6 active torsions:
REMARK  status: ('A' for Active; 'I' for Inactive)
REMARK    1  A    between atoms: C3_3  and  O1_4 
REMARK    2  A    between atoms: C5_7  and  O2_8 
REMARK    3  A    between atoms: C6_10  and  O3_11 
REMARK    4  A    between atoms: C8_15  and  O4_16 
REMARK    5  A    between atoms: C12_22  and  C13_23 
REMARK    6  A    between atoms: C14_24  and  C15_25 
ROOT
HETATM    1  C1  UNL     1      23.088  15.542 161.098  1.00  0.00     0.054 C 
HETATM    2  C2  UNL     1      22.433  15.644 159.770  1.00  0.00     0.007 A 
HETATM    3  C3  UNL     1      23.170  16.078 158.687  1.00  0.00     0.088 A 
HETATM    4  C4  UNL     1      22.614  16.192 157.432  1.00  0.00     0.048 A 
HETATM    5  C5  UNL     1      23.406  16.635 156.381  1.00  0.00     0.115 A 
HETATM    6  C6  UNL     1      22.821  16.745 155.112  1.00  0.00     0.127 A 
HETATM    7  C7  UNL     1      21.521  16.427 154.916  1.00  0.00     0.116 A 
HETATM    8  N1  UNL     1      20.961  16.550 153.620  1.00  0.00    -0.096 NA
HETATM    9  C8  UNL     1      20.708  15.979 155.969  1.00  0.00     0.105 A 
HETATM   10  C9  UNL     1      21.271  15.873 157.198  1.00  0.00     0.030 A 
HETATM   11  C10 UNL     1      20.520  15.436 158.276  1.00  0.00     0.040 A 
HETATM   12  C11 UNL     1      19.214  15.051 158.392  1.00  0.00     0.094 A 
HETATM   13  N2  UNL     1      18.122  14.936 157.523  1.00  0.00    -0.098 NA
HETATM   14  C12 UNL     1      19.061  14.718 159.760  1.00  0.00     0.101 A 
HETATM   15  O5  UNL     1      20.214  14.908 160.354  1.00  0.00    -0.307 OA
HETATM   16  C18 UNL     1      21.116  15.331 159.541  1.00  0.00     0.098 A 
ENDROOT
BRANCH  14  17
HETATM   17  C13 UNL     1      17.852  14.246 160.409  1.00  0.00     0.035 C 
HETATM   18  C14 UNL     1      17.362  13.055 160.514  1.00  0.00    -0.020 C 
BRANCH  18  19
HETATM   19  C15 UNL     1      16.068  12.807 161.249  1.00  0.00    -0.000 C 
HETATM   20  C16 UNL     1      15.954  13.758 162.418  1.00  0.00     0.013 C 
HETATM   21  C17 UNL     1      15.942  11.371 161.667  1.00  0.00     0.013 C 
ENDBRANCH  18  19
ENDBRANCH  14  17
BRANCH   9  22
HETATM   22  O4  UNL     1      19.433  15.700 155.631  1.00  0.00    -0.358 OA
ATOM     23  H4  UNL     1      19.132  14.832 155.871  1.00  0.00     0.217 HD
ENDBRANCH   9  22
BRANCH   3  24
HETATM   24  O1  UNL     1      24.495  16.403 158.876  1.00  0.00    -0.359 OA
ATOM     25  H1  UNL     1      24.833  16.447 159.763  1.00  0.00     0.217 HD
ENDBRANCH   3  24
BRANCH   5  26
HETATM   26  O2  UNL     1      24.695  16.974 156.456  1.00  0.00    -0.357 OA
ATOM     27  H2  UNL     1      25.109  17.702 156.008  1.00  0.00     0.217 HD
ENDBRANCH   5  26
BRANCH   6  28
HETATM   28  O3  UNL     1      23.648  17.191 154.086  1.00  0.00    -0.356 OA
ATOM     29  H3  UNL     1      23.853  18.119 154.082  1.00  0.00     0.218 HD
ENDBRANCH   6  28
TORSDOF 6
ENDMDL
MODEL 5
REMARK VINA RESULT: -8.711442223      0.781      1.076
REMARK  6 active torsions:
REMARK  status: ('A' for Active; 'I' for Inactive)
REMARK    1  A    between atoms: C3_3  and  O1_4 
REMARK    2  A    between atoms: C5_7  and  O2_8 
REMARK    3  A    between atoms: C6_10  and  O3_11 
REMARK    4  A    between atoms: C8_15  and  O4_16 
REMARK    5  A    between atoms: C12_22  and  C13_23 
REMARK    6  A    between atoms: C14_24  and  C15_25 
ROOT
HETATM    1  C1  UNL     1      23.662  16.146 160.041  1.00  0.00     0.054 C 
HETATM    2  C2  UNL     1      22.285  15.592 160.051  1.00  0.00     0.007 A 
HETATM    3  C3  UNL     1      21.851  14.886 161.154  1.00  0.00     0.088 A 
HETATM    4  C4  UNL     1      20.583  14.350 161.217  1.00  0.00     0.048 A 
HETATM    5  C5  UNL     1      20.203  13.648 162.354  1.00  0.00     0.115 A 
HETATM    6  C6  UNL     1      18.910  13.111 162.399  1.00  0.00     0.127 A 
HETATM    7  C7  UNL     1      18.054  13.272 161.364  1.00  0.00     0.116 A 
HETATM    8  N1  UNL     1      16.753  12.715 161.441  1.00  0.00    -0.096 NA
HETATM    9  C8  UNL     1      18.424  13.978 160.208  1.00  0.00     0.105 A 
HETATM   10  C9  UNL     1      19.675  14.499 160.162  1.00  0.00     0.030 A 
HETATM   11  C10 UNL     1      20.098  15.206 159.049  1.00  0.00     0.040 A 
HETATM   12  C11 UNL     1      19.479  15.528 157.874  1.00  0.00     0.094 A 
HETATM   13  N2  UNL     1      18.219  15.299 157.309  1.00  0.00    -0.098 NA
HETATM   14  C12 UNL     1      20.449  16.264 157.151  1.00  0.00     0.101 A 
HETATM   15  O5  UNL     1      21.532  16.340 157.887  1.00  0.00    -0.307 OA
HETATM   16  C18 UNL     1      21.395  15.739 159.016  1.00  0.00     0.098 A 
ENDROOT
BRANCH  14  17
HETATM   17  C13 UNL     1      20.293  16.842 155.830  1.00  0.00     0.035 C 
HETATM   18  C14 UNL     1      20.974  16.663 154.745  1.00  0.00    -0.020 C 
BRANCH  18  19
HETATM   19  C15 UNL     1      20.615  17.388 153.472  1.00  0.00    -0.000 C 
HETATM   20  C16 UNL     1      19.130  17.665 153.442  1.00  0.00     0.013 C 
HETATM   21  C17 UNL     1      21.080  16.632 152.262  1.00  0.00     0.013 C 
ENDBRANCH  18  19
ENDBRANCH  14  17
BRANCH   9  22
HETATM   22  O4  UNL     1      17.473  14.060 159.256  1.00  0.00    -0.358 OA
ATOM     23  H4  UNL     1      17.796  14.163 158.369  1.00  0.00     0.217 HD
ENDBRANCH   9  22
BRANCH   3  24
HETATM   24  O1  UNL     1      22.714  14.717 162.213  1.00  0.00    -0.359 OA
ATOM     25  H1  UNL     1      23.627  14.524 162.033  1.00  0.00     0.217 HD
ENDBRANCH   3  24
BRANCH   5  26
HETATM   26  O2  UNL     1      20.960  13.429 163.431  1.00  0.00    -0.357 OA
ATOM     27  H2  UNL     1      21.900  13.285 163.435  1.00  0.00     0.217 HD
ENDBRANCH   5  26
BRANCH   6  28
HETATM   28  O3  UNL     1      18.569  12.415 163.555  1.00  0.00    -0.356 OA
ATOM     29  H3  UNL     1      18.024  11.646 163.439  1.00  0.00     0.218 HD
ENDBRANCH   6  28
TORSDOF 6
ENDMDL
