MODEL 1
REMARK VINA RESULT: -8.062310982      0.000      0.000
REMARK  6 active torsions:
REMARK  status: ('A' for Active; 'I' for Inactive)
REMARK    1  A    between atoms: C1_4  and  C2_5 
REMARK    2  A    between atoms: C4_7  and  O1_8 
REMARK    3  A    between atoms: C6_11  and  O2_12 
REMARK    4  A    between atoms: C8_15  and  O3_16 
REMARK    5  A    between atoms: C11_23  and  O4_24 
REMARK    6  A    between atoms: C13_27  and  S2_28 
ROOT
HETATM    1  C2  UNL     1      20.578  14.968 160.151  1.00  0.00    -0.000 A 
HETATM    2  C3  UNL     1      21.789  15.297 160.718  1.00  0.00     0.051 A 
HETATM    3  C4  UNL     1      22.787  15.814 159.908  1.00  0.00     0.080 A 
HETATM    4  C5  UNL     1      22.605  16.011 158.545  1.00  0.00     0.046 A 
HETATM    5  C6  UNL     1      23.646  16.536 157.775  1.00  0.00     0.095 A 
HETATM    6  C7  UNL     1      23.471  16.732 156.427  1.00  0.00     0.065 A 
HETATM    7  C8  UNL     1      24.299  17.222 155.440  1.00  0.00     0.155 A 
HETATM    8  N2  UNL     1      23.613  17.194 154.289  1.00  0.00    -0.329 N 
ATOM      9  H2  UNL     1      23.978  17.500 153.387  1.00  0.00     0.168 HD
HETATM   10  C9  UNL     1      22.361  16.701 154.491  1.00  0.00     0.097 A 
HETATM   11  S1  UNL     1      21.100  16.480 153.270  1.00  0.00    -0.032 SA
HETATM   12  C10 UNL     1      22.244  16.403 155.825  1.00  0.00     0.050 A 
HETATM   13  C11 UNL     1      21.225  15.884 156.606  1.00  0.00     0.092 A 
HETATM   14  C12 UNL     1      21.418  15.689 157.982  1.00  0.00     0.032 A 
HETATM   15  C13 UNL     1      20.414  15.174 158.774  1.00  0.00     0.038 A 
ENDROOT
BRANCH   1  16
HETATM   16  C1  UNL     1      19.483  14.421 160.931  1.00  0.00     0.093 C 
HETATM   17  N1  UNL     1      19.643  14.092 162.153  1.00  0.00    -0.407 N 
ATOM     18  H12 UNL     1      20.563  14.221 162.575  1.00  0.00     0.155 HD
ATOM     19  H11 UNL     1      18.874  13.708 162.702  1.00  0.00     0.155 HD
ENDBRANCH   1  16
BRANCH  15  20
HETATM   20  S2  UNL     1      18.865  14.757 158.020  1.00  0.00    -0.044 SA
HETATM   21  S3  UNL     1      18.654  12.666 157.740  1.00  0.00    -0.007 SA
ENDBRANCH  15  20
BRANCH   3  22
HETATM   22  O1  UNL     1      23.991  16.137 160.496  1.00  0.00    -0.360 OA
ATOM     23  H1  UNL     1      24.514  15.430 160.855  1.00  0.00     0.217 HD
ENDBRANCH   3  22
BRANCH  13  24
HETATM   24  O4  UNL     1      19.987  15.527 156.129  1.00  0.00    -0.359 OA
ATOM     25  H4  UNL     1      19.703  14.631 155.991  1.00  0.00     0.217 HD
ENDBRANCH  13  24
BRANCH   5  26
HETATM   26  O2  UNL     1      24.842  16.851 158.389  1.00  0.00    -0.359 OA
ATOM     27  H2  UNL     1      25.086  17.764 158.483  1.00  0.00     0.217 HD
ENDBRANCH   5  26
BRANCH   7  28
HETATM   28  O3  UNL     1      25.609  17.671 155.568  1.00  0.00    -0.345 OA
ATOM     29  H3  UNL     1      26.399  17.151 155.658  1.00  0.00     0.219 HD
ENDBRANCH   7  28
TORSDOF 6
ENDMDL
MODEL 2
REMARK VINA RESULT: -7.824442738      2.340      5.785
REMARK  6 active torsions:
REMARK  status: ('A' for Active; 'I' for Inactive)
REMARK    1  A    between atoms: C1_4  and  C2_5 
REMARK    2  A    between atoms: C4_7  and  O1_8 
REMARK    3  A    between atoms: C6_11  and  O2_12 
REMARK    4  A    between atoms: C8_15  and  O3_16 
REMARK    5  A    between atoms: C11_23  and  O4_24 
REMARK    6  A    between atoms: C13_27  and  S2_28 
ROOT
HETATM    1  C2  UNL     1      21.135  16.088 157.530  1.00  0.00    -0.000 A 
HETATM    2  C3  UNL     1      22.432  16.519 157.701  1.00  0.00     0.051 A 
HETATM    3  C4  UNL     1      23.051  16.304 158.921  1.00  0.00     0.080 A 
HETATM    4  C5  UNL     1      22.408  15.667 159.976  1.00  0.00     0.046 A 
HETATM    5  C6  UNL     1      23.080  15.475 161.185  1.00  0.00     0.095 A 
HETATM    6  C7  UNL     1      22.447  14.846 162.230  1.00  0.00     0.065 A 
HETATM    7  C8  UNL     1      22.851  14.527 163.508  1.00  0.00     0.155 A 
HETATM    8  N2  UNL     1      21.824  13.912 164.111  1.00  0.00    -0.329 N 
ATOM      9  H2  UNL     1      21.838  13.562 165.069  1.00  0.00     0.168 HD
HETATM   10  C9  UNL     1      20.760  13.819 163.268  1.00  0.00     0.097 A 
HETATM   11  S1  UNL     1      19.189  13.087 163.622  1.00  0.00    -0.032 SA
HETATM   12  C10 UNL     1      21.124  14.397 162.078  1.00  0.00     0.050 A 
HETATM   13  C11 UNL     1      20.475  14.597 160.872  1.00  0.00     0.092 A 
HETATM   14  C12 UNL     1      21.133  15.241 159.813  1.00  0.00     0.032 A 
HETATM   15  C13 UNL     1      20.503  15.448 158.605  1.00  0.00     0.038 A 
ENDROOT
BRANCH   1  16
HETATM   16  C1  UNL     1      20.417  16.276 156.283  1.00  0.00     0.093 C 
HETATM   17  N1  UNL     1      20.948  15.969 155.163  1.00  0.00    -0.407 N 
ATOM     18  H12 UNL     1      21.893  15.587 155.162  1.00  0.00     0.155 HD
ATOM     19  H11 UNL     1      20.443  16.102 154.287  1.00  0.00     0.155 HD
ENDBRANCH   1  16
BRANCH  15  20
HETATM   20  S2  UNL     1      18.834  14.883 158.409  1.00  0.00    -0.044 SA
HETATM   21  S3  UNL     1      18.748  12.904 157.652  1.00  0.00    -0.007 SA
ENDBRANCH  15  20
BRANCH   3  22
HETATM   22  O1  UNL     1      24.348  16.743 159.072  1.00  0.00    -0.360 OA
ATOM     23  H1  UNL     1      24.560  17.244 159.851  1.00  0.00     0.217 HD
ENDBRANCH   3  22
BRANCH  13  24
HETATM   24  O4  UNL     1      19.185  14.203 160.610  1.00  0.00    -0.359 OA
ATOM     25  H4  UNL     1      18.633  14.585 159.939  1.00  0.00     0.217 HD
ENDBRANCH  13  24
BRANCH   5  26
HETATM   26  O2  UNL     1      24.379  15.925 161.309  1.00  0.00    -0.359 OA
ATOM     27  H2  UNL     1      24.750  16.032 162.177  1.00  0.00     0.217 HD
ENDBRANCH   5  26
BRANCH   7  28
HETATM   28  O3  UNL     1      24.082  14.777 164.103  1.00  0.00    -0.345 OA
ATOM     29  H3  UNL     1      24.317  14.688 165.020  1.00  0.00     0.219 HD
ENDBRANCH   7  28
TORSDOF 6
ENDMDL
MODEL 3
REMARK VINA RESULT: -7.806274067      3.245      4.626
REMARK  6 active torsions:
REMARK  status: ('A' for Active; 'I' for Inactive)
REMARK    1  A    between atoms: C1_4  and  C2_5 
REMARK    2  A    between atoms: C4_7  and  O1_8 
REMARK    3  A    between atoms: C6_11  and  O2_12 
REMARK    4  A    between atoms: C8_15  and  O3_16 
REMARK    5  A    between atoms: C11_23  and  O4_24 
REMARK    6  A    between atoms: C13_27  and  S2_28 
ROOT
HETATM    1  C2  UNL     1      21.540  14.276 163.035  1.00  0.00    -0.000 A 
HETATM    2  C3  UNL     1      20.238  13.984 162.694  1.00  0.00     0.051 A 
HETATM    3  C4  UNL     1      19.800  14.284 161.415  1.00  0.00     0.080 A 
HETATM    4  C5  UNL     1      20.629  14.869 160.466  1.00  0.00     0.046 A 
HETATM    5  C6  UNL     1      20.135  15.150 159.190  1.00  0.00     0.095 A 
HETATM    6  C7  UNL     1      20.952  15.729 158.250  1.00  0.00     0.065 A 
HETATM    7  C8  UNL     1      20.744  16.111 156.942  1.00  0.00     0.155 A 
HETATM    8  N2  UNL     1      21.894  16.628 156.487  1.00  0.00    -0.329 N 
ATOM      9  H2  UNL     1      22.034  16.994 155.545  1.00  0.00     0.168 HD
HETATM   10  C9  UNL     1      22.849  16.597 157.456  1.00  0.00     0.097 A 
HETATM   11  S1  UNL     1      24.517  17.168 157.318  1.00  0.00    -0.032 SA
HETATM   12  C10 UNL     1      22.284  16.036 158.574  1.00  0.00     0.050 A 
HETATM   13  C11 UNL     1      22.755  15.750 159.844  1.00  0.00     0.092 A 
HETATM   14  C12 UNL     1      21.909  15.159 160.795  1.00  0.00     0.032 A 
HETATM   15  C13 UNL     1      22.362  14.866 162.064  1.00  0.00     0.038 A 
ENDROOT
BRANCH   1  16
HETATM   16  C1  UNL     1      22.075  13.993 164.353  1.00  0.00     0.093 C 
HETATM   17  N1  UNL     1      21.891  14.796 165.327  1.00  0.00    -0.407 N 
ATOM     18  H12 UNL     1      21.355  15.648 165.160  1.00  0.00     0.155 HD
ATOM     19  H11 UNL     1      22.267  14.596 166.254  1.00  0.00     0.155 HD
ENDBRANCH   1  16
BRANCH  15  20
HETATM   20  S2  UNL     1      24.041  15.252 162.478  1.00  0.00    -0.044 SA
HETATM   21  S3  UNL     1      25.248  13.513 162.612  1.00  0.00    -0.007 SA
ENDBRANCH  15  20
BRANCH   3  22
HETATM   22  O1  UNL     1      18.493  13.984 161.094  1.00  0.00    -0.360 OA
ATOM     23  H1  UNL     1      18.139  13.158 161.402  1.00  0.00     0.217 HD
ENDBRANCH   3  22
BRANCH  13  24
HETATM   24  O4  UNL     1      24.035  16.006 160.273  1.00  0.00    -0.359 OA
ATOM     25  H4  UNL     1      24.650  16.571 159.821  1.00  0.00     0.217 HD
ENDBRANCH  13  24
BRANCH   5  26
HETATM   26  O2  UNL     1      18.822  14.839 158.896  1.00  0.00    -0.359 OA
ATOM     27  H2  UNL     1      18.574  14.695 157.990  1.00  0.00     0.217 HD
ENDBRANCH   5  26
BRANCH   7  28
HETATM   28  O3  UNL     1      19.577  16.001 156.194  1.00  0.00    -0.345 OA
ATOM     29  H3  UNL     1      19.310  16.523 155.447  1.00  0.00     0.219 HD
ENDBRANCH   7  28
TORSDOF 6
ENDMDL
MODEL 4
REMARK VINA RESULT: -7.685209437      1.924      2.855
REMARK  6 active torsions:
REMARK  status: ('A' for Active; 'I' for Inactive)
REMARK    1  A    between atoms: C1_4  and  C2_5 
REMARK    2  A    between atoms: C4_7  and  O1_8 
REMARK    3  A    between atoms: C6_11  and  O2_12 
REMARK    4  A    between atoms: C8_15  and  O3_16 
REMARK    5  A    between atoms: C11_23  and  O4_24 
REMARK    6  A    between atoms: C13_27  and  S2_28 
ROOT
HETATM    1  C2  UNL     1      19.931  13.737 162.639  1.00  0.00    -0.000 A 
HETATM    2  C3  UNL     1      21.172  13.960 163.196  1.00  0.00     0.051 A 
HETATM    3  C4  UNL     1      22.140  14.595 162.436  1.00  0.00     0.080 A 
HETATM    4  C5  UNL     1      21.901  15.015 161.133  1.00  0.00     0.046 A 
HETATM    5  C6  UNL     1      22.914  15.653 160.412  1.00  0.00     0.095 A 
HETATM    6  C7  UNL     1      22.681  16.069 159.123  1.00  0.00     0.065 A 
HETATM    7  C8  UNL     1      23.472  16.708 158.193  1.00  0.00     0.155 A 
HETATM    8  N2  UNL     1      22.733  16.875 157.087  1.00  0.00    -0.329 N 
ATOM      9  H2  UNL     1      23.062  17.323 156.231  1.00  0.00     0.168 HD
HETATM   10  C9  UNL     1      21.484  16.366 157.263  1.00  0.00     0.097 A 
HETATM   11  S1  UNL     1      20.167  16.358 156.083  1.00  0.00    -0.032 SA
HETATM   12  C10 UNL     1      21.423  15.853 158.535  1.00  0.00     0.050 A 
HETATM   13  C11 UNL     1      20.433  15.220 159.266  1.00  0.00     0.092 A 
HETATM   14  C12 UNL     1      20.684  14.799 160.581  1.00  0.00     0.032 A 
HETATM   15  C13 UNL     1      19.710  14.168 161.324  1.00  0.00     0.038 A 
ENDROOT
BRANCH   1  16
HETATM   16  C1  UNL     1      18.865  13.079 163.369  1.00  0.00     0.093 C 
HETATM   17  N1  UNL     1      18.278  13.656 164.345  1.00  0.00    -0.407 N 
ATOM     18  H12 UNL     1      18.576  14.596 164.603  1.00  0.00     0.155 HD
ATOM     19  H11 UNL     1      17.529  13.192 164.858  1.00  0.00     0.155 HD
ENDBRANCH   1  16
BRANCH  15  20
HETATM   20  S2  UNL     1      18.122  13.894 160.585  1.00  0.00    -0.044 SA
HETATM   21  S3  UNL     1      17.866  11.878 159.977  1.00  0.00    -0.007 SA
ENDBRANCH  15  20
BRANCH   3  22
HETATM   22  O1  UNL     1      23.374  14.808 163.011  1.00  0.00    -0.360 OA
ATOM     23  H1  UNL     1      23.825  14.060 163.386  1.00  0.00     0.217 HD
ENDBRANCH   3  22
BRANCH  13  24
HETATM   24  O4  UNL     1      19.170  14.955 158.795  1.00  0.00    -0.359 OA
ATOM     25  H4  UNL     1      18.716  14.129 158.910  1.00  0.00     0.217 HD
ENDBRANCH  13  24
BRANCH   5  26
HETATM   26  O2  UNL     1      24.141  15.853 161.012  1.00  0.00    -0.359 OA
ATOM     27  H2  UNL     1      24.189  15.898 161.960  1.00  0.00     0.217 HD
ENDBRANCH   5  26
BRANCH   7  28
HETATM   28  O3  UNL     1      24.792  17.120 158.332  1.00  0.00    -0.345 OA
ATOM     29  H3  UNL     1      25.482  16.710 158.840  1.00  0.00     0.219 HD
ENDBRANCH   7  28
TORSDOF 6
ENDMDL
MODEL 5
REMARK VINA RESULT: -7.653115829      2.784      4.110
REMARK  6 active torsions:
REMARK  status: ('A' for Active; 'I' for Inactive)
REMARK    1  A    between atoms: C1_4  and  C2_5 
REMARK    2  A    between atoms: C4_7  and  O1_8 
REMARK    3  A    between atoms: C6_11  and  O2_12 
REMARK    4  A    between atoms: C8_15  and  O3_16 
REMARK    5  A    between atoms: C11_23  and  O4_24 
REMARK    6  A    between atoms: C13_27  and  S2_28 
ROOT
HETATM    1  C2  UNL     1      21.056  14.618 162.093  1.00  0.00    -0.000 A 
HETATM    2  C3  UNL     1      19.782  14.393 161.618  1.00  0.00     0.051 A 
HETATM    3  C4  UNL     1      19.512  14.653 160.285  1.00  0.00     0.080 A 
HETATM    4  C5  UNL     1      20.481  15.132 159.412  1.00  0.00     0.046 A 
HETATM    5  C6  UNL     1      20.153  15.377 158.076  1.00  0.00     0.095 A 
HETATM    6  C7  UNL     1      21.109  15.851 157.211  1.00  0.00     0.065 A 
HETATM    7  C8  UNL     1      21.076  16.176 155.872  1.00  0.00     0.155 A 
HETATM    8  N2  UNL     1      22.303  16.593 155.530  1.00  0.00    -0.329 N 
ATOM      9  H2  UNL     1      22.573  16.899 154.595  1.00  0.00     0.168 HD
HETATM   10  C9  UNL     1      23.139  16.551 156.603  1.00  0.00     0.097 A 
HETATM   11  S1  UNL     1      24.848  17.006 156.632  1.00  0.00    -0.032 SA
HETATM   12  C10 UNL     1      22.415  16.088 157.672  1.00  0.00     0.050 A 
HETATM   13  C11 UNL     1      22.720  15.840 159.000  1.00  0.00     0.092 A 
HETATM   14  C12 UNL     1      21.734  15.356 159.873  1.00  0.00     0.032 A 
HETATM   15  C13 UNL     1      22.019  15.101 161.197  1.00  0.00     0.038 A 
ENDROOT
BRANCH   1  16
HETATM   16  C1  UNL     1      21.418  14.371 163.475  1.00  0.00     0.093 C 
HETATM   17  N1  UNL     1      21.044  15.158 164.407  1.00  0.00    -0.407 N 
ATOM     18  H12 UNL     1      20.481  15.971 164.159  1.00  0.00     0.155 HD
ATOM     19  H11 UNL     1      21.300  14.984 165.379  1.00  0.00     0.155 HD
ENDBRANCH   1  16
BRANCH  15  20
HETATM   20  S2  UNL     1      23.665  15.400 161.784  1.00  0.00    -0.044 SA
HETATM   21  S3  UNL     1      24.550  13.650 162.593  1.00  0.00    -0.007 SA
ENDBRANCH  15  20
BRANCH   3  22
HETATM   22  O1  UNL     1      18.231  14.421 159.829  1.00  0.00    -0.360 OA
ATOM     23  H1  UNL     1      18.019  14.693 158.945  1.00  0.00     0.217 HD
ENDBRANCH   3  22
BRANCH  13  24
HETATM   24  O4  UNL     1      23.958  16.034 159.561  1.00  0.00    -0.359 OA
ATOM     25  H4  UNL     1      24.178  16.754 160.141  1.00  0.00     0.217 HD
ENDBRANCH  13  24
BRANCH   5  26
HETATM   26  O2  UNL     1      18.863  15.136 157.647  1.00  0.00    -0.359 OA
ATOM     27  H2  UNL     1      18.524  14.250 157.680  1.00  0.00     0.217 HD
ENDBRANCH   5  26
BRANCH   7  28
HETATM   28  O3  UNL     1      19.995  16.102 155.001  1.00  0.00    -0.345 OA
ATOM     29  H3  UNL     1      19.241  15.526 155.053  1.00  0.00     0.219 HD
ENDBRANCH   7  28
TORSDOF 6
ENDMDL
