MODEL 1
REMARK VINA RESULT: -8.553151716      0.000      0.000
REMARK  8 active torsions:
REMARK  status: ('A' for Active; 'I' for Inactive)
REMARK    1  A    between atoms: C2_2  and  N1_3 
REMARK    2  A    between atoms: N1_3  and  C3_5 
REMARK    3  A    between atoms: C4_6  and  O1_7 
REMARK    4  A    between atoms: C5_9  and  O2_10 
REMARK    5  A    between atoms: C6_12  and  O3_13 
REMARK    6  A    between atoms: C8_16  and  O4_17 
REMARK    7  A    between atoms: C16_26  and  O5_27 
REMARK    8  A    between atoms: C17_29  and  O6_30 
ROOT
HETATM    1  C3  UNL     1      20.591  14.333 162.140  1.00  0.00     0.078 A 
HETATM    2  C4  UNL     1      21.392  14.241 163.281  1.00  0.00     0.129 A 
HETATM    3  C5  UNL     1      22.704  14.706 163.265  1.00  0.00     0.135 A 
HETATM    4  C6  UNL     1      23.162  15.246 162.093  1.00  0.00     0.115 A 
HETATM    5  C7  UNL     1      22.364  15.337 160.943  1.00  0.00     0.050 A 
HETATM    6  C8  UNL     1      22.906  15.868 159.763  1.00  0.00     0.093 A 
HETATM    7  C9  UNL     1      22.158  15.945 158.583  1.00  0.00     0.036 A 
HETATM    8  C10 UNL     1      22.714  16.521 157.378  1.00  0.00    -0.064 C 
HETATM    9  C11 UNL     1      21.966  16.216 156.115  1.00  0.00     0.035 C 
HETATM   10  C12 UNL     1      22.700  16.550 154.831  1.00  0.00     0.004 C 
HETATM   11  C13 UNL     1      24.110  15.992 154.814  1.00  0.00     0.001 C 
HETATM   12  C14 UNL     1      24.762  16.804 155.892  1.00  0.00     0.004 C 
HETATM   13  C15 UNL     1      24.207  16.520 157.267  1.00  0.00     0.035 C 
HETATM   14  C16 UNL     1      20.875  15.475 158.644  1.00  0.00     0.113 A 
HETATM   15  C17 UNL     1      20.302  14.941 159.803  1.00  0.00     0.113 A 
HETATM   16  C18 UNL     1      21.070  14.876 160.969  1.00  0.00     0.045 A 
ENDROOT
BRANCH   6  17
HETATM   17  O4  UNL     1      24.137  16.299 159.778  1.00  0.00    -0.359 OA
ATOM     18  H4  UNL     1      24.397  16.960 159.147  1.00  0.00     0.217 HD
ENDBRANCH   6  17
BRANCH  14  19
HETATM   19  O5  UNL     1      20.074  15.501 157.558  1.00  0.00    -0.357 OA
ATOM     20  H5  UNL     1      19.152  15.711 157.637  1.00  0.00     0.217 HD
ENDBRANCH  14  19
BRANCH  15  21
HETATM   21  O6  UNL     1      19.009  14.475 159.821  1.00  0.00    -0.357 OA
ATOM     22  H6  UNL     1      18.810  13.560 159.980  1.00  0.00     0.217 HD
ENDBRANCH  15  21
BRANCH   4  23
HETATM   23  O3  UNL     1      24.459  15.707 162.076  1.00  0.00    -0.357 OA
ATOM     24  H3  UNL     1      24.750  16.156 161.291  1.00  0.00     0.217 HD
ENDBRANCH   4  23
BRANCH   3  25
HETATM   25  O2  UNL     1      23.440  14.587 164.431  1.00  0.00    -0.356 OA
ATOM     26  H2  UNL     1      23.332  15.261 165.090  1.00  0.00     0.218 HD
ENDBRANCH   3  25
BRANCH   1  27
HETATM   27  N1  UNL     1      19.236  13.890 162.190  1.00  0.00    -0.387 N 
ATOM     28  H1  UNL     1      18.909  13.132 161.592  1.00  0.00     0.159 HD
BRANCH  27  29
HETATM   29  C2  UNL     1      18.335  14.554 163.118  1.00  0.00     0.115 C 
HETATM   30  C1  UNL     1      17.032  14.950 162.450  1.00  0.00     0.026 C 
ENDBRANCH  27  29
ENDBRANCH   1  27
BRANCH   2  31
HETATM   31  O1  UNL     1      20.894  13.681 164.443  1.00  0.00    -0.356 OA
ATOM     32  H1  UNL     1      21.042  14.103 165.282  1.00  0.00     0.218 HD
ENDBRANCH   2  31
TORSDOF 8
ENDMDL
MODEL 2
REMARK VINA RESULT: -8.519992009      2.267      6.460
REMARK  8 active torsions:
REMARK  status: ('A' for Active; 'I' for Inactive)
REMARK    1  A    between atoms: C2_2  and  N1_3 
REMARK    2  A    between atoms: N1_3  and  C3_5 
REMARK    3  A    between atoms: C4_6  and  O1_7 
REMARK    4  A    between atoms: C5_9  and  O2_10 
REMARK    5  A    between atoms: C6_12  and  O3_13 
REMARK    6  A    between atoms: C8_16  and  O4_17 
REMARK    7  A    between atoms: C16_26  and  O5_27 
REMARK    8  A    between atoms: C17_29  and  O6_30 
ROOT
HETATM    1  C3  UNL     1      21.617  16.333 157.129  1.00  0.00     0.078 A 
HETATM    2  C4  UNL     1      22.926  16.798 157.273  1.00  0.00     0.129 A 
HETATM    3  C5  UNL     1      23.607  16.642 158.477  1.00  0.00     0.135 A 
HETATM    4  C6  UNL     1      22.937  16.021 159.497  1.00  0.00     0.115 A 
HETATM    5  C7  UNL     1      21.620  15.555 159.361  1.00  0.00     0.050 A 
HETATM    6  C8  UNL     1      20.979  14.960 160.457  1.00  0.00     0.093 A 
HETATM    7  C9  UNL     1      19.654  14.514 160.377  1.00  0.00     0.036 A 
HETATM    8  C10 UNL     1      19.008  13.874 161.502  1.00  0.00    -0.064 C 
HETATM    9  C11 UNL     1      17.514  13.781 161.418  1.00  0.00     0.035 C 
HETATM   10  C12 UNL     1      16.816  13.399 162.708  1.00  0.00     0.004 C 
HETATM   11  C13 UNL     1      17.275  14.246 163.881  1.00  0.00     0.001 C 
HETATM   12  C14 UNL     1      18.697  13.799 164.029  1.00  0.00     0.004 C 
HETATM   13  C15 UNL     1      19.566  14.189 162.856  1.00  0.00     0.035 C 
HETATM   14  C16 UNL     1      19.025  14.690 159.176  1.00  0.00     0.113 A 
HETATM   15  C17 UNL     1      19.634  15.278 158.062  1.00  0.00     0.113 A 
HETATM   16  C18 UNL     1      20.958  15.714 158.168  1.00  0.00     0.045 A 
ENDROOT
BRANCH   6  17
HETATM   17  O4  UNL     1      21.641  14.824 161.572  1.00  0.00    -0.359 OA
ATOM     18  H4  UNL     1      22.405  14.258 161.582  1.00  0.00     0.217 HD
ENDBRANCH   6  17
BRANCH  14  19
HETATM   19  O5  UNL     1      17.746  14.298 158.999  1.00  0.00    -0.357 OA
ATOM     20  H5  UNL     1      17.402  14.131 158.130  1.00  0.00     0.217 HD
ENDBRANCH  14  19
BRANCH  15  21
HETATM   21  O6  UNL     1      18.964  15.440 156.874  1.00  0.00    -0.357 OA
ATOM     22  H6  UNL     1      18.248  16.058 156.784  1.00  0.00     0.217 HD
ENDBRANCH  15  21
BRANCH   4  23
HETATM   23  O3  UNL     1      23.608  15.865 160.689  1.00  0.00    -0.357 OA
ATOM     24  H3  UNL     1      23.350  15.135 161.240  1.00  0.00     0.217 HD
ENDBRANCH   4  23
BRANCH   3  25
HETATM   25  O2  UNL     1      24.902  17.124 158.549  1.00  0.00    -0.356 OA
ATOM     26  H2  UNL     1      25.610  16.503 158.425  1.00  0.00     0.218 HD
ENDBRANCH   3  25
BRANCH   1  27
HETATM   27  N1  UNL     1      20.953  16.465 155.874  1.00  0.00    -0.387 N 
ATOM     28  H1  UNL     1      20.150  17.084 155.767  1.00  0.00     0.159 HD
BRANCH  27  29
HETATM   29  C2  UNL     1      21.456  15.690 154.751  1.00  0.00     0.115 C 
HETATM   30  C1  UNL     1      21.256  16.415 153.434  1.00  0.00     0.026 C 
ENDBRANCH  27  29
ENDBRANCH   1  27
BRANCH   2  31
HETATM   31  O1  UNL     1      23.565  17.428 156.220  1.00  0.00    -0.356 OA
ATOM     32  H1  UNL     1      24.513  17.493 156.203  1.00  0.00     0.218 HD
ENDBRANCH   2  31
TORSDOF 8
ENDMDL
MODEL 3
REMARK VINA RESULT: -8.389828356      2.090      6.856
REMARK  8 active torsions:
REMARK  status: ('A' for Active; 'I' for Inactive)
REMARK    1  A    between atoms: C2_2  and  N1_3 
REMARK    2  A    between atoms: N1_3  and  C3_5 
REMARK    3  A    between atoms: C4_6  and  O1_7 
REMARK    4  A    between atoms: C5_9  and  O2_10 
REMARK    5  A    between atoms: C6_12  and  O3_13 
REMARK    6  A    between atoms: C8_16  and  O4_17 
REMARK    7  A    between atoms: C16_26  and  O5_27 
REMARK    8  A    between atoms: C17_29  and  O6_30 
ROOT
HETATM    1  C3  UNL     1      21.470  16.080 157.884  1.00  0.00     0.078 A 
HETATM    2  C4  UNL     1      20.208  15.850 157.332  1.00  0.00     0.129 A 
HETATM    3  C5  UNL     1      19.208  15.232 158.079  1.00  0.00     0.135 A 
HETATM    4  C6  UNL     1      19.522  14.866 159.360  1.00  0.00     0.115 A 
HETATM    5  C7  UNL     1      20.790  15.091 159.920  1.00  0.00     0.050 A 
HETATM    6  C8  UNL     1      21.057  14.658 161.227  1.00  0.00     0.093 A 
HETATM    7  C9  UNL     1      22.317  14.829 161.812  1.00  0.00     0.036 A 
HETATM    8  C10 UNL     1      22.577  14.408 163.171  1.00  0.00    -0.064 C 
HETATM    9  C11 UNL     1      24.025  14.306 163.547  1.00  0.00     0.035 C 
HETATM   10  C12 UNL     1      24.308  13.580 164.847  1.00  0.00     0.004 C 
HETATM   11  C13 UNL     1      23.598  12.241 164.922  1.00  0.00     0.001 C 
HETATM   12  C14 UNL     1      22.163  12.670 164.987  1.00  0.00     0.004 C 
HETATM   13  C15 UNL     1      21.686  13.335 163.717  1.00  0.00     0.035 C 
HETATM   14  C16 UNL     1      23.268  15.439 161.041  1.00  0.00     0.113 A 
HETATM   15  C17 UNL     1      23.036  15.884 159.735  1.00  0.00     0.113 A 
HETATM   16  C18 UNL     1      21.768  15.702 159.175  1.00  0.00     0.045 A 
ENDROOT
BRANCH   6  17
HETATM   17  O4  UNL     1      20.101  14.086 161.905  1.00  0.00    -0.359 OA
ATOM     18  H4  UNL     1      19.202  14.340 161.730  1.00  0.00     0.217 HD
ENDBRANCH   6  17
BRANCH  14  19
HETATM   19  O5  UNL     1      24.516  15.645 161.512  1.00  0.00    -0.357 OA
ATOM     20  H5  UNL     1      25.273  15.296 161.057  1.00  0.00     0.217 HD
ENDBRANCH  14  19
BRANCH  15  21
HETATM   21  O6  UNL     1      24.021  16.488 158.992  1.00  0.00    -0.357 OA
ATOM     22  H6  UNL     1      23.817  17.112 158.305  1.00  0.00     0.217 HD
ENDBRANCH  15  21
BRANCH   4  23
HETATM   23  O3  UNL     1      18.536  14.256 160.102  1.00  0.00    -0.357 OA
ATOM     24  H3  UNL     1      18.582  13.311 160.193  1.00  0.00     0.217 HD
ENDBRANCH   4  23
BRANCH   3  25
HETATM   25  O2  UNL     1      17.981  15.038 157.471  1.00  0.00    -0.356 OA
ATOM     26  H2  UNL     1      17.900  14.311 156.865  1.00  0.00     0.218 HD
ENDBRANCH   3  25
BRANCH   1  27
HETATM   27  N1  UNL     1      22.466  16.753 157.116  1.00  0.00    -0.387 N 
ATOM     28  H1  UNL     1      22.770  17.695 157.360  1.00  0.00     0.159 HD
BRANCH  27  29
HETATM   29  C2  UNL     1      23.035  16.054 155.975  1.00  0.00     0.115 C 
HETATM   30  C1  UNL     1      24.269  16.758 155.444  1.00  0.00     0.026 C 
ENDBRANCH  27  29
ENDBRANCH   1  27
BRANCH   2  31
HETATM   31  O1  UNL     1      19.933  16.227 156.030  1.00  0.00    -0.356 OA
ATOM     32  H1  UNL     1      20.056  17.128 155.755  1.00  0.00     0.218 HD
ENDBRANCH   2  31
TORSDOF 8
ENDMDL
MODEL 4
REMARK VINA RESULT: -8.333811049      2.054      4.469
REMARK  8 active torsions:
REMARK  status: ('A' for Active; 'I' for Inactive)
REMARK    1  A    between atoms: C2_2  and  N1_3 
REMARK    2  A    between atoms: N1_3  and  C3_5 
REMARK    3  A    between atoms: C4_6  and  O1_7 
REMARK    4  A    between atoms: C5_9  and  O2_10 
REMARK    5  A    between atoms: C6_12  and  O3_13 
REMARK    6  A    between atoms: C8_16  and  O4_17 
REMARK    7  A    between atoms: C16_26  and  O5_27 
REMARK    8  A    between atoms: C17_29  and  O6_30 
ROOT
HETATM    1  C3  UNL     1      21.692  15.281 160.181  1.00  0.00     0.078 A 
HETATM    2  C4  UNL     1      20.555  14.879 160.885  1.00  0.00     0.129 A 
HETATM    3  C5  UNL     1      19.334  14.729 160.234  1.00  0.00     0.135 A 
HETATM    4  C6  UNL     1      19.305  14.994 158.891  1.00  0.00     0.115 A 
HETATM    5  C7  UNL     1      20.443  15.403 158.179  1.00  0.00     0.050 A 
HETATM    6  C8  UNL     1      20.337  15.695 156.811  1.00  0.00     0.093 A 
HETATM    7  C9  UNL     1      21.438  16.140 156.070  1.00  0.00     0.036 A 
HETATM    8  C10 UNL     1      21.329  16.410 154.653  1.00  0.00    -0.064 C 
HETATM    9  C11 UNL     1      22.448  17.215 154.063  1.00  0.00     0.035 C 
HETATM   10  C12 UNL     1      22.192  17.759 152.671  1.00  0.00     0.004 C 
HETATM   11  C13 UNL     1      20.855  18.469 152.570  1.00  0.00     0.001 C 
HETATM   12  C14 UNL     1      19.899  17.330 152.756  1.00  0.00     0.004 C 
HETATM   13  C15 UNL     1      19.958  16.727 154.140  1.00  0.00     0.035 C 
HETATM   14  C16 UNL     1      22.616  16.274 156.751  1.00  0.00     0.113 A 
HETATM   15  C17 UNL     1      22.758  15.992 158.114  1.00  0.00     0.113 A 
HETATM   16  C18 UNL     1      21.643  15.548 158.831  1.00  0.00     0.045 A 
ENDROOT
BRANCH   6  17
HETATM   17  O4  UNL     1      19.182  15.542 156.226  1.00  0.00    -0.359 OA
ATOM     18  H4  UNL     1      18.395  15.780 156.702  1.00  0.00     0.217 HD
ENDBRANCH   6  17
BRANCH  14  19
HETATM   19  O5  UNL     1      23.733  16.702 156.126  1.00  0.00    -0.357 OA
ATOM     20  H5  UNL     1      24.323  17.315 156.548  1.00  0.00     0.217 HD
ENDBRANCH  14  19
BRANCH  15  21
HETATM   21  O6  UNL     1      23.960  16.144 158.762  1.00  0.00    -0.357 OA
ATOM     22  H6  UNL     1      24.024  16.110 159.709  1.00  0.00     0.217 HD
ENDBRANCH  15  21
BRANCH   4  23
HETATM   23  O3  UNL     1      18.099  14.846 158.245  1.00  0.00    -0.357 OA
ATOM     24  H3  UNL     1      18.101  14.366 157.425  1.00  0.00     0.217 HD
ENDBRANCH   4  23
BRANCH   3  25
HETATM   25  O2  UNL     1      18.249  14.325 160.991  1.00  0.00    -0.356 OA
ATOM     26  H2  UNL     1      17.942  14.914 161.670  1.00  0.00     0.218 HD
ENDBRANCH   3  25
BRANCH   1  27
HETATM   27  N1  UNL     1      22.943  15.387 160.859  1.00  0.00    -0.387 N 
ATOM     28  H1  UNL     1      23.506  16.234 160.792  1.00  0.00     0.159 HD
BRANCH  27  29
HETATM   29  C2  UNL     1      23.390  14.251 161.648  1.00  0.00     0.115 C 
HETATM   30  C1  UNL     1      24.155  14.690 162.882  1.00  0.00     0.026 C 
ENDBRANCH  27  29
ENDBRANCH   1  27
BRANCH   2  31
HETATM   31  O1  UNL     1      20.624  14.628 162.243  1.00  0.00    -0.356 OA
ATOM     32  H1  UNL     1      21.461  14.460 162.659  1.00  0.00     0.218 HD
ENDBRANCH   2  31
TORSDOF 8
ENDMDL
MODEL 5
REMARK VINA RESULT: -8.272054725      2.527      7.372
REMARK  8 active torsions:
REMARK  status: ('A' for Active; 'I' for Inactive)
REMARK    1  A    between atoms: C2_2  and  N1_3 
REMARK    2  A    between atoms: N1_3  and  C3_5 
REMARK    3  A    between atoms: C4_6  and  O1_7 
REMARK    4  A    between atoms: C5_9  and  O2_10 
REMARK    5  A    between atoms: C6_12  and  O3_13 
REMARK    6  A    between atoms: C8_16  and  O4_17 
REMARK    7  A    between atoms: C16_26  and  O5_27 
REMARK    8  A    between atoms: C17_29  and  O6_30 
ROOT
HETATM    1  C3  UNL     1      22.918  16.443 155.846  1.00  0.00     0.078 A 
HETATM    2  C4  UNL     1      21.991  16.599 154.813  1.00  0.00     0.129 A 
HETATM    3  C5  UNL     1      20.629  16.439 155.052  1.00  0.00     0.135 A 
HETATM    4  C6  UNL     1      20.252  16.122 156.329  1.00  0.00     0.115 A 
HETATM    5  C7  UNL     1      21.179  15.959 157.371  1.00  0.00     0.050 A 
HETATM    6  C8  UNL     1      20.729  15.599 158.649  1.00  0.00     0.093 A 
HETATM    7  C9  UNL     1      21.620  15.390 159.708  1.00  0.00     0.036 A 
HETATM    8  C10 UNL     1      21.147  15.048 161.031  1.00  0.00    -0.064 C 
HETATM    9  C11 UNL     1      22.186  14.500 161.964  1.00  0.00     0.035 C 
HETATM   10  C12 UNL     1      21.648  13.859 163.228  1.00  0.00     0.004 C 
HETATM   11  C13 UNL     1      20.546  12.856 162.939  1.00  0.00     0.001 C 
HETATM   12  C14 UNL     1      19.458  13.752 162.429  1.00  0.00     0.004 C 
HETATM   13  C15 UNL     1      19.797  14.405 161.110  1.00  0.00     0.035 C 
HETATM   14  C16 UNL     1      22.948  15.557 159.426  1.00  0.00     0.113 A 
HETATM   15  C17 UNL     1      23.432  15.917 158.164  1.00  0.00     0.113 A 
HETATM   16  C18 UNL     1      22.520  16.120 157.124  1.00  0.00     0.045 A 
ENDROOT
BRANCH   6  17
HETATM   17  O4  UNL     1      19.447  15.458 158.845  1.00  0.00    -0.359 OA
ATOM     18  H4  UNL     1      18.869  15.443 158.091  1.00  0.00     0.217 HD
ENDBRANCH   6  17
BRANCH  14  19
HETATM   19  O5  UNL     1      23.887  15.374 160.379  1.00  0.00    -0.357 OA
ATOM     20  H5  UNL     1      23.716  15.607 161.283  1.00  0.00     0.217 HD
ENDBRANCH  14  19
BRANCH  15  21
HETATM   21  O6  UNL     1      24.776  16.070 157.922  1.00  0.00    -0.357 OA
ATOM     22  H6  UNL     1      25.108  16.264 157.054  1.00  0.00     0.217 HD
ENDBRANCH  15  21
BRANCH   4  23
HETATM   23  O3  UNL     1      18.906  15.964 156.569  1.00  0.00    -0.357 OA
ATOM     24  H3  UNL     1      18.349  16.723 156.440  1.00  0.00     0.217 HD
ENDBRANCH   4  23
BRANCH   3  25
HETATM   25  O2  UNL     1      19.766  16.612 153.984  1.00  0.00    -0.356 OA
ATOM     26  H2  UNL     1      18.846  16.744 154.179  1.00  0.00     0.218 HD
ENDBRANCH   3  25
BRANCH   1  27
HETATM   27  N1  UNL     1      24.305  16.654 155.589  1.00  0.00    -0.387 N 
ATOM     28  H1  UNL     1      24.971  15.882 155.634  1.00  0.00     0.159 HD
BRANCH  27  29
HETATM   29  C2  UNL     1      24.742  18.001 155.261  1.00  0.00     0.115 C 
HETATM   30  C1  UNL     1      25.211  18.754 156.491  1.00  0.00     0.026 C 
ENDBRANCH  27  29
ENDBRANCH   1  27
BRANCH   2  31
HETATM   31  O1  UNL     1      22.414  16.911 153.534  1.00  0.00    -0.356 OA
ATOM     32  H1  UNL     1      22.703  16.226 152.943  1.00  0.00     0.218 HD
ENDBRANCH   2  31
TORSDOF 8
ENDMDL
