MODEL 1
REMARK VINA RESULT: -6.505805413      0.000      0.000
REMARK  3 active torsions:
REMARK  status: ('A' for Active; 'I' for Inactive)
REMARK       I    between atoms: N1_2  and  C2_4 
REMARK       I    between atoms: C2_4  and  N2_6 
REMARK       I    between atoms: C3_8  and  N3_9 
REMARK       I    between atoms: C3_8  and  N4_17 
REMARK    1  A    between atoms: C4_11  and  C6_13 
REMARK    2  A    between atoms: C7_14  and  C8_15 
REMARK    3  A    between atoms: C12_21  and  C13_22 
ROOT
HETATM    1  C1  UNL     1      11.575 -17.196  20.436  1.00  0.00     0.151 C 
HETATM    2  N1  UNL     1      12.897 -16.642  20.293  1.00  0.00    -0.347 N 
ATOM      3  H1  UNL     1      13.263 -16.420  19.368  1.00  0.00     0.163 HD
HETATM    4  C2  UNL     1      13.678 -16.408  21.441  1.00  0.00     0.334 C 
HETATM    5  O1  UNL     1      13.250 -16.673  22.592  1.00  0.00    -0.247 OA
HETATM    6  N2  UNL     1      14.979 -15.863  21.306  1.00  0.00    -0.141 N 
ATOM      7  H2  UNL     1      15.687 -16.427  20.837  1.00  0.00     0.189 HD
HETATM    8  C3  UNL     1      15.324 -14.699  21.741  1.00  0.00     0.685 C 
HETATM    9  N3  UNL     1      14.361 -13.915  22.387  1.00  0.00    -0.188 N 
ATOM     10  H3  UNL     1      14.289 -14.021  23.399  1.00  0.00     0.184 HD
HETATM   11  C4  UNL     1      13.569 -13.085  21.841  1.00  0.00     0.076 C 
HETATM   12  C5  UNL     1      13.638 -12.897  20.368  1.00  0.00     0.079 C 
HETATM   13  N4  UNL     1      16.672 -14.296  21.527  1.00  0.00    -0.203 N 
HETATM   14  C9  UNL     1      17.205 -12.935  21.552  1.00  0.00     0.142 C 
HETATM   15  C10 UNL     1      18.017 -12.909  20.288  1.00  0.00     0.023 C 
HETATM   16  C11 UNL     1      18.662 -14.274  20.277  1.00  0.00     0.038 C 
HETATM   17  C12 UNL     1      17.824 -15.131  21.238  1.00  0.00     0.203 C 
ENDROOT
BRANCH  11  18
HETATM   18  C6  UNL     1      12.630 -12.352  22.643  1.00  0.00    -0.051 C 
HETATM   19  C7  UNL     1      11.850 -11.742  23.335  1.00  0.00    -0.069 C 
BRANCH  19  20
HETATM   20  C8  UNL     1      10.896 -10.981  24.166  1.00  0.00     0.316 C 
HETATM   21  F1  UNL     1      11.591 -10.085  24.929  1.00  0.00    -0.242 F 
ENDBRANCH  19  20
ENDBRANCH  11  18
BRANCH  17  22
HETATM   22  C13 UNL     1      18.589 -15.460  22.452  1.00  0.00     0.197 C 
HETATM   23  O2  UNL     1      18.105 -16.009  23.475  1.00  0.00    -0.646 OA
HETATM   24  O3  UNL     1      19.940 -15.143  22.470  1.00  0.00    -0.646 OA
ENDBRANCH  17  22
TORSDOF 3
ENDMDL
MODEL 2
REMARK VINA RESULT: -6.302298588      3.218      6.397
REMARK  3 active torsions:
REMARK  status: ('A' for Active; 'I' for Inactive)
REMARK       I    between atoms: N1_2  and  C2_4 
REMARK       I    between atoms: C2_4  and  N2_6 
REMARK       I    between atoms: C3_8  and  N3_9 
REMARK       I    between atoms: C3_8  and  N4_17 
REMARK    1  A    between atoms: C4_11  and  C6_13 
REMARK    2  A    between atoms: C7_14  and  C8_15 
REMARK    3  A    between atoms: C12_21  and  C13_22 
ROOT
HETATM    1  C1  UNL     1      20.339 -13.178  19.084  1.00  0.00     0.151 C 
HETATM    2  N1  UNL     1      18.963 -13.597  19.179  1.00  0.00    -0.347 N 
ATOM      3  H1  UNL     1      18.625 -14.379  18.620  1.00  0.00     0.163 HD
HETATM    4  C2  UNL     1      18.090 -12.918  20.051  1.00  0.00     0.334 C 
HETATM    5  O1  UNL     1      18.483 -11.951  20.752  1.00  0.00    -0.247 OA
HETATM    6  N2  UNL     1      16.737 -13.325  20.148  1.00  0.00    -0.141 N 
ATOM      7  H2  UNL     1      16.143 -13.209  19.328  1.00  0.00     0.189 HD
HETATM    8  C3  UNL     1      16.210 -13.834  21.209  1.00  0.00     0.685 C 
HETATM    9  N3  UNL     1      17.014 -14.000  22.342  1.00  0.00    -0.188 N 
ATOM     10  H3  UNL     1      17.041 -13.223  23.002  1.00  0.00     0.184 HD
HETATM   11  C4  UNL     1      17.715 -15.019  22.631  1.00  0.00     0.076 C 
HETATM   12  C5  UNL     1      17.707 -16.176  21.698  1.00  0.00     0.079 C 
HETATM   13  N4  UNL     1      14.833 -14.192  21.146  1.00  0.00    -0.203 N 
HETATM   14  C9  UNL     1      14.116 -15.116  22.023  1.00  0.00     0.142 C 
HETATM   15  C10 UNL     1      13.385 -15.968  21.025  1.00  0.00     0.023 C 
HETATM   16  C11 UNL     1      12.937 -14.963  19.992  1.00  0.00     0.038 C 
HETATM   17  C12 UNL     1      13.827 -13.730  20.207  1.00  0.00     0.203 C 
ENDROOT
BRANCH  11  18
HETATM   18  C6  UNL     1      18.494 -15.039  23.837  1.00  0.00    -0.051 C 
HETATM   19  C7  UNL     1      19.156 -15.036  24.848  1.00  0.00    -0.069 C 
BRANCH  19  20
HETATM   20  C8  UNL     1      19.949 -15.044  26.093  1.00  0.00     0.316 C 
HETATM   21  F1  UNL     1      20.340 -13.765  26.377  1.00  0.00    -0.242 F 
ENDBRANCH  19  20
ENDBRANCH  11  18
BRANCH  17  22
HETATM   22  C13 UNL     1      13.045 -12.604  20.742  1.00  0.00     0.197 C 
HETATM   23  O2  UNL     1      12.066 -12.721  21.523  1.00  0.00    -0.646 OA
HETATM   24  O3  UNL     1      13.412 -11.322  20.360  1.00  0.00    -0.646 OA
ENDBRANCH  17  22
TORSDOF 3
ENDMDL
MODEL 3
REMARK VINA RESULT: -6.193059794      4.031      6.547
REMARK  3 active torsions:
REMARK  status: ('A' for Active; 'I' for Inactive)
REMARK       I    between atoms: N1_2  and  C2_4 
REMARK       I    between atoms: C2_4  and  N2_6 
REMARK       I    between atoms: C3_8  and  N3_9 
REMARK       I    between atoms: C3_8  and  N4_17 
REMARK    1  A    between atoms: C4_11  and  C6_13 
REMARK    2  A    between atoms: C7_14  and  C8_15 
REMARK    3  A    between atoms: C12_21  and  C13_22 
ROOT
HETATM    1  C1  UNL     1      16.448 -13.593  15.900  1.00  0.00     0.151 C 
HETATM    2  N1  UNL     1      15.493 -13.508  16.975  1.00  0.00    -0.347 N 
ATOM      3  H1  UNL     1      14.611 -14.017  16.920  1.00  0.00     0.163 HD
HETATM    4  C2  UNL     1      15.786 -12.717  18.103  1.00  0.00     0.334 C 
HETATM    5  O1  UNL     1      16.865 -12.080  18.195  1.00  0.00    -0.247 OA
HETATM    6  N2  UNL     1      14.851 -12.631  19.162  1.00  0.00    -0.141 N 
ATOM      7  H2  UNL     1      13.956 -12.179  18.975  1.00  0.00     0.189 HD
HETATM    8  C3  UNL     1      15.059 -13.087  20.351  1.00  0.00     0.685 C 
HETATM    9  N3  UNL     1      16.282 -13.709  20.622  1.00  0.00    -0.188 N 
ATOM     10  H3  UNL     1      17.034 -13.111  20.965  1.00  0.00     0.184 HD
HETATM   11  C4  UNL     1      16.552 -14.943  20.484  1.00  0.00     0.076 C 
HETATM   12  C5  UNL     1      15.487 -15.853  19.987  1.00  0.00     0.079 C 
HETATM   13  N4  UNL     1      14.017 -12.920  21.306  1.00  0.00    -0.203 N 
HETATM   14  C9  UNL     1      13.829 -13.662  22.552  1.00  0.00     0.142 C 
HETATM   15  C10 UNL     1      12.374 -14.025  22.466  1.00  0.00     0.023 C 
HETATM   16  C11 UNL     1      11.749 -12.771  21.903  1.00  0.00     0.038 C 
HETATM   17  C12 UNL     1      12.907 -11.985  21.270  1.00  0.00     0.203 C 
ENDROOT
BRANCH  11  18
HETATM   18  C6  UNL     1      17.862 -15.434  20.805  1.00  0.00    -0.051 C 
HETATM   19  C7  UNL     1      18.972 -15.828  21.079  1.00  0.00    -0.069 C 
BRANCH  19  20
HETATM   20  C8  UNL     1      20.318 -16.326  21.422  1.00  0.00     0.316 C 
HETATM   21  F1  UNL     1      20.713 -15.757  22.600  1.00  0.00    -0.242 F 
ENDBRANCH  19  20
ENDBRANCH  11  18
BRANCH  17  22
HETATM   22  C13 UNL     1      13.189 -10.760  22.034  1.00  0.00     0.197 C 
HETATM   23  O2  UNL     1      12.621 -10.441  23.110  1.00  0.00    -0.646 OA
HETATM   24  O3  UNL     1      14.152  -9.893  21.535  1.00  0.00    -0.646 OA
ENDBRANCH  17  22
TORSDOF 3
ENDMDL
MODEL 4
REMARK VINA RESULT: -6.183794805      4.184      5.604
REMARK  3 active torsions:
REMARK  status: ('A' for Active; 'I' for Inactive)
REMARK       I    between atoms: N1_2  and  C2_4 
REMARK       I    between atoms: C2_4  and  N2_6 
REMARK       I    between atoms: C3_8  and  N3_9 
REMARK       I    between atoms: C3_8  and  N4_17 
REMARK    1  A    between atoms: C4_11  and  C6_13 
REMARK    2  A    between atoms: C7_14  and  C8_15 
REMARK    3  A    between atoms: C12_21  and  C13_22 
ROOT
HETATM    1  C1  UNL     1      18.753 -14.248  22.300  1.00  0.00     0.151 C 
HETATM    2  N1  UNL     1      18.405 -14.240  20.902  1.00  0.00    -0.347 N 
ATOM      3  H1  UNL     1      18.416 -15.106  20.365  1.00  0.00     0.163 HD
HETATM    4  C2  UNL     1      18.049 -13.026  20.283  1.00  0.00     0.334 C 
HETATM    5  O1  UNL     1      18.027 -11.944  20.922  1.00  0.00    -0.247 OA
HETATM    6  N2  UNL     1      17.706 -13.013  18.908  1.00  0.00    -0.141 N 
ATOM      7  H2  UNL     1      18.435 -13.241  18.232  1.00  0.00     0.189 HD
HETATM    8  C3  UNL     1      16.531 -12.730  18.459  1.00  0.00     0.685 C 
HETATM    9  N3  UNL     1      15.523 -12.416  19.376  1.00  0.00    -0.188 N 
ATOM     10  H3  UNL     1      15.417 -11.431  19.622  1.00  0.00     0.184 HD
HETATM   11  C4  UNL     1      14.725 -13.232  19.934  1.00  0.00     0.076 C 
HETATM   12  C5  UNL     1      14.840 -14.677  19.607  1.00  0.00     0.079 C 
HETATM   13  N4  UNL     1      16.348 -12.760  17.047  1.00  0.00    -0.203 N 
HETATM   14  C9  UNL     1      15.086 -12.873  16.319  1.00  0.00     0.142 C 
HETATM   15  C10 UNL     1      15.410 -13.952  15.326  1.00  0.00     0.023 C 
HETATM   16  C11 UNL     1      16.819 -13.610  14.907  1.00  0.00     0.038 C 
HETATM   17  C12 UNL     1      17.359 -12.685  16.009  1.00  0.00     0.203 C 
ENDROOT
BRANCH  11  18
HETATM   18  C6  UNL     1      13.738 -12.754  20.861  1.00  0.00    -0.051 C 
HETATM   19  C7  UNL     1      12.917 -12.333  21.642  1.00  0.00    -0.069 C 
BRANCH  19  20
HETATM   20  C8  UNL     1      11.899 -11.830  22.585  1.00  0.00     0.316 C 
HETATM   21  F1  UNL     1      11.383 -10.662  22.098  1.00  0.00    -0.242 F 
ENDBRANCH  19  20
ENDBRANCH  11  18
BRANCH  17  22
HETATM   22  C13 UNL     1      17.536 -11.314  15.503  1.00  0.00     0.197 C 
HETATM   23  O2  UNL     1      17.956 -10.348  16.190  1.00  0.00    -0.646 OA
HETATM   24  O3  UNL     1      17.217 -11.068  14.175  1.00  0.00    -0.646 OA
ENDBRANCH  17  22
TORSDOF 3
ENDMDL
MODEL 5
REMARK VINA RESULT: -6.145255674      3.158      4.828
REMARK  3 active torsions:
REMARK  status: ('A' for Active; 'I' for Inactive)
REMARK       I    between atoms: N1_2  and  C2_4 
REMARK       I    between atoms: C2_4  and  N2_6 
REMARK       I    between atoms: C3_8  and  N3_9 
REMARK       I    between atoms: C3_8  and  N4_17 
REMARK    1  A    between atoms: C4_11  and  C6_13 
REMARK    2  A    between atoms: C7_14  and  C8_15 
REMARK    3  A    between atoms: C12_21  and  C13_22 
ROOT
HETATM    1  C1  UNL     1      11.390 -12.067  23.081  1.00  0.00     0.151 C 
HETATM    2  N1  UNL     1      12.733 -12.517  22.820  1.00  0.00    -0.347 N 
ATOM      3  H1  UNL     1      13.340 -12.796  23.590  1.00  0.00     0.163 HD
HETATM    4  C2  UNL     1      13.202 -12.569  21.493  1.00  0.00     0.334 C 
HETATM    5  O1  UNL     1      12.474 -12.231  20.526  1.00  0.00    -0.247 OA
HETATM    6  N2  UNL     1      14.522 -13.011  21.231  1.00  0.00    -0.141 N 
ATOM      7  H2  UNL     1      15.294 -12.437  21.569  1.00  0.00     0.189 HD
HETATM    8  C3  UNL     1      14.808 -14.093  20.591  1.00  0.00     0.685 C 
HETATM    9  N3  UNL     1      13.758 -14.889  20.121  1.00  0.00    -0.188 N 
ATOM     10  H3  UNL     1      13.419 -14.692  19.180  1.00  0.00     0.184 HD
HETATM   11  C4  UNL     1      13.184 -15.834  20.748  1.00  0.00     0.076 C 
HETATM   12  C5  UNL     1      13.645 -16.158  22.124  1.00  0.00     0.079 C 
HETATM   13  N4  UNL     1      16.187 -14.398  20.408  1.00  0.00    -0.203 N 
HETATM   14  C9  UNL     1      16.773 -15.699  20.091  1.00  0.00     0.142 C 
HETATM   15  C10 UNL     1      17.886 -15.778  21.097  1.00  0.00     0.023 C 
HETATM   16  C11 UNL     1      18.432 -14.371  21.105  1.00  0.00     0.038 C 
HETATM   17  C12 UNL     1      17.324 -13.499  20.493  1.00  0.00     0.203 C 
ENDROOT
BRANCH  11  18
HETATM   18  C6  UNL     1      12.114 -16.562  20.129  1.00  0.00    -0.051 C 
HETATM   19  C7  UNL     1      11.218 -17.169  19.589  1.00  0.00    -0.069 C 
BRANCH  19  20
HETATM   20  C8  UNL     1      10.127 -17.926  18.944  1.00  0.00     0.316 C 
HETATM   21  F1  UNL     1       9.510 -17.118  18.030  1.00  0.00    -0.242 F 
ENDBRANCH  19  20
ENDBRANCH  11  18
BRANCH  17  22
HETATM   22  C13 UNL     1      17.727 -12.989  19.173  1.00  0.00     0.197 C 
HETATM   23  O2  UNL     1      18.815 -13.260  18.603  1.00  0.00    -0.646 OA
HETATM   24  O3  UNL     1      16.845 -12.148  18.508  1.00  0.00    -0.646 OA
ENDBRANCH  17  22
TORSDOF 3
ENDMDL
