MODEL 1
REMARK VINA RESULT: -5.403834070      0.000      0.000
REMARK  1 active torsions:
REMARK  status: ('A' for Active; 'I' for Inactive)
REMARK    1  A    between atoms: C2_2  and  C4_4 
REMARK       I    between atoms: N1_7  and  C7_8 
REMARK       I    between atoms: C7_8  and  N4_13 
ROOT
HETATM    1  C4  UNL     1      14.557 -16.533  20.554  1.00  0.00     0.059 C 
HETATM    2  C5  UNL     1      14.052 -15.698  21.697  1.00  0.00     0.248 C 
HETATM    3  C6  UNL     1      14.750 -14.389  21.841  1.00  0.00     0.177 C 
HETATM    4  N1  UNL     1      14.582 -13.551  20.645  1.00  0.00    -0.212 N 
HETATM    5  C7  UNL     1      14.738 -12.150  20.699  1.00  0.00     0.695 C 
HETATM    6  N2  UNL     1      15.904 -11.617  20.658  1.00  0.00    -0.125 N 
ATOM      7  H2  UNL     1      15.995 -10.603  20.697  1.00  0.00     0.197 HD
HETATM    8  C8  UNL     1      17.030 -12.395  20.561  1.00  0.00     0.196 C 
HETATM    9  N3  UNL     1      17.995 -13.032  20.479  1.00  0.00    -0.171 NA
HETATM   10  N4  UNL     1      13.647 -11.255  20.797  1.00  0.00    -0.155 N 
ATOM     11  H4  UNL     1      13.118 -11.010  19.959  1.00  0.00     0.192 HD
HETATM   12 BR1  UNL     1      13.163 -10.510  22.452  1.00  0.00     0.063 Br
HETATM   13  C9  UNL     1      14.247 -14.291  19.445  1.00  0.00     0.177 C 
HETATM   14  C10 UNL     1      13.634 -15.609  19.759  1.00  0.00     0.248 C 
HETATM   15  N5  UNL     1      12.812 -15.629  20.944  1.00  0.00     0.097 N 
HETATM   16  C11 UNL     1      11.908 -14.596  21.198  1.00  0.00     0.311 C 
ENDROOT
BRANCH   1  17
HETATM   17  C2  UNL     1      15.981 -16.534  20.222  1.00  0.00    -0.014 C 
HETATM   18  C1  UNL     1      16.161 -17.385  18.957  1.00  0.00     0.010 C 
HETATM   19  C3  UNL     1      16.760 -17.236  21.311  1.00  0.00     0.010 C 
ENDBRANCH   1  17
TORSDOF 1
ENDMDL
MODEL 2
REMARK VINA RESULT: -5.403335162      2.550      4.101
REMARK  1 active torsions:
REMARK  status: ('A' for Active; 'I' for Inactive)
REMARK    1  A    between atoms: C2_2  and  C4_4 
REMARK       I    between atoms: N1_7  and  C7_8 
REMARK       I    between atoms: C7_8  and  N4_13 
ROOT
HETATM    1  C4  UNL     1      14.822 -16.593  20.842  1.00  0.00     0.059 C 
HETATM    2  C5  UNL     1      16.019 -16.429  19.949  1.00  0.00     0.248 C 
HETATM    3  C6  UNL     1      16.491 -15.020  19.828  1.00  0.00     0.177 C 
HETATM    4  N1  UNL     1      16.900 -14.472  21.130  1.00  0.00    -0.212 N 
HETATM    5  C7  UNL     1      17.781 -13.375  21.224  1.00  0.00     0.695 C 
HETATM    6  N2  UNL     1      17.351 -12.174  21.084  1.00  0.00    -0.125 N 
ATOM      7  H2  UNL     1      18.005 -11.394  21.156  1.00  0.00     0.197 HD
HETATM    8  C8  UNL     1      16.025 -11.925  20.838  1.00  0.00     0.196 C 
HETATM    9  N3  UNL     1      14.909 -11.691  20.631  1.00  0.00    -0.171 NA
HETATM   10  N4  UNL     1      19.166 -13.515  21.475  1.00  0.00    -0.155 N 
ATOM     11  H4  UNL     1      19.493 -13.664  22.430  1.00  0.00     0.192 HD
HETATM   12 BR1  UNL     1      20.409 -13.431  20.071  1.00  0.00     0.063 Br
HETATM   13  C9  UNL     1      16.323 -15.158  22.269  1.00  0.00     0.177 C 
HETATM   14  C10 UNL     1      15.898 -16.541  21.927  1.00  0.00     0.248 C 
HETATM   15  N5  UNL     1      16.726 -17.207  20.951  1.00  0.00     0.097 N 
HETATM   16  C11 UNL     1      18.118 -17.128  21.029  1.00  0.00     0.311 C 
ENDROOT
BRANCH   1  17
HETATM   17  C2  UNL     1      13.776 -15.570  20.861  1.00  0.00    -0.014 C 
HETATM   18  C1  UNL     1      12.822 -15.905  22.016  1.00  0.00     0.010 C 
HETATM   19  C3  UNL     1      12.950 -15.660  19.598  1.00  0.00     0.010 C 
ENDBRANCH   1  17
TORSDOF 1
ENDMDL
MODEL 3
REMARK VINA RESULT: -5.328751369      1.494      3.659
REMARK  1 active torsions:
REMARK  status: ('A' for Active; 'I' for Inactive)
REMARK    1  A    between atoms: C2_2  and  C4_4 
REMARK       I    between atoms: N1_7  and  C7_8 
REMARK       I    between atoms: C7_8  and  N4_13 
ROOT
HETATM    1  C4  UNL     1      17.298 -15.661  20.366  1.00  0.00     0.059 C 
HETATM    2  C5  UNL     1      16.523 -14.604  19.632  1.00  0.00     0.248 C 
HETATM    3  C6  UNL     1      15.107 -14.477  20.077  1.00  0.00     0.177 C 
HETATM    4  N1  UNL     1      15.015 -14.109  21.498  1.00  0.00    -0.212 N 
HETATM    5  C7  UNL     1      13.861 -13.497  22.028  1.00  0.00     0.695 C 
HETATM    6  N2  UNL     1      12.838 -14.199  22.356  1.00  0.00    -0.125 N 
ATOM      7  H2  UNL     1      12.013 -13.738  22.739  1.00  0.00     0.197 HD
HETATM    8  C8  UNL     1      12.840 -15.562  22.199  1.00  0.00     0.196 C 
HETATM    9  N3  UNL     1      12.821 -16.714  22.076  1.00  0.00    -0.171 NA
HETATM   10  N4  UNL     1      13.750 -12.102  22.234  1.00  0.00    -0.155 N 
ATOM     11  H4  UNL     1      14.169 -11.680  23.063  1.00  0.00     0.192 HD
HETATM   12 BR1  UNL     1      12.841 -11.019  20.999  1.00  0.00     0.063 Br
HETATM   13  C9  UNL     1      16.201 -14.426  22.269  1.00  0.00     0.177 C 
HETATM   14  C10 UNL     1      17.407 -14.548  21.408  1.00  0.00     0.248 C 
HETATM   15  N5  UNL     1      17.431 -13.664  20.268  1.00  0.00     0.097 N 
HETATM   16  C11 UNL     1      17.057 -12.326  20.399  1.00  0.00     0.311 C 
ENDROOT
BRANCH   1  17
HETATM   17  C2  UNL     1      16.642 -16.909  20.758  1.00  0.00    -0.014 C 
HETATM   18  C1  UNL     1      17.653 -17.725  21.576  1.00  0.00     0.010 C 
HETATM   19  C3  UNL     1      16.336 -17.734  19.530  1.00  0.00     0.010 C 
ENDBRANCH   1  17
TORSDOF 1
ENDMDL
MODEL 4
REMARK VINA RESULT: -5.321568181      2.743      5.275
REMARK  1 active torsions:
REMARK  status: ('A' for Active; 'I' for Inactive)
REMARK    1  A    between atoms: C2_2  and  C4_4 
REMARK       I    between atoms: N1_7  and  C7_8 
REMARK       I    between atoms: C7_8  and  N4_13 
ROOT
HETATM    1  C4  UNL     1      14.720 -12.118  21.559  1.00  0.00     0.059 C 
HETATM    2  C5  UNL     1      15.412 -13.347  22.078  1.00  0.00     0.248 C 
HETATM    3  C6  UNL     1      14.832 -14.623  21.573  1.00  0.00     0.177 C 
HETATM    4  N1  UNL     1      14.922 -14.717  20.108  1.00  0.00    -0.212 N 
HETATM    5  C7  UNL     1      14.875 -15.961  19.446  1.00  0.00     0.695 C 
HETATM    6  N2  UNL     1      13.753 -16.537  19.208  1.00  0.00    -0.125 N 
ATOM      7  H2  UNL     1      13.741 -17.436  18.727  1.00  0.00     0.197 HD
HETATM    8  C8  UNL     1      12.570 -15.959  19.594  1.00  0.00     0.196 C 
HETATM    9  N3  UNL     1      11.559 -15.489  19.909  1.00  0.00    -0.171 NA
HETATM   10  N4  UNL     1      16.032 -16.645  19.003  1.00  0.00    -0.155 N 
ATOM     11  H4  UNL     1      16.478 -16.368  18.128  1.00  0.00     0.192 HD
HETATM   12 BR1  UNL     1      16.755 -18.057  20.008  1.00  0.00     0.063 Br
HETATM   13  C9  UNL     1      15.063 -13.439  19.440  1.00  0.00     0.177 C 
HETATM   14  C10 UNL     1      15.611 -12.397  20.348  1.00  0.00     0.248 C 
HETATM   15  N5  UNL     1      16.560 -12.877  21.322  1.00  0.00     0.097 N 
HETATM   16  C11 UNL     1      17.559 -13.780  20.954  1.00  0.00     0.311 C 
ENDROOT
BRANCH   1  17
HETATM   17  C2  UNL     1      13.271 -12.122  21.363  1.00  0.00    -0.014 C 
HETATM   18  C1  UNL     1      12.868 -10.726  20.868  1.00  0.00     0.010 C 
HETATM   19  C3  UNL     1      12.575 -12.310  22.691  1.00  0.00     0.010 C 
ENDBRANCH   1  17
TORSDOF 1
ENDMDL
MODEL 5
REMARK VINA RESULT: -5.316715422      2.693      4.469
REMARK  1 active torsions:
REMARK  status: ('A' for Active; 'I' for Inactive)
REMARK    1  A    between atoms: C2_2  and  C4_4 
REMARK       I    between atoms: N1_7  and  C7_8 
REMARK       I    between atoms: C7_8  and  N4_13 
ROOT
HETATM    1  C4  UNL     1      12.450 -13.031  21.946  1.00  0.00     0.059 C 
HETATM    2  C5  UNL     1      12.315 -13.938  20.755  1.00  0.00     0.248 C 
HETATM    3  C6  UNL     1      13.538 -14.001  19.905  1.00  0.00     0.177 C 
HETATM    4  N1  UNL     1      14.695 -14.513  20.655  1.00  0.00    -0.212 N 
HETATM    5  C7  UNL     1      15.803 -15.086  19.999  1.00  0.00     0.695 C 
HETATM    6  N2  UNL     1      16.720 -14.345  19.492  1.00  0.00    -0.125 N 
ATOM      7  H2  UNL     1      17.515 -14.778  19.022  1.00  0.00     0.197 HD
HETATM    8  C8  UNL     1      16.646 -12.978  19.573  1.00  0.00     0.196 C 
HETATM    9  N3  UNL     1      16.604 -11.821  19.632  1.00  0.00    -0.171 NA
HETATM   10  N4  UNL     1      15.982 -16.482  19.858  1.00  0.00    -0.155 N 
ATOM     11  H4  UNL     1      16.357 -17.024  20.637  1.00  0.00     0.192 HD
HETATM   12 BR1  UNL     1      15.538 -17.349  18.252  1.00  0.00     0.063 Br
HETATM   13  C9  UNL     1      14.576 -14.376  22.093  1.00  0.00     0.177 C 
HETATM   14  C10 UNL     1      13.158 -14.257  22.524  1.00  0.00     0.248 C 
HETATM   15  N5  UNL     1      12.217 -15.010  21.731  1.00  0.00     0.097 N 
HETATM   16  C11 UNL     1      12.502 -16.321  21.346  1.00  0.00     0.311 C 
ENDROOT
BRANCH   1  17
HETATM   17  C2  UNL     1      13.209 -11.786  21.835  1.00  0.00    -0.014 C 
HETATM   18  C1  UNL     1      12.763 -10.869  22.982  1.00  0.00     0.010 C 
HETATM   19  C3  UNL     1      12.835 -11.070  20.558  1.00  0.00     0.010 C 
ENDBRANCH   1  17
TORSDOF 1
ENDMDL
