MODEL 1
REMARK VINA RESULT: -5.725657526      0.000      0.000
REMARK  1 active torsions:
REMARK  status: ('A' for Active; 'I' for Inactive)
REMARK       I    between atoms: N1_2  and  C2_4 
REMARK    1  A    between atoms: C2_4  and  C3_6 
ROOT
HETATM    1  C3  UNL     1      14.689 -12.724  20.997  1.00  0.00     0.104 C 
HETATM    2  C4  UNL     1      14.042 -11.372  21.424  1.00  0.00     0.048 C 
HETATM    3  C5  UNL     1      14.582 -13.587  22.196  1.00  0.00     0.042 C 
HETATM    4  C6  UNL     1      13.263 -14.318  22.133  1.00  0.00     0.031 C 
HETATM    5  C7  UNL     1      13.550 -15.762  21.864  1.00  0.00     0.236 C 
HETATM    6  N2  UNL     1      13.191 -16.241  20.593  1.00  0.00    -0.072 N 
HETATM    7  C8  UNL     1      14.087 -17.367  20.284  1.00  0.00     0.272 C 
HETATM    8  C9  UNL     1      11.847 -16.847  20.724  1.00  0.00     0.272 C 
HETATM    9  C10 UNL     1      13.069 -15.312  19.523  1.00  0.00     0.272 C 
HETATM   10  C11 UNL     1      14.176 -14.363  19.284  1.00  0.00     0.176 C 
HETATM   11 BR1  UNL     1      15.915 -15.078  19.685  1.00  0.00    -0.067 Br
HETATM   12  N3  UNL     1      13.885 -13.087  19.872  1.00  0.00    -0.390 N 
ATOM     13  H3  UNL     1      13.151 -12.477  19.511  1.00  0.00     0.155 HD
ENDROOT
BRANCH   1  14
HETATM   14  C2  UNL     1      16.077 -12.364  20.645  1.00  0.00     0.244 C 
HETATM   15  N1  UNL     1      17.173 -12.646  21.501  1.00  0.00    -0.363 N 
HETATM   16  C1  UNL     1      18.526 -12.299  21.152  1.00  0.00     0.149 C 
ATOM     17  H1  UNL     1      16.997 -13.111  22.392  1.00  0.00     0.162 HD
HETATM   18  O1  UNL     1      16.328 -11.793  19.558  1.00  0.00    -0.271 OA
ENDBRANCH   1  14
TORSDOF 1
ENDMDL
MODEL 2
REMARK VINA RESULT: -5.498775164      1.943      4.672
REMARK  1 active torsions:
REMARK  status: ('A' for Active; 'I' for Inactive)
REMARK       I    between atoms: N1_2  and  C2_4 
REMARK    1  A    between atoms: C2_4  and  C3_6 
ROOT
HETATM    1  C3  UNL     1      13.431 -14.084  21.597  1.00  0.00     0.104 C 
HETATM    2  C4  UNL     1      12.483 -13.499  22.685  1.00  0.00     0.048 C 
HETATM    3  C5  UNL     1      13.706 -12.947  20.687  1.00  0.00     0.042 C 
HETATM    4  C6  UNL     1      14.921 -12.215  21.204  1.00  0.00     0.031 C 
HETATM    5  C7  UNL     1      16.048 -12.464  20.249  1.00  0.00     0.236 C 
HETATM    6  N2  UNL     1      17.088 -13.285  20.716  1.00  0.00    -0.072 N 
HETATM    7  C8  UNL     1      17.695 -13.928  19.540  1.00  0.00     0.272 C 
HETATM    8  C9  UNL     1      18.139 -12.390  21.248  1.00  0.00     0.272 C 
HETATM    9  C10 UNL     1      16.816 -14.196  21.775  1.00  0.00     0.272 C 
HETATM   10  C11 UNL     1      15.640 -15.084  21.655  1.00  0.00     0.176 C 
HETATM   11 BR1  UNL     1      15.257 -15.630  19.852  1.00  0.00    -0.067 Br
HETATM   12  N3  UNL     1      14.526 -14.552  22.386  1.00  0.00    -0.390 N 
ATOM     13  H3  UNL     1      14.516 -14.509  23.405  1.00  0.00     0.155 HD
ENDROOT
BRANCH   1  14
HETATM   14  C2  UNL     1      12.642 -15.165  20.974  1.00  0.00     0.244 C 
HETATM   15  N1  UNL     1      12.442 -16.419  21.607  1.00  0.00    -0.363 N 
HETATM   16  C1  UNL     1      11.667 -17.469  20.999  1.00  0.00     0.149 C 
ATOM     17  H1  UNL     1      12.860 -16.582  22.523  1.00  0.00     0.162 HD
HETATM   18  O1  UNL     1      12.114 -14.999  19.849  1.00  0.00    -0.271 OA
ENDBRANCH   1  14
TORSDOF 1
ENDMDL
MODEL 3
REMARK VINA RESULT: -5.294601791      2.590      3.880
REMARK  1 active torsions:
REMARK  status: ('A' for Active; 'I' for Inactive)
REMARK       I    between atoms: N1_2  and  C2_4 
REMARK    1  A    between atoms: C2_4  and  C3_6 
ROOT
HETATM    1  C3  UNL     1      16.162 -13.743  19.362  1.00  0.00     0.104 C 
HETATM    2  C4  UNL     1      17.540 -13.095  19.032  1.00  0.00     0.048 C 
HETATM    3  C5  UNL     1      16.227 -14.046  20.810  1.00  0.00     0.042 C 
HETATM    4  C6  UNL     1      15.723 -12.840  21.566  1.00  0.00     0.031 C 
HETATM    5  C7  UNL     1      14.399 -13.195  22.168  1.00  0.00     0.236 C 
HETATM    6  N2  UNL     1      13.274 -12.566  21.610  1.00  0.00    -0.072 N 
HETATM    7  C8  UNL     1      12.125 -13.461  21.823  1.00  0.00     0.272 C 
HETATM    8  C9  UNL     1      12.990 -11.374  22.441  1.00  0.00     0.272 C 
HETATM    9  C10 UNL     1      13.359 -12.070  20.280  1.00  0.00     0.272 C 
HETATM   10  C11 UNL     1      13.867 -12.971  19.223  1.00  0.00     0.176 C 
HETATM   11 BR1  UNL     1      13.407 -14.819  19.488  1.00  0.00    -0.067 Br
HETATM   12  N3  UNL     1      15.254 -12.714  18.963  1.00  0.00    -0.390 N 
ATOM     13  H3  UNL     1      15.573 -11.852  18.521  1.00  0.00     0.155 HD
ENDROOT
BRANCH   1  14
HETATM   14  C2  UNL     1      16.114 -14.944  18.505  1.00  0.00     0.244 C 
HETATM   15  N1  UNL     1      15.931 -14.867  17.100  1.00  0.00    -0.363 N 
HETATM   16  C1  UNL     1      15.890 -16.040  16.268  1.00  0.00     0.149 C 
ATOM     17  H1  UNL     1      15.824 -13.950  16.666  1.00  0.00     0.162 HD
HETATM   18  O1  UNL     1      16.241 -16.086  19.006  1.00  0.00    -0.271 OA
ENDBRANCH   1  14
TORSDOF 1
ENDMDL
MODEL 4
REMARK VINA RESULT: -5.246857670      1.999      4.917
REMARK  1 active torsions:
REMARK  status: ('A' for Active; 'I' for Inactive)
REMARK       I    between atoms: N1_2  and  C2_4 
REMARK    1  A    between atoms: C2_4  and  C3_6 
ROOT
HETATM    1  C3  UNL     1      15.002 -13.344  19.035  1.00  0.00     0.104 C 
HETATM    2  C4  UNL     1      14.605 -12.705  17.671  1.00  0.00     0.048 C 
HETATM    3  C5  UNL     1      15.958 -14.419  18.683  1.00  0.00     0.042 C 
HETATM    4  C6  UNL     1      17.347 -13.829  18.674  1.00  0.00     0.031 C 
HETATM    5  C7  UNL     1      18.090 -14.384  19.849  1.00  0.00     0.236 C 
HETATM    6  N2  UNL     1      18.365 -13.485  20.893  1.00  0.00    -0.072 N 
HETATM    7  C8  UNL     1      18.463 -14.274  22.132  1.00  0.00     0.272 C 
HETATM    8  C9  UNL     1      19.729 -12.961  20.663  1.00  0.00     0.272 C 
HETATM    9  C10 UNL     1      17.549 -12.328  21.029  1.00  0.00     0.272 C 
HETATM   10  C11 UNL     1      16.081 -12.497  21.036  1.00  0.00     0.176 C 
HETATM   11 BR1  UNL     1      15.490 -14.138  21.846  1.00  0.00    -0.067 Br
HETATM   12  N3  UNL     1      15.533 -12.220  19.739  1.00  0.00    -0.390 N 
ATOM     13  H3  UNL     1      15.523 -11.279  19.344  1.00  0.00     0.155 HD
ENDROOT
BRANCH   1  14
HETATM   14  C2  UNL     1      13.725 -13.841  19.585  1.00  0.00     0.244 C 
HETATM   15  N1  UNL     1      13.345 -15.206  19.504  1.00  0.00    -0.363 N 
HETATM   16  C1  UNL     1      12.101 -15.688  20.046  1.00  0.00     0.149 C 
ATOM     17  H1  UNL     1      13.973 -15.867  19.047  1.00  0.00     0.162 HD
HETATM   18  O1  UNL     1      12.930 -13.056  20.153  1.00  0.00    -0.271 OA
ENDBRANCH   1  14
TORSDOF 1
ENDMDL
MODEL 5
REMARK VINA RESULT: -5.178007083      2.796      4.479
REMARK  1 active torsions:
REMARK  status: ('A' for Active; 'I' for Inactive)
REMARK       I    between atoms: N1_2  and  C2_4 
REMARK    1  A    between atoms: C2_4  and  C3_6 
ROOT
HETATM    1  C3  UNL     1      14.944 -13.037  19.232  1.00  0.00     0.104 C 
HETATM    2  C4  UNL     1      14.612 -12.682  17.752  1.00  0.00     0.048 C 
HETATM    3  C5  UNL     1      15.162 -14.503  19.227  1.00  0.00     0.042 C 
HETATM    4  C6  UNL     1      16.622 -14.760  18.947  1.00  0.00     0.031 C 
HETATM    5  C7  UNL     1      17.246 -15.282  20.203  1.00  0.00     0.236 C 
HETATM    6  N2  UNL     1      18.142 -14.420  20.857  1.00  0.00    -0.072 N 
HETATM    7  C8  UNL     1      18.121 -14.773  22.286  1.00  0.00     0.272 C 
HETATM    8  C9  UNL     1      19.501 -14.778  20.395  1.00  0.00     0.272 C 
HETATM    9  C10 UNL     1      18.035 -13.020  20.625  1.00  0.00     0.272 C 
HETATM   10  C11 UNL     1      16.709 -12.383  20.761  1.00  0.00     0.176 C 
HETATM   11 BR1  UNL     1      15.599 -13.176  22.116  1.00  0.00    -0.067 Br
HETATM   12  N3  UNL     1      16.090 -12.220  19.477  1.00  0.00    -0.390 N 
ATOM     13  H3  UNL     1      16.446 -11.564  18.782  1.00  0.00     0.155 HD
ENDROOT
BRANCH   1  14
HETATM   14  C2  UNL     1      13.743 -12.618  19.982  1.00  0.00     0.244 C 
HETATM   15  N1  UNL     1      13.566 -11.290  20.448  1.00  0.00    -0.363 N 
HETATM   16  C1  UNL     1      12.391 -10.884  21.174  1.00  0.00     0.149 C 
ATOM     17  H1  UNL     1      14.295 -10.600  20.263  1.00  0.00     0.162 HD
HETATM   18  O1  UNL     1      12.829 -13.440  20.226  1.00  0.00    -0.271 OA
ENDBRANCH   1  14
TORSDOF 1
ENDMDL
