MODEL 1
REMARK VINA RESULT: -4.370056842      0.000      0.000
REMARK  3 active torsions:
REMARK  status: ('A' for Active; 'I' for Inactive)
REMARK    1  A    between atoms: C3_3  and  C4_4 
REMARK    2  A    between atoms: C4_4  and  C6_6 
REMARK    3  A    between atoms: N1_7  and  C7_9 
ROOT
HETATM    1  C1  UNL     1      12.977 -15.404  22.042  1.00  0.00     0.112 C 
HETATM    2  C2  UNL     1      12.804 -13.943  21.864  1.00  0.00    -0.110 C 
HETATM    3  C3  UNL     1      12.677 -12.767  21.713  1.00  0.00    -0.097 C 
ENDROOT
BRANCH   3   4
HETATM    4  C4  UNL     1      12.526 -11.329  21.507  1.00  0.00     0.099 C 
HETATM    5  C5  UNL     1      13.867 -10.615  21.697  1.00  0.00     0.029 C 
BRANCH   4   6
HETATM    6  C6  UNL     1      11.606 -10.792  22.526  1.00  0.00     0.072 C 
HETATM    7  N1  UNL     1      12.036 -10.469  23.679  1.00  0.00    -0.401 N 
ATOM      8  H1  UNL     1      13.026 -10.583  23.898  1.00  0.00     0.158 HD
BRANCH   7   9
HETATM    9  C7  UNL     1      11.137  -9.941  24.687  1.00  0.00     0.114 C 
HETATM   10  C8  UNL     1      11.511  -8.552  25.067  1.00  0.00     0.026 C 
ENDBRANCH   7   9
ENDBRANCH   4   6
ENDBRANCH   3   4
TORSDOF 3
ENDMDL
MODEL 2
REMARK VINA RESULT: -4.131145355      1.457      1.506
REMARK  3 active torsions:
REMARK  status: ('A' for Active; 'I' for Inactive)
REMARK    1  A    between atoms: C3_3  and  C4_4 
REMARK    2  A    between atoms: C4_4  and  C6_6 
REMARK    3  A    between atoms: N1_7  and  C7_9 
ROOT
HETATM    1  C1  UNL     1      16.049 -14.135  22.105  1.00  0.00     0.112 C 
HETATM    2  C2  UNL     1      14.779 -13.377  22.013  1.00  0.00    -0.110 C 
HETATM    3  C3  UNL     1      13.764 -12.755  21.937  1.00  0.00    -0.097 C 
ENDROOT
BRANCH   3   4
HETATM    4  C4  UNL     1      12.530 -11.981  21.826  1.00  0.00     0.099 C 
HETATM    5  C5  UNL     1      12.783 -10.671  21.075  1.00  0.00     0.029 C 
BRANCH   4   6
HETATM    6  C6  UNL     1      12.068 -11.620  23.178  1.00  0.00     0.072 C 
HETATM    7  N1  UNL     1      11.505 -10.499  23.391  1.00  0.00    -0.401 N 
ATOM      8  H1  UNL     1      11.374  -9.846  22.617  1.00  0.00     0.158 HD
BRANCH   7   9
HETATM    9  C7  UNL     1      11.048 -10.136  24.718  1.00  0.00     0.114 C 
HETATM   10  C8  UNL     1      11.365  -8.715  25.027  1.00  0.00     0.026 C 
ENDBRANCH   7   9
ENDBRANCH   4   6
ENDBRANCH   3   4
TORSDOF 3
ENDMDL
MODEL 3
REMARK VINA RESULT: -4.124130477      2.027      4.857
REMARK  3 active torsions:
REMARK  status: ('A' for Active; 'I' for Inactive)
REMARK    1  A    between atoms: C3_3  and  C4_4 
REMARK    2  A    between atoms: C4_4  and  C6_6 
REMARK    3  A    between atoms: N1_7  and  C7_9 
ROOT
HETATM    1  C1  UNL     1      11.278  -8.792  25.018  1.00  0.00     0.112 C 
HETATM    2  C2  UNL     1      11.582  -9.857  24.034  1.00  0.00    -0.110 C 
HETATM    3  C3  UNL     1      11.830 -10.704  23.231  1.00  0.00    -0.097 C 
ENDROOT
BRANCH   3   4
HETATM    4  C4  UNL     1      12.151 -11.729  22.241  1.00  0.00     0.099 C 
HETATM    5  C5  UNL     1      12.297 -13.097  22.912  1.00  0.00     0.029 C 
BRANCH   4   6
HETATM    6  C6  UNL     1      13.451 -11.410  21.626  1.00  0.00     0.072 C 
HETATM    7  N1  UNL     1      14.330 -12.316  21.466  1.00  0.00    -0.401 N 
ATOM      8  H1  UNL     1      14.131 -13.270  21.768  1.00  0.00     0.158 HD
BRANCH   7   9
HETATM    9  C7  UNL     1      15.613 -12.011  20.862  1.00  0.00     0.114 C 
HETATM   10  C8  UNL     1      16.694 -12.858  21.436  1.00  0.00     0.026 C 
ENDBRANCH   7   9
ENDBRANCH   4   6
ENDBRANCH   3   4
TORSDOF 3
ENDMDL
MODEL 4
REMARK VINA RESULT: -4.096621673      1.175      1.293
REMARK  3 active torsions:
REMARK  status: ('A' for Active; 'I' for Inactive)
REMARK    1  A    between atoms: C3_3  and  C4_4 
REMARK    2  A    between atoms: C4_4  and  C6_6 
REMARK    3  A    between atoms: N1_7  and  C7_9 
ROOT
HETATM    1  C1  UNL     1      12.389 -15.946  20.547  1.00  0.00     0.112 C 
HETATM    2  C2  UNL     1      12.555 -14.489  20.765  1.00  0.00    -0.110 C 
HETATM    3  C3  UNL     1      12.681 -13.314  20.928  1.00  0.00    -0.097 C 
ENDROOT
BRANCH   3   4
HETATM    4  C4  UNL     1      12.814 -11.873  21.122  1.00  0.00     0.099 C 
HETATM    5  C5  UNL     1      14.237 -11.519  21.563  1.00  0.00     0.029 C 
BRANCH   4   6
HETATM    6  C6  UNL     1      11.910 -11.449  22.206  1.00  0.00     0.072 C 
HETATM    7  N1  UNL     1      12.016 -11.953  23.370  1.00  0.00    -0.401 N 
ATOM      8  H1  UNL     1      12.734 -12.655  23.551  1.00  0.00     0.158 HD
BRANCH   7   9
HETATM    9  C7  UNL     1      11.130 -11.542  24.441  1.00  0.00     0.114 C 
HETATM   10  C8  UNL     1      11.125 -10.062  24.598  1.00  0.00     0.026 C 
ENDBRANCH   7   9
ENDBRANCH   4   6
ENDBRANCH   3   4
TORSDOF 3
ENDMDL
MODEL 5
REMARK VINA RESULT: -4.045332531      2.553      4.857
REMARK  3 active torsions:
REMARK  status: ('A' for Active; 'I' for Inactive)
REMARK    1  A    between atoms: C3_3  and  C4_4 
REMARK    2  A    between atoms: C4_4  and  C6_6 
REMARK    3  A    between atoms: N1_7  and  C7_9 
ROOT
HETATM    1  C1  UNL     1      11.100 -10.412  24.370  1.00  0.00     0.112 C 
HETATM    2  C2  UNL     1      11.757 -10.979  23.168  1.00  0.00    -0.110 C 
HETATM    3  C3  UNL     1      12.292 -11.446  22.210  1.00  0.00    -0.097 C 
ENDROOT
BRANCH   3   4
HETATM    4  C4  UNL     1      12.939 -12.038  21.042  1.00  0.00     0.099 C 
HETATM    5  C5  UNL     1      12.589 -13.524  20.928  1.00  0.00     0.029 C 
BRANCH   4   6
HETATM    6  C6  UNL     1      14.401 -11.952  21.210  1.00  0.00     0.072 C 
HETATM    7  N1  UNL     1      15.181 -12.276  20.258  1.00  0.00    -0.401 N 
ATOM      8  H1  UNL     1      14.790 -12.597  19.373  1.00  0.00     0.158 HD
BRANCH   7   9
HETATM    9  C7  UNL     1      16.621 -12.195  20.417  1.00  0.00     0.114 C 
HETATM   10  C8  UNL     1      17.090 -13.065  21.529  1.00  0.00     0.026 C 
ENDBRANCH   7   9
ENDBRANCH   4   6
ENDBRANCH   3   4
TORSDOF 3
ENDMDL
