MODEL 1
REMARK VINA RESULT: -3.938374164      0.000      0.000
REMARK  1 active torsions:
REMARK  status: ('A' for Active; 'I' for Inactive)
REMARK    1  A    between atoms: C2_2  and  N1_3 
ROOT
HETATM    1  N1  UNL     1      12.147 -12.215  22.739  1.00  0.00     0.012 N 
HETATM    2  C3  UNL     1      12.229 -11.119  21.802  1.00  0.00     0.262 C 
HETATM    3  C4  UNL     1      13.170 -11.770  20.766  1.00  0.00     0.054 C 
HETATM    4  C5  UNL     1      13.235 -13.132  21.418  1.00  0.00     0.136 C 
HETATM    5  C6  UNL     1      11.797 -13.331  21.842  1.00  0.00     0.283 C 
HETATM    6  N2  UNL     1      13.423 -12.799  22.800  1.00  0.00    -0.040 NA
ENDROOT
BRANCH   1   7
HETATM    7  C2  UNL     1      11.410 -12.072  23.911  1.00  0.00     0.256 C 
HETATM    8  C1  UNL     1      11.034 -10.663  24.288  1.00  0.00     0.036 C 
ENDBRANCH   1   7
TORSDOF 1
ENDMDL
MODEL 2
REMARK VINA RESULT: -3.867669746      1.524      2.141
REMARK  1 active torsions:
REMARK  status: ('A' for Active; 'I' for Inactive)
REMARK    1  A    between atoms: C2_2  and  N1_3 
ROOT
HETATM    1  N1  UNL     1      13.071 -11.917  21.550  1.00  0.00     0.012 N 
HETATM    2  C3  UNL     1      12.239 -13.087  21.711  1.00  0.00     0.262 C 
HETATM    3  C4  UNL     1      12.833 -13.952  20.578  1.00  0.00     0.054 C 
HETATM    4  C5  UNL     1      13.940 -12.997  20.191  1.00  0.00     0.136 C 
HETATM    5  C6  UNL     1      14.415 -12.522  21.546  1.00  0.00     0.283 C 
HETATM    6  N2  UNL     1      13.260 -11.735  20.170  1.00  0.00    -0.040 NA
ENDROOT
BRANCH   1   7
HETATM    7  C2  UNL     1      12.866 -10.804  22.360  1.00  0.00     0.256 C 
HETATM    8  C1  UNL     1      11.548 -10.748  23.086  1.00  0.00     0.036 C 
ENDBRANCH   1   7
TORSDOF 1
ENDMDL
MODEL 3
REMARK VINA RESULT: -3.843072073      0.973      1.392
REMARK  1 active torsions:
REMARK  status: ('A' for Active; 'I' for Inactive)
REMARK    1  A    between atoms: C2_2  and  N1_3 
ROOT
HETATM    1  N1  UNL     1      12.749 -11.883  22.100  1.00  0.00     0.012 N 
HETATM    2  C3  UNL     1      14.065 -11.495  21.648  1.00  0.00     0.262 C 
HETATM    3  C4  UNL     1      14.735 -12.887  21.667  1.00  0.00     0.054 C 
HETATM    4  C5  UNL     1      13.497 -13.673  22.032  1.00  0.00     0.136 C 
HETATM    5  C6  UNL     1      12.448 -12.994  21.180  1.00  0.00     0.283 C 
HETATM    6  N2  UNL     1      12.926 -12.875  23.078  1.00  0.00    -0.040 NA
ENDROOT
BRANCH   1   7
HETATM    7  C2  UNL     1      11.767 -10.914  22.286  1.00  0.00     0.256 C 
HETATM    8  C1  UNL     1      11.307 -10.702  23.704  1.00  0.00     0.036 C 
ENDBRANCH   1   7
TORSDOF 1
ENDMDL
MODEL 4
REMARK VINA RESULT: -3.800214161      1.299      2.188
REMARK  1 active torsions:
REMARK  status: ('A' for Active; 'I' for Inactive)
REMARK    1  A    between atoms: C2_2  and  N1_3 
ROOT
HETATM    1  N1  UNL     1      11.766 -11.042  23.245  1.00  0.00     0.012 N 
HETATM    2  C3  UNL     1      11.978 -12.454  23.020  1.00  0.00     0.262 C 
HETATM    3  C4  UNL     1      12.550 -12.376  21.588  1.00  0.00     0.054 C 
HETATM    4  C5  UNL     1      12.588 -10.868  21.495  1.00  0.00     0.136 C 
HETATM    5  C6  UNL     1      13.083 -10.494  22.874  1.00  0.00     0.283 C 
HETATM    6  N2  UNL     1      11.311 -10.497  22.033  1.00  0.00    -0.040 NA
ENDROOT
BRANCH   1   7
HETATM    7  C2  UNL     1      11.199 -10.609  24.439  1.00  0.00     0.256 C 
HETATM    8  C1  UNL     1      11.378  -9.150  24.767  1.00  0.00     0.036 C 
ENDBRANCH   1   7
TORSDOF 1
ENDMDL
MODEL 5
REMARK VINA RESULT: -3.713483642      1.799      2.443
REMARK  1 active torsions:
REMARK  status: ('A' for Active; 'I' for Inactive)
REMARK    1  A    between atoms: C2_2  and  N1_3 
ROOT
HETATM    1  N1  UNL     1      13.732 -12.301  21.502  1.00  0.00     0.012 N 
HETATM    2  C3  UNL     1      13.332 -12.985  20.295  1.00  0.00     0.262 C 
HETATM    3  C4  UNL     1      14.687 -12.963  19.555  1.00  0.00     0.054 C 
HETATM    4  C5  UNL     1      15.489 -12.344  20.677  1.00  0.00     0.136 C 
HETATM    5  C6  UNL     1      14.931 -13.069  21.881  1.00  0.00     0.283 C 
HETATM    6  N2  UNL     1      14.627 -11.287  21.121  1.00  0.00    -0.040 NA
ENDROOT
BRANCH   1   7
HETATM    7  C2  UNL     1      12.792 -12.038  22.494  1.00  0.00     0.256 C 
HETATM    8  C1  UNL     1      11.886 -10.859  22.252  1.00  0.00     0.036 C 
ENDBRANCH   1   7
TORSDOF 1
ENDMDL
