MODEL 1
REMARK VINA RESULT: -4.875729736      0.000      0.000
REMARK  1 active torsions:
REMARK  status: ('A' for Active; 'I' for Inactive)
REMARK    1  A    between atoms: N2_4  and  C1_6 
ROOT
HETATM    1  C1  UNL     1      11.231 -12.264  22.869  1.00  0.00     0.137 C 
HETATM    2  C2  UNL     1      11.634 -10.837  22.619  1.00  0.00     0.037 C 
HETATM    3  C3  UNL     1      12.575 -10.768  21.438  1.00  0.00     0.047 C 
HETATM    4  C4  UNL     1      13.788 -11.548  21.799  1.00  0.00     0.060 C 
HETATM    5  N3  UNL     1      13.593 -12.808  22.357  1.00  0.00    -0.380 N 
ATOM      6  H3  UNL     1      14.396 -13.416  22.515  1.00  0.00     0.164 HD
HETATM    7  C5  UNL     1      12.316 -13.254  22.704  1.00  0.00     0.086 C 
ENDROOT
BRANCH   1   8
HETATM    8  N2  UNL     1      10.635 -12.321  24.175  1.00  0.00    -0.333 N 
HETATM    9  N1  UNL     1      10.782 -11.444  25.038  1.00  0.00    -0.349 N 
ATOM     10  H12 UNL     1      11.363 -10.643  24.791  1.00  0.00     0.176 HD
ATOM     11  H11 UNL     1      10.358 -11.484  25.965  1.00  0.00     0.176 HD
ATOM     12  H2  UNL     1      10.057 -13.130  24.405  1.00  0.00     0.180 HD
ENDBRANCH   1   8
TORSDOF 1
ENDMDL
MODEL 2
REMARK VINA RESULT: -4.867583241      1.672      2.281
REMARK  1 active torsions:
REMARK  status: ('A' for Active; 'I' for Inactive)
REMARK    1  A    between atoms: N2_4  and  C1_6 
ROOT
HETATM    1  C1  UNL     1      11.380 -10.441  23.890  1.00  0.00     0.137 C 
HETATM    2  C2  UNL     1      12.536 -10.367  22.931  1.00  0.00     0.037 C 
HETATM    3  C3  UNL     1      12.393 -11.436  21.872  1.00  0.00     0.047 C 
HETATM    4  C4  UNL     1      12.436 -12.749  22.568  1.00  0.00     0.060 C 
HETATM    5  N3  UNL     1      11.642 -12.896  23.702  1.00  0.00    -0.380 N 
ATOM      6  H3  UNL     1      11.560 -13.813  24.141  1.00  0.00     0.164 HD
HETATM    7  C5  UNL     1      10.955 -11.811  24.248  1.00  0.00     0.086 C 
ENDROOT
BRANCH   1   8
HETATM    8  N2  UNL     1      11.728  -9.659  25.044  1.00  0.00    -0.333 N 
HETATM    9  N1  UNL     1      12.383  -8.608  24.992  1.00  0.00    -0.349 N 
ATOM     10  H12 UNL     1      12.685  -8.294  24.070  1.00  0.00     0.176 HD
ATOM     11  H11 UNL     1      12.630  -8.052  25.811  1.00  0.00     0.176 HD
ATOM     12  H2  UNL     1      11.419  -9.988  25.959  1.00  0.00     0.180 HD
ENDBRANCH   1   8
TORSDOF 1
ENDMDL
MODEL 3
REMARK VINA RESULT: -4.734695473      1.264      2.024
REMARK  1 active torsions:
REMARK  status: ('A' for Active; 'I' for Inactive)
REMARK    1  A    between atoms: N2_4  and  C1_6 
ROOT
HETATM    1  C1  UNL     1      12.148 -12.136  22.872  1.00  0.00     0.137 C 
HETATM    2  C2  UNL     1      12.944 -13.357  22.502  1.00  0.00     0.037 C 
HETATM    3  C3  UNL     1      14.240 -12.944  21.842  1.00  0.00     0.047 C 
HETATM    4  C4  UNL     1      13.883 -12.215  20.596  1.00  0.00     0.060 C 
HETATM    5  N3  UNL     1      12.902 -11.232  20.692  1.00  0.00    -0.380 N 
ATOM      6  H3  UNL     1      12.708 -10.636  19.887  1.00  0.00     0.164 HD
HETATM    7  C5  UNL     1      12.177 -11.048  21.871  1.00  0.00     0.086 C 
ENDROOT
BRANCH   1   8
HETATM    8  N2  UNL     1      10.810 -12.568  23.169  1.00  0.00    -0.333 N 
HETATM    9  N1  UNL     1      10.287 -12.469  24.288  1.00  0.00    -0.349 N 
ATOM     10  H12 UNL     1      10.852 -12.055  25.030  1.00  0.00     0.176 HD
ATOM     11  H11 UNL     1       9.337 -12.775  24.499  1.00  0.00     0.176 HD
ATOM     12  H2  UNL     1      10.259 -12.980  22.415  1.00  0.00     0.180 HD
ENDBRANCH   1   8
TORSDOF 1
ENDMDL
MODEL 4
REMARK VINA RESULT: -4.613201445      1.607      3.241
REMARK  1 active torsions:
REMARK  status: ('A' for Active; 'I' for Inactive)
REMARK    1  A    between atoms: N2_4  and  C1_6 
ROOT
HETATM    1  C1  UNL     1      12.915 -11.267  21.957  1.00  0.00     0.137 C 
HETATM    2  C2  UNL     1      11.710 -10.477  22.389  1.00  0.00     0.037 C 
HETATM    3  C3  UNL     1      11.402 -10.764  23.841  1.00  0.00     0.047 C 
HETATM    4  C4  UNL     1      11.082 -12.212  23.942  1.00  0.00     0.060 C 
HETATM    5  N3  UNL     1      11.946 -13.102  23.309  1.00  0.00    -0.380 N 
ATOM      6  H3  UNL     1      11.822 -14.105  23.448  1.00  0.00     0.164 HD
HETATM    7  C5  UNL     1      12.978 -12.645  22.489  1.00  0.00     0.086 C 
ENDROOT
BRANCH   1   8
HETATM    8  N2  UNL     1      12.959 -11.233  20.522  1.00  0.00    -0.333 N 
HETATM    9  N1  UNL     1      13.556 -12.072  19.831  1.00  0.00    -0.349 N 
ATOM     10  H12 UNL     1      14.038 -12.822  20.326  1.00  0.00     0.176 HD
ATOM     11  H11 UNL     1      13.588 -12.048  18.812  1.00  0.00     0.176 HD
ATOM     12  H2  UNL     1      12.472 -10.475  20.043  1.00  0.00     0.180 HD
ENDBRANCH   1   8
TORSDOF 1
ENDMDL
MODEL 5
REMARK VINA RESULT: -4.608463032      1.289      1.741
REMARK  1 active torsions:
REMARK  status: ('A' for Active; 'I' for Inactive)
REMARK    1  A    between atoms: N2_4  and  C1_6 
ROOT
HETATM    1  C1  UNL     1      11.649 -10.857  23.090  1.00  0.00     0.137 C 
HETATM    2  C2  UNL     1      12.975 -10.753  22.390  1.00  0.00     0.037 C 
HETATM    3  C3  UNL     1      13.138 -11.905  21.425  1.00  0.00     0.047 C 
HETATM    4  C4  UNL     1      13.124 -13.155  22.230  1.00  0.00     0.060 C 
HETATM    5  N3  UNL     1      12.117 -13.288  23.182  1.00  0.00    -0.380 N 
ATOM      6  H3  UNL     1      12.008 -14.174  23.675  1.00  0.00     0.164 HD
HETATM    7  C5  UNL     1      11.255 -12.230  23.474  1.00  0.00     0.086 C 
ENDROOT
BRANCH   1   8
HETATM    8  N2  UNL     1      11.686  -9.966  24.217  1.00  0.00    -0.333 N 
HETATM    9  N1  UNL     1      10.717  -9.757  24.962  1.00  0.00    -0.349 N 
ATOM     10  H12 UNL     1       9.852 -10.254  24.749  1.00  0.00     0.176 HD
ATOM     11  H11 UNL     1      10.743  -9.124  25.762  1.00  0.00     0.176 HD
ATOM     12  H2  UNL     1      12.559  -9.477  24.414  1.00  0.00     0.180 HD
ENDBRANCH   1   8
TORSDOF 1
ENDMDL
