MODEL 1
REMARK VINA RESULT: -4.057491474      0.000      0.000
REMARK  1 active torsions:
REMARK  status: ('A' for Active; 'I' for Inactive)
REMARK    1  A    between atoms: C3_6  and  N2_7 
ROOT
HETATM    1  C1  UNL     1      11.320 -10.492  24.338  1.00  0.00     0.044 C 
HETATM    2  C2  UNL     1      11.281 -11.345  23.076  1.00  0.00     0.242 A 
HETATM    3  N1  UNL     1      10.787 -12.706  23.181  1.00  0.00    -0.036 N 
ATOM      4  H11 UNL     1      10.089 -13.254  22.677  1.00  0.00     0.280 HD
ATOM      5  H12 UNL     1      10.212 -13.207  23.858  1.00  0.00     0.280 HD
HETATM    6  C3  UNL     1      12.182 -12.486  23.027  1.00  0.00     0.416 A 
ENDROOT
BRANCH   6   7
HETATM    7  N2  UNL     1      12.873 -12.751  21.804  1.00  0.00    -0.048 N 
HETATM    8  C4  UNL     1      14.234 -13.166  22.185  1.00  0.00     0.274 C 
HETATM    9  C5  UNL     1      12.275 -13.914  21.142  1.00  0.00     0.274 C 
HETATM   10  C6  UNL     1      13.003 -11.639  20.925  1.00  0.00     0.274 C 
ENDBRANCH   6   7
TORSDOF 1
ENDMDL
MODEL 2
REMARK VINA RESULT: -3.830091932      1.589      2.284
REMARK  1 active torsions:
REMARK  status: ('A' for Active; 'I' for Inactive)
REMARK    1  A    between atoms: C3_6  and  N2_7 
ROOT
HETATM    1  C1  UNL     1      11.862 -10.508  23.191  1.00  0.00     0.044 C 
HETATM    2  C2  UNL     1      12.929 -10.980  22.211  1.00  0.00     0.242 A 
HETATM    3  N1  UNL     1      12.757 -10.668  20.804  1.00  0.00    -0.036 N 
ATOM      4  H11 UNL     1      13.347 -10.243  20.088  1.00  0.00     0.280 HD
ATOM      5  H12 UNL     1      12.204  -9.986  20.286  1.00  0.00     0.280 HD
HETATM    6  C3  UNL     1      12.534 -11.998  21.250  1.00  0.00     0.416 A 
ENDROOT
BRANCH   6   7
HETATM    7  N2  UNL     1      13.447 -13.065  20.980  1.00  0.00    -0.048 N 
HETATM    8  C4  UNL     1      12.625 -14.276  20.819  1.00  0.00     0.274 C 
HETATM    9  C5  UNL     1      14.089 -12.846  19.681  1.00  0.00     0.274 C 
HETATM   10  C6  UNL     1      14.393 -13.332  22.009  1.00  0.00     0.274 C 
ENDBRANCH   6   7
TORSDOF 1
ENDMDL
MODEL 3
REMARK VINA RESULT: -3.775512261      0.116      1.436
REMARK  1 active torsions:
REMARK  status: ('A' for Active; 'I' for Inactive)
REMARK    1  A    between atoms: C3_6  and  N2_7 
ROOT
HETATM    1  C1  UNL     1      11.354 -10.425  24.232  1.00  0.00     0.044 C 
HETATM    2  C2  UNL     1      11.379 -11.308  22.991  1.00  0.00     0.242 A 
HETATM    3  N1  UNL     1      10.832 -12.649  23.089  1.00  0.00    -0.036 N 
ATOM      4  H11 UNL     1      10.155 -13.187  22.547  1.00  0.00     0.280 HD
ATOM      5  H12 UNL     1      10.193 -13.115  23.733  1.00  0.00     0.280 HD
HETATM    6  C3  UNL     1      12.241 -12.478  23.033  1.00  0.00     0.416 A 
ENDROOT
BRANCH   6   7
HETATM    7  N2  UNL     1      13.010 -12.795  21.871  1.00  0.00    -0.048 N 
HETATM    8  C4  UNL     1      12.314 -13.913  21.212  1.00  0.00     0.274 C 
HETATM    9  C5  UNL     1      12.951 -11.678  20.922  1.00  0.00     0.274 C 
HETATM   10  C6  UNL     1      14.345 -13.219  22.120  1.00  0.00     0.274 C 
ENDBRANCH   6   7
TORSDOF 1
ENDMDL
MODEL 4
REMARK VINA RESULT: -3.747822081      1.894      2.629
REMARK  1 active torsions:
REMARK  status: ('A' for Active; 'I' for Inactive)
REMARK    1  A    between atoms: C3_6  and  N2_7 
ROOT
HETATM    1  C1  UNL     1      11.575 -10.712  22.820  1.00  0.00     0.044 C 
HETATM    2  C2  UNL     1      12.878 -10.866  22.046  1.00  0.00     0.242 A 
HETATM    3  N1  UNL     1      12.859 -10.634  20.613  1.00  0.00    -0.036 N 
ATOM      4  H11 UNL     1      13.414 -10.065  19.973  1.00  0.00     0.280 HD
ATOM      5  H12 UNL     1      12.228 -10.147  19.976  1.00  0.00     0.280 HD
HETATM    6  C3  UNL     1      12.953 -11.966  21.097  1.00  0.00     0.416 A 
ENDROOT
BRANCH   6   7
HETATM    7  N2  UNL     1      14.163 -12.725  21.035  1.00  0.00    -0.048 N 
HETATM    8  C4  UNL     1      14.148 -13.412  19.732  1.00  0.00     0.274 C 
HETATM    9  C5  UNL     1      15.312 -11.816  20.990  1.00  0.00     0.274 C 
HETATM   10  C6  UNL     1      14.307 -13.725  22.036  1.00  0.00     0.274 C 
ENDBRANCH   6   7
TORSDOF 1
ENDMDL
MODEL 5
REMARK VINA RESULT: -3.691923597      1.895      2.266
REMARK  1 active torsions:
REMARK  status: ('A' for Active; 'I' for Inactive)
REMARK    1  A    between atoms: C3_6  and  N2_7 
ROOT
HETATM    1  C1  UNL     1      11.761 -10.693  22.936  1.00  0.00     0.044 C 
HETATM    2  C2  UNL     1      12.972 -10.816  22.020  1.00  0.00     0.242 A 
HETATM    3  N1  UNL     1      12.778 -10.627  20.594  1.00  0.00    -0.036 N 
ATOM      4  H11 UNL     1      13.230 -10.054  19.880  1.00  0.00     0.280 HD
ATOM      5  H12 UNL     1      12.058 -10.185  20.023  1.00  0.00     0.280 HD
HETATM    6  C3  UNL     1      12.985 -11.939  21.096  1.00  0.00     0.416 A 
ENDROOT
BRANCH   6   7
HETATM    7  N2  UNL     1      14.211 -12.650  20.912  1.00  0.00    -0.048 N 
HETATM    8  C4  UNL     1      14.234 -13.701  21.944  1.00  0.00     0.274 C 
HETATM    9  C5  UNL     1      14.183 -13.357  19.628  1.00  0.00     0.274 C 
HETATM   10  C6  UNL     1      15.394 -11.876  21.074  1.00  0.00     0.274 C 
ENDBRANCH   6   7
TORSDOF 1
ENDMDL
