MODEL 1
REMARK VINA RESULT: -4.038121835      0.000      0.000
REMARK  2 active torsions:
REMARK  status: ('A' for Active; 'I' for Inactive)
REMARK    1  A    between atoms: C5_6  and  N2_7 
REMARK    2  A    between atoms: N2_7  and  C6_9 
ROOT
HETATM    1  C1  UNL     1      44.256  20.312  51.074  1.00  0.00     0.274 C 
HETATM    2  N1  UNL     1      44.748  21.381  51.927  1.00  0.00    -0.054 N 
HETATM    3  C2  UNL     1      43.741  22.386  52.089  1.00  0.00     0.274 C 
HETATM    4  C3  UNL     1      46.041  21.891  51.596  1.00  0.00     0.242 C 
HETATM    5  C4  UNL     1      46.379  21.888  53.074  1.00  0.00     0.083 C 
HETATM    6  C5  UNL     1      45.298  20.842  53.143  1.00  0.00     0.291 C 
ENDROOT
BRANCH   6   7
HETATM    7  N2  UNL     1      45.889  19.521  52.980  1.00  0.00    -0.340 N 
ATOM      8  H2  UNL     1      46.498  19.349  52.180  1.00  0.00     0.163 HD
BRANCH   7   9
HETATM    9  C6  UNL     1      45.647  18.466  53.895  1.00  0.00     0.350 C 
HETATM   10  O1  UNL     1      45.075  17.422  53.465  1.00  0.00    -0.284 OA
ENDBRANCH   7   9
ENDBRANCH   6   7
TORSDOF 2
ENDMDL
MODEL 2
REMARK VINA RESULT: -3.647143206      1.293      1.298
REMARK  2 active torsions:
REMARK  status: ('A' for Active; 'I' for Inactive)
REMARK    1  A    between atoms: C5_6  and  N2_7 
REMARK    2  A    between atoms: N2_7  and  C6_9 
ROOT
HETATM    1  C1  UNL     1      43.726  21.991  50.883  1.00  0.00     0.274 C 
HETATM    2  N1  UNL     1      44.622  22.142  52.017  1.00  0.00    -0.054 N 
HETATM    3  C2  UNL     1      44.088  23.097  52.943  1.00  0.00     0.274 C 
HETATM    4  C3  UNL     1      46.000  22.341  51.695  1.00  0.00     0.242 C 
HETATM    5  C4  UNL     1      46.359  21.364  52.796  1.00  0.00     0.083 C 
HETATM    6  C5  UNL     1      44.960  20.856  52.566  1.00  0.00     0.291 C 
ENDROOT
BRANCH   6   7
HETATM    7  N2  UNL     1      44.988  19.789  51.576  1.00  0.00    -0.340 N 
ATOM      8  H2  UNL     1      45.391  19.978  50.658  1.00  0.00     0.163 HD
BRANCH   7   9
HETATM    9  C6  UNL     1      44.474  18.496  51.845  1.00  0.00     0.350 C 
HETATM   10  O1  UNL     1      44.951  17.855  52.827  1.00  0.00    -0.284 OA
ENDBRANCH   7   9
ENDBRANCH   6   7
TORSDOF 2
ENDMDL
MODEL 3
REMARK VINA RESULT: -3.617406832      1.041      1.897
REMARK  2 active torsions:
REMARK  status: ('A' for Active; 'I' for Inactive)
REMARK    1  A    between atoms: C5_6  and  N2_7 
REMARK    2  A    between atoms: N2_7  and  C6_9 
ROOT
HETATM    1  C1  UNL     1      44.435  22.396  52.980  1.00  0.00     0.274 C 
HETATM    2  N1  UNL     1      44.841  21.779  51.728  1.00  0.00    -0.054 N 
HETATM    3  C2  UNL     1      45.473  22.747  50.883  1.00  0.00     0.274 C 
HETATM    4  C3  UNL     1      43.843  20.990  51.076  1.00  0.00     0.242 C 
HETATM    5  C4  UNL     1      44.906  19.946  50.798  1.00  0.00     0.083 C 
HETATM    6  C5  UNL     1      45.594  20.578  51.979  1.00  0.00     0.291 C 
ENDROOT
BRANCH   6   7
HETATM    7  N2  UNL     1      45.198  19.887  53.198  1.00  0.00    -0.340 N 
ATOM      8  H2  UNL     1      44.376  20.214  53.706  1.00  0.00     0.163 HD
BRANCH   7   9
HETATM    9  C6  UNL     1      45.916  18.774  53.702  1.00  0.00     0.350 C 
HETATM   10  O1  UNL     1      45.441  17.617  53.505  1.00  0.00    -0.284 OA
ENDBRANCH   7   9
ENDBRANCH   6   7
TORSDOF 2
ENDMDL
MODEL 4
REMARK VINA RESULT: -3.495732016      1.488      1.500
REMARK  2 active torsions:
REMARK  status: ('A' for Active; 'I' for Inactive)
REMARK    1  A    between atoms: C5_6  and  N2_7 
REMARK    2  A    between atoms: N2_7  and  C6_9 
ROOT
HETATM    1  C1  UNL     1      44.892  22.020  50.344  1.00  0.00     0.274 C 
HETATM    2  N1  UNL     1      44.576  22.427  51.703  1.00  0.00    -0.054 N 
HETATM    3  C2  UNL     1      43.323  23.121  51.732  1.00  0.00     0.274 C 
HETATM    4  C3  UNL     1      45.629  23.083  52.413  1.00  0.00     0.242 C 
HETATM    5  C4  UNL     1      45.278  22.248  53.628  1.00  0.00     0.083 C 
HETATM    6  C5  UNL     1      44.696  21.311  52.603  1.00  0.00     0.291 C 
ENDROOT
BRANCH   6   7
HETATM    7  N2  UNL     1      45.708  20.344  52.200  1.00  0.00    -0.340 N 
ATOM      8  H2  UNL     1      46.587  20.684  51.811  1.00  0.00     0.163 HD
BRANCH   7   9
HETATM    9  C6  UNL     1      45.511  18.946  52.331  1.00  0.00     0.350 C 
HETATM   10  O1  UNL     1      45.400  18.257  51.275  1.00  0.00    -0.284 OA
ENDBRANCH   7   9
ENDBRANCH   6   7
TORSDOF 2
ENDMDL
MODEL 5
REMARK VINA RESULT: -3.411002391      2.795      4.142
REMARK  2 active torsions:
REMARK  status: ('A' for Active; 'I' for Inactive)
REMARK    1  A    between atoms: C5_6  and  N2_7 
REMARK    2  A    between atoms: N2_7  and  C6_9 
ROOT
HETATM    1  C1  UNL     1      46.231  21.674  51.814  1.00  0.00     0.274 C 
HETATM    2  N1  UNL     1      45.347  20.550  52.073  1.00  0.00    -0.054 N 
HETATM    3  C2  UNL     1      45.444  20.151  53.445  1.00  0.00     0.274 C 
HETATM    4  C3  UNL     1      45.428  19.471  51.139  1.00  0.00     0.242 C 
HETATM    5  C4  UNL     1      43.915  19.398  51.149  1.00  0.00     0.083 C 
HETATM    6  C5  UNL     1      44.020  20.833  51.594  1.00  0.00     0.291 C 
ENDROOT
BRANCH   6   7
HETATM    7  N2  UNL     1      43.995  21.706  50.428  1.00  0.00    -0.340 N 
ATOM      8  H2  UNL     1      44.551  21.453  49.611  1.00  0.00     0.163 HD
BRANCH   7   9
HETATM    9  C6  UNL     1      43.225  22.895  50.391  1.00  0.00     0.350 C 
HETATM   10  O1  UNL     1      43.106  23.495  49.282  1.00  0.00    -0.284 OA
ENDBRANCH   7   9
ENDBRANCH   6   7
TORSDOF 2
ENDMDL
