MODEL 1
REMARK VINA RESULT: -4.548625389      0.000      0.000
REMARK  1 active torsions:
REMARK  status: ('A' for Active; 'I' for Inactive)
REMARK    1  A    between atoms: C3_3  and  N1_4 
ROOT
HETATM    1  C1  UNL     1      45.614  18.319  54.055  1.00  0.00     0.013 C 
HETATM    2  C2  UNL     1      45.381  18.678  52.914  1.00  0.00    -0.088 C 
HETATM    3  C3  UNL     1      45.102  19.082  51.544  1.00  0.00     0.353 C 
ENDROOT
BRANCH   3   4
HETATM    4  N1  UNL     1      45.203  20.504  51.412  1.00  0.00     0.029 N 
HETATM    5  C4  UNL     1      46.169  21.146  52.268  1.00  0.00     0.297 A 
HETATM    6  C5  UNL     1      44.712  21.397  52.413  1.00  0.00     0.241 A 
HETATM    7  C6  UNL     1      44.222  22.651  51.691  1.00  0.00     0.055 C 
HETATM    8  C7  UNL     1      44.792  22.462  50.323  1.00  0.00     0.145 C 
HETATM    9  N2  UNL     1      44.910  21.042  50.168  1.00  0.00    -0.045 NA
ENDBRANCH   3   4
TORSDOF 1
ENDMDL
MODEL 2
REMARK VINA RESULT: -4.498585388      1.270      1.826
REMARK  1 active torsions:
REMARK  status: ('A' for Active; 'I' for Inactive)
REMARK    1  A    between atoms: C3_3  and  N1_4 
ROOT
HETATM    1  C1  UNL     1      45.332  17.997  54.003  1.00  0.00     0.013 C 
HETATM    2  C2  UNL     1      45.759  19.023  53.504  1.00  0.00    -0.088 C 
HETATM    3  C3  UNL     1      46.291  20.243  52.916  1.00  0.00     0.353 C 
ENDROOT
BRANCH   3   4
HETATM    4  N1  UNL     1      45.231  21.054  52.400  1.00  0.00     0.029 N 
HETATM    5  C4  UNL     1      44.472  20.480  51.316  1.00  0.00     0.297 A 
HETATM    6  C5  UNL     1      45.312  21.690  51.124  1.00  0.00     0.241 A 
HETATM    7  C6  UNL     1      44.541  23.005  51.229  1.00  0.00     0.055 C 
HETATM    8  C7  UNL     1      43.809  22.830  52.520  1.00  0.00     0.145 C 
HETATM    9  N2  UNL     1      44.623  21.933  53.285  1.00  0.00    -0.045 NA
ENDBRANCH   3   4
TORSDOF 1
ENDMDL
MODEL 3
REMARK VINA RESULT: -4.291114449      1.746      3.467
REMARK  1 active torsions:
REMARK  status: ('A' for Active; 'I' for Inactive)
REMARK    1  A    between atoms: C3_3  and  N1_4 
ROOT
HETATM    1  C1  UNL     1      46.139  23.608  54.456  1.00  0.00     0.013 C 
HETATM    2  C2  UNL     1      45.319  23.099  53.713  1.00  0.00    -0.088 C 
HETATM    3  C3  UNL     1      44.323  22.508  52.830  1.00  0.00     0.353 C 
ENDROOT
BRANCH   3   4
HETATM    4  N1  UNL     1      44.794  21.263  52.307  1.00  0.00     0.029 N 
HETATM    5  C4  UNL     1      45.400  21.320  51.000  1.00  0.00     0.297 A 
HETATM    6  C5  UNL     1      44.130  20.587  51.238  1.00  0.00     0.241 A 
HETATM    7  C6  UNL     1      44.312  19.089  51.474  1.00  0.00     0.055 C 
HETATM    8  C7  UNL     1      45.367  19.069  52.531  1.00  0.00     0.145 C 
HETATM    9  N2  UNL     1      45.213  20.312  53.227  1.00  0.00    -0.045 NA
ENDBRANCH   3   4
TORSDOF 1
ENDMDL
MODEL 4
REMARK VINA RESULT: -4.273500159      1.486      3.934
REMARK  1 active torsions:
REMARK  status: ('A' for Active; 'I' for Inactive)
REMARK    1  A    between atoms: C3_3  and  N1_4 
ROOT
HETATM    1  C1  UNL     1      42.444  23.797  50.685  1.00  0.00     0.013 C 
HETATM    2  C2  UNL     1      43.125  23.386  51.609  1.00  0.00    -0.088 C 
HETATM    3  C3  UNL     1      43.931  22.914  52.725  1.00  0.00     0.353 C 
ENDROOT
BRANCH   3   4
HETATM    4  N1  UNL     1      44.687  21.761  52.344  1.00  0.00     0.029 N 
HETATM    5  C4  UNL     1      45.447  21.884  51.125  1.00  0.00     0.297 A 
HETATM    6  C5  UNL     1      44.310  20.936  51.240  1.00  0.00     0.241 A 
HETATM    7  C6  UNL     1      44.724  19.507  51.588  1.00  0.00     0.055 C 
HETATM    8  C7  UNL     1      45.609  19.723  52.772  1.00  0.00     0.145 C 
HETATM    9  N2  UNL     1      45.139  20.939  53.366  1.00  0.00    -0.045 NA
ENDBRANCH   3   4
TORSDOF 1
ENDMDL
MODEL 5
REMARK VINA RESULT: -4.270192700      1.053      1.219
REMARK  1 active torsions:
REMARK  status: ('A' for Active; 'I' for Inactive)
REMARK    1  A    between atoms: C3_3  and  N1_4 
ROOT
HETATM    1  C1  UNL     1      45.369  18.654  52.930  1.00  0.00     0.013 C 
HETATM    2  C2  UNL     1      45.000  19.222  51.917  1.00  0.00    -0.088 C 
HETATM    3  C3  UNL     1      44.560  19.878  50.694  1.00  0.00     0.353 C 
ENDROOT
BRANCH   3   4
HETATM    4  N1  UNL     1      44.496  21.295  50.882  1.00  0.00     0.029 N 
HETATM    5  C4  UNL     1      45.663  21.903  51.472  1.00  0.00     0.297 A 
HETATM    6  C5  UNL     1      44.356  21.884  52.176  1.00  0.00     0.241 A 
HETATM    7  C6  UNL     1      43.536  23.161  52.000  1.00  0.00     0.055 C 
HETATM    8  C7  UNL     1      43.556  23.337  50.516  1.00  0.00     0.145 C 
HETATM    9  N2  UNL     1      43.713  22.013  49.991  1.00  0.00    -0.045 NA
ENDBRANCH   3   4
TORSDOF 1
ENDMDL
