MODEL 1
REMARK VINA RESULT: -4.094671543      0.000      0.000
REMARK  2 active torsions:
REMARK  status: ('A' for Active; 'I' for Inactive)
REMARK    1  A    between atoms: N1_2  and  N2_3 
REMARK    2  A    between atoms: N2_3  and  C2_5 
ROOT
HETATM    1  C1  UNL     1      46.506  21.628  52.519  1.00  0.00     0.302 C 
HETATM    2  N1  UNL     1      45.081  21.466  52.117  1.00  0.00     0.010 N 
HETATM    3  C3  UNL     1      44.953  21.758  50.705  1.00  0.00     0.264 C 
HETATM    4  C4  UNL     1      43.759  22.631  50.535  1.00  0.00     0.032 C 
HETATM    5  C5  UNL     1      43.481  23.243  51.868  1.00  0.00     0.032 C 
HETATM    6  C6  UNL     1      44.322  22.460  52.813  1.00  0.00     0.264 C 
ENDROOT
BRANCH   2   7
HETATM    7  N2  UNL     1      44.807  20.156  52.386  1.00  0.00    -0.193 N 
ATOM      8  H2  UNL     1      44.633  19.867  53.350  1.00  0.00     0.196 HD
BRANCH   7   9
HETATM    9  C2  UNL     1      44.762  19.224  51.387  1.00  0.00     0.374 C 
HETATM   10  O1  UNL     1      45.426  18.227  51.319  1.00  0.00    -0.282 OA
ENDBRANCH   7   9
ENDBRANCH   2   7
TORSDOF 2
ENDMDL
MODEL 2
REMARK VINA RESULT: -3.906992173      1.432      2.365
REMARK  2 active torsions:
REMARK  status: ('A' for Active; 'I' for Inactive)
REMARK    1  A    between atoms: N1_2  and  N2_3 
REMARK    2  A    between atoms: N2_3  and  C2_5 
ROOT
HETATM    1  C1  UNL     1      44.628  23.115  49.726  1.00  0.00     0.302 C 
HETATM    2  N1  UNL     1      44.402  22.249  50.917  1.00  0.00     0.010 N 
HETATM    3  C3  UNL     1      43.643  22.989  51.902  1.00  0.00     0.264 C 
HETATM    4  C4  UNL     1      44.285  22.761  53.226  1.00  0.00     0.032 C 
HETATM    5  C5  UNL     1      45.679  22.301  52.954  1.00  0.00     0.032 C 
HETATM    6  C6  UNL     1      45.681  21.980  51.500  1.00  0.00     0.264 C 
ENDROOT
BRANCH   2   7
HETATM    7  N2  UNL     1      43.694  21.190  50.427  1.00  0.00    -0.193 N 
ATOM      8  H2  UNL     1      42.811  21.357  49.943  1.00  0.00     0.196 HD
BRANCH   7   9
HETATM    9  C2  UNL     1      44.148  19.908  50.573  1.00  0.00     0.374 C 
HETATM   10  O1  UNL     1      43.691  19.076  51.308  1.00  0.00    -0.282 OA
ENDBRANCH   7   9
ENDBRANCH   2   7
TORSDOF 2
ENDMDL
MODEL 3
REMARK VINA RESULT: -3.885069363      2.119      3.374
REMARK  2 active torsions:
REMARK  status: ('A' for Active; 'I' for Inactive)
REMARK    1  A    between atoms: N1_2  and  N2_3 
REMARK    2  A    between atoms: N2_3  and  C2_5 
ROOT
HETATM    1  C1  UNL     1      44.154  22.576  52.805  1.00  0.00     0.302 C 
HETATM    2  N1  UNL     1      45.111  21.666  52.116  1.00  0.00     0.010 N 
HETATM    3  C3  UNL     1      44.374  20.580  51.504  1.00  0.00     0.264 C 
HETATM    4  C4  UNL     1      45.098  19.317  51.815  1.00  0.00     0.032 C 
HETATM    5  C5  UNL     1      45.965  19.598  52.996  1.00  0.00     0.032 C 
HETATM    6  C6  UNL     1      45.947  21.081  53.119  1.00  0.00     0.264 C 
ENDROOT
BRANCH   2   7
HETATM    7  N2  UNL     1      45.707  22.460  51.178  1.00  0.00    -0.193 N 
ATOM      8  H2  UNL     1      46.723  22.445  51.080  1.00  0.00     0.196 HD
BRANCH   7   9
HETATM    9  C2  UNL     1      44.965  23.275  50.369  1.00  0.00     0.374 C 
HETATM   10  O1  UNL     1      44.744  23.101  49.202  1.00  0.00    -0.282 OA
ENDBRANCH   7   9
ENDBRANCH   2   7
TORSDOF 2
ENDMDL
MODEL 4
REMARK VINA RESULT: -3.869127520      0.801      2.089
REMARK  2 active torsions:
REMARK  status: ('A' for Active; 'I' for Inactive)
REMARK    1  A    between atoms: N1_2  and  N2_3 
REMARK    2  A    between atoms: N2_3  and  C2_5 
ROOT
HETATM    1  C1  UNL     1      45.047  21.886  50.217  1.00  0.00     0.302 C 
HETATM    2  N1  UNL     1      44.933  21.503  51.653  1.00  0.00     0.010 N 
HETATM    3  C3  UNL     1      44.127  22.488  52.342  1.00  0.00     0.264 C 
HETATM    4  C4  UNL     1      44.818  22.818  53.619  1.00  0.00     0.032 C 
HETATM    5  C5  UNL     1      46.243  22.406  53.455  1.00  0.00     0.032 C 
HETATM    6  C6  UNL     1      46.244  21.574  52.221  1.00  0.00     0.264 C 
ENDROOT
BRANCH   2   7
HETATM    7  N2  UNL     1      44.320  20.283  51.623  1.00  0.00    -0.193 N 
ATOM      8  H2  UNL     1      43.361  20.212  51.283  1.00  0.00     0.196 HD
BRANCH   7   9
HETATM    9  C2  UNL     1      44.971  19.156  52.042  1.00  0.00     0.374 C 
HETATM   10  O1  UNL     1      45.377  18.271  51.339  1.00  0.00    -0.282 OA
ENDBRANCH   7   9
ENDBRANCH   2   7
TORSDOF 2
ENDMDL
MODEL 5
REMARK VINA RESULT: -3.833441919      2.264      3.575
REMARK  2 active torsions:
REMARK  status: ('A' for Active; 'I' for Inactive)
REMARK    1  A    between atoms: N1_2  and  N2_3 
REMARK    2  A    between atoms: N2_3  and  C2_5 
ROOT
HETATM    1  C1  UNL     1      45.652  22.405  51.101  1.00  0.00     0.302 C 
HETATM    2  N1  UNL     1      44.682  21.327  51.442  1.00  0.00     0.010 N 
HETATM    3  C3  UNL     1      45.038  20.760  52.726  1.00  0.00     0.264 C 
HETATM    4  C4  UNL     1      44.961  19.279  52.597  1.00  0.00     0.032 C 
HETATM    5  C5  UNL     1      45.039  18.969  51.140  1.00  0.00     0.032 C 
HETATM    6  C6  UNL     1      44.839  20.285  50.474  1.00  0.00     0.264 C 
ENDROOT
BRANCH   2   7
HETATM    7  N2  UNL     1      43.478  21.969  51.493  1.00  0.00    -0.193 N 
ATOM      8  H2  UNL     1      42.737  21.599  52.090  1.00  0.00     0.196 HD
BRANCH   7   9
HETATM    9  C2  UNL     1      43.247  23.098  50.757  1.00  0.00     0.374 C 
HETATM   10  O1  UNL     1      42.810  23.136  49.640  1.00  0.00    -0.282 OA
ENDBRANCH   7   9
ENDBRANCH   2   7
TORSDOF 2
ENDMDL
