MODEL 1
REMARK VINA RESULT: -3.734787410      0.000      0.000
REMARK  0 active torsions:
REMARK  status: ('A' for Active; 'I' for Inactive)
ROOT
HETATM    1  C1  UNL     1      46.042  22.174  53.306  1.00  0.00     0.272 C 
HETATM    2  N1  UNL     1      45.194  21.667  52.288  1.00  0.00    -0.065 N 
HETATM    3  C2  UNL     1      45.036  20.237  52.249  1.00  0.00     0.264 C 
HETATM    4  C3  UNL     1      44.111  19.799  51.168  1.00  0.00     0.260 C 
HETATM    5  N2  UNL     1      43.770  20.801  50.215  1.00  0.00    -0.066 N 
ATOM      6  H21 UNL     1      42.813  20.681  49.885  1.00  0.00     0.277 HD
ATOM      7  H22 UNL     1      44.268  20.655  49.336  1.00  0.00     0.277 HD
HETATM    8  C4  UNL     1      43.982  22.136  50.711  1.00  0.00     0.237 C 
HETATM    9  C5  UNL     1      43.859  22.247  52.205  1.00  0.00     0.271 C 
HETATM   10  C6  UNL     1      45.480  22.255  51.010  1.00  0.00     0.271 C 
ENDROOT
TORSDOF 0
ENDMDL
MODEL 2
REMARK VINA RESULT: -3.728961754      1.205      2.673
REMARK  0 active torsions:
REMARK  status: ('A' for Active; 'I' for Inactive)
ROOT
HETATM    1  C1  UNL     1      44.810  22.032  50.400  1.00  0.00     0.272 C 
HETATM    2  N1  UNL     1      45.197  21.366  51.590  1.00  0.00    -0.065 N 
HETATM    3  C2  UNL     1      45.143  19.928  51.557  1.00  0.00     0.264 C 
HETATM    4  C3  UNL     1      45.590  19.316  52.838  1.00  0.00     0.260 C 
HETATM    5  N2  UNL     1      45.726  20.219  53.931  1.00  0.00    -0.066 N 
ATOM      6  H21 UNL     1      46.495  19.942  54.540  1.00  0.00     0.277 HD
ATOM      7  H22 UNL     1      44.951  20.119  54.587  1.00  0.00     0.277 HD
HETATM    8  C4  UNL     1      45.870  21.588  53.506  1.00  0.00     0.237 C 
HETATM    9  C5  UNL     1      46.494  21.732  52.147  1.00  0.00     0.271 C 
HETATM   10  C6  UNL     1      44.585  21.945  52.752  1.00  0.00     0.271 C 
ENDROOT
TORSDOF 0
ENDMDL
MODEL 3
REMARK VINA RESULT: -3.610154218      0.926      2.002
REMARK  0 active torsions:
REMARK  status: ('A' for Active; 'I' for Inactive)
ROOT
HETATM    1  C1  UNL     1      45.586  21.714  53.675  1.00  0.00     0.272 C 
HETATM    2  N1  UNL     1      44.864  21.936  52.474  1.00  0.00    -0.065 N 
HETATM    3  C2  UNL     1      43.784  22.884  52.551  1.00  0.00     0.264 C 
HETATM    4  C3  UNL     1      43.102  23.071  51.241  1.00  0.00     0.260 C 
HETATM    5  N2  UNL     1      43.435  22.116  50.239  1.00  0.00    -0.066 N 
ATOM      6  H21 UNL     1      43.433  22.542  49.312  1.00  0.00     0.277 HD
ATOM      7  H22 UNL     1      42.681  21.440  50.112  1.00  0.00     0.277 HD
HETATM    8  C4  UNL     1      44.685  21.450  50.498  1.00  0.00     0.237 C 
HETATM    9  C5  UNL     1      45.652  22.279  51.296  1.00  0.00     0.271 C 
HETATM   10  C6  UNL     1      44.512  20.704  51.825  1.00  0.00     0.271 C 
ENDROOT
TORSDOF 0
ENDMDL
MODEL 4
REMARK VINA RESULT: -3.455962597      1.115      1.238
REMARK  0 active torsions:
REMARK  status: ('A' for Active; 'I' for Inactive)
ROOT
HETATM    1  C1  UNL     1      45.685  20.323  53.755  1.00  0.00     0.272 C 
HETATM    2  N1  UNL     1      45.325  20.698  52.436  1.00  0.00    -0.065 N 
HETATM    3  C2  UNL     1      44.932  19.628  51.558  1.00  0.00     0.264 C 
HETATM    4  C3  UNL     1      44.548  20.117  50.205  1.00  0.00     0.260 C 
HETATM    5  N2  UNL     1      44.887  21.473  49.929  1.00  0.00    -0.066 N 
ATOM      6  H21 UNL     1      44.188  21.909  49.328  1.00  0.00     0.277 HD
ATOM      7  H22 UNL     1      45.696  21.530  49.310  1.00  0.00     0.277 HD
HETATM    8  C4  UNL     1      45.096  22.249  51.124  1.00  0.00     0.237 C 
HETATM    9  C5  UNL     1      44.320  21.747  52.309  1.00  0.00     0.271 C 
HETATM   10  C6  UNL     1      46.278  21.604  51.858  1.00  0.00     0.271 C 
ENDROOT
TORSDOF 0
ENDMDL
MODEL 5
REMARK VINA RESULT: -3.375390962      1.381      2.233
REMARK  0 active torsions:
REMARK  status: ('A' for Active; 'I' for Inactive)
ROOT
HETATM    1  C1  UNL     1      45.374  19.311  52.934  1.00  0.00     0.272 C 
HETATM    2  N1  UNL     1      45.364  20.589  52.319  1.00  0.00    -0.065 N 
HETATM    3  C2  UNL     1      44.922  20.630  50.950  1.00  0.00     0.264 C 
HETATM    4  C3  UNL     1      44.921  22.012  50.397  1.00  0.00     0.260 C 
HETATM    5  N2  UNL     1      45.593  22.986  51.190  1.00  0.00    -0.066 N 
ATOM      6  H21 UNL     1      45.134  23.894  51.119  1.00  0.00     0.277 HD
ATOM      7  H22 UNL     1      46.498  23.226  50.785  1.00  0.00     0.277 HD
HETATM    8  C4  UNL     1      45.732  22.584  52.565  1.00  0.00     0.237 C 
HETATM    9  C5  UNL     1      44.653  21.647  53.029  1.00  0.00     0.271 C 
HETATM   10  C6  UNL     1      46.583  21.309  52.559  1.00  0.00     0.271 C 
ENDROOT
TORSDOF 0
ENDMDL
