MODEL 1
REMARK VINA RESULT: -3.903810798      0.000      0.000
REMARK  1 active torsions:
REMARK  status: ('A' for Active; 'I' for Inactive)
REMARK    1  A    between atoms: C2_2  and  N1_3 
ROOT
HETATM    1  N1  UNL     1      45.468  20.439  52.758  1.00  0.00     0.012 N 
HETATM    2  C3  UNL     1      45.107  19.955  51.445  1.00  0.00     0.262 C 
HETATM    3  C4  UNL     1      44.890  21.316  50.749  1.00  0.00     0.054 C 
HETATM    4  C5  UNL     1      45.326  22.180  51.910  1.00  0.00     0.136 C 
HETATM    5  C6  UNL     1      46.524  21.411  52.423  1.00  0.00     0.283 C 
HETATM    6  N2  UNL     1      44.661  21.559  53.019  1.00  0.00    -0.040 NA
ENDROOT
BRANCH   1   7
HETATM    7  C2  UNL     1      45.725  19.534  53.783  1.00  0.00     0.256 C 
HETATM    8  C1  UNL     1      45.315  18.108  53.526  1.00  0.00     0.036 C 
ENDBRANCH   1   7
TORSDOF 1
ENDMDL
MODEL 2
REMARK VINA RESULT: -3.688676908      1.459      3.189
REMARK  1 active torsions:
REMARK  status: ('A' for Active; 'I' for Inactive)
REMARK    1  A    between atoms: C2_2  and  N1_3 
ROOT
HETATM    1  N1  UNL     1      45.164  21.583  51.244  1.00  0.00     0.012 N 
HETATM    2  C3  UNL     1      44.805  20.209  50.979  1.00  0.00     0.262 C 
HETATM    3  C4  UNL     1      45.395  19.566  52.253  1.00  0.00     0.054 C 
HETATM    4  C5  UNL     1      45.821  20.854  52.919  1.00  0.00     0.136 C 
HETATM    5  C6  UNL     1      44.645  21.754  52.612  1.00  0.00     0.283 C 
HETATM    6  N2  UNL     1      46.437  21.567  51.838  1.00  0.00    -0.040 NA
ENDROOT
BRANCH   1   7
HETATM    7  C2  UNL     1      44.863  22.570  50.310  1.00  0.00     0.256 C 
HETATM    8  C1  UNL     1      43.440  23.061  50.300  1.00  0.00     0.036 C 
ENDBRANCH   1   7
TORSDOF 1
ENDMDL
MODEL 3
REMARK VINA RESULT: -3.680815559      1.225      1.897
REMARK  1 active torsions:
REMARK  status: ('A' for Active; 'I' for Inactive)
REMARK    1  A    between atoms: C2_2  and  N1_3 
ROOT
HETATM    1  N1  UNL     1      45.230  21.246  52.442  1.00  0.00     0.012 N 
HETATM    2  C3  UNL     1      44.581  22.387  53.045  1.00  0.00     0.262 C 
HETATM    3  C4  UNL     1      44.588  23.331  51.823  1.00  0.00     0.054 C 
HETATM    4  C5  UNL     1      45.164  22.339  50.839  1.00  0.00     0.136 C 
HETATM    5  C6  UNL     1      44.426  21.075  51.219  1.00  0.00     0.283 C 
HETATM    6  N2  UNL     1      46.231  21.747  51.592  1.00  0.00    -0.040 NA
ENDROOT
BRANCH   1   7
HETATM    7  C2  UNL     1      45.494  20.115  53.207  1.00  0.00     0.256 C 
HETATM    8  C1  UNL     1      45.319  18.790  52.512  1.00  0.00     0.036 C 
ENDBRANCH   1   7
TORSDOF 1
ENDMDL
MODEL 4
REMARK VINA RESULT: -3.670351277      1.407      2.140
REMARK  1 active torsions:
REMARK  status: ('A' for Active; 'I' for Inactive)
REMARK    1  A    between atoms: C2_2  and  N1_3 
ROOT
HETATM    1  N1  UNL     1      44.795  21.204  52.126  1.00  0.00     0.012 N 
HETATM    2  C3  UNL     1      44.008  22.413  52.210  1.00  0.00     0.262 C 
HETATM    3  C4  UNL     1      44.762  23.098  53.371  1.00  0.00     0.054 C 
HETATM    4  C5  UNL     1      45.855  22.063  53.507  1.00  0.00     0.136 C 
HETATM    5  C6  UNL     1      46.159  21.756  52.058  1.00  0.00     0.283 C 
HETATM    6  N2  UNL     1      45.120  20.834  53.441  1.00  0.00    -0.040 NA
ENDROOT
BRANCH   1   7
HETATM    7  C2  UNL     1      44.450  20.217  51.208  1.00  0.00     0.256 C 
HETATM    8  C1  UNL     1      44.517  18.797  51.707  1.00  0.00     0.036 C 
ENDBRANCH   1   7
TORSDOF 1
ENDMDL
MODEL 5
REMARK VINA RESULT: -3.558232118      1.360      2.207
REMARK  1 active torsions:
REMARK  status: ('A' for Active; 'I' for Inactive)
REMARK    1  A    between atoms: C2_2  and  N1_3 
ROOT
HETATM    1  N1  UNL     1      45.175  20.890  51.903  1.00  0.00     0.012 N 
HETATM    2  C3  UNL     1      45.453  20.692  53.307  1.00  0.00     0.262 C 
HETATM    3  C4  UNL     1      45.688  22.164  53.707  1.00  0.00     0.054 C 
HETATM    4  C5  UNL     1      45.343  22.769  52.365  1.00  0.00     0.136 C 
HETATM    5  C6  UNL     1      44.143  21.940  51.963  1.00  0.00     0.283 C 
HETATM    6  N2  UNL     1      46.037  21.906  51.454  1.00  0.00    -0.040 NA
ENDROOT
BRANCH   1   7
HETATM    7  C2  UNL     1      44.935  19.793  51.082  1.00  0.00     0.256 C 
HETATM    8  C1  UNL     1      44.266  18.612  51.734  1.00  0.00     0.036 C 
ENDBRANCH   1   7
TORSDOF 1
ENDMDL
