MODEL 1
REMARK VINA RESULT: -5.848993598      0.000      0.000
REMARK  2 active torsions:
REMARK  status: ('A' for Active; 'I' for Inactive)
REMARK    1  A    between atoms: C2_2  and  C3_4 
REMARK    2  A    between atoms: C6_12  and  C7_13 
ROOT
HETATM    1  C3  UNL     1      42.747  -3.028  29.682  1.00  0.00     0.110 C 
HETATM    2  C4  UNL     1      43.062  -3.755  30.955  1.00  0.00     0.049 C 
HETATM    3  N1  UNL     1      43.756  -2.003  29.483  1.00  0.00    -0.326 N 
ATOM      4  H1  UNL     1      44.742  -2.256  29.420  1.00  0.00     0.165 HD
HETATM    5  C5  UNL     1      43.354  -0.637  29.375  1.00  0.00     0.317 C 
HETATM    6  O1  UNL     1      44.069   0.153  28.696  1.00  0.00    -0.247 OA
HETATM    7  N2  UNL     1      42.177  -0.164  30.013  1.00  0.00    -0.331 N 
ATOM      8  H2  UNL     1      41.938   0.827  30.025  1.00  0.00     0.165 HD
HETATM    9  C6  UNL     1      41.340  -1.145  30.640  1.00  0.00     0.162 C 
HETATM   10  C14 UNL     1      41.406  -2.401  29.845  1.00  0.00     0.179 C 
HETATM   11  O2  UNL     1      40.455  -2.942  29.325  1.00  0.00    -0.293 OA
ENDROOT
BRANCH   9  12
HETATM   12  C7  UNL     1      39.941  -0.675  30.909  1.00  0.00     0.019 C 
HETATM   13  C8  UNL     1      39.797   0.793  31.027  1.00  0.00     0.035 C 
HETATM   14  C9  UNL     1      38.571   1.248  31.742  1.00  0.00     0.237 C 
HETATM   15  N3  UNL     1      38.457   0.614  33.038  1.00  0.00    -0.075 N 
HETATM   16  C10 UNL     1      37.246   1.086  33.716  1.00  0.00     0.272 C 
HETATM   17  C11 UNL     1      39.553   0.926  33.923  1.00  0.00     0.272 C 
HETATM   18  C12 UNL     1      38.294  -0.802  32.806  1.00  0.00     0.237 C 
HETATM   19  C13 UNL     1      39.428  -1.452  32.091  1.00  0.00     0.035 C 
ENDBRANCH   9  12
BRANCH   1  20
HETATM   20  C2  UNL     1      42.800  -3.933  28.472  1.00  0.00     0.113 C 
HETATM   21  C1  UNL     1      44.015  -3.719  27.626  1.00  0.00     0.030 C 
HETATM   22 CL1  UNL     1      42.589  -5.631  28.954  1.00  0.00    -0.122 Cl
ENDBRANCH   1  20
TORSDOF 2
ENDMDL
MODEL 2
REMARK VINA RESULT: -5.396674381      3.704      4.708
REMARK  2 active torsions:
REMARK  status: ('A' for Active; 'I' for Inactive)
REMARK    1  A    between atoms: C2_2  and  C3_4 
REMARK    2  A    between atoms: C6_12  and  C7_13 
ROOT
HETATM    1  C3  UNL     1      42.491  -1.851  30.153  1.00  0.00     0.110 C 
HETATM    2  C4  UNL     1      43.710  -1.458  29.374  1.00  0.00     0.049 C 
HETATM    3  N1  UNL     1      41.480  -0.827  29.962  1.00  0.00    -0.326 N 
ATOM      4  H1  UNL     1      41.148  -0.599  29.025  1.00  0.00     0.165 HD
HETATM    5  C5  UNL     1      40.953  -0.141  31.098  1.00  0.00     0.317 C 
HETATM    6  O1  UNL     1      39.776   0.312  31.041  1.00  0.00    -0.247 OA
HETATM    7  N2  UNL     1      41.729   0.034  32.275  1.00  0.00    -0.331 N 
ATOM      8  H2  UNL     1      41.399   0.608  33.051  1.00  0.00     0.165 HD
HETATM    9  C6  UNL     1      42.997  -0.633  32.322  1.00  0.00     0.162 C 
HETATM   10  C14 UNL     1      42.880  -1.923  31.589  1.00  0.00     0.179 C 
HETATM   11  O2  UNL     1      43.077  -3.015  32.075  1.00  0.00    -0.293 OA
ENDROOT
BRANCH   9  12
HETATM   12  C7  UNL     1      43.564  -0.774  33.704  1.00  0.00     0.019 C 
HETATM   13  C8  UNL     1      42.809  -0.059  34.756  1.00  0.00     0.035 C 
HETATM   14  C9  UNL     1      43.575   0.214  36.005  1.00  0.00     0.237 C 
HETATM   15  N3  UNL     1      44.820   0.892  35.714  1.00  0.00    -0.075 N 
HETATM   16  C10 UNL     1      45.546   1.150  36.961  1.00  0.00     0.272 C 
HETATM   17  C11 UNL     1      44.636   2.180  35.091  1.00  0.00     0.272 C 
HETATM   18  C12 UNL     1      45.626  -0.014  34.930  1.00  0.00     0.237 C 
HETATM   19  C13 UNL     1      45.023  -0.415  33.627  1.00  0.00     0.035 C 
ENDBRANCH   9  12
BRANCH   1  20
HETATM   20  C2  UNL     1      41.891  -3.151  29.669  1.00  0.00     0.113 C 
HETATM   21  C1  UNL     1      40.404  -3.097  29.516  1.00  0.00     0.030 C 
HETATM   22 CL1  UNL     1      42.714  -3.706  28.194  1.00  0.00    -0.122 Cl
ENDBRANCH   1  20
TORSDOF 2
ENDMDL
MODEL 3
REMARK VINA RESULT: -5.011104439      0.989      1.657
REMARK  2 active torsions:
REMARK  status: ('A' for Active; 'I' for Inactive)
REMARK    1  A    between atoms: C2_2  and  C3_4 
REMARK    2  A    between atoms: C6_12  and  C7_13 
ROOT
HETATM    1  C3  UNL     1      42.804  -3.098  29.990  1.00  0.00     0.110 C 
HETATM    2  C4  UNL     1      43.449  -3.871  31.101  1.00  0.00     0.049 C 
HETATM    3  N1  UNL     1      43.798  -2.208  29.419  1.00  0.00    -0.326 N 
ATOM      4  H1  UNL     1      44.663  -2.583  29.029  1.00  0.00     0.165 HD
HETATM    5  C5  UNL     1      43.555  -0.801  29.408  1.00  0.00     0.317 C 
HETATM    6  O1  UNL     1      44.081  -0.102  28.497  1.00  0.00    -0.247 OA
HETATM    7  N2  UNL     1      42.739  -0.188  30.397  1.00  0.00    -0.331 N 
ATOM      8  H2  UNL     1      42.642   0.826  30.455  1.00  0.00     0.165 HD
HETATM    9  C6  UNL     1      42.059  -1.061  31.308  1.00  0.00     0.162 C 
HETATM   10  C14 UNL     1      41.690  -2.307  30.584  1.00  0.00     0.179 C 
HETATM   11  O2  UNL     1      40.559  -2.717  30.444  1.00  0.00    -0.293 OA
ENDROOT
BRANCH   9  12
HETATM   12  C7  UNL     1      40.909  -0.418  32.027  1.00  0.00     0.019 C 
HETATM   13  C8  UNL     1      40.098  -1.346  32.845  1.00  0.00     0.035 C 
HETATM   14  C9  UNL     1      38.725  -0.862  33.170  1.00  0.00     0.237 C 
HETATM   15  N3  UNL     1      38.012  -0.474  31.972  1.00  0.00    -0.075 N 
HETATM   16  C10 UNL     1      36.668  -0.009  32.325  1.00  0.00     0.272 C 
HETATM   17  C11 UNL     1      37.822  -1.562  31.044  1.00  0.00     0.272 C 
HETATM   18  C12 UNL     1      38.718   0.649  31.401  1.00  0.00     0.237 C 
HETATM   19  C13 UNL     1      40.127   0.365  31.007  1.00  0.00     0.035 C 
ENDBRANCH   9  12
BRANCH   1  20
HETATM   20  C2  UNL     1      42.322  -3.990  28.869  1.00  0.00     0.113 C 
HETATM   21  C1  UNL     1      43.167  -3.902  27.638  1.00  0.00     0.030 C 
HETATM   22 CL1  UNL     1      42.121  -5.660  29.445  1.00  0.00    -0.122 Cl
ENDBRANCH   1  20
TORSDOF 2
ENDMDL
MODEL 4
REMARK VINA RESULT: -5.006354381      2.637      3.277
REMARK  2 active torsions:
REMARK  status: ('A' for Active; 'I' for Inactive)
REMARK    1  A    between atoms: C2_2  and  C3_4 
REMARK    2  A    between atoms: C6_12  and  C7_13 
ROOT
HETATM    1  C3  UNL     1      43.033  -2.532  29.630  1.00  0.00     0.110 C 
HETATM    2  C4  UNL     1      43.721  -3.848  29.840  1.00  0.00     0.049 C 
HETATM    3  N1  UNL     1      43.564  -1.583  30.592  1.00  0.00    -0.326 N 
ATOM      4  H1  UNL     1      44.562  -1.373  30.612  1.00  0.00     0.165 HD
HETATM    5  C5  UNL     1      42.675  -0.945  31.510  1.00  0.00     0.317 C 
HETATM    6  O1  UNL     1      42.975   0.202  31.945  1.00  0.00    -0.247 OA
HETATM    7  N2  UNL     1      41.477  -1.579  31.934  1.00  0.00    -0.331 N 
ATOM      8  H2  UNL     1      40.890  -1.175  32.664  1.00  0.00     0.165 HD
HETATM    9  C6  UNL     1      41.131  -2.811  31.288  1.00  0.00     0.162 C 
HETATM   10  C14 UNL     1      41.578  -2.744  29.871  1.00  0.00     0.179 C 
HETATM   11  O2  UNL     1      40.849  -2.847  28.909  1.00  0.00    -0.293 OA
ENDROOT
BRANCH   9  12
HETATM   12  C7  UNL     1      39.692  -3.203  31.448  1.00  0.00     0.019 C 
HETATM   13  C8  UNL     1      38.939  -2.395  32.431  1.00  0.00     0.035 C 
HETATM   14  C9  UNL     1      37.697  -3.034  32.952  1.00  0.00     0.237 C 
HETATM   15  N3  UNL     1      37.970  -4.356  33.474  1.00  0.00    -0.075 N 
HETATM   16  C10 UNL     1      36.731  -4.953  33.981  1.00  0.00     0.272 C 
HETATM   17  C11 UNL     1      38.890  -4.350  34.585  1.00  0.00     0.272 C 
HETATM   18  C12 UNL     1      38.415  -5.167  32.366  1.00  0.00     0.237 C 
HETATM   19  C13 UNL     1      39.659  -4.686  31.700  1.00  0.00     0.035 C 
ENDBRANCH   9  12
BRANCH   1  20
HETATM   20  C2  UNL     1      43.296  -1.955  28.258  1.00  0.00     0.113 C 
HETATM   21  C1  UNL     1      44.243  -0.798  28.274  1.00  0.00     0.030 C 
HETATM   22 CL1  UNL     1      43.795  -3.235  27.129  1.00  0.00    -0.122 Cl
ENDBRANCH   1  20
TORSDOF 2
ENDMDL
MODEL 5
REMARK VINA RESULT: -4.984299554      3.679      6.543
REMARK  2 active torsions:
REMARK  status: ('A' for Active; 'I' for Inactive)
REMARK    1  A    between atoms: C2_2  and  C3_4 
REMARK    2  A    between atoms: C6_12  and  C7_13 
ROOT
HETATM    1  C3  UNL     1      42.523   0.373  34.952  1.00  0.00     0.110 C 
HETATM    2  C4  UNL     1      42.857  -0.766  35.869  1.00  0.00     0.049 C 
HETATM    3  N1  UNL     1      41.077   0.473  34.860  1.00  0.00    -0.326 N 
ATOM      4  H1  UNL     1      40.517   0.620  35.700  1.00  0.00     0.165 HD
HETATM    5  C5  UNL     1      40.447   0.363  33.583  1.00  0.00     0.317 C 
HETATM    6  O1  UNL     1      39.348   0.957  33.398  1.00  0.00    -0.247 OA
HETATM    7  N2  UNL     1      41.035  -0.394  32.536  1.00  0.00    -0.331 N 
ATOM      8  H2  UNL     1      40.545  -0.560  31.657  1.00  0.00     0.165 HD
HETATM    9  C6  UNL     1      42.350  -0.915  32.771  1.00  0.00     0.162 C 
HETATM   10  C14 UNL     1      43.099   0.055  33.616  1.00  0.00     0.179 C 
HETATM   11  O2  UNL     1      44.132   0.598  33.295  1.00  0.00    -0.293 OA
ENDROOT
BRANCH   9  12
HETATM   12  C7  UNL     1      43.081  -1.318  31.524  1.00  0.00     0.019 C 
HETATM   13  C8  UNL     1      42.538  -0.738  30.277  1.00  0.00     0.035 C 
HETATM   14  C9  UNL     1      42.913  -1.463  29.030  1.00  0.00     0.237 C 
HETATM   15  N3  UNL     1      42.589  -2.871  29.127  1.00  0.00    -0.075 N 
HETATM   16  C10 UNL     1      42.966  -3.553  27.886  1.00  0.00     0.272 C 
HETATM   17  C11 UNL     1      41.179  -3.119  29.302  1.00  0.00     0.272 C 
HETATM   18  C12 UNL     1      43.403  -3.423  30.184  1.00  0.00     0.237 C 
HETATM   19  C13 UNL     1      43.175  -2.820  31.528  1.00  0.00     0.035 C 
ENDBRANCH   9  12
BRANCH   1  20
HETATM   20  C2  UNL     1      43.019   1.701  35.475  1.00  0.00     0.113 C 
HETATM   21  C1  UNL     1      41.978   2.468  36.226  1.00  0.00     0.030 C 
HETATM   22 CL1  UNL     1      44.517   1.482  36.408  1.00  0.00    -0.122 Cl
ENDBRANCH   1  20
TORSDOF 2
ENDMDL
