MODEL 1
REMARK VINA RESULT: -5.994543281      0.000      0.000
REMARK  3 active torsions:
REMARK  status: ('A' for Active; 'I' for Inactive)
REMARK    1  A    between atoms: C3_3  and  C4_4 
REMARK       I    between atoms: C4_4  and  N1_6 
REMARK    2  A    between atoms: C10_13  and  C11_14 
REMARK    3  A    between atoms: C11_14  and  N3_18 
ROOT
HETATM    1  C1  UNL     1      38.383   1.187  32.057  1.00  0.00     0.112 C 
HETATM    2  C2  UNL     1      39.687   0.524  31.903  1.00  0.00    -0.101 C 
HETATM    3  C3  UNL     1      40.761  -0.022  31.795  1.00  0.00    -0.006 C 
ENDROOT
BRANCH   3   4
HETATM    4  C4  UNL     1      42.040  -0.672  31.693  1.00  0.00     0.299 C 
HETATM    5  O1  UNL     1      42.834  -0.509  32.656  1.00  0.00    -0.258 OA
HETATM    6  N1  UNL     1      42.366  -1.455  30.553  1.00  0.00    -0.330 N 
HETATM    7  C5  UNL     1      43.545  -2.209  30.177  1.00  0.00     0.103 C 
HETATM    8  C9  UNL     1      41.778  -1.877  29.300  1.00  0.00     0.103 C 
HETATM    9  C6  UNL     1      43.328  -3.605  30.727  1.00  0.00     0.042 C 
HETATM   10  C10 UNL     1      43.145  -2.124  28.722  1.00  0.00     0.098 C 
HETATM   11  C7  UNL     1      41.892  -4.017  30.557  1.00  0.00     0.061 C 
HETATM   12 BR1  UNL     1      41.899  -5.905  30.060  1.00  0.00    -0.091 Br
HETATM   13  C8  UNL     1      41.151  -3.269  29.487  1.00  0.00     0.042 C 
BRANCH  10  14
HETATM   14  C11 UNL     1      43.761  -1.073  27.933  1.00  0.00     0.078 C 
HETATM   15  N2  UNL     1      43.956   0.077  28.463  1.00  0.00    -0.389 N 
ATOM     16  H22 UNL     1      43.662   0.202  29.432  1.00  0.00     0.157 HD
ATOM     17  H21 UNL     1      44.389   0.815  27.908  1.00  0.00     0.157 HD
BRANCH  14  18
HETATM   18  N3  UNL     1      44.169  -1.247  26.586  1.00  0.00    -0.384 N 
HETATM   19  C12 UNL     1      44.184  -2.562  25.947  1.00  0.00     0.147 C 
ATOM     20  H3  UNL     1      44.459  -0.431  26.047  1.00  0.00     0.160 HD
ENDBRANCH  14  18
ENDBRANCH  10  14
ENDBRANCH   3   4
TORSDOF 3
ENDMDL
MODEL 2
REMARK VINA RESULT: -5.949797912      1.502      1.917
REMARK  3 active torsions:
REMARK  status: ('A' for Active; 'I' for Inactive)
REMARK    1  A    between atoms: C3_3  and  C4_4 
REMARK       I    between atoms: C4_4  and  N1_6 
REMARK    2  A    between atoms: C10_13  and  C11_14 
REMARK    3  A    between atoms: C11_14  and  N3_18 
ROOT
HETATM    1  C1  UNL     1      39.285   0.936  31.046  1.00  0.00     0.112 C 
HETATM    2  C2  UNL     1      40.498   0.108  30.982  1.00  0.00    -0.101 C 
HETATM    3  C3  UNL     1      41.487  -0.588  30.938  1.00  0.00    -0.006 C 
ENDROOT
BRANCH   3   4
HETATM    4  C4  UNL     1      42.650  -1.434  30.899  1.00  0.00     0.299 C 
HETATM    5  O1  UNL     1      43.662  -1.031  31.529  1.00  0.00    -0.258 OA
HETATM    6  N1  UNL     1      42.631  -2.658  30.178  1.00  0.00    -0.330 N 
HETATM    7  C5  UNL     1      43.623  -3.692  29.962  1.00  0.00     0.103 C 
HETATM    8  C9  UNL     1      41.729  -3.447  29.367  1.00  0.00     0.103 C 
HETATM    9  C6  UNL     1      43.436  -4.679  31.097  1.00  0.00     0.042 C 
HETATM   10  C10 UNL     1      42.894  -4.142  28.717  1.00  0.00     0.098 C 
HETATM   11  C7  UNL     1      41.975  -4.869  31.390  1.00  0.00     0.061 C 
HETATM   12 BR1  UNL     1      41.715  -6.765  31.778  1.00  0.00    -0.091 Br
HETATM   13  C8  UNL     1      41.059  -4.509  30.256  1.00  0.00     0.042 C 
BRANCH  10  14
HETATM   14  C11 UNL     1      43.383  -3.630  27.449  1.00  0.00     0.078 C 
HETATM   15  N2  UNL     1      43.585  -4.443  26.481  1.00  0.00    -0.389 N 
ATOM     16  H22 UNL     1      43.389  -5.431  26.649  1.00  0.00     0.157 HD
ATOM     17  H21 UNL     1      43.928  -4.084  25.591  1.00  0.00     0.157 HD
BRANCH  14  18
HETATM   18  N3  UNL     1      43.656  -2.258  27.216  1.00  0.00    -0.384 N 
HETATM   19  C12 UNL     1      44.851  -1.820  26.495  1.00  0.00     0.147 C 
ATOM     20  H3  UNL     1      43.000  -1.557  27.559  1.00  0.00     0.160 HD
ENDBRANCH  14  18
ENDBRANCH  10  14
ENDBRANCH   3   4
TORSDOF 3
ENDMDL
MODEL 3
REMARK VINA RESULT: -5.774542576      2.546      5.086
REMARK  3 active torsions:
REMARK  status: ('A' for Active; 'I' for Inactive)
REMARK    1  A    between atoms: C3_3  and  C4_4 
REMARK       I    between atoms: C4_4  and  N1_6 
REMARK    2  A    between atoms: C10_13  and  C11_14 
REMARK    3  A    between atoms: C11_14  and  N3_18 
ROOT
HETATM    1  C1  UNL     1      44.164  -2.885  25.070  1.00  0.00     0.112 C 
HETATM    2  C2  UNL     1      44.098  -2.451  26.473  1.00  0.00    -0.101 C 
HETATM    3  C3  UNL     1      44.032  -2.109  27.632  1.00  0.00    -0.006 C 
ENDROOT
BRANCH   3   4
HETATM    4  C4  UNL     1      43.937  -1.722  29.014  1.00  0.00     0.299 C 
HETATM    5  O1  UNL     1      44.716  -0.812  29.400  1.00  0.00    -0.258 OA
HETATM    6  N1  UNL     1      43.001  -2.350  29.880  1.00  0.00    -0.330 N 
HETATM    7  C5  UNL     1      42.684  -2.177  31.283  1.00  0.00     0.103 C 
HETATM    8  C9  UNL     1      41.981  -3.375  29.844  1.00  0.00     0.103 C 
HETATM    9  C6  UNL     1      41.596  -1.122  31.327  1.00  0.00     0.042 C 
HETATM   10  C10 UNL     1      42.101  -3.570  31.330  1.00  0.00     0.098 C 
HETATM   11  C7  UNL     1      40.629  -1.320  30.194  1.00  0.00     0.061 C 
HETATM   12 BR1  UNL     1      38.846  -0.951  30.899  1.00  0.00    -0.091 Br
HETATM   13  C8  UNL     1      40.612  -2.708  29.623  1.00  0.00     0.042 C 
BRANCH  10  14
HETATM   14  C11 UNL     1      42.966  -4.627  31.821  1.00  0.00     0.078 C 
HETATM   15  N2  UNL     1      43.083  -4.807  33.083  1.00  0.00    -0.389 N 
ATOM     16  H22 UNL     1      42.552  -4.188  33.696  1.00  0.00     0.157 HD
ATOM     17  H21 UNL     1      43.691  -5.550  33.427  1.00  0.00     0.157 HD
BRANCH  14  18
HETATM   18  N3  UNL     1      43.705  -5.488  30.969  1.00  0.00    -0.384 N 
HETATM   19  C12 UNL     1      43.348  -6.896  30.796  1.00  0.00     0.147 C 
ATOM     20  H3  UNL     1      44.507  -5.114  30.463  1.00  0.00     0.160 HD
ENDBRANCH  14  18
ENDBRANCH  10  14
ENDBRANCH   3   4
TORSDOF 3
ENDMDL
MODEL 4
REMARK VINA RESULT: -5.640841868      1.980      2.436
REMARK  3 active torsions:
REMARK  status: ('A' for Active; 'I' for Inactive)
REMARK    1  A    between atoms: C3_3  and  C4_4 
REMARK       I    between atoms: C4_4  and  N1_6 
REMARK    2  A    between atoms: C10_13  and  C11_14 
REMARK    3  A    between atoms: C11_14  and  N3_18 
ROOT
HETATM    1  C1  UNL     1      36.667  -3.229  28.712  1.00  0.00     0.112 C 
HETATM    2  C2  UNL     1      37.883  -2.806  29.422  1.00  0.00    -0.101 C 
HETATM    3  C3  UNL     1      38.887  -2.476  30.012  1.00  0.00    -0.006 C 
ENDROOT
BRANCH   3   4
HETATM    4  C4  UNL     1      40.085  -2.108  30.719  1.00  0.00     0.299 C 
HETATM    5  O1  UNL     1      39.932  -1.471  31.793  1.00  0.00    -0.258 OA
HETATM    6  N1  UNL     1      41.364  -2.460  30.209  1.00  0.00    -0.330 N 
HETATM    7  C5  UNL     1      42.713  -2.233  30.687  1.00  0.00     0.103 C 
HETATM    8  C9  UNL     1      41.950  -3.149  29.080  1.00  0.00     0.103 C 
HETATM    9  C6  UNL     1      43.042  -3.427  31.561  1.00  0.00     0.042 C 
HETATM   10  C10 UNL     1      43.248  -2.415  29.285  1.00  0.00     0.098 C 
HETATM   11  C7  UNL     1      42.491  -4.687  30.954  1.00  0.00     0.061 C 
HETATM   12 BR1  UNL     1      43.824  -6.085  31.245  1.00  0.00    -0.091 Br
HETATM   13  C8  UNL     1      42.233  -4.608  29.478  1.00  0.00     0.042 C 
BRANCH  10  14
HETATM   14  C11 UNL     1      43.489  -1.210  28.513  1.00  0.00     0.078 C 
HETATM   15  N2  UNL     1      43.455  -0.072  29.100  1.00  0.00    -0.389 N 
ATOM     16  H22 UNL     1      43.256  -0.067  30.101  1.00  0.00     0.157 HD
ATOM     17  H21 UNL     1      43.625   0.774  28.557  1.00  0.00     0.157 HD
BRANCH  14  18
HETATM   18  N3  UNL     1      43.765  -1.217  27.122  1.00  0.00    -0.384 N 
HETATM   19  C12 UNL     1      44.524  -2.296  26.490  1.00  0.00     0.147 C 
ATOM     20  H3  UNL     1      43.424  -0.448  26.545  1.00  0.00     0.160 HD
ENDBRANCH  14  18
ENDBRANCH  10  14
ENDBRANCH   3   4
TORSDOF 3
ENDMDL
MODEL 5
REMARK VINA RESULT: -5.470704628      2.446      3.007
REMARK  3 active torsions:
REMARK  status: ('A' for Active; 'I' for Inactive)
REMARK    1  A    between atoms: C3_3  and  C4_4 
REMARK       I    between atoms: C4_4  and  N1_6 
REMARK    2  A    between atoms: C10_13  and  C11_14 
REMARK    3  A    between atoms: C11_14  and  N3_18 
ROOT
HETATM    1  C1  UNL     1      37.143  -3.342  29.370  1.00  0.00     0.112 C 
HETATM    2  C2  UNL     1      38.202  -2.436  29.839  1.00  0.00    -0.101 C 
HETATM    3  C3  UNL     1      39.076  -1.684  30.207  1.00  0.00    -0.006 C 
ENDROOT
BRANCH   3   4
HETATM    4  C4  UNL     1      40.118  -0.782  30.619  1.00  0.00     0.299 C 
HETATM    5  O1  UNL     1      39.782   0.414  30.820  1.00  0.00    -0.258 OA
HETATM    6  N1  UNL     1      41.452  -1.243  30.783  1.00  0.00    -0.330 N 
HETATM    7  C5  UNL     1      42.682  -0.586  31.178  1.00  0.00     0.103 C 
HETATM    8  C9  UNL     1      42.220  -2.463  30.665  1.00  0.00     0.103 C 
HETATM    9  C6  UNL     1      42.747  -0.714  32.687  1.00  0.00     0.042 C 
HETATM   10  C10 UNL     1      43.487  -1.670  30.499  1.00  0.00     0.098 C 
HETATM   11  C7  UNL     1      42.261  -2.070  33.117  1.00  0.00     0.061 C 
HETATM   12 BR1  UNL     1      43.416  -2.646  34.583  1.00  0.00    -0.091 Br
HETATM   13  C8  UNL     1      42.324  -3.124  32.050  1.00  0.00     0.042 C 
BRANCH  10  14
HETATM   14  C11 UNL     1      43.957  -1.393  29.154  1.00  0.00     0.078 C 
HETATM   15  N2  UNL     1      44.916  -0.561  28.984  1.00  0.00    -0.389 N 
ATOM     16  H22 UNL     1      45.311  -0.125  29.817  1.00  0.00     0.157 HD
ATOM     17  H21 UNL     1      45.246  -0.367  28.038  1.00  0.00     0.157 HD
BRANCH  14  18
HETATM   18  N3  UNL     1      43.408  -1.999  27.995  1.00  0.00    -0.384 N 
HETATM   19  C12 UNL     1      44.189  -2.176  26.771  1.00  0.00     0.147 C 
ATOM     20  H3  UNL     1      42.440  -2.320  28.016  1.00  0.00     0.160 HD
ENDBRANCH  14  18
ENDBRANCH  10  14
ENDBRANCH   3   4
TORSDOF 3
ENDMDL
