MODEL 1
REMARK VINA RESULT: -5.272311001      0.000      0.000
REMARK  2 active torsions:
REMARK  status: ('A' for Active; 'I' for Inactive)
REMARK    1  A    between atoms: C2_2  and  O1_3 
REMARK    2  A    between atoms: C2_2  and  C3_5 
ROOT
HETATM    1  C3  UNL     1      45.973  20.506  52.385  1.00  0.00     0.046 C 
HETATM    2  C4  UNL     1      45.784  21.381  53.606  1.00  0.00     0.244 C 
HETATM    3  N1  UNL     1      45.614  22.739  53.105  1.00  0.00    -0.070 N 
HETATM    4  C5  UNL     1      46.307  23.657  53.977  1.00  0.00     0.272 C 
HETATM    5  C6  UNL     1      44.213  23.001  53.059  1.00  0.00     0.237 C 
HETATM    6  C7  UNL     1      43.665  22.870  51.663  1.00  0.00     0.028 C 
HETATM    7  C8  UNL     1      44.241  21.668  50.930  1.00  0.00     0.008 C 
HETATM    8  C9  UNL     1      45.641  21.374  51.260  1.00  0.00     0.020 C 
HETATM    9  C10 UNL     1      46.224  22.708  51.773  1.00  0.00     0.242 C 
ENDROOT
BRANCH   1  10
HETATM   10  C2  UNL     1      45.343  19.176  52.505  1.00  0.00     0.120 C 
HETATM   11  C1  UNL     1      45.752  18.454  53.772  1.00  0.00     0.040 C 
BRANCH  10  12
HETATM   12  O1  UNL     1      45.562  18.301  51.464  1.00  0.00    -0.396 OA
ATOM     13  H1  UNL     1      46.005  18.794  50.782  1.00  0.00     0.210 HD
ENDBRANCH  10  12
ENDBRANCH   1  10
TORSDOF 2
ENDMDL
MODEL 2
REMARK VINA RESULT: -4.938590944      1.590      1.933
REMARK  2 active torsions:
REMARK  status: ('A' for Active; 'I' for Inactive)
REMARK    1  A    between atoms: C2_2  and  O1_3 
REMARK    2  A    between atoms: C2_2  and  C3_5 
ROOT
HETATM    1  C3  UNL     1      45.323  21.740  50.807  1.00  0.00     0.046 C 
HETATM    2  C4  UNL     1      45.232  21.921  52.308  1.00  0.00     0.244 C 
HETATM    3  N1  UNL     1      44.955  23.336  52.526  1.00  0.00    -0.070 N 
HETATM    4  C5  UNL     1      45.700  23.795  53.674  1.00  0.00     0.272 C 
HETATM    5  C6  UNL     1      43.547  23.466  52.717  1.00  0.00     0.237 C 
HETATM    6  C7  UNL     1      42.858  23.957  51.472  1.00  0.00     0.028 C 
HETATM    7  C8  UNL     1      43.399  23.294  50.215  1.00  0.00     0.008 C 
HETATM    8  C9  UNL     1      44.838  23.002  50.259  1.00  0.00     0.020 C 
HETATM    9  C10 UNL     1      45.419  23.985  51.297  1.00  0.00     0.242 C 
ENDROOT
BRANCH   1  10
HETATM   10  C2  UNL     1      44.764  20.460  50.329  1.00  0.00     0.120 C 
HETATM   11  C1  UNL     1      45.075  19.308  51.262  1.00  0.00     0.040 C 
BRANCH  10  12
HETATM   12  O1  UNL     1      45.146  20.061  49.068  1.00  0.00    -0.396 OA
ATOM     13  H1  UNL     1      45.843  20.647  48.796  1.00  0.00     0.210 HD
ENDBRANCH  10  12
ENDBRANCH   1  10
TORSDOF 2
ENDMDL
MODEL 3
REMARK VINA RESULT: -4.682162877      1.554      2.006
REMARK  2 active torsions:
REMARK  status: ('A' for Active; 'I' for Inactive)
REMARK    1  A    between atoms: C2_2  and  O1_3 
REMARK    2  A    between atoms: C2_2  and  C3_5 
ROOT
HETATM    1  C3  UNL     1      45.221  21.641  50.899  1.00  0.00     0.046 C 
HETATM    2  C4  UNL     1      46.189  21.663  52.064  1.00  0.00     0.244 C 
HETATM    3  N1  UNL     1      46.286  23.057  52.478  1.00  0.00    -0.070 N 
HETATM    4  C5  UNL     1      47.655  23.355  52.827  1.00  0.00     0.272 C 
HETATM    5  C6  UNL     1      45.403  23.231  53.585  1.00  0.00     0.237 C 
HETATM    6  C7  UNL     1      44.112  23.885  53.172  1.00  0.00     0.028 C 
HETATM    7  C8  UNL     1      43.585  23.337  51.855  1.00  0.00     0.008 C 
HETATM    8  C9  UNL     1      44.631  22.975  50.890  1.00  0.00     0.020 C 
HETATM    9  C10 UNL     1      45.863  23.813  51.297  1.00  0.00     0.242 C 
ENDROOT
BRANCH   1  10
HETATM   10  C2  UNL     1      44.353  20.447  50.872  1.00  0.00     0.120 C 
HETATM   11  C1  UNL     1      45.097  19.182  51.245  1.00  0.00     0.040 C 
BRANCH  10  12
HETATM   12  O1  UNL     1      43.706  20.190  49.684  1.00  0.00    -0.396 OA
ATOM     13  H1  UNL     1      43.864  20.938  49.120  1.00  0.00     0.210 HD
ENDBRANCH  10  12
ENDBRANCH   1  10
TORSDOF 2
ENDMDL
MODEL 4
REMARK VINA RESULT: -4.544302846      1.655      2.698
REMARK  2 active torsions:
REMARK  status: ('A' for Active; 'I' for Inactive)
REMARK    1  A    between atoms: C2_2  and  O1_3 
REMARK    2  A    between atoms: C2_2  and  C3_5 
ROOT
HETATM    1  C3  UNL     1      44.190  21.285  51.501  1.00  0.00     0.046 C 
HETATM    2  C4  UNL     1      43.974  22.615  50.808  1.00  0.00     0.244 C 
HETATM    3  N1  UNL     1      44.490  23.630  51.718  1.00  0.00    -0.070 N 
HETATM    4  C5  UNL     1      43.620  24.781  51.689  1.00  0.00     0.272 C 
HETATM    5  C6  UNL     1      45.812  23.951  51.287  1.00  0.00     0.237 C 
HETATM    6  C7  UNL     1      46.856  23.269  52.132  1.00  0.00     0.028 C 
HETATM    7  C8  UNL     1      46.485  21.829  52.452  1.00  0.00     0.008 C 
HETATM    8  C9  UNL     1      45.046  21.603  52.639  1.00  0.00     0.020 C 
HETATM    9  C10 UNL     1      44.469  22.980  53.031  1.00  0.00     0.242 C 
ENDROOT
BRANCH   1  10
HETATM   10  C2  UNL     1      44.556  20.190  50.582  1.00  0.00     0.120 C 
HETATM   11  C1  UNL     1      45.232  19.037  51.294  1.00  0.00     0.040 C 
BRANCH  10  12
HETATM   12  O1  UNL     1      45.367  20.530  49.521  1.00  0.00    -0.396 OA
ATOM     13  H1  UNL     1      46.262  20.366  49.799  1.00  0.00     0.210 HD
ENDBRANCH  10  12
ENDBRANCH   1  10
TORSDOF 2
ENDMDL
MODEL 5
REMARK VINA RESULT: -4.498211682      1.357      2.535
REMARK  2 active torsions:
REMARK  status: ('A' for Active; 'I' for Inactive)
REMARK    1  A    between atoms: C2_2  and  O1_3 
REMARK    2  A    between atoms: C2_2  and  C3_5 
ROOT
HETATM    1  C3  UNL     1      45.429  20.891  53.195  1.00  0.00     0.046 C 
HETATM    2  C4  UNL     1      44.655  21.420  52.005  1.00  0.00     0.244 C 
HETATM    3  N1  UNL     1      44.674  22.873  52.127  1.00  0.00    -0.070 N 
HETATM    4  C5  UNL     1      43.388  23.399  51.736  1.00  0.00     0.272 C 
HETATM    5  C6  UNL     1      45.724  23.353  51.289  1.00  0.00     0.237 C 
HETATM    6  C7  UNL     1      46.958  23.694  52.081  1.00  0.00     0.028 C 
HETATM    7  C8  UNL     1      47.253  22.662  53.158  1.00  0.00     0.008 C 
HETATM    8  C9  UNL     1      46.057  22.074  53.774  1.00  0.00     0.020 C 
HETATM    9  C10 UNL     1      44.935  23.110  53.549  1.00  0.00     0.242 C 
ENDROOT
BRANCH   1  10
HETATM   10  C2  UNL     1      46.239  19.695  52.891  1.00  0.00     0.120 C 
HETATM   11  C1  UNL     1      45.460  18.648  52.123  1.00  0.00     0.040 C 
BRANCH  10  12
HETATM   12  O1  UNL     1      46.807  19.054  53.970  1.00  0.00    -0.396 OA
ATOM     13  H1  UNL     1      47.700  19.372  54.037  1.00  0.00     0.210 HD
ENDBRANCH  10  12
ENDBRANCH   1  10
TORSDOF 2
ENDMDL
