MODEL 1
REMARK VINA RESULT: -3.975107323      0.000      0.000
REMARK  2 active torsions:
REMARK  status: ('A' for Active; 'I' for Inactive)
REMARK    1  A    between atoms: N1_2  and  C4_5 
REMARK    2  A    between atoms: C9_13  and  O1_14 
ROOT
HETATM    1  C4  UNL     1      46.098  22.547  51.745  1.00  0.00     0.248 C 
HETATM    2  C5  UNL     1      46.623  23.941  52.127  1.00  0.00     0.220 C 
HETATM    3  C6  UNL     1      47.924  23.435  52.800  1.00  0.00     0.044 C 
HETATM    4  C7  UNL     1      47.153  22.636  53.865  1.00  0.00     0.044 C 
HETATM    5  C8  UNL     1      46.321  23.764  54.428  1.00  0.00     0.240 C 
HETATM    6  N2  UNL     1      45.956  24.503  53.243  1.00  0.00    -0.068 N 
ATOM      7  H21 UNL     1      44.945  24.549  53.110  1.00  0.00     0.277 HD
ATOM      8  H22 UNL     1      46.132  25.503  53.338  1.00  0.00     0.277 HD
HETATM    9  C9  UNL     1      46.191  21.809  53.012  1.00  0.00     0.157 C 
ENDROOT
BRANCH   1  10
HETATM   10  N1  UNL     1      44.934  22.536  50.998  1.00  0.00    -0.070 N 
HETATM   11  C1  UNL     1      44.761  21.192  50.402  1.00  0.00     0.272 C 
HETATM   12  C2  UNL     1      45.011  23.414  49.816  1.00  0.00     0.272 C 
HETATM   13  C3  UNL     1      43.686  22.826  51.631  1.00  0.00     0.272 C 
ENDBRANCH   1  10
BRANCH   9  14
HETATM   14  O1  UNL     1      45.059  21.655  53.751  1.00  0.00    -0.393 OA
ATOM     15  H1  UNL     1      44.962  22.179  54.538  1.00  0.00     0.210 HD
ENDBRANCH   9  14
TORSDOF 2
ENDMDL
MODEL 2
REMARK VINA RESULT: -3.908279808      2.467      3.453
REMARK  2 active torsions:
REMARK  status: ('A' for Active; 'I' for Inactive)
REMARK    1  A    between atoms: N1_2  and  C4_5 
REMARK    2  A    between atoms: C9_13  and  O1_14 
ROOT
HETATM    1  C4  UNL     1      44.084  24.392  50.803  1.00  0.00     0.248 C 
HETATM    2  C5  UNL     1      44.667  23.993  52.167  1.00  0.00     0.220 C 
HETATM    3  C6  UNL     1      46.020  23.482  51.611  1.00  0.00     0.044 C 
HETATM    4  C7  UNL     1      45.347  22.387  50.765  1.00  0.00     0.044 C 
HETATM    5  C8  UNL     1      44.594  21.685  51.871  1.00  0.00     0.240 C 
HETATM    6  N2  UNL     1      44.124  22.788  52.676  1.00  0.00    -0.068 N 
ATOM      7  H21 UNL     1      43.107  22.816  52.741  1.00  0.00     0.277 HD
ATOM      8  H22 UNL     1      44.326  22.658  53.668  1.00  0.00     0.277 HD
HETATM    9  C9  UNL     1      44.291  23.182  49.996  1.00  0.00     0.157 C 
ENDROOT
BRANCH   1  10
HETATM   10  N1  UNL     1      42.852  25.019  50.844  1.00  0.00    -0.070 N 
HETATM   11  C1  UNL     1      42.608  25.684  49.545  1.00  0.00     0.272 C 
HETATM   12  C2  UNL     1      42.819  26.142  51.801  1.00  0.00     0.272 C 
HETATM   13  C3  UNL     1      41.675  24.247  51.095  1.00  0.00     0.272 C 
ENDBRANCH   1  10
BRANCH   9  14
HETATM   14  O1  UNL     1      43.235  22.342  49.816  1.00  0.00    -0.393 OA
ATOM     15  H1  UNL     1      42.664  22.493  49.071  1.00  0.00     0.210 HD
ENDBRANCH   9  14
TORSDOF 2
ENDMDL
MODEL 3
REMARK VINA RESULT: -3.775277207      2.291      4.118
REMARK  2 active torsions:
REMARK  status: ('A' for Active; 'I' for Inactive)
REMARK    1  A    between atoms: N1_2  and  C4_5 
REMARK    2  A    between atoms: C9_13  and  O1_14 
ROOT
HETATM    1  C4  UNL     1      44.399  24.001  51.242  1.00  0.00     0.248 C 
HETATM    2  C5  UNL     1      45.120  25.061  50.394  1.00  0.00     0.220 C 
HETATM    3  C6  UNL     1      43.939  26.064  50.367  1.00  0.00     0.044 C 
HETATM    4  C7  UNL     1      43.010  25.070  49.647  1.00  0.00     0.044 C 
HETATM    5  C8  UNL     1      43.879  24.790  48.443  1.00  0.00     0.240 C 
HETATM    6  N2  UNL     1      45.200  24.718  49.021  1.00  0.00    -0.068 N 
ATOM      7  H21 UNL     1      45.641  23.811  48.871  1.00  0.00     0.277 HD
ATOM      8  H22 UNL     1      45.877  25.291  48.517  1.00  0.00     0.277 HD
HETATM    9  C9  UNL     1      43.126  23.827  50.529  1.00  0.00     0.157 C 
ENDROOT
BRANCH   1  10
HETATM   10  N1  UNL     1      45.167  22.909  51.606  1.00  0.00    -0.070 N 
HETATM   11  C1  UNL     1      44.649  22.363  52.880  1.00  0.00     0.272 C 
HETATM   12  C2  UNL     1      46.553  23.280  51.944  1.00  0.00     0.272 C 
HETATM   13  C3  UNL     1      45.256  21.785  50.728  1.00  0.00     0.272 C 
ENDBRANCH   1  10
BRANCH   9  14
HETATM   14  O1  UNL     1      42.995  22.756  49.700  1.00  0.00    -0.393 OA
ATOM     15  H1  UNL     1      42.774  21.915  50.084  1.00  0.00     0.210 HD
ENDBRANCH   9  14
TORSDOF 2
ENDMDL
MODEL 4
REMARK VINA RESULT: -3.729481821      1.925      3.145
REMARK  2 active torsions:
REMARK  status: ('A' for Active; 'I' for Inactive)
REMARK    1  A    between atoms: N1_2  and  C4_5 
REMARK    2  A    between atoms: C9_13  and  O1_14 
ROOT
HETATM    1  C4  UNL     1      43.999  24.109  51.933  1.00  0.00     0.248 C 
HETATM    2  C5  UNL     1      45.291  24.354  51.138  1.00  0.00     0.220 C 
HETATM    3  C6  UNL     1      45.158  23.098  50.240  1.00  0.00     0.044 C 
HETATM    4  C7  UNL     1      45.219  22.138  51.441  1.00  0.00     0.044 C 
HETATM    5  C8  UNL     1      46.536  22.598  52.024  1.00  0.00     0.240 C 
HETATM    6  N2  UNL     1      46.464  24.031  51.863  1.00  0.00    -0.068 N 
ATOM      7  H21 UNL     1      46.519  24.524  52.754  1.00  0.00     0.277 HD
ATOM      8  H22 UNL     1      47.305  24.417  51.435  1.00  0.00     0.277 HD
HETATM    9  C9  UNL     1      44.144  22.713  52.365  1.00  0.00     0.157 C 
ENDROOT
BRANCH   1  10
HETATM   10  N1  UNL     1      43.659  25.102  52.835  1.00  0.00    -0.070 N 
HETATM   11  C1  UNL     1      42.256  24.904  53.259  1.00  0.00     0.272 C 
HETATM   12  C2  UNL     1      43.632  26.441  52.218  1.00  0.00     0.272 C 
HETATM   13  C3  UNL     1      44.401  25.236  54.049  1.00  0.00     0.272 C 
ENDBRANCH   1  10
BRANCH   9  14
HETATM   14  O1  UNL     1      44.565  22.474  53.637  1.00  0.00    -0.393 OA
ATOM     15  H1  UNL     1      44.300  21.661  54.052  1.00  0.00     0.210 HD
ENDBRANCH   9  14
TORSDOF 2
ENDMDL
MODEL 5
REMARK VINA RESULT: -3.708238815      2.354      4.140
REMARK  2 active torsions:
REMARK  status: ('A' for Active; 'I' for Inactive)
REMARK    1  A    between atoms: N1_2  and  C4_5 
REMARK    2  A    between atoms: C9_13  and  O1_14 
ROOT
HETATM    1  C4  UNL     1      43.626  23.014  51.441  1.00  0.00     0.248 C 
HETATM    2  C5  UNL     1      43.171  24.257  52.221  1.00  0.00     0.220 C 
HETATM    3  C6  UNL     1      41.713  24.242  51.694  1.00  0.00     0.044 C 
HETATM    4  C7  UNL     1      42.158  24.428  50.233  1.00  0.00     0.044 C 
HETATM    5  C8  UNL     1      42.957  25.698  50.405  1.00  0.00     0.240 C 
HETATM    6  N2  UNL     1      43.636  25.471  51.659  1.00  0.00    -0.068 N 
ATOM      7  H21 UNL     1      44.652  25.490  51.560  1.00  0.00     0.277 HD
ATOM      8  H22 UNL     1      43.542  26.258  52.301  1.00  0.00     0.277 HD
HETATM    9  C9  UNL     1      43.195  23.315  50.070  1.00  0.00     0.157 C 
ENDROOT
BRANCH   1  10
HETATM   10  N1  UNL     1      44.916  22.587  51.705  1.00  0.00    -0.070 N 
HETATM   11  C1  UNL     1      45.162  21.325  50.973  1.00  0.00     0.272 C 
HETATM   12  C2  UNL     1      45.105  22.195  53.114  1.00  0.00     0.272 C 
HETATM   13  C3  UNL     1      46.020  23.432  51.373  1.00  0.00     0.272 C 
ENDBRANCH   1  10
BRANCH   9  14
HETATM   14  O1  UNL     1      44.124  23.783  49.192  1.00  0.00    -0.393 OA
ATOM     15  H1  UNL     1      43.818  24.221  48.406  1.00  0.00     0.210 HD
ENDBRANCH   9  14
TORSDOF 2
ENDMDL
