MODEL 1
REMARK VINA RESULT: -4.562151145      0.000      0.000
REMARK  3 active torsions:
REMARK  status: ('A' for Active; 'I' for Inactive)
REMARK    1  A    between atoms: C4_5  and  O1_6 
REMARK    2  A    between atoms: C8_11  and  C9_12 
REMARK    3  A    between atoms: C9_12  and  O2_13 
ROOT
HETATM    1  C1  UNL     1      45.780  21.313  53.338  1.00  0.00     0.273 C 
HETATM    2  N1  UNL     1      45.162  22.292  52.470  1.00  0.00    -0.064 N 
HETATM    3  C2  UNL     1      46.229  23.014  51.818  1.00  0.00     0.240 C 
HETATM    4  C3  UNL     1      45.768  24.135  50.951  1.00  0.00     0.060 C 
HETATM    5  C4  UNL     1      44.489  23.854  50.241  1.00  0.00     0.126 C 
HETATM    6  C5  UNL     1      43.550  22.953  50.999  1.00  0.00     0.049 C 
HETATM    7  C6  UNL     1      43.221  23.667  52.319  1.00  0.00     0.037 C 
HETATM    8  C7  UNL     1      44.342  23.232  53.232  1.00  0.00     0.238 C 
HETATM    9  C8  UNL     1      44.217  21.736  51.553  1.00  0.00     0.219 C 
ENDROOT
BRANCH   9  10
HETATM   10  C9  UNL     1      44.780  20.809  50.541  1.00  0.00     0.198 C 
BRANCH  10  11
HETATM   11  O2  UNL     1      43.751  20.491  49.637  1.00  0.00    -0.399 OA
ATOM     12  H2  UNL     1      43.182  19.858  50.060  1.00  0.00     0.209 HD
ENDBRANCH  10  11
ENDBRANCH   9  10
BRANCH   5  13
HETATM   13  O1  UNL     1      44.678  23.400  48.939  1.00  0.00    -0.395 OA
ATOM     14  H1  UNL     1      43.982  22.826  48.642  1.00  0.00     0.210 HD
ENDBRANCH   5  13
TORSDOF 3
ENDMDL
MODEL 2
REMARK VINA RESULT: -4.470299685      2.587      3.732
REMARK  3 active torsions:
REMARK  status: ('A' for Active; 'I' for Inactive)
REMARK    1  A    between atoms: C4_5  and  O1_6 
REMARK    2  A    between atoms: C8_11  and  C9_12 
REMARK    3  A    between atoms: C9_12  and  O2_13 
ROOT
HETATM    1  C1  UNL     1      44.490  23.808  50.424  1.00  0.00     0.273 C 
HETATM    2  N1  UNL     1      45.156  22.957  51.387  1.00  0.00    -0.064 N 
HETATM    3  C2  UNL     1      46.440  23.555  51.666  1.00  0.00     0.240 C 
HETATM    4  C3  UNL     1      47.305  22.751  52.575  1.00  0.00     0.060 C 
HETATM    5  C4  UNL     1      46.549  22.034  53.640  1.00  0.00     0.126 C 
HETATM    6  C5  UNL     1      45.161  21.615  53.231  1.00  0.00     0.049 C 
HETATM    7  C6  UNL     1      45.320  20.668  52.032  1.00  0.00     0.037 C 
HETATM    8  C7  UNL     1      45.358  21.611  50.854  1.00  0.00     0.238 C 
HETATM    9  C8  UNL     1      44.386  22.705  52.565  1.00  0.00     0.219 C 
ENDROOT
BRANCH   9  10
HETATM   10  C9  UNL     1      44.110  23.891  53.412  1.00  0.00     0.198 C 
BRANCH  10  11
HETATM   11  O2  UNL     1      43.076  23.548  54.301  1.00  0.00    -0.399 OA
ATOM     12  H2  UNL     1      42.289  23.409  53.788  1.00  0.00     0.209 HD
ENDBRANCH  10  11
ENDBRANCH   9  10
BRANCH   5  13
HETATM   13  O1  UNL     1      46.530  22.721  54.850  1.00  0.00    -0.395 OA
ATOM     14  H1  UNL     1      47.083  23.493  54.847  1.00  0.00     0.210 HD
ENDBRANCH   5  13
TORSDOF 3
ENDMDL
MODEL 3
REMARK VINA RESULT: -4.271971010      1.107      1.334
REMARK  3 active torsions:
REMARK  status: ('A' for Active; 'I' for Inactive)
REMARK    1  A    between atoms: C4_5  and  O1_6 
REMARK    2  A    between atoms: C8_11  and  C9_12 
REMARK    3  A    between atoms: C9_12  and  O2_13 
ROOT
HETATM    1  C1  UNL     1      47.099  22.853  52.426  1.00  0.00     0.273 C 
HETATM    2  N1  UNL     1      45.734  23.224  52.123  1.00  0.00    -0.064 N 
HETATM    3  C2  UNL     1      45.772  24.047  50.937  1.00  0.00     0.240 C 
HETATM    4  C3  UNL     1      44.448  24.602  50.534  1.00  0.00     0.060 C 
HETATM    5  C4  UNL     1      43.311  23.673  50.784  1.00  0.00     0.126 C 
HETATM    6  C5  UNL     1      43.504  22.771  51.975  1.00  0.00     0.049 C 
HETATM    7  C6  UNL     1      43.659  23.684  53.201  1.00  0.00     0.037 C 
HETATM    8  C7  UNL     1      45.137  23.987  53.218  1.00  0.00     0.238 C 
HETATM    9  C8  UNL     1      44.845  22.111  52.006  1.00  0.00     0.219 C 
ENDROOT
BRANCH   9  10
HETATM   10  C9  UNL     1      45.121  21.190  50.877  1.00  0.00     0.198 C 
BRANCH  10  11
HETATM   11  O2  UNL     1      43.985  20.379  50.702  1.00  0.00    -0.399 OA
ATOM     12  H2  UNL     1      44.193  19.732  50.038  1.00  0.00     0.209 HD
ENDBRANCH  10  11
ENDBRANCH   9  10
BRANCH   5  13
HETATM   13  O1  UNL     1      42.947  22.943  49.656  1.00  0.00    -0.395 OA
ATOM     14  H1  UNL     1      43.486  23.137  48.899  1.00  0.00     0.210 HD
ENDBRANCH   5  13
TORSDOF 3
ENDMDL
MODEL 4
REMARK VINA RESULT: -4.250998020      1.648      3.098
REMARK  3 active torsions:
REMARK  status: ('A' for Active; 'I' for Inactive)
REMARK    1  A    between atoms: C4_5  and  O1_6 
REMARK    2  A    between atoms: C8_11  and  C9_12 
REMARK    3  A    between atoms: C9_12  and  O2_13 
ROOT
HETATM    1  C1  UNL     1      43.442  23.784  49.656  1.00  0.00     0.273 C 
HETATM    2  N1  UNL     1      44.253  23.583  50.837  1.00  0.00    -0.064 N 
HETATM    3  C2  UNL     1      43.349  23.436  51.953  1.00  0.00     0.240 C 
HETATM    4  C3  UNL     1      44.024  23.315  53.276  1.00  0.00     0.060 C 
HETATM    5  C4  UNL     1      45.305  22.557  53.226  1.00  0.00     0.126 C 
HETATM    6  C5  UNL     1      46.052  22.697  51.925  1.00  0.00     0.049 C 
HETATM    7  C6  UNL     1      46.368  24.191  51.755  1.00  0.00     0.037 C 
HETATM    8  C7  UNL     1      45.130  24.728  51.078  1.00  0.00     0.238 C 
HETATM    9  C8  UNL     1      45.185  22.505  50.723  1.00  0.00     0.219 C 
ENDROOT
BRANCH   9  10
HETATM   10  C9  UNL     1      44.584  21.155  50.587  1.00  0.00     0.198 C 
BRANCH  10  11
HETATM   11  O2  UNL     1      45.129  20.561  49.436  1.00  0.00    -0.399 OA
ATOM     12  H2  UNL     1      45.293  19.646  49.634  1.00  0.00     0.209 HD
ENDBRANCH  10  11
ENDBRANCH   9  10
BRANCH   5  13
HETATM   13  O1  UNL     1      45.160  21.219  53.580  1.00  0.00    -0.395 OA
ATOM     14  H1  UNL     1      44.482  21.079  54.231  1.00  0.00     0.210 HD
ENDBRANCH   5  13
TORSDOF 3
ENDMDL
MODEL 5
REMARK VINA RESULT: -4.039200965      1.441      1.651
REMARK  3 active torsions:
REMARK  status: ('A' for Active; 'I' for Inactive)
REMARK    1  A    between atoms: C4_5  and  O1_6 
REMARK    2  A    between atoms: C8_11  and  C9_12 
REMARK    3  A    between atoms: C9_12  and  O2_13 
ROOT
HETATM    1  C1  UNL     1      46.797  23.132  54.338  1.00  0.00     0.273 C 
HETATM    2  N1  UNL     1      45.849  23.195  53.247  1.00  0.00    -0.064 N 
HETATM    3  C2  UNL     1      46.559  23.704  52.098  1.00  0.00     0.240 C 
HETATM    4  C3  UNL     1      45.702  23.924  50.898  1.00  0.00     0.060 C 
HETATM    5  C4  UNL     1      44.621  22.911  50.742  1.00  0.00     0.126 C 
HETATM    6  C5  UNL     1      44.098  22.365  52.044  1.00  0.00     0.049 C 
HETATM    7  C6  UNL     1      43.531  23.559  52.829  1.00  0.00     0.037 C 
HETATM    8  C7  UNL     1      44.738  24.091  53.561  1.00  0.00     0.238 C 
HETATM    9  C8  UNL     1      45.179  21.958  52.992  1.00  0.00     0.219 C 
ENDROOT
BRANCH   9  10
HETATM   10  C9  UNL     1      46.045  20.849  52.521  1.00  0.00     0.198 C 
BRANCH  10  11
HETATM   11  O2  UNL     1      45.205  19.801  52.106  1.00  0.00    -0.399 OA
ATOM     12  H2  UNL     1      44.584  20.159  51.483  1.00  0.00     0.209 HD
ENDBRANCH  10  11
ENDBRANCH   9  10
BRANCH   5  13
HETATM   13  O1  UNL     1      44.960  21.883  49.867  1.00  0.00    -0.395 OA
ATOM     14  H1  UNL     1      45.885  21.873  49.648  1.00  0.00     0.210 HD
ENDBRANCH   5  13
TORSDOF 3
ENDMDL
