MODEL 1
REMARK VINA RESULT: -5.629243900      0.000      0.000
REMARK  3 active torsions:
REMARK  status: ('A' for Active; 'I' for Inactive)
REMARK    1  A    between atoms: C8_8  and  O1_9 
REMARK    2  A    between atoms: C8_8  and  C9_11 
REMARK    3  A    between atoms: C10_12  and  C11_13 
ROOT
HETATM    1  C1  UNL     1      46.603  23.434  54.174  1.00  0.00     0.018 C 
HETATM    2  C2  UNL     1      46.578  22.909  52.811  1.00  0.00     0.051 C 
HETATM    3  C3  UNL     1      46.223  23.707  51.724  1.00  0.00    -0.022 C 
HETATM    4  C4  UNL     1      45.704  24.037  50.931  1.00  0.00    -0.030 C 
HETATM    5  C5  UNL     1      44.707  24.084  49.962  1.00  0.00     0.027 C 
HETATM    6  C6  UNL     1      43.884  22.771  50.580  1.00  0.00     0.008 C 
HETATM    7  C7  UNL     1      44.878  21.888  51.279  1.00  0.00     0.052 C 
HETATM    8  C8  UNL     1      45.199  21.965  52.718  1.00  0.00     0.128 C 
ENDROOT
BRANCH   8   9
HETATM    9  O1  UNL     1      44.302  22.555  53.549  1.00  0.00    -0.377 OA
ATOM     10  H1  UNL     1      44.064  23.371  53.125  1.00  0.00     0.211 HD
ENDBRANCH   8   9
BRANCH   8  11
HETATM   11  C9  UNL     1      45.585  20.666  53.231  1.00  0.00    -0.062 C 
HETATM   12  C10 UNL     1      45.897  19.584  53.676  1.00  0.00    -0.059 C 
BRANCH  12  13
HETATM   13  C11 UNL     1      46.264  18.302  54.229  1.00  0.00     0.146 C 
HETATM   14  N1  UNL     1      45.732  17.197  53.837  1.00  0.00    -0.401 N 
ATOM     15  H12 UNL     1      45.023  17.248  53.106  1.00  0.00     0.156 HD
ATOM     16  H11 UNL     1      45.991  16.291  54.227  1.00  0.00     0.156 HD
ENDBRANCH  12  13
ENDBRANCH   8  11
TORSDOF 3
ENDMDL
MODEL 2
REMARK VINA RESULT: -5.444987172      2.717      4.395
REMARK  3 active torsions:
REMARK  status: ('A' for Active; 'I' for Inactive)
REMARK    1  A    between atoms: C8_8  and  O1_9 
REMARK    2  A    between atoms: C8_8  and  C9_11 
REMARK    3  A    between atoms: C10_12  and  C11_13 
ROOT
HETATM    1  C1  UNL     1      44.638  23.214  51.400  1.00  0.00     0.018 C 
HETATM    2  C2  UNL     1      45.578  22.098  51.342  1.00  0.00     0.051 C 
HETATM    3  C3  UNL     1      45.157  20.796  51.075  1.00  0.00    -0.022 C 
HETATM    4  C4  UNL     1      44.984  19.818  51.215  1.00  0.00    -0.030 C 
HETATM    5  C5  UNL     1      44.964  18.583  51.856  1.00  0.00     0.027 C 
HETATM    6  C6  UNL     1      45.614  19.178  53.273  1.00  0.00     0.008 C 
HETATM    7  C7  UNL     1      46.460  20.371  52.929  1.00  0.00     0.052 C 
HETATM    8  C8  UNL     1      45.980  21.767  52.933  1.00  0.00     0.128 C 
ENDROOT
BRANCH   8   9
HETATM    9  O1  UNL     1      44.870  22.065  53.655  1.00  0.00    -0.377 OA
ATOM     10  H1  UNL     1      44.943  21.555  54.453  1.00  0.00     0.211 HD
ENDBRANCH   8   9
BRANCH   8  11
HETATM   11  C9  UNL     1      47.055  22.681  53.258  1.00  0.00    -0.062 C 
HETATM   12  C10 UNL     1      47.946  23.459  53.517  1.00  0.00    -0.059 C 
BRANCH  12  13
HETATM   13  C11 UNL     1      49.004  24.398  53.807  1.00  0.00     0.146 C 
HETATM   14  N1  UNL     1      50.156  24.347  53.236  1.00  0.00    -0.401 N 
ATOM     15  H12 UNL     1      50.312  23.605  52.553  1.00  0.00     0.156 HD
ATOM     16  H11 UNL     1      50.904  25.010  53.440  1.00  0.00     0.156 HD
ENDBRANCH  12  13
ENDBRANCH   8  11
TORSDOF 3
ENDMDL
MODEL 3
REMARK VINA RESULT: -5.431740544      1.528      2.459
REMARK  3 active torsions:
REMARK  status: ('A' for Active; 'I' for Inactive)
REMARK    1  A    between atoms: C8_8  and  O1_9 
REMARK    2  A    between atoms: C8_8  and  C9_11 
REMARK    3  A    between atoms: C10_12  and  C11_13 
ROOT
HETATM    1  C1  UNL     1      45.034  20.911  49.980  1.00  0.00     0.018 C 
HETATM    2  C2  UNL     1      44.266  21.430  51.110  1.00  0.00     0.051 C 
HETATM    3  C3  UNL     1      43.692  22.701  51.085  1.00  0.00    -0.022 C 
HETATM    4  C4  UNL     1      43.510  23.654  51.338  1.00  0.00    -0.030 C 
HETATM    5  C5  UNL     1      43.621  24.855  52.031  1.00  0.00     0.027 C 
HETATM    6  C6  UNL     1      44.861  24.312  53.006  1.00  0.00     0.008 C 
HETATM    7  C7  UNL     1      44.725  22.822  53.142  1.00  0.00     0.052 C 
HETATM    8  C8  UNL     1      45.399  21.837  52.273  1.00  0.00     0.128 C 
ENDROOT
BRANCH   8   9
HETATM    9  O1  UNL     1      46.499  22.231  51.583  1.00  0.00    -0.377 OA
ATOM     10  H1  UNL     1      47.167  22.385  52.240  1.00  0.00     0.211 HD
ENDBRANCH   8   9
BRANCH   8  11
HETATM   11  C9  UNL     1      45.668  20.611  52.996  1.00  0.00    -0.062 C 
HETATM   12  C10 UNL     1      45.876  19.589  53.611  1.00  0.00    -0.059 C 
BRANCH  12  13
HETATM   13  C11 UNL     1      46.113  18.378  54.362  1.00  0.00     0.146 C 
HETATM   14  N1  UNL     1      45.786  17.213  53.925  1.00  0.00    -0.401 N 
ATOM     15  H12 UNL     1      45.341  17.160  53.009  1.00  0.00     0.156 HD
ATOM     16  H11 UNL     1      45.953  16.358  54.456  1.00  0.00     0.156 HD
ENDBRANCH  12  13
ENDBRANCH   8  11
TORSDOF 3
ENDMDL
MODEL 4
REMARK VINA RESULT: -5.220635871      1.423      1.547
REMARK  3 active torsions:
REMARK  status: ('A' for Active; 'I' for Inactive)
REMARK    1  A    between atoms: C8_8  and  O1_9 
REMARK    2  A    between atoms: C8_8  and  C9_11 
REMARK    3  A    between atoms: C10_12  and  C11_13 
ROOT
HETATM    1  C1  UNL     1      47.913  22.946  52.819  1.00  0.00     0.018 C 
HETATM    2  C2  UNL     1      46.649  22.937  52.088  1.00  0.00     0.051 C 
HETATM    3  C3  UNL     1      45.972  24.116  51.778  1.00  0.00    -0.022 C 
HETATM    4  C4  UNL     1      45.245  24.807  51.768  1.00  0.00    -0.030 C 
HETATM    5  C5  UNL     1      44.026  25.410  52.061  1.00  0.00     0.027 C 
HETATM    6  C6  UNL     1      43.541  24.195  53.097  1.00  0.00     0.008 C 
HETATM    7  C7  UNL     1      44.210  22.922  52.662  1.00  0.00     0.052 C 
HETATM    8  C8  UNL     1      45.496  22.428  53.191  1.00  0.00     0.128 C 
ENDROOT
BRANCH   8   9
HETATM    9  O1  UNL     1      45.920  22.892  54.394  1.00  0.00    -0.377 OA
ATOM     10  H1  UNL     1      45.812  22.166  54.997  1.00  0.00     0.211 HD
ENDBRANCH   8   9
BRANCH   8  11
HETATM   11  C9  UNL     1      45.546  20.981  53.161  1.00  0.00    -0.062 C 
HETATM   12  C10 UNL     1      45.568  19.771  53.139  1.00  0.00    -0.059 C 
BRANCH  12  13
HETATM   13  C11 UNL     1      45.573  18.327  53.122  1.00  0.00     0.146 C 
HETATM   14  N1  UNL     1      46.006  17.621  54.107  1.00  0.00    -0.401 N 
ATOM     15  H12 UNL     1      46.357  18.118  54.926  1.00  0.00     0.156 HD
ATOM     16  H11 UNL     1      46.010  16.601  54.096  1.00  0.00     0.156 HD
ENDBRANCH  12  13
ENDBRANCH   8  11
TORSDOF 3
ENDMDL
MODEL 5
REMARK VINA RESULT: -5.031983808      1.474      2.933
REMARK  3 active torsions:
REMARK  status: ('A' for Active; 'I' for Inactive)
REMARK    1  A    between atoms: C8_8  and  O1_9 
REMARK    2  A    between atoms: C8_8  and  C9_11 
REMARK    3  A    between atoms: C10_12  and  C11_13 
ROOT
HETATM    1  C1  UNL     1      44.087  22.855  51.538  1.00  0.00     0.018 C 
HETATM    2  C2  UNL     1      44.531  22.902  52.928  1.00  0.00     0.051 C 
HETATM    3  C3  UNL     1      44.947  24.090  53.527  1.00  0.00    -0.022 C 
HETATM    4  C4  UNL     1      45.550  24.756  53.974  1.00  0.00    -0.030 C 
HETATM    5  C5  UNL     1      46.708  25.283  54.537  1.00  0.00     0.027 C 
HETATM    6  C6  UNL     1      47.628  23.935  54.192  1.00  0.00     0.008 C 
HETATM    7  C7  UNL     1      46.711  22.746  54.154  1.00  0.00     0.052 C 
HETATM    8  C8  UNL     1      46.064  22.227  52.934  1.00  0.00     0.128 C 
ENDROOT
BRANCH   8   9
HETATM    9  O1  UNL     1      46.603  22.548  51.730  1.00  0.00    -0.377 OA
ATOM     10  H1  UNL     1      46.276  23.418  51.531  1.00  0.00     0.211 HD
ENDBRANCH   8   9
BRANCH   8  11
HETATM   11  C9  UNL     1      45.855  20.797  53.028  1.00  0.00    -0.062 C 
HETATM   12  C10 UNL     1      45.664  19.603  53.096  1.00  0.00    -0.059 C 
BRANCH  12  13
HETATM   13  C11 UNL     1      45.413  18.183  53.173  1.00  0.00     0.146 C 
HETATM   14  N1  UNL     1      45.927  17.433  54.084  1.00  0.00    -0.401 N 
ATOM     15  H12 UNL     1      46.535  17.877  54.773  1.00  0.00     0.156 HD
ATOM     16  H11 UNL     1      45.750  16.430  54.138  1.00  0.00     0.156 HD
ENDBRANCH  12  13
ENDBRANCH   8  11
TORSDOF 3
ENDMDL
