MODEL 1
REMARK VINA RESULT: -4.927855094      0.000      0.000
REMARK  1 active torsions:
REMARK  status: ('A' for Active; 'I' for Inactive)
REMARK    1  A    between atoms: N1_2  and  C2_3 
ROOT
HETATM    1  C1  UNL     1      46.397  22.905  52.078  1.00  0.00     0.275 C 
HETATM    2  N1  UNL     1      45.105  22.244  51.812  1.00  0.00    -0.039 N 
HETATM    3  C6  UNL     1      44.947  22.213  50.391  1.00  0.00     0.267 C 
HETATM    4  C7  UNL     1      44.794  23.571  49.799  1.00  0.00     0.260 C 
HETATM    5  N3  UNL     1      43.820  24.397  50.458  1.00  0.00    -0.072 N 
ATOM      6  H31 UNL     1      43.120  24.724  49.793  1.00  0.00     0.277 HD
ATOM      7  H32 UNL     1      44.232  25.289  50.729  1.00  0.00     0.277 HD
HETATM    8  C8  UNL     1      43.194  23.777  51.577  1.00  0.00     0.260 C 
HETATM    9  C9  UNL     1      44.108  23.037  52.490  1.00  0.00     0.267 C 
ENDROOT
BRANCH   2  10
HETATM   10  C2  UNL     1      45.178  20.969  52.420  1.00  0.00     0.387 C 
HETATM   11  C3  UNL     1      44.818  19.806  51.579  1.00  0.00     0.065 C 
HETATM   12  C4  UNL     1      45.430  18.641  52.370  1.00  0.00     0.031 C 
HETATM   13  C5  UNL     1      46.138  19.310  53.545  1.00  0.00     0.235 C 
HETATM   14  N2  UNL     1      46.473  20.613  52.941  1.00  0.00    -0.046 N 
ATOM     15  H22 UNL     1      47.242  20.612  52.270  1.00  0.00     0.279 HD
ATOM     16  H21 UNL     1      46.911  21.296  53.560  1.00  0.00     0.279 HD
ENDBRANCH   2  10
TORSDOF 1
ENDMDL
MODEL 2
REMARK VINA RESULT: -4.918107508      0.883      1.206
REMARK  1 active torsions:
REMARK  status: ('A' for Active; 'I' for Inactive)
REMARK    1  A    between atoms: N1_2  and  C2_3 
ROOT
HETATM    1  C1  UNL     1      46.586  23.100  52.067  1.00  0.00     0.275 C 
HETATM    2  N1  UNL     1      45.376  22.330  51.724  1.00  0.00    -0.039 N 
HETATM    3  C6  UNL     1      45.078  22.626  50.356  1.00  0.00     0.267 C 
HETATM    4  C7  UNL     1      44.681  24.046  50.148  1.00  0.00     0.260 C 
HETATM    5  N3  UNL     1      43.677  24.519  51.062  1.00  0.00    -0.072 N 
ATOM      6  H31 UNL     1      42.874  24.886  50.552  1.00  0.00     0.277 HD
ATOM      7  H32 UNL     1      43.990  25.371  51.527  1.00  0.00     0.277 HD
HETATM    8  C8  UNL     1      43.260  23.552  52.020  1.00  0.00     0.260 C 
HETATM    9  C9  UNL     1      44.356  22.763  52.647  1.00  0.00     0.267 C 
ENDROOT
BRANCH   2  10
HETATM   10  C2  UNL     1      45.684  20.972  51.973  1.00  0.00     0.387 C 
HETATM   11  C3  UNL     1      45.972  20.598  53.375  1.00  0.00     0.065 C 
HETATM   12  C4  UNL     1      45.805  19.072  53.336  1.00  0.00     0.031 C 
HETATM   13  C5  UNL     1      45.363  18.774  51.906  1.00  0.00     0.235 C 
HETATM   14  N2  UNL     1      44.666  20.032  51.581  1.00  0.00    -0.046 N 
ATOM     15  H22 UNL     1      43.748  20.160  52.009  1.00  0.00     0.279 HD
ATOM     16  H21 UNL     1      44.318  20.118  50.626  1.00  0.00     0.279 HD
ENDBRANCH   2  10
TORSDOF 1
ENDMDL
MODEL 3
REMARK VINA RESULT: -4.839134711      1.483      2.438
REMARK  1 active torsions:
REMARK  status: ('A' for Active; 'I' for Inactive)
REMARK    1  A    between atoms: N1_2  and  C2_3 
ROOT
HETATM    1  C1  UNL     1      45.434  22.462  51.011  1.00  0.00     0.275 C 
HETATM    2  N1  UNL     1      45.800  22.319  52.433  1.00  0.00    -0.039 N 
HETATM    3  C6  UNL     1      45.053  23.307  53.148  1.00  0.00     0.267 C 
HETATM    4  C7  UNL     1      45.459  24.698  52.801  1.00  0.00     0.260 C 
HETATM    5  N3  UNL     1      46.878  24.925  52.836  1.00  0.00    -0.072 N 
ATOM      6  H31 UNL     1      47.101  25.697  53.464  1.00  0.00     0.277 HD
ATOM      7  H32 UNL     1      47.199  25.322  51.954  1.00  0.00     0.277 HD
HETATM    8  C8  UNL     1      47.644  23.773  53.171  1.00  0.00     0.260 C 
HETATM    9  C9  UNL     1      47.228  22.513  52.496  1.00  0.00     0.267 C 
ENDROOT
BRANCH   2  10
HETATM   10  C2  UNL     1      45.495  20.985  52.791  1.00  0.00     0.387 C 
HETATM   11  C3  UNL     1      45.109  20.069  51.694  1.00  0.00     0.065 C 
HETATM   12  C4  UNL     1      45.302  18.693  52.348  1.00  0.00     0.031 C 
HETATM   13  C5  UNL     1      45.854  19.006  53.736  1.00  0.00     0.235 C 
HETATM   14  N2  UNL     1      46.554  20.273  53.459  1.00  0.00    -0.046 N 
ATOM     15  H22 UNL     1      47.435  20.198  52.950  1.00  0.00     0.279 HD
ATOM     16  H21 UNL     1      46.971  20.741  54.265  1.00  0.00     0.279 HD
ENDBRANCH   2  10
TORSDOF 1
ENDMDL
MODEL 4
REMARK VINA RESULT: -4.769437506      1.146      1.932
REMARK  1 active torsions:
REMARK  status: ('A' for Active; 'I' for Inactive)
REMARK    1  A    between atoms: N1_2  and  C2_3 
ROOT
HETATM    1  C1  UNL     1      44.326  22.700  52.869  1.00  0.00     0.275 C 
HETATM    2  N1  UNL     1      45.233  22.376  51.751  1.00  0.00    -0.039 N 
HETATM    3  C6  UNL     1      46.338  23.279  51.848  1.00  0.00     0.267 C 
HETATM    4  C7  UNL     1      45.947  24.696  51.606  1.00  0.00     0.260 C 
HETATM    5  N3  UNL     1      45.154  24.896  50.423  1.00  0.00    -0.072 N 
ATOM      6  H31 UNL     1      45.595  25.580  49.809  1.00  0.00     0.277 HD
ATOM      7  H32 UNL     1      44.294  25.395  50.650  1.00  0.00     0.277 HD
HETATM    8  C8  UNL     1      44.863  23.699  49.709  1.00  0.00     0.260 C 
HETATM    9  C9  UNL     1      44.453  22.540  50.548  1.00  0.00     0.267 C 
ENDROOT
BRANCH   2  10
HETATM   10  C2  UNL     1      45.578  21.013  51.901  1.00  0.00     0.387 C 
HETATM   11  C3  UNL     1      45.867  20.543  53.274  1.00  0.00     0.065 C 
HETATM   12  C4  UNL     1      45.744  19.020  53.120  1.00  0.00     0.031 C 
HETATM   13  C5  UNL     1      45.320  18.818  51.668  1.00  0.00     0.235 C 
HETATM   14  N2  UNL     1      44.590  20.076  51.431  1.00  0.00    -0.046 N 
ATOM     15  H22 UNL     1      43.666  20.146  51.859  1.00  0.00     0.279 HD
ATOM     16  H21 UNL     1      44.246  20.224  50.482  1.00  0.00     0.279 HD
ENDBRANCH   2  10
TORSDOF 1
ENDMDL
MODEL 5
REMARK VINA RESULT: -4.762803969      1.290      2.283
REMARK  1 active torsions:
REMARK  status: ('A' for Active; 'I' for Inactive)
REMARK    1  A    between atoms: N1_2  and  C2_3 
ROOT
HETATM    1  C1  UNL     1      45.055  22.503  50.446  1.00  0.00     0.275 C 
HETATM    2  N1  UNL     1      45.434  22.295  51.857  1.00  0.00    -0.039 N 
HETATM    3  C6  UNL     1      44.344  22.777  52.648  1.00  0.00     0.267 C 
HETATM    4  C7  UNL     1      44.156  24.250  52.531  1.00  0.00     0.260 C 
HETATM    5  N3  UNL     1      45.361  25.015  52.702  1.00  0.00    -0.072 N 
ATOM      6  H31 UNL     1      45.246  25.701  53.447  1.00  0.00     0.277 HD
ATOM      7  H32 UNL     1      45.502  25.641  51.910  1.00  0.00     0.277 HD
HETATM    8  C8  UNL     1      46.525  24.225  52.926  1.00  0.00     0.260 C 
HETATM    9  C9  UNL     1      46.661  23.029  52.050  1.00  0.00     0.267 C 
ENDROOT
BRANCH   2  10
HETATM   10  C2  UNL     1      45.692  20.911  52.000  1.00  0.00     0.387 C 
HETATM   11  C3  UNL     1      45.926  20.413  53.373  1.00  0.00     0.065 C 
HETATM   12  C4  UNL     1      45.711  18.902  53.203  1.00  0.00     0.031 C 
HETATM   13  C5  UNL     1      45.302  18.739  51.741  1.00  0.00     0.235 C 
HETATM   14  N2  UNL     1      44.655  20.042  51.504  1.00  0.00    -0.046 N 
ATOM     15  H22 UNL     1      43.730  20.166  51.917  1.00  0.00     0.279 HD
ATOM     16  H21 UNL     1      44.338  20.219  50.551  1.00  0.00     0.279 HD
ENDBRANCH   2  10
TORSDOF 1
ENDMDL
