MODEL 1
REMARK VINA RESULT: -4.528081707      0.000      0.000
REMARK  4 active torsions:
REMARK  status: ('A' for Active; 'I' for Inactive)
REMARK    1  A    between atoms: C3_3  and  N1_4 
REMARK    2  A    between atoms: N1_4  and  C4_5 
REMARK    3  A    between atoms: C9_10  and  O1_11 
REMARK    4  A    between atoms: C10_13  and  O2_14 
ROOT
HETATM    1  C1  UNL     1      40.982  24.536  50.783  1.00  0.00     0.113 C 
HETATM    2  C2  UNL     1      42.259  24.109  51.370  1.00  0.00    -0.081 C 
HETATM    3  C3  UNL     1      43.317  23.775  51.844  1.00  0.00     0.119 C 
ENDROOT
BRANCH   3   4
HETATM    4  N1  UNL     1      44.572  23.401  52.390  1.00  0.00     0.030 N 
HETATM    5  C7  UNL     1      45.379  24.595  52.434  1.00  0.00     0.260 C 
HETATM    6  C8  UNL     1      46.405  24.220  53.507  1.00  0.00     0.065 C 
HETATM    7  C9  UNL     1      45.517  23.609  54.559  1.00  0.00     0.177 C 
HETATM    8  C10 UNL     1      44.436  22.948  53.739  1.00  0.00     0.368 C 
BRANCH   4   9
HETATM    9  C4  UNL     1      45.184  22.469  51.500  1.00  0.00     0.209 A 
HETATM   10  C5  UNL     1      45.660  21.143  51.895  1.00  0.00     0.037 A 
HETATM   11  C6  UNL     1      44.320  21.246  51.210  1.00  0.00     0.037 A 
ENDBRANCH   4   9
BRANCH   7  12
HETATM   12  O1  UNL     1      46.188  22.682  55.344  1.00  0.00    -0.391 OA
ATOM     13  H1  UNL     1      45.721  21.856  55.408  1.00  0.00     0.210 HD
ENDBRANCH   7  12
BRANCH   8  14
HETATM   14  O2  UNL     1      43.193  23.428  54.211  1.00  0.00    -0.366 OA
ATOM     15  H2  UNL     1      42.786  22.717  54.691  1.00  0.00     0.212 HD
ENDBRANCH   8  14
ENDBRANCH   3   4
TORSDOF 4
ENDMDL
MODEL 2
REMARK VINA RESULT: -4.359725624      2.239      4.492
REMARK  4 active torsions:
REMARK  status: ('A' for Active; 'I' for Inactive)
REMARK    1  A    between atoms: C3_3  and  N1_4 
REMARK    2  A    between atoms: N1_4  and  C4_5 
REMARK    3  A    between atoms: C9_10  and  O1_11 
REMARK    4  A    between atoms: C10_13  and  O2_14 
ROOT
HETATM    1  C1  UNL     1      48.278  23.777  54.563  1.00  0.00     0.113 C 
HETATM    2  C2  UNL     1      47.231  22.996  53.888  1.00  0.00    -0.081 C 
HETATM    3  C3  UNL     1      46.361  22.355  53.353  1.00  0.00     0.119 C 
ENDROOT
BRANCH   3   4
HETATM    4  N1  UNL     1      45.326  21.599  52.743  1.00  0.00     0.030 N 
HETATM    5  C7  UNL     1      45.653  21.502  51.342  1.00  0.00     0.260 C 
HETATM    6  C8  UNL     1      44.852  20.263  50.936  1.00  0.00     0.065 C 
HETATM    7  C9  UNL     1      45.166  19.327  52.073  1.00  0.00     0.177 C 
HETATM    8  C10 UNL     1      45.293  20.264  53.250  1.00  0.00     0.368 C 
BRANCH   4   9
HETATM    9  C4  UNL     1      44.106  22.327  52.878  1.00  0.00     0.209 A 
HETATM   10  C5  UNL     1      43.985  23.611  53.569  1.00  0.00     0.037 A 
HETATM   11  C6  UNL     1      44.073  23.615  52.063  1.00  0.00     0.037 A 
ENDBRANCH   4   9
BRANCH   7  12
HETATM   12  O1  UNL     1      44.161  18.393  52.283  1.00  0.00    -0.391 OA
ATOM     13  H1  UNL     1      44.502  17.514  52.402  1.00  0.00     0.210 HD
ENDBRANCH   7  12
BRANCH   8  14
HETATM   14  O2  UNL     1      46.549  20.020  53.852  1.00  0.00    -0.366 OA
ATOM     15  H2  UNL     1      47.202  20.083  53.165  1.00  0.00     0.212 HD
ENDBRANCH   8  14
ENDBRANCH   3   4
TORSDOF 4
ENDMDL
MODEL 3
REMARK VINA RESULT: -4.191947476      2.608      3.926
REMARK  4 active torsions:
REMARK  status: ('A' for Active; 'I' for Inactive)
REMARK    1  A    between atoms: C3_3  and  N1_4 
REMARK    2  A    between atoms: N1_4  and  C4_5 
REMARK    3  A    between atoms: C9_10  and  O1_11 
REMARK    4  A    between atoms: C10_13  and  O2_14 
ROOT
HETATM    1  C1  UNL     1      42.643  24.381  54.007  1.00  0.00     0.113 C 
HETATM    2  C2  UNL     1      43.464  23.422  53.256  1.00  0.00    -0.081 C 
HETATM    3  C3  UNL     1      44.143  22.624  52.657  1.00  0.00     0.119 C 
ENDROOT
BRANCH   3   4
HETATM    4  N1  UNL     1      44.949  21.678  51.974  1.00  0.00     0.030 N 
HETATM    5  C7  UNL     1      44.553  20.375  52.448  1.00  0.00     0.260 C 
HETATM    6  C8  UNL     1      45.028  19.483  51.298  1.00  0.00     0.065 C 
HETATM    7  C9  UNL     1      44.552  20.268  50.104  1.00  0.00     0.177 C 
HETATM    8  C10 UNL     1      44.693  21.698  50.568  1.00  0.00     0.368 C 
BRANCH   4   9
HETATM    9  C4  UNL     1      46.309  21.903  52.343  1.00  0.00     0.209 A 
HETATM   10  C5  UNL     1      46.730  22.749  53.460  1.00  0.00     0.037 A 
HETATM   11  C6  UNL     1      46.695  21.256  53.669  1.00  0.00     0.037 A 
ENDBRANCH   4   9
BRANCH   7  12
HETATM   12  O1  UNL     1      45.322  20.031  48.973  1.00  0.00    -0.391 OA
ATOM     13  H1  UNL     1      45.477  19.104  48.829  1.00  0.00     0.210 HD
ENDBRANCH   7  12
BRANCH   8  14
HETATM   14  O2  UNL     1      43.440  22.328  50.387  1.00  0.00    -0.366 OA
ATOM     15  H2  UNL     1      42.794  21.638  50.295  1.00  0.00     0.212 HD
ENDBRANCH   8  14
ENDBRANCH   3   4
TORSDOF 4
ENDMDL
MODEL 4
REMARK VINA RESULT: -4.060742414      2.609      4.356
REMARK  4 active torsions:
REMARK  status: ('A' for Active; 'I' for Inactive)
REMARK    1  A    between atoms: C3_3  and  N1_4 
REMARK    2  A    between atoms: N1_4  and  C4_5 
REMARK    3  A    between atoms: C9_10  and  O1_11 
REMARK    4  A    between atoms: C10_13  and  O2_14 
ROOT
HETATM    1  C1  UNL     1      44.783  19.322  51.689  1.00  0.00     0.113 C 
HETATM    2  C2  UNL     1      44.591  20.765  51.487  1.00  0.00    -0.081 C 
HETATM    3  C3  UNL     1      44.453  21.953  51.325  1.00  0.00     0.119 C 
ENDROOT
BRANCH   3   4
HETATM    4  N1  UNL     1      44.314  23.353  51.141  1.00  0.00     0.030 N 
HETATM    5  C7  UNL     1      45.380  23.764  50.261  1.00  0.00     0.260 C 
HETATM    6  C8  UNL     1      44.815  25.072  49.703  1.00  0.00     0.065 C 
HETATM    7  C9  UNL     1      43.398  24.669  49.390  1.00  0.00     0.177 C 
HETATM    8  C10 UNL     1      43.089  23.669  50.478  1.00  0.00     0.368 C 
BRANCH   4   9
HETATM    9  C4  UNL     1      44.497  23.988  52.406  1.00  0.00     0.209 A 
HETATM   10  C5  UNL     1      43.559  24.946  52.990  1.00  0.00     0.037 A 
HETATM   11  C6  UNL     1      43.512  23.518  53.471  1.00  0.00     0.037 A 
ENDBRANCH   4   9
BRANCH   7  12
HETATM   12  O1  UNL     1      42.519  25.743  49.433  1.00  0.00    -0.391 OA
ATOM     13  H1  UNL     1      42.521  26.244  48.626  1.00  0.00     0.210 HD
ENDBRANCH   7  12
BRANCH   8  14
HETATM   14  O2  UNL     1      42.643  22.483  49.850  1.00  0.00    -0.366 OA
ATOM     15  H2  UNL     1      43.149  22.385  49.053  1.00  0.00     0.212 HD
ENDBRANCH   8  14
ENDBRANCH   3   4
TORSDOF 4
ENDMDL
MODEL 5
REMARK VINA RESULT: -4.025226225      2.291      3.296
REMARK  4 active torsions:
REMARK  status: ('A' for Active; 'I' for Inactive)
REMARK    1  A    between atoms: C3_3  and  N1_4 
REMARK    2  A    between atoms: N1_4  and  C4_5 
REMARK    3  A    between atoms: C9_10  and  O1_11 
REMARK    4  A    between atoms: C10_13  and  O2_14 
ROOT
HETATM    1  C1  UNL     1      40.614  25.653  50.207  1.00  0.00     0.113 C 
HETATM    2  C2  UNL     1      41.830  24.911  50.568  1.00  0.00    -0.081 C 
HETATM    3  C3  UNL     1      42.822  24.302  50.886  1.00  0.00     0.119 C 
ENDROOT
BRANCH   3   4
HETATM    4  N1  UNL     1      43.983  23.589  51.282  1.00  0.00     0.030 N 
HETATM    5  C7  UNL     1      43.742  23.115  52.623  1.00  0.00     0.260 C 
HETATM    6  C8  UNL     1      44.731  21.950  52.707  1.00  0.00     0.065 C 
HETATM    7  C9  UNL     1      44.499  21.273  51.382  1.00  0.00     0.177 C 
HETATM    8  C10 UNL     1      44.182  22.431  50.468  1.00  0.00     0.368 C 
BRANCH   4   9
HETATM    9  C4  UNL     1      45.078  24.503  51.311  1.00  0.00     0.209 A 
HETATM   10  C5  UNL     1      45.004  25.891  50.856  1.00  0.00     0.037 A 
HETATM   11  C6  UNL     1      44.912  25.619  52.337  1.00  0.00     0.037 A 
ENDBRANCH   4   9
BRANCH   7  12
HETATM   12  O1  UNL     1      45.617  20.578  50.940  1.00  0.00    -0.391 OA
ATOM     13  H1  UNL     1      46.006  20.971  50.168  1.00  0.00     0.210 HD
ENDBRANCH   7  12
BRANCH   8  14
HETATM   14  O2  UNL     1      42.946  22.150  49.841  1.00  0.00    -0.366 OA
ATOM     15  H2  UNL     1      43.099  21.434  49.237  1.00  0.00     0.212 HD
ENDBRANCH   8  14
ENDBRANCH   3   4
TORSDOF 4
ENDMDL
