MODEL 1
REMARK VINA RESULT: -5.036668647      0.000      0.000
REMARK  3 active torsions:
REMARK  status: ('A' for Active; 'I' for Inactive)
REMARK    1  A    between atoms: C3_6  and  C4_7 
REMARK    2  A    between atoms: C4_7  and  C5_8 
REMARK    3  A    between atoms: C5_8  and  O1_9 
ROOT
HETATM    1  C1  UNL     1      43.303  23.389  50.194  1.00  0.00     0.040 C 
HETATM    2  C2  UNL     1      44.487  23.111  51.069  1.00  0.00     0.189 A 
HETATM    3  N1  UNL     1      45.306  21.990  50.720  1.00  0.00    -0.061 N 
ATOM      4  H11 UNL     1      46.273  22.165  50.447  1.00  0.00     0.278 HD
ATOM      5  H12 UNL     1      45.110  21.501  49.846  1.00  0.00     0.278 HD
HETATM    6  C3  UNL     1      45.056  21.278  51.993  1.00  0.00     0.133 A 
HETATM    7  C6  UNL     1      46.355  21.153  52.743  1.00  0.00     0.039 C 
HETATM    8  C7  UNL     1      46.771  22.227  53.633  1.00  0.00     0.002 C 
HETATM    9  C8  UNL     1      46.041  23.525  53.531  1.00  0.00     0.001 C 
HETATM   10  C9  UNL     1      44.586  23.235  53.523  1.00  0.00     0.009 C 
HETATM   11  C10 UNL     1      44.165  22.360  52.371  1.00  0.00     0.052 A 
ENDROOT
BRANCH   6  12
HETATM   12  C4  UNL     1      44.576  19.908  51.689  1.00  0.00     0.065 C 
BRANCH  12  13
HETATM   13  C5  UNL     1      45.125  18.739  52.349  1.00  0.00     0.166 C 
BRANCH  13  14
HETATM   14  O1  UNL     1      44.229  17.745  52.712  1.00  0.00    -0.401 OA
ATOM     15  H1  UNL     1      44.422  16.864  52.416  1.00  0.00     0.209 HD
ENDBRANCH  13  14
ENDBRANCH  12  13
ENDBRANCH   6  12
TORSDOF 3
ENDMDL
MODEL 2
REMARK VINA RESULT: -4.732949727      2.203      3.449
REMARK  3 active torsions:
REMARK  status: ('A' for Active; 'I' for Inactive)
REMARK    1  A    between atoms: C3_6  and  C4_7 
REMARK    2  A    between atoms: C4_7  and  C5_8 
REMARK    3  A    between atoms: C5_8  and  O1_9 
ROOT
HETATM    1  C1  UNL     1      43.177  23.906  50.470  1.00  0.00     0.040 C 
HETATM    2  C2  UNL     1      43.548  22.652  51.200  1.00  0.00     0.189 A 
HETATM    3  N1  UNL     1      43.781  22.762  52.608  1.00  0.00    -0.061 N 
ATOM      4  H11 UNL     1      43.156  22.263  53.241  1.00  0.00     0.278 HD
ATOM      5  H12 UNL     1      43.585  23.654  53.062  1.00  0.00     0.278 HD
HETATM    6  C3  UNL     1      45.189  22.316  52.516  1.00  0.00     0.133 A 
HETATM    7  C6  UNL     1      45.337  21.018  53.263  1.00  0.00     0.039 C 
HETATM    8  C7  UNL     1      45.081  19.763  52.570  1.00  0.00     0.002 C 
HETATM    9  C8  UNL     1      44.399  19.837  51.245  1.00  0.00     0.001 C 
HETATM   10  C9  UNL     1      45.076  20.882  50.437  1.00  0.00     0.009 C 
HETATM   11  C10 UNL     1      45.026  22.246  51.076  1.00  0.00     0.052 A 
ENDROOT
BRANCH   6  12
HETATM   12  C4  UNL     1      46.053  23.321  53.181  1.00  0.00     0.065 C 
BRANCH  12  13
HETATM   13  C5  UNL     1      46.913  22.974  54.296  1.00  0.00     0.166 C 
BRANCH  13  14
HETATM   14  O1  UNL     1      46.384  23.131  55.569  1.00  0.00    -0.401 OA
ATOM     15  H1  UNL     1      45.660  23.739  55.661  1.00  0.00     0.209 HD
ENDBRANCH  13  14
ENDBRANCH  12  13
ENDBRANCH   6  12
TORSDOF 3
ENDMDL
MODEL 3
REMARK VINA RESULT: -4.671987555      1.759      3.014
REMARK  3 active torsions:
REMARK  status: ('A' for Active; 'I' for Inactive)
REMARK    1  A    between atoms: C3_6  and  C4_7 
REMARK    2  A    between atoms: C4_7  and  C5_8 
REMARK    3  A    between atoms: C5_8  and  O1_9 
ROOT
HETATM    1  C1  UNL     1      45.505  24.352  53.377  1.00  0.00     0.040 C 
HETATM    2  C2  UNL     1      44.843  23.192  52.700  1.00  0.00     0.189 A 
HETATM    3  N1  UNL     1      44.618  22.018  53.489  1.00  0.00    -0.061 N 
ATOM      4  H11 UNL     1      43.655  21.730  53.662  1.00  0.00     0.278 HD
ATOM      5  H12 UNL     1      44.822  22.061  54.488  1.00  0.00     0.278 HD
HETATM    6  C3  UNL     1      45.466  21.156  52.636  1.00  0.00     0.133 A 
HETATM    7  C6  UNL     1      44.604  20.095  52.009  1.00  0.00     0.039 C 
HETATM    8  C7  UNL     1      43.932  20.375  50.747  1.00  0.00     0.002 C 
HETATM    9  C8  UNL     1      43.892  21.797  50.293  1.00  0.00     0.001 C 
HETATM   10  C9  UNL     1      45.259  22.360  50.423  1.00  0.00     0.009 C 
HETATM   11  C10 UNL     1      45.777  22.327  51.838  1.00  0.00     0.052 A 
ENDROOT
BRANCH   6  12
HETATM   12  C4  UNL     1      46.469  20.476  53.492  1.00  0.00     0.065 C 
BRANCH  12  13
HETATM   13  C5  UNL     1      46.325  19.087  53.885  1.00  0.00     0.166 C 
BRANCH  13  14
HETATM   14  O1  UNL     1      47.302  18.567  54.721  1.00  0.00    -0.401 OA
ATOM     15  H1  UNL     1      47.625  17.698  54.515  1.00  0.00     0.209 HD
ENDBRANCH  13  14
ENDBRANCH  12  13
ENDBRANCH   6  12
TORSDOF 3
ENDMDL
MODEL 4
REMARK VINA RESULT: -4.543755617      2.394      4.244
REMARK  3 active torsions:
REMARK  status: ('A' for Active; 'I' for Inactive)
REMARK    1  A    between atoms: C3_6  and  C4_7 
REMARK    2  A    between atoms: C4_7  and  C5_8 
REMARK    3  A    between atoms: C5_8  and  O1_9 
ROOT
HETATM    1  C1  UNL     1      46.386  18.913  54.197  1.00  0.00     0.040 C 
HETATM    2  C2  UNL     1      46.191  19.723  52.952  1.00  0.00     0.189 A 
HETATM    3  N1  UNL     1      46.633  21.084  52.985  1.00  0.00    -0.061 N 
ATOM      4  H11 UNL     1      47.390  21.362  52.359  1.00  0.00     0.278 HD
ATOM      5  H12 UNL     1      47.146  21.406  53.806  1.00  0.00     0.278 HD
HETATM    6  C3  UNL     1      45.282  21.638  52.741  1.00  0.00     0.133 A 
HETATM    7  C6  UNL     1      45.286  22.362  51.421  1.00  0.00     0.039 C 
HETATM    8  C7  UNL     1      45.007  21.620  50.200  1.00  0.00     0.002 C 
HETATM    9  C8  UNL     1      45.027  20.130  50.283  1.00  0.00     0.001 C 
HETATM   10  C9  UNL     1      44.231  19.724  51.468  1.00  0.00     0.009 C 
HETATM   11  C10 UNL     1      44.771  20.280  52.759  1.00  0.00     0.052 A 
ENDROOT
BRANCH   6  12
HETATM   12  C4  UNL     1      44.973  22.630  53.799  1.00  0.00     0.065 C 
BRANCH  12  13
HETATM   13  C5  UNL     1      43.928  23.622  53.638  1.00  0.00     0.166 C 
BRANCH  13  14
HETATM   14  O1  UNL     1      42.994  23.720  54.658  1.00  0.00    -0.401 OA
ATOM     15  H1  UNL     1      42.146  24.082  54.431  1.00  0.00     0.209 HD
ENDBRANCH  13  14
ENDBRANCH  12  13
ENDBRANCH   6  12
TORSDOF 3
ENDMDL
MODEL 5
REMARK VINA RESULT: -4.448785887      2.075      3.518
REMARK  3 active torsions:
REMARK  status: ('A' for Active; 'I' for Inactive)
REMARK    1  A    between atoms: C3_6  and  C4_7 
REMARK    2  A    between atoms: C4_7  and  C5_8 
REMARK    3  A    between atoms: C5_8  and  O1_9 
ROOT
HETATM    1  C1  UNL     1      45.094  19.240  51.665  1.00  0.00     0.040 C 
HETATM    2  C2  UNL     1      44.998  20.526  52.428  1.00  0.00     0.189 A 
HETATM    3  N1  UNL     1      44.045  21.489  51.964  1.00  0.00    -0.061 N 
ATOM      4  H11 UNL     1      43.267  21.733  52.577  1.00  0.00     0.278 HD
ATOM      5  H12 UNL     1      43.413  21.219  51.210  1.00  0.00     0.278 HD
HETATM    6  C3  UNL     1      45.069  22.521  51.684  1.00  0.00     0.133 A 
HETATM    7  C6  UNL     1      44.829  23.700  52.589  1.00  0.00     0.039 C 
HETATM    8  C7  UNL     1      45.432  23.716  53.914  1.00  0.00     0.002 C 
HETATM    9  C8  UNL     1      46.009  22.436  54.421  1.00  0.00     0.001 C 
HETATM   10  C9  UNL     1      46.852  21.854  53.347  1.00  0.00     0.009 C 
HETATM   11  C10 UNL     1      46.081  21.562  52.086  1.00  0.00     0.052 A 
ENDROOT
BRANCH   6  12
HETATM   12  C4  UNL     1      44.910  22.986  50.285  1.00  0.00     0.065 C 
BRANCH  12  13
HETATM   13  C5  UNL     1      43.788  23.808  49.873  1.00  0.00     0.166 C 
BRANCH  13  14
HETATM   14  O1  UNL     1      42.524  23.252  49.999  1.00  0.00    -0.401 OA
ATOM     15  H1  UNL     1      42.312  22.531  49.418  1.00  0.00     0.209 HD
ENDBRANCH  13  14
ENDBRANCH  12  13
ENDBRANCH   6  12
TORSDOF 3
ENDMDL
