MODEL 1
REMARK VINA RESULT: -4.874106740      0.000      0.000
REMARK  6 active torsions:
REMARK  status: ('A' for Active; 'I' for Inactive)
REMARK    1  A    between atoms: C2_2  and  O1_3 
REMARK    2  A    between atoms: C2_2  and  C3_5 
REMARK    3  A    between atoms: C4_6  and  C5_7 
REMARK    4  A    between atoms: C6_8  and  C7_9 
REMARK    5  A    between atoms: C7_9  and  C8_10 
REMARK    6  A    between atoms: C8_10  and  O2_11 
ROOT
HETATM    1  C5  UNL     1      43.820  22.219  51.289  1.00  0.00    -0.014 C 
HETATM    2  C6  UNL     1      43.301  23.240  50.911  1.00  0.00    -0.080 C 
ENDROOT
BRANCH   2   3
HETATM    3  C7  UNL     1      42.659  24.476  50.474  1.00  0.00     0.049 A 
HETATM    4  C9  UNL     1      41.156  24.607  50.585  1.00  0.00     0.031 A 
HETATM    5  C10 UNL     1      42.088  25.408  51.446  1.00  0.00     0.006 A 
HETATM    6  C11 UNL     1      42.087  25.148  52.927  1.00  0.00     0.012 C 
BRANCH   3   7
HETATM    7  C8  UNL     1      43.345  25.126  49.266  1.00  0.00     0.186 C 
BRANCH   7   8
HETATM    8  O2  UNL     1      43.757  24.079  48.441  1.00  0.00    -0.399 OA
ATOM      9  H2  UNL     1      44.647  23.871  48.701  1.00  0.00     0.209 HD
ENDBRANCH   7   8
ENDBRANCH   3   7
ENDBRANCH   2   3
BRANCH   1  10
HETATM   10  C4  UNL     1      44.406  21.011  51.738  1.00  0.00    -0.012 C 
HETATM   11  C3  UNL     1      44.888  19.975  52.129  1.00  0.00    -0.061 C 
BRANCH  11  12
HETATM   12  C2  UNL     1      45.460  18.701  52.621  1.00  0.00     0.193 C 
HETATM   13  C1  UNL     1      46.114  19.042  53.963  1.00  0.00     0.053 C 
BRANCH  12  14
HETATM   14  O1  UNL     1      44.443  17.801  52.850  1.00  0.00    -0.384 OA
ATOM     15  H1  UNL     1      43.620  18.217  52.627  1.00  0.00     0.211 HD
ENDBRANCH  12  14
ENDBRANCH  11  12
ENDBRANCH   1  10
TORSDOF 6
ENDMDL
MODEL 2
REMARK VINA RESULT: -4.816340490      1.825      2.117
REMARK  6 active torsions:
REMARK  status: ('A' for Active; 'I' for Inactive)
REMARK    1  A    between atoms: C2_2  and  O1_3 
REMARK    2  A    between atoms: C2_2  and  C3_5 
REMARK    3  A    between atoms: C4_6  and  C5_7 
REMARK    4  A    between atoms: C6_8  and  C7_9 
REMARK    5  A    between atoms: C7_9  and  C8_10 
REMARK    6  A    between atoms: C8_10  and  O2_11 
ROOT
HETATM    1  C5  UNL     1      45.091  22.230  50.542  1.00  0.00    -0.014 C 
HETATM    2  C6  UNL     1      45.057  23.316  50.018  1.00  0.00    -0.080 C 
ENDROOT
BRANCH   2   3
HETATM    3  C7  UNL     1      45.038  24.636  49.396  1.00  0.00     0.049 A 
HETATM    4  C9  UNL     1      43.795  25.491  49.515  1.00  0.00     0.031 A 
HETATM    5  C10 UNL     1      45.074  25.850  50.211  1.00  0.00     0.006 A 
HETATM    6  C11 UNL     1      45.096  25.826  51.714  1.00  0.00     0.012 C 
BRANCH   3   7
HETATM    7  C8  UNL     1      45.827  24.704  48.082  1.00  0.00     0.186 C 
BRANCH   7   8
HETATM    8  O2  UNL     1      45.743  23.434  47.511  1.00  0.00    -0.399 OA
ATOM      9  H2  UNL     1      46.462  22.931  47.876  1.00  0.00     0.209 HD
ENDBRANCH   7   8
ENDBRANCH   3   7
ENDBRANCH   2   3
BRANCH   1  10
HETATM   10  C4  UNL     1      45.139  20.966  51.176  1.00  0.00    -0.012 C 
HETATM   11  C3  UNL     1      45.199  19.887  51.717  1.00  0.00    -0.061 C 
BRANCH  11  12
HETATM   12  C2  UNL     1      45.297  18.564  52.374  1.00  0.00     0.193 C 
HETATM   13  C1  UNL     1      45.694  18.860  53.823  1.00  0.00     0.053 C 
BRANCH  12  14
HETATM   14  O1  UNL     1      44.058  17.962  52.379  1.00  0.00    -0.384 OA
ATOM     15  H1  UNL     1      44.166  17.056  52.116  1.00  0.00     0.211 HD
ENDBRANCH  12  14
ENDBRANCH  11  12
ENDBRANCH   1  10
TORSDOF 6
ENDMDL
MODEL 3
REMARK VINA RESULT: -4.778574438      1.384      2.323
REMARK  6 active torsions:
REMARK  status: ('A' for Active; 'I' for Inactive)
REMARK    1  A    between atoms: C2_2  and  O1_3 
REMARK    2  A    between atoms: C2_2  and  C3_5 
REMARK    3  A    between atoms: C4_6  and  C5_7 
REMARK    4  A    between atoms: C6_8  and  C7_9 
REMARK    5  A    between atoms: C7_9  and  C8_10 
REMARK    6  A    between atoms: C8_10  and  O2_11 
ROOT
HETATM    1  C5  UNL     1      44.444  21.987  51.595  1.00  0.00    -0.014 C 
HETATM    2  C6  UNL     1      44.129  23.079  51.189  1.00  0.00    -0.080 C 
ENDROOT
BRANCH   2   3
HETATM    3  C7  UNL     1      43.762  24.409  50.716  1.00  0.00     0.049 A 
HETATM    4  C9  UNL     1      44.761  25.540  50.838  1.00  0.00     0.031 A 
HETATM    5  C10 UNL     1      44.367  24.968  49.507  1.00  0.00     0.006 A 
HETATM    6  C11 UNL     1      45.414  24.245  48.706  1.00  0.00     0.012 C 
BRANCH   3   7
HETATM    7  C8  UNL     1      42.279  24.744  50.921  1.00  0.00     0.186 C 
BRANCH   7   8
HETATM    8  O2  UNL     1      41.561  23.655  50.424  1.00  0.00    -0.399 OA
ATOM      9  H2  UNL     1      42.103  22.889  50.574  1.00  0.00     0.209 HD
ENDBRANCH   7   8
ENDBRANCH   3   7
ENDBRANCH   2   3
BRANCH   1  10
HETATM   10  C4  UNL     1      44.809  20.715  52.094  1.00  0.00    -0.012 C 
HETATM   11  C3  UNL     1      45.121  19.635  52.540  1.00  0.00    -0.061 C 
BRANCH  11  12
HETATM   12  C2  UNL     1      45.504  18.323  53.107  1.00  0.00     0.193 C 
HETATM   13  C1  UNL     1      46.009  18.624  54.520  1.00  0.00     0.053 C 
BRANCH  12  14
HETATM   14  O1  UNL     1      44.388  17.523  53.206  1.00  0.00    -0.384 OA
ATOM     15  H1  UNL     1      44.665  16.657  53.482  1.00  0.00     0.211 HD
ENDBRANCH  12  14
ENDBRANCH  11  12
ENDBRANCH   1  10
TORSDOF 6
ENDMDL
MODEL 4
REMARK VINA RESULT: -4.544646960      1.537      1.899
REMARK  6 active torsions:
REMARK  status: ('A' for Active; 'I' for Inactive)
REMARK    1  A    between atoms: C2_2  and  O1_3 
REMARK    2  A    between atoms: C2_2  and  C3_5 
REMARK    3  A    between atoms: C4_6  and  C5_7 
REMARK    4  A    between atoms: C6_8  and  C7_9 
REMARK    5  A    between atoms: C7_9  and  C8_10 
REMARK    6  A    between atoms: C8_10  and  O2_11 
ROOT
HETATM    1  C5  UNL     1      44.699  22.244  51.211  1.00  0.00    -0.014 C 
HETATM    2  C6  UNL     1      44.486  23.355  50.791  1.00  0.00    -0.080 C 
ENDROOT
BRANCH   2   3
HETATM    3  C7  UNL     1      44.221  24.705  50.305  1.00  0.00     0.049 A 
HETATM    4  C9  UNL     1      43.569  24.888  48.952  1.00  0.00     0.031 A 
HETATM    5  C10 UNL     1      42.853  25.218  50.229  1.00  0.00     0.006 A 
HETATM    6  C11 UNL     1      41.649  24.398  50.601  1.00  0.00     0.012 C 
BRANCH   3   7
HETATM    7  C8  UNL     1      45.282  25.727  50.729  1.00  0.00     0.186 C 
BRANCH   7   8
HETATM    8  O2  UNL     1      45.533  25.491  52.081  1.00  0.00    -0.399 OA
ATOM      9  H2  UNL     1      45.579  24.547  52.182  1.00  0.00     0.209 HD
ENDBRANCH   7   8
ENDBRANCH   3   7
ENDBRANCH   2   3
BRANCH   1  10
HETATM   10  C4  UNL     1      44.927  20.942  51.715  1.00  0.00    -0.012 C 
HETATM   11  C3  UNL     1      45.137  19.837  52.157  1.00  0.00    -0.061 C 
BRANCH  11  12
HETATM   12  C2  UNL     1      45.414  18.491  52.708  1.00  0.00     0.193 C 
HETATM   13  C1  UNL     1      45.858  18.729  54.154  1.00  0.00     0.053 C 
BRANCH  12  14
HETATM   14  O1  UNL     1      44.250  17.755  52.728  1.00  0.00    -0.384 OA
ATOM     15  H1  UNL     1      44.480  16.836  52.788  1.00  0.00     0.211 HD
ENDBRANCH  12  14
ENDBRANCH  11  12
ENDBRANCH   1  10
TORSDOF 6
ENDMDL
MODEL 5
REMARK VINA RESULT: -4.514055321      1.695      1.856
REMARK  6 active torsions:
REMARK  status: ('A' for Active; 'I' for Inactive)
REMARK    1  A    between atoms: C2_2  and  O1_3 
REMARK    2  A    between atoms: C2_2  and  C3_5 
REMARK    3  A    between atoms: C4_6  and  C5_7 
REMARK    4  A    between atoms: C6_8  and  C7_9 
REMARK    5  A    between atoms: C7_9  and  C8_10 
REMARK    6  A    between atoms: C8_10  and  O2_11 
ROOT
HETATM    1  C5  UNL     1      45.059  21.982  51.548  1.00  0.00    -0.014 C 
HETATM    2  C6  UNL     1      44.950  23.109  51.130  1.00  0.00    -0.080 C 
ENDROOT
BRANCH   2   3
HETATM    3  C7  UNL     1      44.803  24.476  50.643  1.00  0.00     0.049 A 
HETATM    4  C9  UNL     1      43.618  25.300  51.097  1.00  0.00     0.031 A 
HETATM    5  C10 UNL     1      45.018  25.616  51.534  1.00  0.00     0.006 A 
HETATM    6  C11 UNL     1      45.360  25.464  52.990  1.00  0.00     0.012 C 
BRANCH   3   7
HETATM    7  C8  UNL     1      45.294  24.668  49.202  1.00  0.00     0.186 C 
BRANCH   7   8
HETATM    8  O2  UNL     1      45.254  23.408  48.605  1.00  0.00    -0.399 OA
ATOM      9  H2  UNL     1      45.455  22.782  49.292  1.00  0.00     0.209 HD
ENDBRANCH   7   8
ENDBRANCH   3   7
ENDBRANCH   2   3
BRANCH   1  10
HETATM   10  C4  UNL     1      45.162  20.661  52.043  1.00  0.00    -0.012 C 
HETATM   11  C3  UNL     1      45.262  19.539  52.481  1.00  0.00    -0.061 C 
BRANCH  11  12
HETATM   12  C2  UNL     1      45.401  18.172  53.032  1.00  0.00     0.193 C 
HETATM   13  C1  UNL     1      45.782  18.365  54.502  1.00  0.00     0.053 C 
BRANCH  12  14
HETATM   14  O1  UNL     1      44.183  17.531  52.981  1.00  0.00    -0.384 OA
ATOM     15  H1  UNL     1      43.556  18.043  53.478  1.00  0.00     0.211 HD
ENDBRANCH  12  14
ENDBRANCH  11  12
ENDBRANCH   1  10
TORSDOF 6
ENDMDL
