MODEL 1
REMARK VINA RESULT: -5.081599683      0.000      0.000
REMARK  0 active torsions:
REMARK  status: ('A' for Active; 'I' for Inactive)
ROOT
HETATM    1  C1  UNL     1      44.928  19.224  52.434  1.00  0.00     0.012 C 
HETATM    2  C2  UNL     1      44.174  19.867  51.281  1.00  0.00     0.013 A 
HETATM    3  C3  UNL     1      44.906  20.316  50.070  1.00  0.00     0.038 A 
HETATM    4  C4  UNL     1      44.394  21.367  51.048  1.00  0.00     0.047 A 
HETATM    5  C5  UNL     1      45.417  22.009  51.880  1.00  0.00     0.052 C 
HETATM    6  C6  UNL     1      45.253  23.436  52.203  1.00  0.00     0.136 C 
HETATM    7  N1  UNL     1      44.833  24.288  51.149  1.00  0.00    -0.303 N 
ATOM      8  H1  UNL     1      45.279  25.183  50.953  1.00  0.00     0.173 HD
HETATM    9  S1  UNL     1      43.519  23.695  50.235  1.00  0.00     0.315 S 
HETATM   10  O1  UNL     1      43.722  23.811  48.772  1.00  0.00    -0.183 OA
HETATM   11  O2  UNL     1      42.295  24.516  50.597  1.00  0.00    -0.183 OA
HETATM   12  N2  UNL     1      43.219  22.092  50.766  1.00  0.00    -0.292 N 
ATOM     13  H2  UNL     1      42.282  21.702  50.869  1.00  0.00     0.174 HD
ENDROOT
TORSDOF 0
ENDMDL
MODEL 2
REMARK VINA RESULT: -4.987434415      3.615      4.542
REMARK  0 active torsions:
REMARK  status: ('A' for Active; 'I' for Inactive)
ROOT
HETATM    1  C1  UNL     1      46.036  23.989  53.135  1.00  0.00     0.012 C 
HETATM    2  C2  UNL     1      45.293  23.090  52.161  1.00  0.00     0.013 A 
HETATM    3  C3  UNL     1      43.934  22.594  52.493  1.00  0.00     0.038 A 
HETATM    4  C4  UNL     1      45.105  21.621  52.564  1.00  0.00     0.047 A 
HETATM    5  C5  UNL     1      45.546  21.259  53.915  1.00  0.00     0.052 C 
HETATM    6  C6  UNL     1      46.010  19.881  54.147  1.00  0.00     0.136 C 
HETATM    7  N1  UNL     1      45.250  18.840  53.553  1.00  0.00    -0.303 N 
ATOM      8  H1  UNL     1      44.969  18.003  54.063  1.00  0.00     0.173 HD
HETATM    9  S1  UNL     1      44.844  19.100  51.915  1.00  0.00     0.315 S 
HETATM   10  O1  UNL     1      43.423  18.817  51.611  1.00  0.00    -0.183 OA
HETATM   11  O2  UNL     1      45.692  18.162  51.074  1.00  0.00    -0.183 OA
HETATM   12  N2  UNL     1      45.331  20.697  51.524  1.00  0.00    -0.292 N 
ATOM     13  H2  UNL     1      45.743  20.954  50.627  1.00  0.00     0.174 HD
ENDROOT
TORSDOF 0
ENDMDL
MODEL 3
REMARK VINA RESULT: -4.885272887      1.598      2.817
REMARK  0 active torsions:
REMARK  status: ('A' for Active; 'I' for Inactive)
ROOT
HETATM    1  C1  UNL     1      46.489  19.303  53.654  1.00  0.00     0.012 C 
HETATM    2  C2  UNL     1      46.391  20.787  53.346  1.00  0.00     0.013 A 
HETATM    3  C3  UNL     1      45.205  21.564  53.789  1.00  0.00     0.038 A 
HETATM    4  C4  UNL     1      45.345  21.222  52.310  1.00  0.00     0.047 A 
HETATM    5  C5  UNL     1      44.449  20.172  51.816  1.00  0.00     0.052 C 
HETATM    6  C6  UNL     1      43.914  20.303  50.450  1.00  0.00     0.136 C 
HETATM    7  N1  UNL     1      43.471  21.593  50.055  1.00  0.00    -0.303 N 
ATOM      8  H1  UNL     1      42.581  21.748  49.583  1.00  0.00     0.173 HD
HETATM    9  S1  UNL     1      44.547  22.862  50.435  1.00  0.00     0.315 S 
HETATM   10  O1  UNL     1      43.880  24.030  51.056  1.00  0.00    -0.183 OA
HETATM   11  O2  UNL     1      45.184  23.331  49.139  1.00  0.00    -0.183 OA
HETATM   12  N2  UNL     1      45.800  22.190  51.393  1.00  0.00    -0.292 N 
ATOM     13  H2  UNL     1      46.779  22.464  51.307  1.00  0.00     0.174 HD
ENDROOT
TORSDOF 0
ENDMDL
MODEL 4
REMARK VINA RESULT: -4.880864899      3.470      4.185
REMARK  0 active torsions:
REMARK  status: ('A' for Active; 'I' for Inactive)
ROOT
HETATM    1  C1  UNL     1      45.776  23.704  53.931  1.00  0.00     0.012 C 
HETATM    2  C2  UNL     1      45.885  22.189  53.966  1.00  0.00     0.013 A 
HETATM    3  C3  UNL     1      46.958  21.501  53.204  1.00  0.00     0.038 A 
HETATM    4  C4  UNL     1      45.527  21.429  52.682  1.00  0.00     0.047 A 
HETATM    5  C5  UNL     1      45.241  22.250  51.502  1.00  0.00     0.052 C 
HETATM    6  C6  UNL     1      44.306  21.718  50.496  1.00  0.00     0.136 C 
HETATM    7  N1  UNL     1      44.444  20.347  50.154  1.00  0.00    -0.303 N 
ATOM      8  H1  UNL     1      44.449  20.019  49.189  1.00  0.00     0.173 HD
HETATM    9  S1  UNL     1      44.603  19.293  51.487  1.00  0.00     0.315 S 
HETATM   10  O1  UNL     1      45.698  18.307  51.329  1.00  0.00    -0.183 OA
HETATM   11  O2  UNL     1      43.303  18.520  51.623  1.00  0.00    -0.183 OA
HETATM   12  N2  UNL     1      44.750  20.271  52.888  1.00  0.00    -0.292 N 
ATOM     13  H2  UNL     1      44.318  20.038  53.782  1.00  0.00     0.174 HD
ENDROOT
TORSDOF 0
ENDMDL
MODEL 5
REMARK VINA RESULT: -4.842241373      1.153      3.069
REMARK  0 active torsions:
REMARK  status: ('A' for Active; 'I' for Inactive)
ROOT
HETATM    1  C1  UNL     1      46.410  22.670  54.237  1.00  0.00     0.012 C 
HETATM    2  C2  UNL     1      45.496  23.644  53.513  1.00  0.00     0.013 A 
HETATM    3  C3  UNL     1      44.025  23.568  53.704  1.00  0.00     0.038 A 
HETATM    4  C4  UNL     1      44.618  23.079  52.388  1.00  0.00     0.047 A 
HETATM    5  C5  UNL     1      44.650  21.624  52.210  1.00  0.00     0.052 C 
HETATM    6  C6  UNL     1      44.414  21.084  50.861  1.00  0.00     0.136 C 
HETATM    7  N1  UNL     1      43.366  21.676  50.108  1.00  0.00    -0.303 N 
ATOM      8  H1  UNL     1      42.671  21.126  49.604  1.00  0.00     0.173 HD
HETATM    9  S1  UNL     1      43.361  23.383  50.114  1.00  0.00     0.315 S 
HETATM   10  O1  UNL     1      42.022  23.965  50.368  1.00  0.00    -0.183 OA
HETATM   11  O2  UNL     1      43.815  23.851  48.743  1.00  0.00    -0.183 OA
HETATM   12  N2  UNL     1      44.558  23.886  51.234  1.00  0.00    -0.292 N 
ATOM     13  H2  UNL     1      45.166  24.690  51.081  1.00  0.00     0.174 HD
ENDROOT
TORSDOF 0
ENDMDL
