MODEL 1
REMARK VINA RESULT: -5.531664241      0.000      0.000
REMARK  1 active torsions:
REMARK  status: ('A' for Active; 'I' for Inactive)
REMARK       I    between atoms: N1_2  and  C2_4 
REMARK       I    between atoms: C2_4  and  N4_15 
REMARK       I    between atoms: N2_5  and  C3_7 
REMARK       I    between atoms: C3_7  and  N3_9 
REMARK    1  A    between atoms: N4_15  and  N5_17 
ROOT
HETATM    1  C1  UNL     1       9.396   3.096  23.079  1.00  0.00     0.165 C 
HETATM    2  N1  UNL     1       8.941   4.457  22.914  1.00  0.00    -0.229 N 
ATOM      3  H1  UNL     1       9.006   4.877  21.986  1.00  0.00     0.177 HD
HETATM    4  C2  UNL     1       8.408   5.246  23.971  1.00  0.00     0.703 C 
HETATM    5  N2  UNL     1       7.209   4.970  24.352  1.00  0.00    -0.140 N 
ATOM      6  H2  UNL     1       6.730   4.210  23.870  1.00  0.00     0.189 HD
HETATM    7  C3  UNL     1       6.508   5.626  25.371  1.00  0.00     0.336 C 
HETATM    8  O1  UNL     1       6.828   5.579  26.587  1.00  0.00    -0.246 OA
HETATM    9  N3  UNL     1       5.359   6.397  25.041  1.00  0.00    -0.334 N 
HETATM   10  C4  UNL     1       4.906   6.513  23.666  1.00  0.00     0.127 C 
HETATM   11  C5  UNL     1       4.276   7.869  23.483  1.00  0.00     0.020 C 
HETATM   12  C6  UNL     1       3.035   7.954  24.330  1.00  0.00     0.003 C 
HETATM   13  C7  UNL     1       3.119   7.082  25.561  1.00  0.00     0.020 C 
HETATM   14  C8  UNL     1       4.573   7.109  26.040  1.00  0.00     0.127 C 
HETATM   15  N4  UNL     1       9.115   6.283  24.598  1.00  0.00    -0.038 N 
ATOM     16  H4  UNL     1       8.917   6.448  25.585  1.00  0.00     0.214 HD
ENDROOT
BRANCH  15  17
HETATM   17  N5  UNL     1      10.055   7.104  24.000  1.00  0.00     0.077 N 
HETATM   18  C9  UNL     1       9.484   7.749  22.810  1.00  0.00     0.318 C 
HETATM   19  C10 UNL     1      11.255   6.450  23.599  1.00  0.00     0.318 C 
HETATM   20 BR1  UNL     1      10.474   8.515  25.205  1.00  0.00     0.193 Br
ENDBRANCH  15  17
TORSDOF 1
ENDMDL
MODEL 2
REMARK VINA RESULT: -5.316453358      3.551      6.814
REMARK  1 active torsions:
REMARK  status: ('A' for Active; 'I' for Inactive)
REMARK       I    between atoms: N1_2  and  C2_4 
REMARK       I    between atoms: C2_4  and  N4_15 
REMARK       I    between atoms: N2_5  and  C3_7 
REMARK       I    between atoms: C3_7  and  N3_9 
REMARK    1  A    between atoms: N4_15  and  N5_17 
ROOT
HETATM    1  C1  UNL     1      10.074   3.622  23.796  1.00  0.00     0.165 C 
HETATM    2  N1  UNL     1      10.014   4.969  24.318  1.00  0.00    -0.229 N 
ATOM      3  H1  UNL     1       9.691   5.099  25.276  1.00  0.00     0.177 HD
HETATM    4  C2  UNL     1      10.382   6.122  23.571  1.00  0.00     0.703 C 
HETATM    5  N2  UNL     1      11.642   6.325  23.399  1.00  0.00    -0.140 N 
ATOM      6  H2  UNL     1      12.283   5.646  23.809  1.00  0.00     0.189 HD
HETATM    7  C3  UNL     1      12.206   7.397  22.697  1.00  0.00     0.336 C 
HETATM    8  O1  UNL     1      12.082   7.567  21.456  1.00  0.00    -0.246 OA
HETATM    9  N3  UNL     1      12.972   8.365  23.403  1.00  0.00    -0.334 N 
HETATM   10  C4  UNL     1      13.175   8.258  24.837  1.00  0.00     0.127 C 
HETATM   11  C5  UNL     1      13.278   9.647  25.412  1.00  0.00     0.020 C 
HETATM   12  C6  UNL     1      14.515  10.311  24.873  1.00  0.00     0.003 C 
HETATM   13  C7  UNL     1      14.894   9.798  23.503  1.00  0.00     0.020 C 
HETATM   14  C8  UNL     1      13.593   9.509  22.749  1.00  0.00     0.127 C 
HETATM   15  N4  UNL     1       9.453   7.024  23.030  1.00  0.00    -0.038 N 
ATOM     16  H4  UNL     1       9.711   7.486  22.157  1.00  0.00     0.214 HD
ENDROOT
BRANCH  15  17
HETATM   17  N5  UNL     1       8.221   7.345  23.571  1.00  0.00     0.077 N 
HETATM   18  C9  UNL     1       7.684   8.553  22.932  1.00  0.00     0.318 C 
HETATM   19  C10 UNL     1       8.223   7.568  24.978  1.00  0.00     0.318 C 
HETATM   20 BR1  UNL     1       6.998   5.949  23.153  1.00  0.00     0.193 Br
ENDBRANCH  15  17
TORSDOF 1
ENDMDL
MODEL 3
REMARK VINA RESULT: -5.214915825      2.564      4.972
REMARK  1 active torsions:
REMARK  status: ('A' for Active; 'I' for Inactive)
REMARK       I    between atoms: N1_2  and  C2_4 
REMARK       I    between atoms: C2_4  and  N4_15 
REMARK       I    between atoms: N2_5  and  C3_7 
REMARK       I    between atoms: C3_7  and  N3_9 
REMARK    1  A    between atoms: N4_15  and  N5_17 
ROOT
HETATM    1  C1  UNL     1       5.695   8.970  23.337  1.00  0.00     0.165 C 
HETATM    2  N1  UNL     1       6.528   8.352  24.343  1.00  0.00    -0.229 N 
ATOM      3  H1  UNL     1       6.273   8.478  25.323  1.00  0.00     0.177 HD
HETATM    4  C2  UNL     1       7.683   7.577  24.046  1.00  0.00     0.703 C 
HETATM    5  N2  UNL     1       7.483   6.389  23.588  1.00  0.00    -0.140 N 
ATOM      6  H2  UNL     1       6.514   6.091  23.474  1.00  0.00     0.189 HD
HETATM    7  C3  UNL     1       8.481   5.473  23.236  1.00  0.00     0.336 C 
HETATM    8  O1  UNL     1       9.273   5.633  22.271  1.00  0.00    -0.246 OA
HETATM    9  N3  UNL     1       8.630   4.280  23.996  1.00  0.00    -0.334 N 
HETATM   10  C4  UNL     1       7.764   4.001  25.128  1.00  0.00     0.127 C 
HETATM   11  C5  UNL     1       8.547   3.213  26.146  1.00  0.00     0.020 C 
HETATM   12  C6  UNL     1       8.903   1.873  25.564  1.00  0.00     0.003 C 
HETATM   13  C7  UNL     1       9.038   1.916  24.060  1.00  0.00     0.020 C 
HETATM   14  C8  UNL     1       9.642   3.275  23.696  1.00  0.00     0.127 C 
HETATM   15  N4  UNL     1       8.995   8.039  24.225  1.00  0.00    -0.038 N 
ATOM     16  H4  UNL     1       9.702   7.691  23.577  1.00  0.00     0.214 HD
ENDROOT
BRANCH  15  17
HETATM   17  N5  UNL     1       9.419   8.923  25.202  1.00  0.00     0.077 N 
HETATM   18  C9  UNL     1      10.876   8.836  25.369  1.00  0.00     0.318 C 
HETATM   19  C10 UNL     1       8.828   8.732  26.483  1.00  0.00     0.318 C 
HETATM   20 BR1  UNL     1       9.070  10.695  24.600  1.00  0.00     0.193 Br
ENDBRANCH  15  17
TORSDOF 1
ENDMDL
MODEL 4
REMARK VINA RESULT: -5.198610670      2.464      4.952
REMARK  1 active torsions:
REMARK  status: ('A' for Active; 'I' for Inactive)
REMARK       I    between atoms: N1_2  and  C2_4 
REMARK       I    between atoms: C2_4  and  N4_15 
REMARK       I    between atoms: N2_5  and  C3_7 
REMARK       I    between atoms: C3_7  and  N3_9 
REMARK    1  A    between atoms: N4_15  and  N5_17 
ROOT
HETATM    1  C1  UNL     1       5.604   8.902  23.333  1.00  0.00     0.165 C 
HETATM    2  N1  UNL     1       6.489   8.320  24.316  1.00  0.00    -0.229 N 
ATOM      3  H1  UNL     1       6.288   8.486  25.302  1.00  0.00     0.177 HD
HETATM    4  C2  UNL     1       7.624   7.530  23.987  1.00  0.00     0.703 C 
HETATM    5  N2  UNL     1       7.397   6.326  23.588  1.00  0.00    -0.140 N 
ATOM      6  H2  UNL     1       6.423   6.027  23.538  1.00  0.00     0.189 HD
HETATM    7  C3  UNL     1       8.373   5.392  23.219  1.00  0.00     0.336 C 
HETATM    8  O1  UNL     1       9.112   5.511  22.207  1.00  0.00    -0.246 OA
HETATM    9  N3  UNL     1       8.562   4.229  24.016  1.00  0.00    -0.334 N 
HETATM   10  C4  UNL     1       7.758   3.999  25.203  1.00  0.00     0.127 C 
HETATM   11  C5  UNL     1       8.594   3.249  26.208  1.00  0.00     0.020 C 
HETATM   12  C6  UNL     1       8.915   1.885  25.661  1.00  0.00     0.003 C 
HETATM   13  C7  UNL     1       8.968   1.869  24.151  1.00  0.00     0.020 C 
HETATM   14  C8  UNL     1       9.553   3.210  23.701  1.00  0.00     0.127 C 
HETATM   15  N4  UNL     1       8.945   7.993  24.076  1.00  0.00    -0.038 N 
ATOM     16  H4  UNL     1       9.615   7.617  23.404  1.00  0.00     0.214 HD
ENDROOT
BRANCH  15  17
HETATM   17  N5  UNL     1       9.423   8.914  24.993  1.00  0.00     0.077 N 
HETATM   18  C9  UNL     1       8.914   8.607  26.335  1.00  0.00     0.318 C 
HETATM   19  C10 UNL     1       9.095  10.270  24.708  1.00  0.00     0.318 C 
HETATM   20 BR1  UNL     1      11.314   8.729  25.100  1.00  0.00     0.193 Br
ENDBRANCH  15  17
TORSDOF 1
ENDMDL
MODEL 5
REMARK VINA RESULT: -5.175050784      2.678      5.244
REMARK  1 active torsions:
REMARK  status: ('A' for Active; 'I' for Inactive)
REMARK       I    between atoms: N1_2  and  C2_4 
REMARK       I    between atoms: C2_4  and  N4_15 
REMARK       I    between atoms: N2_5  and  C3_7 
REMARK       I    between atoms: C3_7  and  N3_9 
REMARK    1  A    between atoms: N4_15  and  N5_17 
ROOT
HETATM    1  C1  UNL     1       3.331   8.286  23.434  1.00  0.00     0.165 C 
HETATM    2  N1  UNL     1       4.425   8.023  24.342  1.00  0.00    -0.229 N 
ATOM      3  H1  UNL     1       4.231   8.031  25.343  1.00  0.00     0.177 HD
HETATM    4  C2  UNL     1       5.755   7.754  23.918  1.00  0.00     0.703 C 
HETATM    5  N2  UNL     1       5.982   6.585  23.426  1.00  0.00    -0.140 N 
ATOM      6  H2  UNL     1       5.194   5.940  23.375  1.00  0.00     0.189 HD
HETATM    7  C3  UNL     1       7.218   6.126  22.954  1.00  0.00     0.336 C 
HETATM    8  O1  UNL     1       7.798   6.589  21.937  1.00  0.00    -0.246 OA
HETATM    9  N3  UNL     1       7.880   5.074  23.645  1.00  0.00    -0.334 N 
HETATM   10  C4  UNL     1       7.293   4.472  24.829  1.00  0.00     0.127 C 
HETATM   11  C5  UNL     1       8.406   4.034  25.745  1.00  0.00     0.020 C 
HETATM   12  C6  UNL     1       9.191   2.939  25.077  1.00  0.00     0.003 C 
HETATM   13  C7  UNL     1       9.162   3.047  23.570  1.00  0.00     0.020 C 
HETATM   14  C8  UNL     1       9.166   4.538  23.220  1.00  0.00     0.127 C 
HETATM   15  N4  UNL     1       6.803   8.682  24.013  1.00  0.00    -0.038 N 
ATOM     16  H4  UNL     1       7.526   8.639  23.295  1.00  0.00     0.214 HD
ENDROOT
BRANCH  15  17
HETATM   17  N5  UNL     1       6.944   9.651  24.991  1.00  0.00     0.077 N 
HETATM   18  C9  UNL     1       8.322  10.158  25.009  1.00  0.00     0.318 C 
HETATM   19  C10 UNL     1       6.628   9.222  26.311  1.00  0.00     0.318 C 
HETATM   20 BR1  UNL     1       5.850  11.137  24.528  1.00  0.00     0.193 Br
ENDBRANCH  15  17
TORSDOF 1
ENDMDL
