MODEL 1
REMARK VINA RESULT: -5.558469936      0.000      0.000
REMARK  2 active torsions:
REMARK  status: ('A' for Active; 'I' for Inactive)
REMARK       I    between atoms: C2_2  and  N1_4 
REMARK       I    between atoms: C3_6  and  N2_7 
REMARK       I    between atoms: C3_6  and  N3_13 
REMARK    1  A    between atoms: N2_7  and  C4_9 
REMARK    2  A    between atoms: C9_16  and  N4_17 
ROOT
HETATM    1  C1  UNL     1       9.574   3.875  23.948  1.00  0.00     0.118 C 
HETATM    2  C2  UNL     1       8.167   3.867  24.451  1.00  0.00     0.231 C 
HETATM    3  O1  UNL     1       7.850   2.922  25.208  1.00  0.00    -0.273 OA
HETATM    4  N1  UNL     1       7.311   4.902  24.050  1.00  0.00    -0.160 N 
ATOM      5  H1  UNL     1       7.340   5.189  23.072  1.00  0.00     0.187 HD
HETATM    6  C3  UNL     1       6.495   5.512  24.826  1.00  0.00     0.680 C 
HETATM    7  N2  UNL     1       6.431   5.135  26.194  1.00  0.00    -0.204 N 
ATOM      8  H2  UNL     1       5.907   4.295  26.440  1.00  0.00     0.179 HD
HETATM    9  N3  UNL     1       5.640   6.552  24.396  1.00  0.00    -0.216 N 
HETATM   10  C7  UNL     1       4.186   6.478  24.605  1.00  0.00     0.143 C 
HETATM   11  C8  UNL     1       3.649   7.709  23.864  1.00  0.00     0.055 C 
HETATM   12  C9  UNL     1       4.809   8.660  24.074  1.00  0.00     0.210 C 
HETATM   13  C14 UNL     1       5.978   7.799  23.720  1.00  0.00     0.174 C 
ENDROOT
BRANCH   7  14
HETATM   14  C4  UNL     1       7.068   5.874  27.251  1.00  0.00     0.117 C 
HETATM   15  C5  UNL     1       7.790   4.983  28.240  1.00  0.00     0.056 C 
HETATM   16  C6  UNL     1       5.961   6.573  28.051  1.00  0.00     0.056 C 
HETATM   17 CL1  UNL     1       8.168   7.123  26.687  1.00  0.00    -0.096 Cl
ENDBRANCH   7  14
BRANCH  12  18
HETATM   18  N4  UNL     1       4.695   9.855  23.299  1.00  0.00    -0.065 N 
HETATM   19  C10 UNL     1       5.886  10.296  22.621  1.00  0.00     0.273 C 
HETATM   20  C11 UNL     1       3.960  10.872  24.012  1.00  0.00     0.239 C 
HETATM   21  C12 UNL     1       3.090  11.137  22.779  1.00  0.00     0.056 C 
HETATM   22  C13 UNL     1       3.574   9.764  22.376  1.00  0.00     0.239 C 
ENDBRANCH  12  18
TORSDOF 2
ENDMDL
MODEL 2
REMARK VINA RESULT: -5.487222365      0.738      1.004
REMARK  2 active torsions:
REMARK  status: ('A' for Active; 'I' for Inactive)
REMARK       I    between atoms: C2_2  and  N1_4 
REMARK       I    between atoms: C3_6  and  N2_7 
REMARK       I    between atoms: C3_6  and  N3_13 
REMARK    1  A    between atoms: N2_7  and  C4_9 
REMARK    2  A    between atoms: C9_16  and  N4_17 
ROOT
HETATM    1  C1  UNL     1       9.489   4.051  23.917  1.00  0.00     0.118 C 
HETATM    2  C2  UNL     1       8.087   4.010  24.431  1.00  0.00     0.231 C 
HETATM    3  O1  UNL     1       7.797   3.057  25.189  1.00  0.00    -0.273 OA
HETATM    4  N1  UNL     1       7.203   5.024  24.038  1.00  0.00    -0.160 N 
ATOM      5  H1  UNL     1       7.218   5.313  23.060  1.00  0.00     0.187 HD
HETATM    6  C3  UNL     1       6.379   5.614  24.820  1.00  0.00     0.680 C 
HETATM    7  N2  UNL     1       6.335   5.235  26.188  1.00  0.00    -0.204 N 
ATOM      8  H2  UNL     1       5.832   4.383  26.437  1.00  0.00     0.179 HD
HETATM    9  N3  UNL     1       5.496   6.635  24.397  1.00  0.00    -0.216 N 
HETATM   10  C7  UNL     1       4.046   6.526  24.618  1.00  0.00     0.143 C 
HETATM   11  C8  UNL     1       3.475   7.746  23.882  1.00  0.00     0.055 C 
HETATM   12  C9  UNL     1       4.614   8.722  24.084  1.00  0.00     0.210 C 
HETATM   13  C14 UNL     1       5.801   7.890  23.720  1.00  0.00     0.174 C 
ENDROOT
BRANCH   7  14
HETATM   14  C4  UNL     1       6.962   5.989  27.240  1.00  0.00     0.117 C 
HETATM   15  C5  UNL     1       8.040   6.923  26.732  1.00  0.00     0.056 C 
HETATM   16  C6  UNL     1       7.678   4.987  28.157  1.00  0.00     0.056 C 
HETATM   17 CL1  UNL     1       5.836   6.894  28.241  1.00  0.00    -0.096 Cl
ENDBRANCH   7  14
BRANCH  12  18
HETATM   18  N4  UNL     1       4.466   9.916  23.311  1.00  0.00    -0.065 N 
HETATM   19  C10 UNL     1       5.650  10.404  22.653  1.00  0.00     0.273 C 
HETATM   20  C11 UNL     1       3.682  10.901  24.016  1.00  0.00     0.239 C 
HETATM   21  C12 UNL     1       2.821  11.137  22.770  1.00  0.00     0.056 C 
HETATM   22  C13 UNL     1       3.364   9.785  22.371  1.00  0.00     0.239 C 
ENDBRANCH  12  18
TORSDOF 2
ENDMDL
MODEL 3
REMARK VINA RESULT: -5.450146522      3.064      5.592
REMARK  2 active torsions:
REMARK  status: ('A' for Active; 'I' for Inactive)
REMARK       I    between atoms: C2_2  and  N1_4 
REMARK       I    between atoms: C3_6  and  N2_7 
REMARK       I    between atoms: C3_6  and  N3_13 
REMARK    1  A    between atoms: N2_7  and  C4_9 
REMARK    2  A    between atoms: C9_16  and  N4_17 
ROOT
HETATM    1  C1  UNL     1       6.199   7.011  29.741  1.00  0.00     0.118 C 
HETATM    2  C2  UNL     1       6.349   5.987  28.663  1.00  0.00     0.231 C 
HETATM    3  O1  UNL     1       5.512   5.056  28.655  1.00  0.00    -0.273 OA
HETATM    4  N1  UNL     1       7.399   6.135  27.746  1.00  0.00    -0.160 N 
ATOM      5  H1  UNL     1       8.312   6.408  28.111  1.00  0.00     0.187 HD
HETATM    6  C3  UNL     1       7.294   5.950  26.484  1.00  0.00     0.680 C 
HETATM    7  N2  UNL     1       6.036   5.569  25.945  1.00  0.00    -0.204 N 
ATOM      8  H2  UNL     1       5.751   4.593  26.027  1.00  0.00     0.179 HD
HETATM    9  N3  UNL     1       8.370   6.105  25.580  1.00  0.00    -0.216 N 
HETATM   10  C7  UNL     1       8.765   5.015  24.674  1.00  0.00     0.143 C 
HETATM   11  C8  UNL     1      10.040   5.545  24.003  1.00  0.00     0.055 C 
HETATM   12  C9  UNL     1       9.718   7.024  23.976  1.00  0.00     0.210 C 
HETATM   13  C14 UNL     1       9.236   7.260  25.371  1.00  0.00     0.174 C 
ENDROOT
BRANCH   7  14
HETATM   14  C4  UNL     1       5.142   6.488  25.291  1.00  0.00     0.117 C 
HETATM   15  C5  UNL     1       3.684   6.198  25.583  1.00  0.00     0.056 C 
HETATM   16  C6  UNL     1       5.311   6.291  23.778  1.00  0.00     0.056 C 
HETATM   17 CL1  UNL     1       5.477   8.178  25.635  1.00  0.00    -0.096 Cl
ENDBRANCH   7  14
BRANCH  12  18
HETATM   18  N4  UNL     1      10.835   7.829  23.591  1.00  0.00    -0.065 N 
HETATM   19  C10 UNL     1      10.572   8.878  22.640  1.00  0.00     0.273 C 
HETATM   20  C11 UNL     1      11.999   7.016  23.330  1.00  0.00     0.239 C 
HETATM   21  C12 UNL     1      12.862   7.939  24.197  1.00  0.00     0.056 C 
HETATM   22  C13 UNL     1      11.522   8.348  24.763  1.00  0.00     0.239 C 
ENDBRANCH  12  18
TORSDOF 2
ENDMDL
MODEL 4
REMARK VINA RESULT: -5.338911415      2.946      5.971
REMARK  2 active torsions:
REMARK  status: ('A' for Active; 'I' for Inactive)
REMARK       I    between atoms: C2_2  and  N1_4 
REMARK       I    between atoms: C3_6  and  N2_7 
REMARK       I    between atoms: C3_6  and  N3_13 
REMARK    1  A    between atoms: N2_7  and  C4_9 
REMARK    2  A    between atoms: C9_16  and  N4_17 
ROOT
HETATM    1  C1  UNL     1       2.604   8.863  21.850  1.00  0.00     0.118 C 
HETATM    2  C2  UNL     1       3.350   9.249  23.086  1.00  0.00     0.231 C 
HETATM    3  O1  UNL     1       2.748   9.996  23.891  1.00  0.00    -0.273 OA
HETATM    4  N1  UNL     1       4.651   8.758  23.260  1.00  0.00    -0.160 N 
ATOM      5  H1  UNL     1       5.271   8.764  22.451  1.00  0.00     0.187 HD
HETATM    6  C3  UNL     1       5.115   8.304  24.363  1.00  0.00     0.680 C 
HETATM    7  N2  UNL     1       4.275   8.282  25.508  1.00  0.00    -0.204 N 
ATOM      8  H2  UNL     1       4.137   9.152  26.022  1.00  0.00     0.179 HD
HETATM    9  N3  UNL     1       6.433   7.815  24.512  1.00  0.00    -0.216 N 
HETATM   10  C7  UNL     1       7.335   8.359  25.539  1.00  0.00     0.143 C 
HETATM   11  C8  UNL     1       8.674   7.669  25.248  1.00  0.00     0.055 C 
HETATM   12  C9  UNL     1       8.169   6.340  24.727  1.00  0.00     0.210 C 
HETATM   13  C14 UNL     1       7.116   6.770  23.758  1.00  0.00     0.174 C 
ENDROOT
BRANCH   7  14
HETATM   14  C4  UNL     1       3.608   7.098  25.981  1.00  0.00     0.117 C 
HETATM   15  C5  UNL     1       2.148   7.336  26.305  1.00  0.00     0.056 C 
HETATM   16  C6  UNL     1       4.269   6.699  27.307  1.00  0.00     0.056 C 
HETATM   17 CL1  UNL     1       3.744   5.721  24.898  1.00  0.00    -0.096 Cl
ENDBRANCH   7  14
BRANCH  12  18
HETATM   18  N4  UNL     1       9.206   5.536  24.159  1.00  0.00    -0.065 N 
HETATM   19  C10 UNL     1      10.492   6.164  24.002  1.00  0.00     0.273 C 
HETATM   20  C11 UNL     1       8.724   4.787  23.023  1.00  0.00     0.239 C 
HETATM   21  C12 UNL     1       9.354   3.504  23.575  1.00  0.00     0.056 C 
HETATM   22  C13 UNL     1       9.326   4.275  24.875  1.00  0.00     0.239 C 
ENDBRANCH  12  18
TORSDOF 2
ENDMDL
MODEL 5
REMARK VINA RESULT: -5.164756434      2.865      5.772
REMARK  2 active torsions:
REMARK  status: ('A' for Active; 'I' for Inactive)
REMARK       I    between atoms: C2_2  and  N1_4 
REMARK       I    between atoms: C3_6  and  N2_7 
REMARK       I    between atoms: C3_6  and  N3_13 
REMARK    1  A    between atoms: N2_7  and  C4_9 
REMARK    2  A    between atoms: C9_16  and  N4_17 
ROOT
HETATM    1  C1  UNL     1       2.787   5.632  28.584  1.00  0.00     0.118 C 
HETATM    2  C2  UNL     1       2.915   6.231  27.221  1.00  0.00     0.231 C 
HETATM    3  O1  UNL     1       2.029   7.050  26.884  1.00  0.00    -0.273 OA
HETATM    4  N1  UNL     1       4.000   5.844  26.423  1.00  0.00    -0.160 N 
ATOM      5  H1  UNL     1       4.245   4.855  26.404  1.00  0.00     0.187 HD
HETATM    6  C3  UNL     1       4.705   6.646  25.716  1.00  0.00     0.680 C 
HETATM    7  N2  UNL     1       4.388   8.031  25.722  1.00  0.00    -0.204 N 
ATOM      8  H2  UNL     1       3.605   8.349  25.151  1.00  0.00     0.179 HD
HETATM    9  N3  UNL     1       5.795   6.230  24.918  1.00  0.00    -0.216 N 
HETATM   10  C7  UNL     1       5.850   6.542  23.482  1.00  0.00     0.143 C 
HETATM   11  C8  UNL     1       7.092   5.785  22.993  1.00  0.00     0.055 C 
HETATM   12  C9  UNL     1       7.950   5.872  24.237  1.00  0.00     0.210 C 
HETATM   13  C14 UNL     1       6.983   5.477  25.306  1.00  0.00     0.174 C 
ENDROOT
BRANCH   7  14
HETATM   14  C4  UNL     1       5.114   9.007  26.490  1.00  0.00     0.117 C 
HETATM   15  C5  UNL     1       4.212  10.055  27.110  1.00  0.00     0.056 C 
HETATM   16  C6  UNL     1       6.028   9.766  25.519  1.00  0.00     0.056 C 
HETATM   17 CL1  UNL     1       6.140   8.316  27.737  1.00  0.00    -0.096 Cl
ENDBRANCH   7  14
BRANCH  12  18
HETATM   18  N4  UNL     1       9.120   5.054  24.163  1.00  0.00    -0.065 N 
HETATM   19  C10 UNL     1      10.378   5.743  24.038  1.00  0.00     0.273 C 
HETATM   20  C11 UNL     1       8.920   3.934  23.274  1.00  0.00     0.239 C 
HETATM   21  C12 UNL     1       9.486   2.972  24.324  1.00  0.00     0.056 C 
HETATM   22  C13 UNL     1       9.153   4.105  25.266  1.00  0.00     0.239 C 
ENDBRANCH  12  18
TORSDOF 2
ENDMDL
