MODEL 1
REMARK VINA RESULT: -5.605156204      0.000      0.000
REMARK  2 active torsions:
REMARK  status: ('A' for Active; 'I' for Inactive)
REMARK    1  A    between atoms: C3_3  and  N1_4 
REMARK    2  A    between atoms: C10_11  and  O1_12 
ROOT
HETATM    1  C1  UNL     1       9.291   1.340  23.707  1.00  0.00     0.013 C 
HETATM    2  C2  UNL     1       9.619   2.489  23.884  1.00  0.00    -0.089 C 
HETATM    3  C3  UNL     1      10.041   3.904  24.082  1.00  0.00     0.331 C 
ENDROOT
BRANCH   3   4
HETATM    4  N1  UNL     1       8.982   4.565  24.633  1.00  0.00    -0.040 N 
HETATM    5  C4  UNL     1       8.575   3.714  25.748  1.00  0.00     0.241 C 
HETATM    6  C5  UNL     1       7.802   4.900  26.243  1.00  0.00     0.041 C 
HETATM    7  C6  UNL     1       7.788   6.013  25.248  1.00  0.00     0.015 A 
HETATM    8  C7  UNL     1       6.829   6.619  25.121  1.00  0.00     0.007 A 
HETATM    9  C11 UNL     1       8.418   6.488  23.841  1.00  0.00     0.058 C 
HETATM   10  C14 UNL     1       8.324   6.879  25.679  1.00  0.00     0.040 A 
HETATM   11  C13 UNL     1       9.444   5.836  25.244  1.00  0.00     0.147 A 
HETATM   12  C8  UNL     1       6.538   5.357  24.249  1.00  0.00     0.042 C 
HETATM   13  C9  UNL     1       7.787   4.558  23.790  1.00  0.00     0.223 C 
HETATM   14  C10 UNL     1       8.266   5.533  22.742  1.00  0.00     0.169 C 
HETATM   15 BR1  UNL     1       7.860   8.217  23.366  1.00  0.00    -0.082 Br
HETATM   16  C12 UNL     1       9.923   6.625  24.137  1.00  0.00     0.065 C 
BRANCH  14  17
HETATM   17  O1  UNL     1       7.285   5.888  21.832  1.00  0.00    -0.392 OA
ATOM     18  H1  UNL     1       6.684   6.544  22.164  1.00  0.00     0.210 HD
ENDBRANCH  14  17
ENDBRANCH   3   4
TORSDOF 2
ENDMDL
MODEL 2
REMARK VINA RESULT: -5.160078433      1.181      1.256
REMARK  2 active torsions:
REMARK  status: ('A' for Active; 'I' for Inactive)
REMARK    1  A    between atoms: C3_3  and  N1_4 
REMARK    2  A    between atoms: C10_11  and  O1_12 
ROOT
HETATM    1  C1  UNL     1       9.055   1.949  24.821  1.00  0.00     0.013 C 
HETATM    2  C2  UNL     1       8.974   2.950  24.149  1.00  0.00    -0.089 C 
HETATM    3  C3  UNL     1       8.876   4.168  23.298  1.00  0.00     0.331 C 
ENDROOT
BRANCH   3   4
HETATM    4  N1  UNL     1       8.208   5.111  24.024  1.00  0.00    -0.040 N 
HETATM    5  C4  UNL     1       7.274   4.337  24.837  1.00  0.00     0.241 C 
HETATM    6  C5  UNL     1       7.117   5.578  25.664  1.00  0.00     0.041 C 
HETATM    7  C6  UNL     1       7.801   6.752  25.045  1.00  0.00     0.015 A 
HETATM    8  C7  UNL     1       7.294   7.773  25.106  1.00  0.00     0.007 A 
HETATM    9  C11 UNL     1       8.786   7.180  23.841  1.00  0.00     0.058 C 
HETATM   10  C14 UNL     1       8.620   7.076  25.713  1.00  0.00     0.040 A 
HETATM   11  C13 UNL     1       9.136   5.759  24.984  1.00  0.00     0.147 A 
HETATM   12  C8  UNL     1       6.556   7.113  23.899  1.00  0.00     0.042 C 
HETATM   13  C9  UNL     1       7.306   5.935  23.220  1.00  0.00     0.223 C 
HETATM   14  C10 UNL     1       8.353   6.757  22.508  1.00  0.00     0.169 C 
HETATM   15 BR1  UNL     1       9.226   9.004  23.903  1.00  0.00    -0.082 Br
HETATM   16  C12 UNL     1      10.100   6.444  24.160  1.00  0.00     0.065 C 
BRANCH  14  17
HETATM   17  O1  UNL     1       7.820   7.784  21.747  1.00  0.00    -0.392 OA
ATOM     18  H1  UNL     1       8.447   8.472  21.553  1.00  0.00     0.210 HD
ENDBRANCH  14  17
ENDBRANCH   3   4
TORSDOF 2
ENDMDL
MODEL 3
REMARK VINA RESULT: -5.001173439      1.595      2.725
REMARK  2 active torsions:
REMARK  status: ('A' for Active; 'I' for Inactive)
REMARK    1  A    between atoms: C3_3  and  N1_4 
REMARK    2  A    between atoms: C10_11  and  O1_12 
ROOT
HETATM    1  C1  UNL     1       9.534   2.402  22.956  1.00  0.00     0.013 C 
HETATM    2  C2  UNL     1       8.907   3.159  23.658  1.00  0.00    -0.089 C 
HETATM    3  C3  UNL     1       8.131   4.072  24.541  1.00  0.00     0.331 C 
ENDROOT
BRANCH   3   4
HETATM    4  N1  UNL     1       8.583   5.338  24.306  1.00  0.00    -0.040 N 
HETATM    5  C4  UNL     1      10.030   5.180  24.184  1.00  0.00     0.241 C 
HETATM    6  C5  UNL     1      10.029   6.548  23.570  1.00  0.00     0.041 C 
HETATM    7  C6  UNL     1       8.692   7.204  23.668  1.00  0.00     0.015 A 
HETATM    8  C7  UNL     1       8.649   8.324  23.887  1.00  0.00     0.007 A 
HETATM    9  C11 UNL     1       7.158   6.940  24.090  1.00  0.00     0.058 C 
HETATM   10  C14 UNL     1       8.294   7.350  22.647  1.00  0.00     0.040 A 
HETATM   11  C13 UNL     1       8.115   5.803  22.977  1.00  0.00     0.147 A 
HETATM   12  C8  UNL     1       8.855   7.719  25.311  1.00  0.00     0.042 C 
HETATM   13  C9  UNL     1       8.468   6.223  25.466  1.00  0.00     0.223 C 
HETATM   14  C10 UNL     1       6.971   6.406  25.440  1.00  0.00     0.169 C 
HETATM   15 BR1  UNL     1       6.066   8.431  23.754  1.00  0.00    -0.082 Br
HETATM   16  C12 UNL     1       6.680   5.868  23.093  1.00  0.00     0.065 C 
BRANCH  14  17
HETATM   17  O1  UNL     1       6.517   7.347  26.349  1.00  0.00    -0.392 OA
ATOM     18  H1  UNL     1       5.731   7.797  26.064  1.00  0.00     0.210 HD
ENDBRANCH  14  17
ENDBRANCH   3   4
TORSDOF 2
ENDMDL
MODEL 4
REMARK VINA RESULT: -4.986950510      1.511      2.375
REMARK  2 active torsions:
REMARK  status: ('A' for Active; 'I' for Inactive)
REMARK    1  A    between atoms: C3_3  and  N1_4 
REMARK    2  A    between atoms: C10_11  and  O1_12 
ROOT
HETATM    1  C1  UNL     1       8.900   1.961  25.418  1.00  0.00     0.013 C 
HETATM    2  C2  UNL     1       8.749   2.763  24.528  1.00  0.00    -0.089 C 
HETATM    3  C3  UNL     1       8.545   3.736  23.419  1.00  0.00     0.331 C 
ENDROOT
BRANCH   3   4
HETATM    4  N1  UNL     1       8.778   4.980  23.928  1.00  0.00    -0.040 N 
HETATM    5  C4  UNL     1      10.206   4.976  24.234  1.00  0.00     0.241 C 
HETATM    6  C5  UNL     1      10.093   6.469  24.321  1.00  0.00     0.041 C 
HETATM    7  C6  UNL     1       8.673   6.926  24.250  1.00  0.00     0.015 A 
HETATM    8  C7  UNL     1       8.348   7.799  24.910  1.00  0.00     0.007 A 
HETATM    9  C11 UNL     1       7.168   6.413  23.979  1.00  0.00     0.058 C 
HETATM   10  C14 UNL     1       8.541   7.523  23.329  1.00  0.00     0.040 A 
HETATM   11  C13 UNL     1       8.597   6.001  22.867  1.00  0.00     0.147 A 
HETATM   12  C8  UNL     1       8.285   6.596  25.902  1.00  0.00     0.042 C 
HETATM   13  C9  UNL     1       8.182   5.192  25.247  1.00  0.00     0.223 C 
HETATM   14  C10 UNL     1       6.740   5.287  24.811  1.00  0.00     0.169 C 
HETATM   15 BR1  UNL     1       5.928   7.822  23.993  1.00  0.00    -0.082 Br
HETATM   16  C12 UNL     1       7.200   5.928  22.518  1.00  0.00     0.065 C 
BRANCH  14  17
HETATM   17  O1  UNL     1       5.881   5.650  25.834  1.00  0.00    -0.392 OA
ATOM     18  H1  UNL     1       5.031   5.229  25.778  1.00  0.00     0.210 HD
ENDBRANCH  14  17
ENDBRANCH   3   4
TORSDOF 2
ENDMDL
MODEL 5
REMARK VINA RESULT: -4.946865342      1.395      2.111
REMARK  2 active torsions:
REMARK  status: ('A' for Active; 'I' for Inactive)
REMARK    1  A    between atoms: C3_3  and  N1_4 
REMARK    2  A    between atoms: C10_11  and  O1_12 
ROOT
HETATM    1  C1  UNL     1       8.912   2.200  24.512  1.00  0.00     0.013 C 
HETATM    2  C2  UNL     1       8.853   3.302  25.002  1.00  0.00    -0.089 C 
HETATM    3  C3  UNL     1       8.804   4.656  25.619  1.00  0.00     0.331 C 
ENDROOT
BRANCH   3   4
HETATM    4  N1  UNL     1       8.124   5.466  24.757  1.00  0.00    -0.040 N 
HETATM    5  C4  UNL     1       6.862   4.766  24.534  1.00  0.00     0.241 C 
HETATM    6  C5  UNL     1       6.353   6.063  23.978  1.00  0.00     0.041 C 
HETATM    7  C6  UNL     1       7.442   7.075  23.836  1.00  0.00     0.015 A 
HETATM    8  C7  UNL     1       7.435   7.757  22.921  1.00  0.00     0.007 A 
HETATM    9  C11 UNL     1       8.992   7.354  24.183  1.00  0.00     0.058 C 
HETATM   10  C14 UNL     1       7.228   7.920  24.516  1.00  0.00     0.040 A 
HETATM   11  C13 UNL     1       7.766   6.737  25.434  1.00  0.00     0.147 A 
HETATM   12  C8  UNL     1       8.083   6.455  22.354  1.00  0.00     0.042 C 
HETATM   13  C9  UNL     1       8.698   5.499  23.412  1.00  0.00     0.223 C 
HETATM   14  C10 UNL     1       9.923   6.321  23.728  1.00  0.00     0.169 C 
HETATM   15 BR1  UNL     1       9.531   9.078  23.670  1.00  0.00    -0.082 Br
HETATM   16  C12 UNL     1       9.028   7.370  25.723  1.00  0.00     0.065 C 
BRANCH  14  17
HETATM   17  O1  UNL     1      10.645   6.684  22.604  1.00  0.00    -0.392 OA
ATOM     18  H1  UNL     1      11.523   6.320  22.586  1.00  0.00     0.210 HD
ENDBRANCH  14  17
ENDBRANCH   3   4
TORSDOF 2
ENDMDL
