MODEL 1
REMARK VINA RESULT: -5.302116573      0.000      0.000
REMARK  3 active torsions:
REMARK  status: ('A' for Active; 'I' for Inactive)
REMARK    1  A    between atoms: C4_6  and  N2_7 
REMARK    2  A    between atoms: N2_7  and  N3_8 
REMARK    3  A    between atoms: C6_12  and  C7_13 
ROOT
HETATM    1  C1  UNL     1       9.908   7.222  23.281  1.00  0.00     0.041 C 
HETATM    2  C2  UNL     1       9.132   5.977  23.752  1.00  0.00     0.050 C 
HETATM    3  C3  UNL     1       8.119   5.731  22.624  1.00  0.00     0.041 C 
HETATM    4  N1  UNL     1      10.075   4.909  23.690  1.00  0.00    -0.356 N 
ATOM      5  H1  UNL     1      11.089   5.007  23.629  1.00  0.00     0.162 HD
HETATM    6  C4  UNL     1       9.351   3.684  23.727  1.00  0.00     0.177 C 
HETATM    7  C5  UNL     1       8.448   3.271  24.834  1.00  0.00     0.119 C 
HETATM    8  C6  UNL     1       8.705   4.080  26.079  1.00  0.00     0.095 C 
HETATM    9  N4  UNL     1       8.364   5.411  26.054  1.00  0.00    -0.405 N 
ATOM     10  H4  UNL     1       7.982   5.794  26.919  1.00  0.00     0.154 HD
HETATM   11  C8  UNL     1       8.477   6.283  25.007  1.00  0.00     0.050 C 
HETATM   12  C9  UNL     1       7.023   6.707  24.671  1.00  0.00     0.033 C 
HETATM   13  C10 UNL     1       6.621   7.257  26.047  1.00  0.00     0.002 C 
HETATM   14  C11 UNL     1       7.813   7.987  26.574  1.00  0.00     0.002 C 
HETATM   15  C12 UNL     1       8.922   7.651  25.566  1.00  0.00     0.033 C 
ENDROOT
BRANCH   6  16
HETATM   16  N2  UNL     1       9.499   2.915  22.755  1.00  0.00    -0.319 NA
BRANCH  16  17
HETATM   17  N3  UNL     1       9.862   2.439  21.663  1.00  0.00    -0.279 N 
ATOM     18  H32 UNL     1      10.857   2.599  21.819  1.00  0.00     0.191 HD
ATOM     19  H31 UNL     1       9.849   2.008  20.738  1.00  0.00     0.191 HD
ENDBRANCH  16  17
ENDBRANCH   6  16
BRANCH   8  20
HETATM   20  C7  UNL     1       7.914   3.384  27.200  1.00  0.00     0.110 C 
HETATM   21 BR1  UNL     1       7.587   4.596  28.660  1.00  0.00    -0.094 Br
ENDBRANCH   8  20
TORSDOF 3
ENDMDL
MODEL 2
REMARK VINA RESULT: -5.293282126      2.337      2.855
REMARK  3 active torsions:
REMARK  status: ('A' for Active; 'I' for Inactive)
REMARK    1  A    between atoms: C4_6  and  N2_7 
REMARK    2  A    between atoms: N2_7  and  N3_8 
REMARK    3  A    between atoms: C6_12  and  C7_13 
ROOT
HETATM    1  C1  UNL     1       8.234   8.762  24.924  1.00  0.00     0.041 C 
HETATM    2  C2  UNL     1       8.522   7.350  24.375  1.00  0.00     0.050 C 
HETATM    3  C3  UNL     1       8.558   7.553  22.853  1.00  0.00     0.041 C 
HETATM    4  N1  UNL     1       9.860   7.065  24.778  1.00  0.00    -0.356 N 
ATOM      5  H1  UNL     1      10.387   7.556  25.501  1.00  0.00     0.162 HD
HETATM    6  C4  UNL     1      10.329   5.974  23.993  1.00  0.00     0.177 C 
HETATM    7  C5  UNL     1       9.695   4.630  23.952  1.00  0.00     0.119 C 
HETATM    8  C6  UNL     1       8.775   4.424  25.128  1.00  0.00     0.095 C 
HETATM    9  N4  UNL     1       7.620   5.168  25.169  1.00  0.00    -0.405 N 
ATOM     10  H4  UNL     1       6.794   4.696  25.535  1.00  0.00     0.154 HD
HETATM   11  C8  UNL     1       7.447   6.466  24.777  1.00  0.00     0.050 C 
HETATM   12  C9  UNL     1       6.442   6.407  23.597  1.00  0.00     0.033 C 
HETATM   13  C10 UNL     1       5.287   5.695  24.317  1.00  0.00     0.002 C 
HETATM   14  C11 UNL     1       5.230   6.272  25.694  1.00  0.00     0.002 C 
HETATM   15  C12 UNL     1       6.488   7.147  25.776  1.00  0.00     0.033 C 
ENDROOT
BRANCH   6  16
HETATM   16  N2  UNL     1      11.345   6.179  23.298  1.00  0.00    -0.319 NA
BRANCH  16  17
HETATM   17  N3  UNL     1      12.315   6.735  22.749  1.00  0.00    -0.279 N 
ATOM     18  H32 UNL     1      12.002   6.550  21.796  1.00  0.00     0.191 HD
ATOM     19  H31 UNL     1      13.190   7.238  22.600  1.00  0.00     0.191 HD
ENDBRANCH  16  17
ENDBRANCH   6  16
BRANCH   8  20
HETATM   20  C7  UNL     1       8.405   2.931  25.113  1.00  0.00     0.110 C 
HETATM   21 BR1  UNL     1       9.338   2.010  23.702  1.00  0.00    -0.094 Br
ENDBRANCH   8  20
TORSDOF 3
ENDMDL
MODEL 3
REMARK VINA RESULT: -5.264213853      2.234      4.442
REMARK  3 active torsions:
REMARK  status: ('A' for Active; 'I' for Inactive)
REMARK    1  A    between atoms: C4_6  and  N2_7 
REMARK    2  A    between atoms: N2_7  and  N3_8 
REMARK    3  A    between atoms: C6_12  and  C7_13 
ROOT
HETATM    1  C1  UNL     1       5.741   7.051  25.806  1.00  0.00     0.041 C 
HETATM    2  C2  UNL     1       6.892   6.095  26.178  1.00  0.00     0.050 C 
HETATM    3  C3  UNL     1       7.827   6.966  27.031  1.00  0.00     0.041 C 
HETATM    4  N1  UNL     1       6.307   5.142  27.062  1.00  0.00    -0.356 N 
ATOM      5  H1  UNL     1       5.309   4.968  27.182  1.00  0.00     0.162 HD
HETATM    6  C4  UNL     1       7.363   4.476  27.747  1.00  0.00     0.177 C 
HETATM    7  C5  UNL     1       8.443   3.701  27.082  1.00  0.00     0.119 C 
HETATM    8  C6  UNL     1       8.070   3.348  25.665  1.00  0.00     0.095 C 
HETATM    9  N4  UNL     1       7.996   4.374  24.754  1.00  0.00    -0.405 N 
ATOM     10  H4  UNL     1       8.322   4.163  23.811  1.00  0.00     0.154 HD
HETATM   11  C8  UNL     1       7.536   5.645  24.961  1.00  0.00     0.050 C 
HETATM   12  C9  UNL     1       8.761   6.567  24.727  1.00  0.00     0.033 C 
HETATM   13  C10 UNL     1       9.103   6.132  23.294  1.00  0.00     0.002 C 
HETATM   14  C11 UNL     1       7.800   5.948  22.587  1.00  0.00     0.002 C 
HETATM   15  C12 UNL     1       6.756   6.086  23.704  1.00  0.00     0.033 C 
ENDROOT
BRANCH   6  16
HETATM   16  N2  UNL     1       7.364   4.560  28.992  1.00  0.00    -0.319 NA
BRANCH  16  17
HETATM   17  N3  UNL     1       7.434   5.010  30.152  1.00  0.00    -0.279 N 
ATOM     18  H32 UNL     1       6.702   5.709  30.025  1.00  0.00     0.191 HD
ATOM     19  H31 UNL     1       7.714   5.158  31.122  1.00  0.00     0.191 HD
ENDBRANCH  16  17
ENDBRANCH   6  16
BRANCH   8  20
HETATM   20  C7  UNL     1       9.129   2.338  25.193  1.00  0.00     0.110 C 
HETATM   21 BR1  UNL     1       9.330   2.402  23.279  1.00  0.00    -0.094 Br
ENDBRANCH   8  20
TORSDOF 3
ENDMDL
MODEL 4
REMARK VINA RESULT: -5.116045021      2.116      3.127
REMARK  3 active torsions:
REMARK  status: ('A' for Active; 'I' for Inactive)
REMARK    1  A    between atoms: C4_6  and  N2_7 
REMARK    2  A    between atoms: N2_7  and  N3_8 
REMARK    3  A    between atoms: C6_12  and  C7_13 
ROOT
HETATM    1  C1  UNL     1       5.842   5.517  24.080  1.00  0.00     0.041 C 
HETATM    2  C2  UNL     1       7.360   5.455  24.343  1.00  0.00     0.050 C 
HETATM    3  C3  UNL     1       7.525   4.210  25.227  1.00  0.00     0.041 C 
HETATM    4  N1  UNL     1       7.939   5.136  23.080  1.00  0.00    -0.356 N 
ATOM      5  H1  UNL     1       7.483   5.219  22.171  1.00  0.00     0.162 HD
HETATM    6  C4  UNL     1       9.269   4.681  23.312  1.00  0.00     0.177 C 
HETATM    7  C5  UNL     1      10.330   5.481  23.978  1.00  0.00     0.119 C 
HETATM    8  C6  UNL     1       9.978   6.947  23.998  1.00  0.00     0.095 C 
HETATM    9  N4  UNL     1       8.929   7.337  24.797  1.00  0.00    -0.405 N 
ATOM     10  H4  UNL     1       9.033   8.234  25.269  1.00  0.00     0.154 HD
HETATM   11  C8  UNL     1       7.763   6.663  25.033  1.00  0.00     0.050 C 
HETATM   12  C9  UNL     1       7.778   6.338  26.549  1.00  0.00     0.033 C 
HETATM   13  C10 UNL     1       7.924   7.769  27.088  1.00  0.00     0.002 C 
HETATM   14  C11 UNL     1       7.063   8.634  26.226  1.00  0.00     0.002 C 
HETATM   15  C12 UNL     1       6.616   7.695  25.097  1.00  0.00     0.033 C 
ENDROOT
BRANCH   6  16
HETATM   16  N2  UNL     1       9.543   3.528  22.921  1.00  0.00    -0.319 NA
BRANCH  16  17
HETATM   17  N3  UNL     1       9.666   2.514  22.207  1.00  0.00    -0.279 N 
ATOM     18  H32 UNL     1       9.838   3.030  21.344  1.00  0.00     0.191 HD
ATOM     19  H31 UNL     1       9.712   1.544  21.898  1.00  0.00     0.191 HD
ENDBRANCH  16  17
ENDBRANCH   6  16
BRANCH   8  20
HETATM   20  C7  UNL     1      11.251   7.676  24.457  1.00  0.00     0.110 C 
HETATM   21 BR1  UNL     1      10.821   9.398  25.206  1.00  0.00    -0.094 Br
ENDBRANCH   8  20
TORSDOF 3
ENDMDL
MODEL 5
REMARK VINA RESULT: -5.079853115      3.532      4.971
REMARK  3 active torsions:
REMARK  status: ('A' for Active; 'I' for Inactive)
REMARK    1  A    between atoms: C4_6  and  N2_7 
REMARK    2  A    between atoms: N2_7  and  N3_8 
REMARK    3  A    between atoms: C6_12  and  C7_13 
ROOT
HETATM    1  C1  UNL     1       7.038   5.896  22.992  1.00  0.00     0.041 C 
HETATM    2  C2  UNL     1       6.021   6.684  23.840  1.00  0.00     0.050 C 
HETATM    3  C3  UNL     1       6.392   8.152  23.582  1.00  0.00     0.041 C 
HETATM    4  N1  UNL     1       4.764   6.466  23.204  1.00  0.00    -0.356 N 
ATOM      5  H1  UNL     1       4.552   5.731  22.528  1.00  0.00     0.162 HD
HETATM    6  C4  UNL     1       3.856   7.454  23.680  1.00  0.00     0.177 C 
HETATM    7  C5  UNL     1       3.484   7.641  25.107  1.00  0.00     0.119 C 
HETATM    8  C6  UNL     1       3.835   6.426  25.927  1.00  0.00     0.095 C 
HETATM    9  N4  UNL     1       5.169   6.155  26.121  1.00  0.00    -0.405 N 
ATOM     10  H4  UNL     1       5.424   5.786  27.037  1.00  0.00     0.154 HD
HETATM   11  C8  UNL     1       6.194   6.321  25.232  1.00  0.00     0.050 C 
HETATM   12  C9  UNL     1       7.119   7.390  25.869  1.00  0.00     0.033 C 
HETATM   13  C10 UNL     1       7.407   6.678  27.200  1.00  0.00     0.002 C 
HETATM   14  C11 UNL     1       7.573   5.229  26.876  1.00  0.00     0.002 C 
HETATM   15  C12 UNL     1       7.171   5.137  25.397  1.00  0.00     0.033 C 
ENDROOT
BRANCH   6  16
HETATM   16  N2  UNL     1       3.346   8.206  22.824  1.00  0.00    -0.319 NA
BRANCH  16  17
HETATM   17  N3  UNL     1       2.576   8.677  21.965  1.00  0.00    -0.279 N 
ATOM     18  H32 UNL     1       3.066   9.568  21.881  1.00  0.00     0.191 HD
ATOM     19  H31 UNL     1       1.809   8.783  21.302  1.00  0.00     0.191 HD
ENDBRANCH  16  17
ENDBRANCH   6  16
BRANCH   8  20
HETATM   20  C7  UNL     1       3.165   6.637  27.295  1.00  0.00     0.110 C 
HETATM   21 BR1  UNL     1       4.095   5.660  28.670  1.00  0.00    -0.094 Br
ENDBRANCH   8  20
TORSDOF 3
ENDMDL
