MODEL 1
REMARK VINA RESULT: -4.601802957      0.000      0.000
REMARK  3 active torsions:
REMARK  status: ('A' for Active; 'I' for Inactive)
REMARK    1  A    between atoms: C2_2  and  O1_3 
REMARK    2  A    between atoms: C7_10  and  C8_11 
REMARK    3  A    between atoms: C8_11  and  O2_12 
ROOT
HETATM    1  C1  UNL     1       9.618   7.101  24.438  1.00  0.00     0.047 C 
HETATM    2  C2  UNL     1       9.885   6.056  23.377  1.00  0.00     0.080 C 
HETATM    3  C3  UNL     1       8.572   5.672  22.734  1.00  0.00     0.067 C 
HETATM    4  C4  UNL     1       8.228   4.356  23.449  1.00  0.00     0.241 C 
HETATM    5  N1  UNL     1       9.477   3.740  23.727  1.00  0.00    -0.058 N 
HETATM    6  C5  UNL     1       9.863   2.876  22.595  1.00  0.00     0.240 C 
HETATM    7  C6  UNL     1       9.124   1.777  23.325  1.00  0.00     0.063 C 
HETATM    8  C7  UNL     1       9.576   2.597  24.543  1.00  0.00     0.215 C 
HETATM    9  C9  UNL     1      10.433   4.795  23.980  1.00  0.00     0.275 C 
ENDROOT
BRANCH   8  10
HETATM   10  C8  UNL     1       8.726   2.423  25.744  1.00  0.00     0.197 C 
BRANCH  10  11
HETATM   11  O2  UNL     1       9.327   3.005  26.856  1.00  0.00    -0.399 OA
ATOM     12  H2  UNL     1       8.684   3.167  27.536  1.00  0.00     0.209 HD
ENDBRANCH  10  11
ENDBRANCH   8  10
BRANCH   2  13
HETATM   13  O1  UNL     1      10.747   6.572  22.414  1.00  0.00    -0.388 OA
ATOM     14  H1  UNL     1      10.361   6.475  21.552  1.00  0.00     0.210 HD
ENDBRANCH   2  13
TORSDOF 3
ENDMDL
MODEL 2
REMARK VINA RESULT: -4.352998221      2.617      4.017
REMARK  3 active torsions:
REMARK  status: ('A' for Active; 'I' for Inactive)
REMARK    1  A    between atoms: C2_2  and  O1_3 
REMARK    2  A    between atoms: C7_10  and  C8_11 
REMARK    3  A    between atoms: C8_11  and  O2_12 
ROOT
HETATM    1  C1  UNL     1       5.524   7.334  24.518  1.00  0.00     0.047 C 
HETATM    2  C2  UNL     1       5.928   5.883  24.667  1.00  0.00     0.080 C 
HETATM    3  C3  UNL     1       6.606   5.704  26.006  1.00  0.00     0.067 C 
HETATM    4  C4  UNL     1       8.095   5.719  25.625  1.00  0.00     0.241 C 
HETATM    5  N1  UNL     1       8.160   5.133  24.333  1.00  0.00    -0.058 N 
HETATM    6  C5  UNL     1       8.337   3.674  24.461  1.00  0.00     0.240 C 
HETATM    7  C6  UNL     1       9.821   3.963  24.438  1.00  0.00     0.063 C 
HETATM    8  C7  UNL     1       9.345   5.141  23.573  1.00  0.00     0.215 C 
HETATM    9  C9  UNL     1       6.946   5.492  23.634  1.00  0.00     0.275 C 
ENDROOT
BRANCH   8  10
HETATM   10  C8  UNL     1      10.261   6.305  23.571  1.00  0.00     0.197 C 
BRANCH  10  11
HETATM   11  O2  UNL     1      10.435   6.787  22.277  1.00  0.00    -0.399 OA
ATOM     12  H2  UNL     1      10.865   6.135  21.735  1.00  0.00     0.209 HD
ENDBRANCH  10  11
ENDBRANCH   8  10
BRANCH   2  13
HETATM   13  O1  UNL     1       4.801   5.070  24.599  1.00  0.00    -0.388 OA
ATOM     14  H1  UNL     1       4.046   5.539  24.935  1.00  0.00     0.210 HD
ENDBRANCH   2  13
TORSDOF 3
ENDMDL
MODEL 3
REMARK VINA RESULT: -4.321716878      2.517      4.632
REMARK  3 active torsions:
REMARK  status: ('A' for Active; 'I' for Inactive)
REMARK    1  A    between atoms: C2_2  and  O1_3 
REMARK    2  A    between atoms: C7_10  and  C8_11 
REMARK    3  A    between atoms: C8_11  and  O2_12 
ROOT
HETATM    1  C1  UNL     1       5.733   5.642  24.613  1.00  0.00     0.047 C 
HETATM    2  C2  UNL     1       7.154   5.130  24.708  1.00  0.00     0.080 C 
HETATM    3  C3  UNL     1       7.869   5.885  25.805  1.00  0.00     0.067 C 
HETATM    4  C4  UNL     1       8.669   6.933  25.015  1.00  0.00     0.241 C 
HETATM    5  N1  UNL     1       9.006   6.303  23.786  1.00  0.00    -0.058 N 
HETATM    6  C5  UNL     1      10.299   5.607  23.928  1.00  0.00     0.240 C 
HETATM    7  C6  UNL     1      10.923   6.905  23.468  1.00  0.00     0.063 C 
HETATM    8  C7  UNL     1       9.585   7.017  22.720  1.00  0.00     0.215 C 
HETATM    9  C9  UNL     1       7.921   5.409  23.447  1.00  0.00     0.275 C 
ENDROOT
BRANCH   8  10
HETATM   10  C8  UNL     1       9.179   8.406  22.402  1.00  0.00     0.197 C 
BRANCH  10  11
HETATM   11  O2  UNL     1       8.251   8.417  21.364  1.00  0.00    -0.399 OA
ATOM     12  H2  UNL     1       8.690   8.331  20.526  1.00  0.00     0.209 HD
ENDBRANCH  10  11
ENDBRANCH   8  10
BRANCH   2  13
HETATM   13  O1  UNL     1       7.145   3.770  25.003  1.00  0.00    -0.388 OA
ATOM     14  H1  UNL     1       7.970   3.378  24.740  1.00  0.00     0.210 HD
ENDBRANCH   2  13
TORSDOF 3
ENDMDL
MODEL 4
REMARK VINA RESULT: -4.281024471      2.444      4.116
REMARK  3 active torsions:
REMARK  status: ('A' for Active; 'I' for Inactive)
REMARK    1  A    between atoms: C2_2  and  O1_3 
REMARK    2  A    between atoms: C7_10  and  C8_11 
REMARK    3  A    between atoms: C8_11  and  O2_12 
ROOT
HETATM    1  C1  UNL     1       9.304   2.420  22.936  1.00  0.00     0.047 C 
HETATM    2  C2  UNL     1       9.756   3.684  23.634  1.00  0.00     0.080 C 
HETATM    3  C3  UNL     1       9.415   3.575  25.103  1.00  0.00     0.067 C 
HETATM    4  C4  UNL     1       8.121   4.397  25.202  1.00  0.00     0.241 C 
HETATM    5  N1  UNL     1       8.252   5.426  24.232  1.00  0.00    -0.058 N 
HETATM    6  C5  UNL     1       8.897   6.603  24.846  1.00  0.00     0.240 C 
HETATM    7  C6  UNL     1       7.495   7.058  25.183  1.00  0.00     0.063 C 
HETATM    8  C7  UNL     1       7.179   6.274  23.899  1.00  0.00     0.215 C 
HETATM    9  C9  UNL     1       9.010   4.884  23.126  1.00  0.00     0.275 C 
ENDROOT
BRANCH   8  10
HETATM   10  C8  UNL     1       5.787   5.773  23.819  1.00  0.00     0.197 C 
BRANCH  10  11
HETATM   11  O2  UNL     1       5.036   6.559  22.949  1.00  0.00    -0.399 OA
ATOM     12  H2  UNL     1       4.492   7.167  23.436  1.00  0.00     0.209 HD
ENDBRANCH  10  11
ENDBRANCH   8  10
BRANCH   2  13
HETATM   13  O1  UNL     1      11.130   3.841  23.481  1.00  0.00    -0.388 OA
ATOM     14  H1  UNL     1      11.396   4.690  23.815  1.00  0.00     0.210 HD
ENDBRANCH   2  13
TORSDOF 3
ENDMDL
MODEL 5
REMARK VINA RESULT: -4.279965315      1.088      1.141
REMARK  3 active torsions:
REMARK  status: ('A' for Active; 'I' for Inactive)
REMARK    1  A    between atoms: C2_2  and  O1_3 
REMARK    2  A    between atoms: C7_10  and  C8_11 
REMARK    3  A    between atoms: C8_11  and  O2_12 
ROOT
HETATM    1  C1  UNL     1       9.288   8.045  23.793  1.00  0.00     0.047 C 
HETATM    2  C2  UNL     1       9.691   6.724  23.174  1.00  0.00     0.080 C 
HETATM    3  C3  UNL     1       8.493   6.138  22.461  1.00  0.00     0.067 C 
HETATM    4  C4  UNL     1       7.977   5.107  23.478  1.00  0.00     0.241 C 
HETATM    5  N1  UNL     1       9.133   4.628  24.150  1.00  0.00    -0.058 N 
HETATM    6  C5  UNL     1       9.672   3.459  23.429  1.00  0.00     0.240 C 
HETATM    7  C6  UNL     1       8.773   2.633  24.322  1.00  0.00     0.063 C 
HETATM    8  C7  UNL     1       9.042   3.800  25.285  1.00  0.00     0.215 C 
HETATM    9  C9  UNL     1      10.074   5.723  24.226  1.00  0.00     0.275 C 
ENDROOT
BRANCH   8  10
HETATM   10  C8  UNL     1       7.992   3.998  26.310  1.00  0.00     0.197 C 
BRANCH  10  11
HETATM   11  O2  UNL     1       7.987   2.939  27.213  1.00  0.00    -0.399 OA
ATOM     12  H2  UNL     1       7.277   2.338  27.017  1.00  0.00     0.209 HD
ENDBRANCH  10  11
ENDBRANCH   8  10
BRANCH   2  13
HETATM   13  O1  UNL     1      10.726   6.925  22.267  1.00  0.00    -0.388 OA
ATOM     14  H1  UNL     1      10.369   7.140  21.413  1.00  0.00     0.210 HD
ENDBRANCH   2  13
TORSDOF 3
ENDMDL
