MODEL 1
REMARK VINA RESULT: -4.667071854      0.000      0.000
REMARK  2 active torsions:
REMARK  status: ('A' for Active; 'I' for Inactive)
REMARK    1  A    between atoms: C9_13  and  C10_14 
REMARK    2  A    between atoms: C10_14  and  O1_15 
ROOT
HETATM    1  C1  UNL     1       5.551   7.959  25.206  1.00  0.00     0.131 C 
HETATM    2  C2  UNL     1       6.455   7.140  25.248  1.00  0.00     0.033 C 
HETATM    3  N1  UNL     1       7.514   6.183  25.331  1.00  0.00    -0.011 N 
HETATM    4  C3  UNL     1       7.499   5.749  26.715  1.00  0.00     0.290 C 
HETATM    5  C4  UNL     1       8.719   6.923  25.050  1.00  0.00     0.255 C 
HETATM    6  C5  UNL     1       9.753   6.207  24.270  1.00  0.00     0.062 C 
HETATM    7  C6  UNL     1       9.230   5.167  23.307  1.00  0.00     0.195 C 
HETATM    8  N2  UNL     1       8.332   5.867  22.393  1.00  0.00    -0.068 N 
ATOM      9  H21 UNL     1       8.326   5.471  21.453  1.00  0.00     0.277 HD
ATOM     10  H22 UNL     1       8.662   6.798  22.139  1.00  0.00     0.277 HD
HETATM   11  C7  UNL     1       7.008   5.876  23.026  1.00  0.00     0.268 C 
HETATM   12  C8  UNL     1       7.204   5.173  24.386  1.00  0.00     0.237 C 
HETATM   13  C9  UNL     1       8.244   4.229  23.947  1.00  0.00     0.074 C 
ENDROOT
BRANCH  13  14
HETATM   14  C10 UNL     1       8.768   3.183  24.799  1.00  0.00     0.173 C 
BRANCH  14  15
HETATM   15  O1  UNL     1       7.871   2.431  25.544  1.00  0.00    -0.400 OA
ATOM     16  H1  UNL     1       8.087   1.524  25.724  1.00  0.00     0.209 HD
ENDBRANCH  14  15
ENDBRANCH  13  14
TORSDOF 2
ENDMDL
MODEL 2
REMARK VINA RESULT: -4.650271999      1.506      1.537
REMARK  2 active torsions:
REMARK  status: ('A' for Active; 'I' for Inactive)
REMARK    1  A    between atoms: C9_13  and  C10_14 
REMARK    2  A    between atoms: C10_14  and  O1_15 
ROOT
HETATM    1  C1  UNL     1       5.202   6.379  25.379  1.00  0.00     0.131 C 
HETATM    2  C2  UNL     1       6.353   5.995  25.251  1.00  0.00     0.033 C 
HETATM    3  N1  UNL     1       7.702   5.535  25.132  1.00  0.00    -0.011 N 
HETATM    4  C3  UNL     1       7.888   4.671  26.283  1.00  0.00     0.290 C 
HETATM    5  C4  UNL     1       8.519   6.716  25.255  1.00  0.00     0.255 C 
HETATM    6  C5  UNL     1       9.730   6.756  24.406  1.00  0.00     0.062 C 
HETATM    7  C6  UNL     1       9.629   6.006  23.099  1.00  0.00     0.195 C 
HETATM    8  N2  UNL     1       8.508   6.595  22.372  1.00  0.00    -0.068 N 
ATOM      9  H21 UNL     1       8.634   6.582  21.360  1.00  0.00     0.277 HD
ATOM     10  H22 UNL     1       8.446   7.608  22.481  1.00  0.00     0.277 HD
HETATM   11  C7  UNL     1       7.299   5.891  22.814  1.00  0.00     0.268 C 
HETATM   12  C8  UNL     1       7.785   4.882  23.877  1.00  0.00     0.237 C 
HETATM   13  C9  UNL     1       9.098   4.609  23.273  1.00  0.00     0.074 C 
ENDROOT
BRANCH  13  14
HETATM   14  C10 UNL     1      10.006   3.605  23.784  1.00  0.00     0.173 C 
BRANCH  14  15
HETATM   15  O1  UNL     1      11.214   3.417  23.129  1.00  0.00    -0.400 OA
ATOM     16  H1  UNL     1      11.227   2.862  22.359  1.00  0.00     0.209 HD
ENDBRANCH  14  15
ENDBRANCH  13  14
TORSDOF 2
ENDMDL
MODEL 3
REMARK VINA RESULT: -4.630609105      2.373      3.589
REMARK  2 active torsions:
REMARK  status: ('A' for Active; 'I' for Inactive)
REMARK    1  A    between atoms: C9_13  and  C10_14 
REMARK    2  A    between atoms: C10_14  and  O1_15 
ROOT
HETATM    1  C1  UNL     1       8.263   2.071  25.974  1.00  0.00     0.131 C 
HETATM    2  C2  UNL     1       8.268   3.243  25.634  1.00  0.00     0.033 C 
HETATM    3  N1  UNL     1       8.258   4.625  25.264  1.00  0.00    -0.011 N 
HETATM    4  C3  UNL     1       7.970   5.326  26.501  1.00  0.00     0.290 C 
HETATM    5  C4  UNL     1       7.160   4.763  24.341  1.00  0.00     0.255 C 
HETATM    6  C5  UNL     1       7.370   5.707  23.220  1.00  0.00     0.062 C 
HETATM    7  C6  UNL     1       8.802   5.857  22.762  1.00  0.00     0.195 C 
HETATM    8  N2  UNL     1       9.248   4.525  22.365  1.00  0.00    -0.068 N 
ATOM      9  H21 UNL     1       9.925   4.539  21.601  1.00  0.00     0.277 HD
ATOM     10  H22 UNL     1       8.527   3.985  21.887  1.00  0.00     0.277 HD
HETATM   11  C7  UNL     1       9.756   3.870  23.575  1.00  0.00     0.268 C 
HETATM   12  C8  UNL     1       9.536   4.892  24.711  1.00  0.00     0.237 C 
HETATM   13  C9  UNL     1       9.752   6.102  23.903  1.00  0.00     0.074 C 
ENDROOT
BRANCH  13  14
HETATM   14  C10 UNL     1       9.790   7.432  24.472  1.00  0.00     0.173 C 
BRANCH  14  15
HETATM   15  O1  UNL     1      11.026   8.031  24.661  1.00  0.00    -0.400 OA
ATOM     16  H1  UNL     1      11.257   8.770  24.111  1.00  0.00     0.209 HD
ENDBRANCH  14  15
ENDBRANCH  13  14
TORSDOF 2
ENDMDL
MODEL 4
REMARK VINA RESULT: -4.383645444      1.336      1.427
REMARK  2 active torsions:
REMARK  status: ('A' for Active; 'I' for Inactive)
REMARK    1  A    between atoms: C9_13  and  C10_14 
REMARK    2  A    between atoms: C10_14  and  O1_15 
ROOT
HETATM    1  C1  UNL     1       7.439   9.087  23.324  1.00  0.00     0.131 C 
HETATM    2  C2  UNL     1       7.891   8.101  23.880  1.00  0.00     0.033 C 
HETATM    3  N1  UNL     1       8.424   6.961  24.561  1.00  0.00    -0.011 N 
HETATM    4  C3  UNL     1       8.288   7.287  25.968  1.00  0.00     0.290 C 
HETATM    5  C4  UNL     1       9.816   6.913  24.190  1.00  0.00     0.255 C 
HETATM    6  C5  UNL     1      10.390   5.562  24.000  1.00  0.00     0.062 C 
HETATM    7  C6  UNL     1       9.417   4.507  23.529  1.00  0.00     0.195 C 
HETATM    8  N2  UNL     1       8.874   4.985  22.261  1.00  0.00    -0.068 N 
ATOM      9  H21 UNL     1       8.648   4.232  21.611  1.00  0.00     0.277 HD
ATOM     10  H22 UNL     1       9.567   5.455  21.679  1.00  0.00     0.277 HD
HETATM   11  C7  UNL     1       7.722   5.833  22.587  1.00  0.00     0.268 C 
HETATM   12  C8  UNL     1       7.656   5.851  24.129  1.00  0.00     0.237 C 
HETATM   13  C9  UNL     1       8.151   4.483  24.342  1.00  0.00     0.074 C 
ENDROOT
BRANCH  13  14
HETATM   14  C10 UNL     1       8.203   3.859  25.647  1.00  0.00     0.173 C 
BRANCH  14  15
HETATM   15  O1  UNL     1       7.811   2.533  25.757  1.00  0.00    -0.400 OA
ATOM     16  H1  UNL     1       7.200   2.300  26.446  1.00  0.00     0.209 HD
ENDBRANCH  14  15
ENDBRANCH  13  14
TORSDOF 2
ENDMDL
MODEL 5
REMARK VINA RESULT: -4.310769935      2.069      3.936
REMARK  2 active torsions:
REMARK  status: ('A' for Active; 'I' for Inactive)
REMARK    1  A    between atoms: C9_13  and  C10_14 
REMARK    2  A    between atoms: C10_14  and  O1_15 
ROOT
HETATM    1  C1  UNL     1      10.184   3.735  23.551  1.00  0.00     0.131 C 
HETATM    2  C2  UNL     1       9.410   4.672  23.667  1.00  0.00     0.033 C 
HETATM    3  N1  UNL     1       8.518   5.783  23.779  1.00  0.00    -0.011 N 
HETATM    4  C3  UNL     1       8.660   6.486  22.518  1.00  0.00     0.290 C 
HETATM    5  C4  UNL     1       9.039   6.582  24.860  1.00  0.00     0.255 C 
HETATM    6  C5  UNL     1       8.033   7.231  25.730  1.00  0.00     0.062 C 
HETATM    7  C6  UNL     1       6.722   6.492  25.863  1.00  0.00     0.195 C 
HETATM    8  N2  UNL     1       7.046   5.172  26.398  1.00  0.00    -0.068 N 
ATOM      9  H21 UNL     1       6.316   4.791  26.998  1.00  0.00     0.277 HD
ATOM     10  H22 UNL     1       7.789   5.193  27.096  1.00  0.00     0.277 HD
HETATM   11  C7  UNL     1       7.357   4.315  25.248  1.00  0.00     0.268 C 
HETATM   12  C8  UNL     1       7.233   5.233  24.014  1.00  0.00     0.237 C 
HETATM   13  C9  UNL     1       6.150   6.082  24.533  1.00  0.00     0.074 C 
ENDROOT
BRANCH  13  14
HETATM   14  C10 UNL     1       5.499   7.102  23.740  1.00  0.00     0.173 C 
BRANCH  14  15
HETATM   15  O1  UNL     1       4.535   6.707  22.824  1.00  0.00    -0.400 OA
ATOM     16  H1  UNL     1       4.690   6.882  21.904  1.00  0.00     0.209 HD
ENDBRANCH  14  15
ENDBRANCH  13  14
TORSDOF 2
ENDMDL
