MODEL 1
REMARK VINA RESULT: -4.181666025      0.000      0.000
REMARK  3 active torsions:
REMARK  status: ('A' for Active; 'I' for Inactive)
REMARK    1  A    between atoms: C2_2  and  C3_3 
REMARK    2  A    between atoms: C5_5  and  O1_6 
REMARK    3  A    between atoms: C6_8  and  O2_9 
ROOT
HETATM    1  C3  UNL     1       7.114   5.008  24.307  1.00  0.00     0.215 C 
HETATM    2  C4  UNL     1       7.135   5.846  23.100  1.00  0.00     0.072 C 
HETATM    3  C5  UNL     1       8.421   6.588  22.850  1.00  0.00     0.150 C 
HETATM    4  C6  UNL     1       9.535   5.579  22.998  1.00  0.00     0.173 C 
HETATM    5  C7  UNL     1       9.517   5.209  24.477  1.00  0.00     0.272 C 
HETATM    6  N1  UNL     1       8.330   4.487  24.794  1.00  0.00    -0.054 N 
HETATM    7  C8  UNL     1       8.273   3.939  26.144  1.00  0.00     0.266 A 
HETATM    8  C9  UNL     1       8.496   3.038  24.991  1.00  0.00     0.266 A 
ENDROOT
BRANCH   1   9
HETATM    9  C2  UNL     1       6.456   5.797  25.415  1.00  0.00    -0.004 C 
HETATM   10  C1  UNL     1       5.296   6.394  25.209  1.00  0.00     0.009 C 
ENDBRANCH   1   9
BRANCH   3  11
HETATM   11  O1  UNL     1       8.568   7.585  23.818  1.00  0.00    -0.393 OA
ATOM     12  H1  UNL     1       8.353   8.426  23.431  1.00  0.00     0.210 HD
ENDBRANCH   3  11
BRANCH   4  13
HETATM   13  O2  UNL     1       9.194   4.464  22.219  1.00  0.00    -0.391 OA
ATOM     14  H2  UNL     1       9.004   4.778  21.343  1.00  0.00     0.210 HD
ENDBRANCH   4  13
TORSDOF 3
ENDMDL
MODEL 2
REMARK VINA RESULT: -4.158940975      1.492      3.268
REMARK  3 active torsions:
REMARK  status: ('A' for Active; 'I' for Inactive)
REMARK    1  A    between atoms: C2_2  and  C3_3 
REMARK    2  A    between atoms: C5_5  and  O1_6 
REMARK    3  A    between atoms: C6_8  and  O2_9 
ROOT
HETATM    1  C3  UNL     1       9.611   4.135  24.289  1.00  0.00     0.215 C 
HETATM    2  C4  UNL     1       9.804   5.414  23.591  1.00  0.00     0.072 C 
HETATM    3  C5  UNL     1       8.542   6.167  23.259  1.00  0.00     0.150 C 
HETATM    4  C6  UNL     1       7.716   6.199  24.523  1.00  0.00     0.173 C 
HETATM    5  C7  UNL     1       7.317   4.744  24.752  1.00  0.00     0.272 C 
HETATM    6  N1  UNL     1       8.462   3.963  25.086  1.00  0.00    -0.054 N 
HETATM    7  C8  UNL     1       8.184   2.588  25.484  1.00  0.00     0.266 A 
HETATM    8  C9  UNL     1       8.585   3.584  26.503  1.00  0.00     0.266 A 
ENDROOT
BRANCH   1   9
HETATM    9  C2  UNL     1       9.648   3.029  23.260  1.00  0.00    -0.004 C 
HETATM   10  C1  UNL     1      10.803   2.552  22.837  1.00  0.00     0.009 C 
ENDBRANCH   1   9
BRANCH   3  11
HETATM   11  O1  UNL     1       7.844   5.473  22.267  1.00  0.00    -0.393 OA
ATOM     12  H1  UNL     1       6.915   5.510  22.458  1.00  0.00     0.210 HD
ENDBRANCH   3  11
BRANCH   4  13
HETATM   13  O2  UNL     1       8.554   6.636  25.559  1.00  0.00    -0.391 OA
ATOM     14  H2  UNL     1       9.341   6.103  25.529  1.00  0.00     0.210 HD
ENDBRANCH   4  13
TORSDOF 3
ENDMDL
MODEL 3
REMARK VINA RESULT: -4.138807717      0.971      3.069
REMARK  3 active torsions:
REMARK  status: ('A' for Active; 'I' for Inactive)
REMARK    1  A    between atoms: C2_2  and  C3_3 
REMARK    2  A    between atoms: C5_5  and  O1_6 
REMARK    3  A    between atoms: C6_8  and  O2_9 
ROOT
HETATM    1  C3  UNL     1       8.128   5.531  24.937  1.00  0.00     0.215 C 
HETATM    2  C4  UNL     1       9.477   5.738  24.393  1.00  0.00     0.072 C 
HETATM    3  C5  UNL     1       9.558   5.856  22.893  1.00  0.00     0.150 C 
HETATM    4  C6  UNL     1       8.498   6.849  22.481  1.00  0.00     0.173 C 
HETATM    5  C7  UNL     1       7.181   6.150  22.801  1.00  0.00     0.272 C 
HETATM    6  N1  UNL     1       7.020   6.012  24.210  1.00  0.00    -0.054 N 
HETATM    7  C8  UNL     1       5.725   5.503  24.645  1.00  0.00     0.266 A 
HETATM    8  C9  UNL     1       6.058   6.932  24.838  1.00  0.00     0.266 A 
ENDROOT
BRANCH   1   9
HETATM    9  C2  UNL     1       7.938   4.050  25.169  1.00  0.00    -0.004 C 
HETATM   10  C1  UNL     1       8.928   3.320  25.650  1.00  0.00     0.009 C 
ENDBRANCH   1   9
BRANCH   3  11
HETATM   11  O1  UNL     1       9.275   4.612  22.322  1.00  0.00    -0.393 OA
ATOM     12  H1  UNL     1       9.870   4.461  21.598  1.00  0.00     0.210 HD
ENDBRANCH   3  11
BRANCH   4  13
HETATM   13  O2  UNL     1       8.650   7.982  23.294  1.00  0.00    -0.391 OA
ATOM     14  H2  UNL     1       7.976   7.942  23.963  1.00  0.00     0.210 HD
ENDBRANCH   4  13
TORSDOF 3
ENDMDL
MODEL 4
REMARK VINA RESULT: -4.106070451      2.205      4.105
REMARK  3 active torsions:
REMARK  status: ('A' for Active; 'I' for Inactive)
REMARK    1  A    between atoms: C2_2  and  C3_3 
REMARK    2  A    between atoms: C5_5  and  O1_6 
REMARK    3  A    between atoms: C6_8  and  O2_9 
ROOT
HETATM    1  C3  UNL     1       9.017   3.806  23.494  1.00  0.00     0.215 C 
HETATM    2  C4  UNL     1       8.425   2.837  24.427  1.00  0.00     0.072 C 
HETATM    3  C5  UNL     1       8.243   3.327  25.840  1.00  0.00     0.150 C 
HETATM    4  C6  UNL     1       7.574   4.677  25.744  1.00  0.00     0.173 C 
HETATM    5  C7  UNL     1       8.622   5.575  25.094  1.00  0.00     0.272 C 
HETATM    6  N1  UNL     1       8.842   5.182  23.742  1.00  0.00    -0.054 N 
HETATM    7  C8  UNL     1       9.706   6.066  22.968  1.00  0.00     0.266 A 
HETATM    8  C9  UNL     1       8.248   6.056  22.718  1.00  0.00     0.266 A 
ENDROOT
BRANCH   1   9
HETATM    9  C2  UNL     1      10.499   3.522  23.402  1.00  0.00    -0.004 C 
HETATM   10  C1  UNL     1      10.931   2.425  22.809  1.00  0.00     0.009 C 
ENDBRANCH   1   9
BRANCH   3  11
HETATM   11  O1  UNL     1       9.498   3.474  26.436  1.00  0.00    -0.393 OA
ATOM     12  H1  UNL     1       9.487   4.239  26.998  1.00  0.00     0.210 HD
ENDBRANCH   3  11
BRANCH   4  13
HETATM   13  O2  UNL     1       6.468   4.535  24.892  1.00  0.00    -0.391 OA
ATOM     14  H2  UNL     1       5.893   5.275  25.050  1.00  0.00     0.210 HD
ENDBRANCH   4  13
TORSDOF 3
ENDMDL
MODEL 5
REMARK VINA RESULT: -3.998220032      2.189      3.470
REMARK  3 active torsions:
REMARK  status: ('A' for Active; 'I' for Inactive)
REMARK    1  A    between atoms: C2_2  and  C3_3 
REMARK    2  A    between atoms: C5_5  and  O1_6 
REMARK    3  A    between atoms: C6_8  and  O2_9 
ROOT
HETATM    1  C3  UNL     1       9.424   4.561  23.867  1.00  0.00     0.215 C 
HETATM    2  C4  UNL     1       8.894   5.238  25.058  1.00  0.00     0.072 C 
HETATM    3  C5  UNL     1       7.811   4.495  25.797  1.00  0.00     0.150 C 
HETATM    4  C6  UNL     1       8.309   3.082  25.983  1.00  0.00     0.173 C 
HETATM    5  C7  UNL     1       8.356   2.508  24.570  1.00  0.00     0.272 C 
HETATM    6  N1  UNL     1       9.372   3.153  23.806  1.00  0.00    -0.054 N 
HETATM    7  C8  UNL     1       9.620   2.581  22.488  1.00  0.00     0.266 A 
HETATM    8  C9  UNL     1      10.597   2.370  23.580  1.00  0.00     0.266 A 
ENDROOT
BRANCH   1   9
HETATM    9  C2  UNL     1       8.712   5.117  22.656  1.00  0.00    -0.004 C 
HETATM   10  C1  UNL     1       8.443   6.407  22.576  1.00  0.00     0.009 C 
ENDBRANCH   1   9
BRANCH   3  11
HETATM   11  O1  UNL     1       6.653   4.479  25.015  1.00  0.00    -0.393 OA
ATOM     12  H1  UNL     1       6.801   3.930  24.254  1.00  0.00     0.210 HD
ENDBRANCH   3  11
BRANCH   4  13
HETATM   13  O2  UNL     1       9.606   3.163  26.512  1.00  0.00    -0.391 OA
ATOM     14  H2  UNL     1       9.745   4.063  26.782  1.00  0.00     0.210 HD
ENDBRANCH   4  13
TORSDOF 3
ENDMDL
