MODEL 1
REMARK VINA RESULT: -4.587482289      0.000      0.000
REMARK  2 active torsions:
REMARK  status: ('A' for Active; 'I' for Inactive)
REMARK    1  A    between atoms: O1_1  and  C1_3 
REMARK    2  A    between atoms: C1_3  and  C2_4 
ROOT
HETATM    1  C2  UNL     1       9.656   3.193  24.333  1.00  0.00     0.214 C 
HETATM    2  C3  UNL     1       8.771   2.148  24.953  1.00  0.00     0.037 C 
HETATM    3  C4  UNL     1       8.246   2.897  26.179  1.00  0.00     0.030 C 
HETATM    4  C5  UNL     1       8.753   4.334  26.010  1.00  0.00     0.238 C 
HETATM    5  N1  UNL     1       8.970   4.416  24.551  1.00  0.00    -0.058 N 
HETATM    6  C6  UNL     1       9.821   5.568  24.328  1.00  0.00     0.265 C 
HETATM    7  C7  UNL     1       9.068   6.855  24.475  1.00  0.00     0.260 C 
HETATM    8  N2  UNL     1       7.884   6.934  23.666  1.00  0.00    -0.072 N 
ATOM      9  H21 UNL     1       7.936   7.719  23.017  1.00  0.00     0.277 HD
ATOM     10  H22 UNL     1       7.081   7.230  24.220  1.00  0.00     0.277 HD
HETATM   11  C8  UNL     1       7.604   5.700  22.966  1.00  0.00     0.260 C 
HETATM   12  C9  UNL     1       7.682   4.547  23.958  1.00  0.00     0.265 C 
ENDROOT
BRANCH   1  13
HETATM   13  C1  UNL     1      10.096   2.884  22.962  1.00  0.00     0.197 C 
BRANCH  13  14
HETATM   14  O1  UNL     1      11.451   2.796  22.758  1.00  0.00    -0.399 OA
ATOM     15  H1  UNL     1      11.733   2.480  21.908  1.00  0.00     0.209 HD
ENDBRANCH  13  14
ENDBRANCH   1  13
TORSDOF 2
ENDMDL
MODEL 2
REMARK VINA RESULT: -4.400807691      1.137      1.147
REMARK  2 active torsions:
REMARK  status: ('A' for Active; 'I' for Inactive)
REMARK    1  A    between atoms: O1_1  and  C1_3 
REMARK    2  A    between atoms: C1_3  and  C2_4 
ROOT
HETATM    1  C2  UNL     1       9.397   2.507  24.282  1.00  0.00     0.214 C 
HETATM    2  C3  UNL     1       8.491   1.694  25.164  1.00  0.00     0.037 C 
HETATM    3  C4  UNL     1       8.449   2.562  26.422  1.00  0.00     0.030 C 
HETATM    4  C5  UNL     1       9.189   3.849  26.040  1.00  0.00     0.238 C 
HETATM    5  N1  UNL     1       9.057   3.856  24.569  1.00  0.00    -0.058 N 
HETATM    6  C6  UNL     1      10.050   4.788  24.073  1.00  0.00     0.265 C 
HETATM    7  C7  UNL     1       9.642   6.211  24.301  1.00  0.00     0.260 C 
HETATM    8  N2  UNL     1       8.341   6.534  23.788  1.00  0.00    -0.072 N 
ATOM      9  H21 UNL     1       8.397   7.278  23.091  1.00  0.00     0.277 HD
ATOM     10  H22 UNL     1       7.777   7.010  24.492  1.00  0.00     0.277 HD
HETATM   11  C8  UNL     1       7.647   5.380  23.260  1.00  0.00     0.260 C 
HETATM   12  C9  UNL     1       7.720   4.257  24.284  1.00  0.00     0.265 C 
ENDROOT
BRANCH   1  13
HETATM   13  C1  UNL     1       9.416   2.086  22.872  1.00  0.00     0.197 C 
BRANCH  13  14
HETATM   14  O1  UNL     1       8.831   0.876  22.585  1.00  0.00    -0.399 OA
ATOM     15  H1  UNL     1       8.632   0.707  21.673  1.00  0.00     0.209 HD
ENDBRANCH  13  14
ENDBRANCH   1  13
TORSDOF 2
ENDMDL
MODEL 3
REMARK VINA RESULT: -4.311618328      2.044      2.950
REMARK  2 active torsions:
REMARK  status: ('A' for Active; 'I' for Inactive)
REMARK    1  A    between atoms: O1_1  and  C1_3 
REMARK    2  A    between atoms: C1_3  and  C2_4 
ROOT
HETATM    1  C2  UNL     1       8.238   3.474  25.188  1.00  0.00     0.214 C 
HETATM    2  C3  UNL     1       9.234   2.360  25.357  1.00  0.00     0.037 C 
HETATM    3  C4  UNL     1       9.616   2.084  23.902  1.00  0.00     0.030 C 
HETATM    4  C5  UNL     1       8.928   3.193  23.096  1.00  0.00     0.238 C 
HETATM    5  N1  UNL     1       8.749   4.249  24.113  1.00  0.00    -0.058 N 
HETATM    6  C6  UNL     1       7.761   5.166  23.582  1.00  0.00     0.265 C 
HETATM    7  C7  UNL     1       8.331   6.040  22.508  1.00  0.00     0.260 C 
HETATM    8  N2  UNL     1       9.519   6.745  22.900  1.00  0.00    -0.072 N 
ATOM      9  H21 UNL     1       9.384   7.754  22.834  1.00  0.00     0.277 HD
ATOM     10  H22 UNL     1      10.258   6.631  22.206  1.00  0.00     0.277 HD
HETATM   11  C8  UNL     1       9.982   6.368  24.217  1.00  0.00     0.260 C 
HETATM   12  C9  UNL     1      10.026   4.849  24.303  1.00  0.00     0.265 C 
ENDROOT
BRANCH   1  13
HETATM   13  C1  UNL     1       7.887   4.172  26.436  1.00  0.00     0.197 C 
BRANCH  13  14
HETATM   14  O1  UNL     1       7.560   3.381  27.510  1.00  0.00    -0.399 OA
ATOM     15  H1  UNL     1       7.015   3.778  28.179  1.00  0.00     0.209 HD
ENDBRANCH  13  14
ENDBRANCH   1  13
TORSDOF 2
ENDMDL
MODEL 4
REMARK VINA RESULT: -4.292475683      1.951      2.567
REMARK  2 active torsions:
REMARK  status: ('A' for Active; 'I' for Inactive)
REMARK    1  A    between atoms: O1_1  and  C1_3 
REMARK    2  A    between atoms: C1_3  and  C2_4 
ROOT
HETATM    1  C2  UNL     1       9.555   5.413  24.473  1.00  0.00     0.214 C 
HETATM    2  C3  UNL     1       9.901   4.130  23.770  1.00  0.00     0.037 C 
HETATM    3  C4  UNL     1       9.335   3.098  24.746  1.00  0.00     0.030 C 
HETATM    4  C5  UNL     1       8.578   3.919  25.795  1.00  0.00     0.238 C 
HETATM    5  N1  UNL     1       8.286   5.167  25.059  1.00  0.00    -0.058 N 
HETATM    6  C6  UNL     1       7.941   6.160  26.057  1.00  0.00     0.265 C 
HETATM    7  C7  UNL     1       6.565   5.944  26.607  1.00  0.00     0.260 C 
HETATM    8  N2  UNL     1       5.543   5.857  25.604  1.00  0.00    -0.072 N 
ATOM      9  H21 UNL     1       4.842   6.588  25.731  1.00  0.00     0.277 HD
ATOM     10  H22 UNL     1       4.954   5.037  25.750  1.00  0.00     0.277 HD
HETATM   11  C8  UNL     1       6.077   5.878  24.260  1.00  0.00     0.260 C 
HETATM   12  C9  UNL     1       7.213   4.869  24.170  1.00  0.00     0.265 C 
ENDROOT
BRANCH   1  13
HETATM   13  C1  UNL     1       9.711   6.622  23.648  1.00  0.00     0.197 C 
BRANCH  13  14
HETATM   14  O1  UNL     1      10.321   6.458  22.428  1.00  0.00    -0.399 OA
ATOM     15  H1  UNL     1      10.822   7.196  22.102  1.00  0.00     0.209 HD
ENDBRANCH  13  14
ENDBRANCH   1  13
TORSDOF 2
ENDMDL
MODEL 5
REMARK VINA RESULT: -4.139634193      1.646      1.878
REMARK  2 active torsions:
REMARK  status: ('A' for Active; 'I' for Inactive)
REMARK    1  A    between atoms: O1_1  and  C1_3 
REMARK    2  A    between atoms: C1_3  and  C2_4 
ROOT
HETATM    1  C2  UNL     1       9.284   4.679  24.650  1.00  0.00     0.214 C 
HETATM    2  C3  UNL     1       9.076   3.190  24.684  1.00  0.00     0.037 C 
HETATM    3  C4  UNL     1       8.322   3.029  26.005  1.00  0.00     0.030 C 
HETATM    4  C5  UNL     1       8.034   4.460  26.474  1.00  0.00     0.238 C 
HETATM    5  N1  UNL     1       8.094   5.218  25.206  1.00  0.00    -0.058 N 
HETATM    6  C6  UNL     1       8.242   6.613  25.569  1.00  0.00     0.265 C 
HETATM    7  C7  UNL     1       6.959   7.198  26.074  1.00  0.00     0.260 C 
HETATM    8  N2  UNL     1       5.848   7.021  25.182  1.00  0.00    -0.072 N 
ATOM      9  H21 UNL     1       5.462   7.921  24.895  1.00  0.00     0.277 HD
ATOM     10  H22 UNL     1       5.038   6.645  25.676  1.00  0.00     0.277 HD
HETATM   11  C8  UNL     1       6.178   6.208  24.033  1.00  0.00     0.260 C 
HETATM   12  C9  UNL     1       6.879   4.945  24.515  1.00  0.00     0.265 C 
ENDROOT
BRANCH   1  13
HETATM   13  C1  UNL     1       9.736   5.202  23.351  1.00  0.00     0.197 C 
BRANCH  13  14
HETATM   14  O1  UNL     1       9.428   4.448  22.244  1.00  0.00    -0.399 OA
ATOM     15  H1  UNL     1       8.838   4.842  21.613  1.00  0.00     0.209 HD
ENDBRANCH  13  14
ENDBRANCH   1  13
TORSDOF 2
ENDMDL
