MODEL 1
REMARK VINA RESULT: -7.166508942      0.000      0.000
REMARK  11 active torsions:
REMARK  status: ('A' for Active; 'I' for Inactive)
REMARK       I    between atoms: C2_2  and  N1_4 
REMARK    1  A    between atoms: C4_7  and  C5_8 
REMARK    2  A    between atoms: C5_8  and  C6_9 
REMARK    3  A    between atoms: C6_9  and  C7_10 
REMARK    4  A    between atoms: C11_18  and  C12_19 
REMARK    5  A    between atoms: C13_20  and  C14_21 
REMARK    6  A    between atoms: C14_21  and  C15_22 
REMARK    7  A    between atoms: C15_22  and  N4_23 
REMARK    8  A    between atoms: C18_31  and  C19_32 
REMARK    9  A    between atoms: C18_31  and  N10_51 
REMARK   10  A    between atoms: C19_32  and  N6_33 
REMARK       I    between atoms: N7_36  and  C22_37 
REMARK       I    between atoms: C22_37  and  N8_39 
REMARK   11  A    between atoms: N8_39  and  C23_41 
ROOT
HETATM    1  C1  UNL     1       0.755  22.745   1.334  1.00  0.00     0.117 C 
HETATM    2  C2  UNL     1       1.919  23.512   0.883  1.00  0.00     0.223 C 
HETATM    3  O1  UNL     1       1.769  24.355  -0.063  1.00  0.00    -0.273 OA
HETATM    4  N1  UNL     1       3.207  23.348   1.472  1.00  0.00    -0.280 N 
HETATM    5  C3  UNL     1       4.209  24.279   1.012  1.00  0.00     0.231 C 
HETATM    6  O2  UNL     1       4.219  24.357  -0.238  1.00  0.00    -0.272 OA
HETATM    7  C4  UNL     1       5.177  25.116   1.835  1.00  0.00     0.088 C 
HETATM    8  C8  UNL     1       4.788  25.074   3.282  1.00  0.00     0.067 C 
HETATM    9  C9  UNL     1       5.023  23.751   3.917  1.00  0.00     0.091 C 
HETATM   10  C10 UNL     1       4.778  22.519   3.092  1.00  0.00     0.055 C 
HETATM   11  C11 UNL     1       3.432  22.348   2.495  1.00  0.00     0.120 C 
HETATM   12  N5  UNL     1       4.247  23.497   5.119  1.00  0.00    -0.394 N 
ATOM     13  H5  UNL     1       4.287  22.619   5.636  1.00  0.00     0.159 HD
HETATM   14  C16 UNL     1       3.442  24.569   5.497  1.00  0.00     0.082 C 
HETATM   15  C17 UNL     1       3.638  25.840   5.135  1.00  0.00     0.035 C 
HETATM   16  C18 UNL     1       4.837  26.204   4.229  1.00  0.00     0.187 C 
ENDROOT
BRANCH  16  17
HETATM   17  C19 UNL     1       5.893  26.323   5.239  1.00  0.00     0.126 C 
BRANCH  17  18
HETATM   18  N6  UNL     1       7.252  26.596   5.142  1.00  0.00    -0.193 N 
HETATM   19  C20 UNL     1       8.067  27.775   5.018  1.00  0.00     0.167 C 
HETATM   20  C21 UNL     1       9.227  27.446   5.966  1.00  0.00     0.173 C 
HETATM   21  N7  UNL     1       9.557  26.131   5.402  1.00  0.00    -0.131 N 
HETATM   22  C22 UNL     1      10.874  25.650   5.250  1.00  0.00     0.337 C 
HETATM   23  C29 UNL     1       8.308  25.567   5.104  1.00  0.00     0.684 C 
HETATM   24  O3  UNL     1      11.831  26.401   5.640  1.00  0.00    -0.246 OA
HETATM   25  N8  UNL     1      11.269  24.413   4.704  1.00  0.00    -0.338 N 
ATOM     26  H8  UNL     1      10.542  23.777   4.374  1.00  0.00     0.164 HD
HETATM   27  N9  UNL     1       8.153  24.313   4.835  1.00  0.00    -0.234 N 
ATOM     28  H92 UNL     1       7.245  23.903   4.619  1.00  0.00     0.174 HD
ATOM     29  H91 UNL     1       8.883  23.601   4.809  1.00  0.00     0.174 HD
BRANCH  25  30
HETATM   30  C23 UNL     1      12.653  23.996   4.586  1.00  0.00     0.086 C 
HETATM   31  C24 UNL     1      13.073  23.053   5.686  1.00  0.00     0.025 C 
HETATM   32  C25 UNL     1      14.557  22.817   5.631  1.00  0.00     0.002 C 
HETATM   33  C26 UNL     1      15.085  23.006   4.243  1.00  0.00     0.000 C 
HETATM   34  C27 UNL     1      14.070  22.415   3.277  1.00  0.00     0.002 C 
HETATM   35  C28 UNL     1      12.769  23.190   3.281  1.00  0.00     0.025 C 
ENDBRANCH  25  30
ENDBRANCH  17  18
ENDBRANCH  16  17
BRANCH  16  36
HETATM   36  N10 UNL     1       4.361  27.494   3.737  1.00  0.00    -0.053 N 
HETATM   37  C30 UNL     1       5.232  28.076   2.753  1.00  0.00     0.274 C 
HETATM   38  C31 UNL     1       3.010  27.458   3.281  1.00  0.00     0.239 C 
HETATM   39  C32 UNL     1       2.595  28.734   2.562  1.00  0.00     0.028 C 
HETATM   40  C33 UNL     1       3.070  29.949   3.316  1.00  0.00     0.003 C 
HETATM   41  C34 UNL     1       3.221  29.485   4.729  1.00  0.00     0.028 C 
HETATM   42  C35 UNL     1       4.344  28.492   4.812  1.00  0.00     0.239 C 
ENDBRANCH  16  36
BRANCH   7  43
HETATM   43  C5  UNL     1       6.542  24.656   1.484  1.00  0.00     0.022 C 
BRANCH  43  44
HETATM   44  C6  UNL     1       7.596  25.651   1.269  1.00  0.00     0.073 C 
BRANCH  44  45
HETATM   45  C7  UNL     1       8.963  25.326   1.649  1.00  0.00     0.086 C 
HETATM   46  N2  UNL     1       9.892  26.188   1.698  1.00  0.00    -0.391 N 
ATOM     47  H22 UNL     1       9.615  27.131   1.427  1.00  0.00     0.157 HD
ATOM     48  H21 UNL     1      10.849  25.960   1.964  1.00  0.00     0.157 HD
HETATM   49  N3  UNL     1       9.354  23.992   2.031  1.00  0.00    -0.088 NA
ENDBRANCH  44  45
ENDBRANCH  43  44
ENDBRANCH   7  43
BRANCH  11  50
HETATM   50  C12 UNL     1       3.261  20.945   2.026  1.00  0.00    -0.005 C 
HETATM   51  C13 UNL     1       3.811  19.807   2.730  1.00  0.00    -0.027 C 
BRANCH  51  52
HETATM   52  C14 UNL     1       3.471  19.354   4.063  1.00  0.00     0.054 C 
BRANCH  52  53
HETATM   53  C15 UNL     1       3.736  17.910   4.408  1.00  0.00     0.233 C 
BRANCH  53  54
HETATM   54  N4  UNL     1       5.053  17.705   4.980  1.00  0.00    -0.079 N 
ATOM     55  H43 UNL     1       5.721  18.384   4.614  1.00  0.00     0.274 HD
ATOM     56  H42 UNL     1       5.071  17.971   5.964  1.00  0.00     0.274 HD
ATOM     57  H41 UNL     1       5.394  16.753   4.851  1.00  0.00     0.274 HD
ENDBRANCH  53  54
ENDBRANCH  52  53
ENDBRANCH  51  52
ENDBRANCH  11  50
TORSDOF 11
ENDMDL
MODEL 2
REMARK VINA RESULT: -7.076325061      2.223      6.018
REMARK  11 active torsions:
REMARK  status: ('A' for Active; 'I' for Inactive)
REMARK       I    between atoms: C2_2  and  N1_4 
REMARK    1  A    between atoms: C4_7  and  C5_8 
REMARK    2  A    between atoms: C5_8  and  C6_9 
REMARK    3  A    between atoms: C6_9  and  C7_10 
REMARK    4  A    between atoms: C11_18  and  C12_19 
REMARK    5  A    between atoms: C13_20  and  C14_21 
REMARK    6  A    between atoms: C14_21  and  C15_22 
REMARK    7  A    between atoms: C15_22  and  N4_23 
REMARK    8  A    between atoms: C18_31  and  C19_32 
REMARK    9  A    between atoms: C18_31  and  N10_51 
REMARK   10  A    between atoms: C19_32  and  N6_33 
REMARK       I    between atoms: N7_36  and  C22_37 
REMARK       I    between atoms: C22_37  and  N8_39 
REMARK   11  A    between atoms: N8_39  and  C23_41 
ROOT
HETATM    1  C1  UNL     1       4.527  29.090   0.952  1.00  0.00     0.117 C 
HETATM    2  C2  UNL     1       4.647  27.634   1.059  1.00  0.00     0.223 C 
HETATM    3  O1  UNL     1       4.761  26.948  -0.010  1.00  0.00    -0.273 OA
HETATM    4  N1  UNL     1       4.647  26.967   2.319  1.00  0.00    -0.280 N 
HETATM    5  C3  UNL     1       4.918  25.550   2.257  1.00  0.00     0.231 C 
HETATM    6  O2  UNL     1       4.225  24.992   1.375  1.00  0.00    -0.272 OA
HETATM    7  C4  UNL     1       5.895  24.733   3.089  1.00  0.00     0.088 C 
HETATM    8  C8  UNL     1       6.802  25.646   3.858  1.00  0.00     0.067 C 
HETATM    9  C9  UNL     1       6.113  26.375   4.954  1.00  0.00     0.091 C 
HETATM   10  C10 UNL     1       4.700  26.831   4.718  1.00  0.00     0.055 C 
HETATM   11  C11 UNL     1       4.444  27.704   3.548  1.00  0.00     0.120 C 
HETATM   12  N5  UNL     1       6.776  27.590   5.399  1.00  0.00    -0.394 N 
ATOM     13  H5  UNL     1       6.395  28.202   6.121  1.00  0.00     0.159 HD
HETATM   14  C16 UNL     1       7.979  27.837   4.745  1.00  0.00     0.082 C 
HETATM   15  C17 UNL     1       8.717  26.914   4.121  1.00  0.00     0.035 C 
HETATM   16  C18 UNL     1       8.243  25.442   4.096  1.00  0.00     0.187 C 
ENDROOT
BRANCH  16  17
HETATM   17  C19 UNL     1       8.758  24.986   5.391  1.00  0.00     0.126 C 
BRANCH  17  18
HETATM   18  N6  UNL     1       9.948  25.236   6.064  1.00  0.00    -0.193 N 
HETATM   19  C20 UNL     1      10.588  26.386   6.643  1.00  0.00     0.167 C 
HETATM   20  C21 UNL     1      11.146  25.801   7.947  1.00  0.00     0.173 C 
HETATM   21  N7  UNL     1      11.848  24.657   7.348  1.00  0.00    -0.131 N 
HETATM   22  C22 UNL     1      13.107  24.193   7.784  1.00  0.00     0.337 C 
HETATM   23  C29 UNL     1      10.981  24.219   6.337  1.00  0.00     0.684 C 
HETATM   24  O3  UNL     1      13.657  24.797   8.766  1.00  0.00    -0.246 OA
HETATM   25  N8  UNL     1      13.846  23.119   7.251  1.00  0.00    -0.338 N 
ATOM     26  H8  UNL     1      13.451  22.605   6.463  1.00  0.00     0.164 HD
HETATM   27  N9  UNL     1      11.111  23.076   5.750  1.00  0.00    -0.234 N 
ATOM     28  H92 UNL     1      10.480  22.758   5.015  1.00  0.00     0.174 HD
ATOM     29  H91 UNL     1      11.825  22.372   5.939  1.00  0.00     0.174 HD
BRANCH  25  30
HETATM   30  C23 UNL     1      15.138  22.705   7.764  1.00  0.00     0.086 C 
HETATM   31  C24 UNL     1      15.026  21.819   8.979  1.00  0.00     0.025 C 
HETATM   32  C25 UNL     1      16.384  21.590   9.583  1.00  0.00     0.002 C 
HETATM   33  C26 UNL     1      17.464  21.715   8.554  1.00  0.00     0.000 C 
HETATM   34  C27 UNL     1      16.959  21.073   7.271  1.00  0.00     0.002 C 
HETATM   35  C28 UNL     1      15.796  21.839   6.676  1.00  0.00     0.025 C 
ENDBRANCH  25  30
ENDBRANCH  17  18
ENDBRANCH  16  17
BRANCH  16  36
HETATM   36  N10 UNL     1       9.035  24.972   2.962  1.00  0.00    -0.053 N 
HETATM   37  C30 UNL     1       8.550  25.454   1.698  1.00  0.00     0.274 C 
HETATM   38  C31 UNL     1      10.433  25.218   3.112  1.00  0.00     0.239 C 
HETATM   39  C32 UNL     1      11.222  24.938   1.841  1.00  0.00     0.028 C 
HETATM   40  C33 UNL     1      10.781  23.640   1.215  1.00  0.00     0.003 C 
HETATM   41  C34 UNL     1      10.204  22.849   2.346  1.00  0.00     0.028 C 
HETATM   42  C35 UNL     1       8.947  23.514   2.829  1.00  0.00     0.239 C 
ENDBRANCH  16  36
BRANCH   7  43
HETATM   43  C5  UNL     1       5.084  23.766   3.868  1.00  0.00     0.022 C 
BRANCH  43  44
HETATM   44  C6  UNL     1       5.486  22.357   3.892  1.00  0.00     0.073 C 
BRANCH  44  45
HETATM   45  C7  UNL     1       4.515  21.352   4.299  1.00  0.00     0.086 C 
HETATM   46  N2  UNL     1       4.805  20.373   5.051  1.00  0.00    -0.391 N 
ATOM     47  H22 UNL     1       5.784  20.327   5.335  1.00  0.00     0.157 HD
ATOM     48  H21 UNL     1       4.125  19.670   5.337  1.00  0.00     0.157 HD
HETATM   49  N3  UNL     1       3.132  21.418   3.899  1.00  0.00    -0.088 NA
ENDBRANCH  44  45
ENDBRANCH  43  44
ENDBRANCH   7  43
BRANCH  11  50
HETATM   50  C12 UNL     1       3.099  28.332   3.669  1.00  0.00    -0.005 C 
HETATM   51  C13 UNL     1       2.683  29.082   4.836  1.00  0.00    -0.027 C 
BRANCH  51  52
HETATM   52  C14 UNL     1       3.253  30.317   5.332  1.00  0.00     0.054 C 
BRANCH  52  53
HETATM   53  C15 UNL     1       4.383  30.224   6.326  1.00  0.00     0.233 C 
BRANCH  53  54
HETATM   54  N4  UNL     1       4.100  29.302   7.409  1.00  0.00    -0.079 N 
ATOM     55  H43 UNL     1       3.258  29.578   7.915  1.00  0.00     0.274 HD
ATOM     56  H42 UNL     1       3.787  28.400   7.050  1.00  0.00     0.274 HD
ATOM     57  H41 UNL     1       4.889  29.188   8.045  1.00  0.00     0.274 HD
ENDBRANCH  53  54
ENDBRANCH  52  53
ENDBRANCH  51  52
ENDBRANCH  11  50
TORSDOF 11
ENDMDL
MODEL 3
REMARK VINA RESULT: -6.909632668      2.208      5.534
REMARK  11 active torsions:
REMARK  status: ('A' for Active; 'I' for Inactive)
REMARK       I    between atoms: C2_2  and  N1_4 
REMARK    1  A    between atoms: C4_7  and  C5_8 
REMARK    2  A    between atoms: C5_8  and  C6_9 
REMARK    3  A    between atoms: C6_9  and  C7_10 
REMARK    4  A    between atoms: C11_18  and  C12_19 
REMARK    5  A    between atoms: C13_20  and  C14_21 
REMARK    6  A    between atoms: C14_21  and  C15_22 
REMARK    7  A    between atoms: C15_22  and  N4_23 
REMARK    8  A    between atoms: C18_31  and  C19_32 
REMARK    9  A    between atoms: C18_31  and  N10_51 
REMARK   10  A    between atoms: C19_32  and  N6_33 
REMARK       I    between atoms: N7_36  and  C22_37 
REMARK       I    between atoms: C22_37  and  N8_39 
REMARK   11  A    between atoms: N8_39  and  C23_41 
ROOT
HETATM    1  C1  UNL     1       4.485  29.078   1.050  1.00  0.00     0.117 C 
HETATM    2  C2  UNL     1       4.625  27.623   1.149  1.00  0.00     0.223 C 
HETATM    3  O1  UNL     1       4.745  26.944   0.075  1.00  0.00    -0.273 OA
HETATM    4  N1  UNL     1       4.638  26.948   2.404  1.00  0.00    -0.280 N 
HETATM    5  C3  UNL     1       4.928  25.536   2.334  1.00  0.00     0.231 C 
HETATM    6  O2  UNL     1       4.240  24.973   1.451  1.00  0.00    -0.272 OA
HETATM    7  C4  UNL     1       5.918  24.728   3.158  1.00  0.00     0.088 C 
HETATM    8  C8  UNL     1       6.815  25.649   3.930  1.00  0.00     0.067 C 
HETATM    9  C9  UNL     1       6.119  26.362   5.032  1.00  0.00     0.091 C 
HETATM   10  C10 UNL     1       4.699  26.800   4.803  1.00  0.00     0.055 C 
HETATM   11  C11 UNL     1       4.428  27.677   3.639  1.00  0.00     0.120 C 
HETATM   12  N5  UNL     1       6.766  27.583   5.482  1.00  0.00    -0.394 N 
ATOM     13  H5  UNL     1       6.380  28.186   6.209  1.00  0.00     0.159 HD
HETATM   14  C16 UNL     1       7.965  27.851   4.826  1.00  0.00     0.082 C 
HETATM   15  C17 UNL     1       8.713  26.941   4.195  1.00  0.00     0.035 C 
HETATM   16  C18 UNL     1       8.260  25.463   4.163  1.00  0.00     0.187 C 
ENDROOT
BRANCH  16  17
HETATM   17  C19 UNL     1       8.784  25.007   5.454  1.00  0.00     0.126 C 
BRANCH  17  18
HETATM   18  N6  UNL     1       9.991  25.233   6.105  1.00  0.00    -0.193 N 
HETATM   19  C20 UNL     1      10.663  26.370   6.675  1.00  0.00     0.167 C 
HETATM   20  C21 UNL     1      11.235  25.771   7.966  1.00  0.00     0.173 C 
HETATM   21  N7  UNL     1      11.905  24.616   7.351  1.00  0.00    -0.131 N 
HETATM   22  C22 UNL     1      13.163  24.128   7.761  1.00  0.00     0.337 C 
HETATM   23  C29 UNL     1      11.010  24.197   6.355  1.00  0.00     0.684 C 
HETATM   24  O3  UNL     1      13.742  24.720   8.734  1.00  0.00    -0.246 OA
HETATM   25  N8  UNL     1      13.872  23.043   7.211  1.00  0.00    -0.338 N 
ATOM     26  H8  UNL     1      13.454  22.539   6.430  1.00  0.00     0.164 HD
HETATM   27  N9  UNL     1      11.108  23.054   5.763  1.00  0.00    -0.234 N 
ATOM     28  H92 UNL     1      10.459  22.749   5.039  1.00  0.00     0.174 HD
ATOM     29  H91 UNL     1      11.813  22.337   5.936  1.00  0.00     0.174 HD
BRANCH  25  30
HETATM   30  C23 UNL     1      15.167  22.604   7.699  1.00  0.00     0.086 C 
HETATM   31  C24 UNL     1      15.062  21.724   8.918  1.00  0.00     0.025 C 
HETATM   32  C25 UNL     1      16.427  21.469   9.495  1.00  0.00     0.002 C 
HETATM   33  C26 UNL     1      17.488  21.570   8.443  1.00  0.00     0.000 C 
HETATM   34  C27 UNL     1      16.943  20.934   7.173  1.00  0.00     0.002 C 
HETATM   35  C28 UNL     1      15.783  21.723   6.600  1.00  0.00     0.025 C 
ENDBRANCH  25  30
ENDBRANCH  17  18
ENDBRANCH  16  17
BRANCH  16  36
HETATM   36  N10 UNL     1       9.055  25.011   3.024  1.00  0.00    -0.053 N 
HETATM   37  C30 UNL     1       8.594  25.539   1.770  1.00  0.00     0.274 C 
HETATM   38  C31 UNL     1      10.455  25.223   3.196  1.00  0.00     0.239 C 
HETATM   39  C32 UNL     1      11.253  24.965   1.926  1.00  0.00     0.028 C 
HETATM   40  C33 UNL     1      10.793  23.694   1.258  1.00  0.00     0.003 C 
HETATM   41  C34 UNL     1      10.187  22.883   2.358  1.00  0.00     0.028 C 
HETATM   42  C35 UNL     1       8.939  23.559   2.848  1.00  0.00     0.239 C 
ENDBRANCH  16  36
BRANCH   7  43
HETATM   43  C5  UNL     1       5.123  23.745   3.934  1.00  0.00     0.022 C 
BRANCH  43  44
HETATM   44  C6  UNL     1       5.374  22.314   3.740  1.00  0.00     0.073 C 
BRANCH  44  45
HETATM   45  C7  UNL     1       4.423  21.352   4.274  1.00  0.00     0.086 C 
HETATM   46  N2  UNL     1       4.743  20.449   5.105  1.00  0.00    -0.391 N 
ATOM     47  H22 UNL     1       5.731  20.432   5.358  1.00  0.00     0.157 HD
ATOM     48  H21 UNL     1       4.076  19.775   5.480  1.00  0.00     0.157 HD
HETATM   49  N3  UNL     1       3.026  21.377   3.917  1.00  0.00    -0.088 NA
ENDBRANCH  44  45
ENDBRANCH  43  44
ENDBRANCH   7  43
BRANCH  11  50
HETATM   50  C12 UNL     1       3.075  28.285   3.767  1.00  0.00    -0.005 C 
HETATM   51  C13 UNL     1       1.867  27.616   3.334  1.00  0.00    -0.027 C 
BRANCH  51  52
HETATM   52  C14 UNL     1       1.312  26.384   3.857  1.00  0.00     0.054 C 
BRANCH  52  53
HETATM   53  C15 UNL     1       0.902  25.319   2.872  1.00  0.00     0.233 C 
BRANCH  53  54
HETATM   54  N4  UNL     1       1.689  24.107   3.000  1.00  0.00    -0.079 N 
ATOM     55  H43 UNL     1       2.527  24.151   2.420  1.00  0.00     0.274 HD
ATOM     56  H42 UNL     1       2.127  24.050   3.919  1.00  0.00     0.274 HD
ATOM     57  H41 UNL     1       1.149  23.265   2.799  1.00  0.00     0.274 HD
ENDBRANCH  53  54
ENDBRANCH  52  53
ENDBRANCH  51  52
ENDBRANCH  11  50
TORSDOF 11
ENDMDL
MODEL 4
REMARK VINA RESULT: -6.901550054      2.760      6.158
REMARK  11 active torsions:
REMARK  status: ('A' for Active; 'I' for Inactive)
REMARK       I    between atoms: C2_2  and  N1_4 
REMARK    1  A    between atoms: C4_7  and  C5_8 
REMARK    2  A    between atoms: C5_8  and  C6_9 
REMARK    3  A    between atoms: C6_9  and  C7_10 
REMARK    4  A    between atoms: C11_18  and  C12_19 
REMARK    5  A    between atoms: C13_20  and  C14_21 
REMARK    6  A    between atoms: C14_21  and  C15_22 
REMARK    7  A    between atoms: C15_22  and  N4_23 
REMARK    8  A    between atoms: C18_31  and  C19_32 
REMARK    9  A    between atoms: C18_31  and  N10_51 
REMARK   10  A    between atoms: C19_32  and  N6_33 
REMARK       I    between atoms: N7_36  and  C22_37 
REMARK       I    between atoms: C22_37  and  N8_39 
REMARK   11  A    between atoms: N8_39  and  C23_41 
ROOT
HETATM    1  C1  UNL     1       4.296  25.999  -0.463  1.00  0.00     0.117 C 
HETATM    2  C2  UNL     1       4.427  25.571   0.932  1.00  0.00     0.223 C 
HETATM    3  O1  UNL     1       3.789  24.535   1.318  1.00  0.00    -0.273 OA
HETATM    4  N1  UNL     1       5.247  26.272   1.864  1.00  0.00    -0.280 N 
HETATM    5  C3  UNL     1       5.379  25.639   3.155  1.00  0.00     0.231 C 
HETATM    6  O2  UNL     1       4.264  25.289   3.607  1.00  0.00    -0.272 OA
HETATM    7  C4  UNL     1       6.645  25.368   3.954  1.00  0.00     0.088 C 
HETATM    8  C8  UNL     1       7.852  25.605   3.098  1.00  0.00     0.067 C 
HETATM    9  C9  UNL     1       8.077  27.040   2.781  1.00  0.00     0.091 C 
HETATM   10  C10 UNL     1       6.872  27.907   2.544  1.00  0.00     0.055 C 
HETATM   11  C11 UNL     1       5.924  27.494   1.482  1.00  0.00     0.120 C 
HETATM   12  N5  UNL     1       8.894  27.291   1.605  1.00  0.00    -0.394 N 
ATOM     13  H5  UNL     1       9.100  28.227   1.257  1.00  0.00     0.159 HD
HETATM   14  C16 UNL     1       9.367  26.130   0.999  1.00  0.00     0.082 C 
HETATM   15  C17 UNL     1       9.488  24.944   1.604  1.00  0.00     0.035 C 
HETATM   16  C18 UNL     1       9.085  24.796   3.089  1.00  0.00     0.187 C 
ENDROOT
BRANCH  16  17
HETATM   17  C19 UNL     1      10.319  25.255   3.735  1.00  0.00     0.126 C 
BRANCH  17  18
HETATM   18  N6  UNL     1      10.896  24.961   4.965  1.00  0.00    -0.193 N 
HETATM   19  C20 UNL     1      10.682  25.356   6.331  1.00  0.00     0.167 C 
HETATM   20  C21 UNL     1      10.851  24.020   7.066  1.00  0.00     0.173 C 
HETATM   21  N7  UNL     1      12.152  23.657   6.487  1.00  0.00    -0.131 N 
HETATM   22  C22 UNL     1      13.187  23.033   7.214  1.00  0.00     0.337 C 
HETATM   23  C29 UNL     1      12.053  24.066   5.149  1.00  0.00     0.684 C 
HETATM   24  O3  UNL     1      12.971  22.759   8.443  1.00  0.00    -0.246 OA
HETATM   25  N8  UNL     1      14.461  22.671   6.734  1.00  0.00    -0.338 N 
ATOM     26  H8  UNL     1      14.686  22.872   5.759  1.00  0.00     0.164 HD
HETATM   27  N9  UNL     1      12.888  23.687   4.239  1.00  0.00    -0.234 N 
ATOM     28  H92 UNL     1      12.816  23.985   3.267  1.00  0.00     0.174 HD
ATOM     29  H91 UNL     1      13.689  23.068   4.366  1.00  0.00     0.174 HD
BRANCH  25  30
HETATM   30  C23 UNL     1      15.471  22.028   7.554  1.00  0.00     0.086 C 
HETATM   31  C24 UNL     1      16.350  21.090   6.766  1.00  0.00     0.025 C 
HETATM   32  C25 UNL     1      17.237  20.305   7.694  1.00  0.00     0.002 C 
HETATM   33  C26 UNL     1      17.489  21.054   8.965  1.00  0.00     0.000 C 
HETATM   34  C27 UNL     1      17.676  22.521   8.610  1.00  0.00     0.002 C 
HETATM   35  C28 UNL     1      16.403  23.138   8.069  1.00  0.00     0.025 C 
ENDBRANCH  25  30
ENDBRANCH  17  18
ENDBRANCH  16  17
BRANCH  16  36
HETATM   36  N10 UNL     1       8.918  23.346   3.132  1.00  0.00    -0.053 N 
HETATM   37  C30 UNL     1       8.976  22.811   4.464  1.00  0.00     0.274 C 
HETATM   38  C31 UNL     1       7.755  22.893   2.439  1.00  0.00     0.239 C 
HETATM   39  C32 UNL     1       7.461  21.419   2.678  1.00  0.00     0.028 C 
HETATM   40  C33 UNL     1       8.723  20.601   2.579  1.00  0.00     0.003 C 
HETATM   41  C34 UNL     1       9.636  21.413   1.717  1.00  0.00     0.028 C 
HETATM   42  C35 UNL     1      10.022  22.669   2.443  1.00  0.00     0.239 C 
ENDBRANCH  16  36
BRANCH   7  43
HETATM   43  C5  UNL     1       6.533  26.155   5.206  1.00  0.00     0.022 C 
BRANCH  43  44
HETATM   44  C6  UNL     1       7.742  26.746   5.786  1.00  0.00     0.073 C 
BRANCH  44  45
HETATM   45  C7  UNL     1       7.682  28.098   6.319  1.00  0.00     0.086 C 
HETATM   46  N2  UNL     1       6.634  28.811   6.282  1.00  0.00    -0.391 N 
ATOM     47  H22 UNL     1       5.833  28.372   5.828  1.00  0.00     0.157 HD
ATOM     48  H21 UNL     1       6.592  29.759   6.656  1.00  0.00     0.157 HD
HETATM   49  N3  UNL     1       8.814  28.719   6.961  1.00  0.00    -0.088 NA
ENDBRANCH  44  45
ENDBRANCH  43  44
ENDBRANCH   7  43
BRANCH  11  50
HETATM   50  C12 UNL     1       5.010  28.622   1.153  1.00  0.00    -0.005 C 
HETATM   51  C13 UNL     1       3.744  28.831   1.823  1.00  0.00    -0.027 C 
BRANCH  51  52
HETATM   52  C14 UNL     1       3.534  29.130   3.224  1.00  0.00     0.054 C 
BRANCH  52  53
HETATM   53  C15 UNL     1       2.560  28.273   3.992  1.00  0.00     0.233 C 
BRANCH  53  54
HETATM   54  N4  UNL     1       3.157  27.662   5.164  1.00  0.00    -0.079 N 
ATOM     55  H43 UNL     1       4.099  27.328   4.964  1.00  0.00     0.274 HD
ATOM     56  H42 UNL     1       3.378  28.365   5.870  1.00  0.00     0.274 HD
ATOM     57  H41 UNL     1       2.580  26.918   5.556  1.00  0.00     0.274 HD
ENDBRANCH  53  54
ENDBRANCH  52  53
ENDBRANCH  51  52
ENDBRANCH  11  50
TORSDOF 11
ENDMDL
MODEL 5
REMARK VINA RESULT: -6.734652750      2.670      5.404
REMARK  11 active torsions:
REMARK  status: ('A' for Active; 'I' for Inactive)
REMARK       I    between atoms: C2_2  and  N1_4 
REMARK    1  A    between atoms: C4_7  and  C5_8 
REMARK    2  A    between atoms: C5_8  and  C6_9 
REMARK    3  A    between atoms: C6_9  and  C7_10 
REMARK    4  A    between atoms: C11_18  and  C12_19 
REMARK    5  A    between atoms: C13_20  and  C14_21 
REMARK    6  A    between atoms: C14_21  and  C15_22 
REMARK    7  A    between atoms: C15_22  and  N4_23 
REMARK    8  A    between atoms: C18_31  and  C19_32 
REMARK    9  A    between atoms: C18_31  and  N10_51 
REMARK   10  A    between atoms: C19_32  and  N6_33 
REMARK       I    between atoms: N7_36  and  C22_37 
REMARK       I    between atoms: C22_37  and  N8_39 
REMARK   11  A    between atoms: N8_39  and  C23_41 
ROOT
HETATM    1  C1  UNL     1       3.701  22.764   4.984  1.00  0.00     0.117 C 
HETATM    2  C2  UNL     1       4.154  24.156   4.934  1.00  0.00     0.223 C 
HETATM    3  O1  UNL     1       3.737  24.969   5.825  1.00  0.00    -0.273 OA
HETATM    4  N1  UNL     1       5.047  24.625   3.927  1.00  0.00    -0.280 N 
HETATM    5  C3  UNL     1       5.506  25.982   4.104  1.00  0.00     0.231 C 
HETATM    6  O2  UNL     1       4.553  26.757   4.351  1.00  0.00    -0.272 OA
HETATM    7  C4  UNL     1       6.927  26.521   4.032  1.00  0.00     0.088 C 
HETATM    8  C8  UNL     1       7.905  25.385   4.016  1.00  0.00     0.067 C 
HETATM    9  C9  UNL     1       7.885  24.609   2.749  1.00  0.00     0.091 C 
HETATM   10  C10 UNL     1       6.560  24.398   2.072  1.00  0.00     0.055 C 
HETATM   11  C11 UNL     1       5.481  23.751   2.856  1.00  0.00     0.120 C 
HETATM   12  N5  UNL     1       8.419  23.260   2.844  1.00  0.00    -0.394 N 
ATOM     13  H5  UNL     1       8.436  22.609   2.059  1.00  0.00     0.159 HD
HETATM   14  C16 UNL     1       8.905  22.943   4.109  1.00  0.00     0.082 C 
HETATM   15  C17 UNL     1       9.286  23.833   5.030  1.00  0.00     0.035 C 
HETATM   16  C18 UNL     1       9.203  25.345   4.716  1.00  0.00     0.187 C 
ENDROOT
BRANCH  16  17
HETATM   17  C19 UNL     1      10.473  25.528   4.005  1.00  0.00     0.126 C 
BRANCH  17  18
HETATM   18  N6  UNL     1      11.763  25.084   4.268  1.00  0.00    -0.193 N 
HETATM   19  C20 UNL     1      12.908  25.588   4.979  1.00  0.00     0.167 C 
HETATM   20  C21 UNL     1      13.409  24.322   5.686  1.00  0.00     0.173 C 
HETATM   21  N7  UNL     1      13.467  23.460   4.497  1.00  0.00    -0.131 N 
HETATM   22  C22 UNL     1      14.487  22.515   4.263  1.00  0.00     0.337 C 
HETATM   23  C29 UNL     1      12.328  23.820   3.762  1.00  0.00     0.684 C 
HETATM   24  O3  UNL     1      15.404  22.396   5.145  1.00  0.00    -0.246 OA
HETATM   25  N8  UNL     1      14.619  21.669   3.144  1.00  0.00    -0.338 N 
ATOM     26  H8  UNL     1      13.914  21.727   2.409  1.00  0.00     0.164 HD
HETATM   27  N9  UNL     1      11.876  23.111   2.782  1.00  0.00    -0.234 N 
ATOM     28  H92 UNL     1      11.048  23.372   2.247  1.00  0.00     0.174 HD
ATOM     29  H91 UNL     1      12.266  22.236   2.432  1.00  0.00     0.174 HD
BRANCH  25  30
HETATM   30  C23 UNL     1      15.704  20.719   2.983  1.00  0.00     0.086 C 
HETATM   31  C24 UNL     1      15.780  19.724   4.113  1.00  0.00     0.025 C 
HETATM   32  C25 UNL     1      17.034  18.901   4.000  1.00  0.00     0.002 C 
HETATM   33  C26 UNL     1      17.497  18.812   2.579  1.00  0.00     0.000 C 
HETATM   34  C27 UNL     1      16.266  18.656   1.699  1.00  0.00     0.002 C 
HETATM   35  C28 UNL     1      15.394  19.894   1.723  1.00  0.00     0.025 C 
ENDBRANCH  25  30
ENDBRANCH  17  18
ENDBRANCH  16  17
BRANCH  16  36
HETATM   36  N10 UNL     1       9.228  25.859   6.082  1.00  0.00    -0.053 N 
HETATM   37  C30 UNL     1       9.905  27.121   6.197  1.00  0.00     0.274 C 
HETATM   38  C31 UNL     1       7.937  25.903   6.690  1.00  0.00     0.239 C 
HETATM   39  C32 UNL     1       7.934  26.648   8.018  1.00  0.00     0.028 C 
HETATM   40  C33 UNL     1       9.114  26.238   8.861  1.00  0.00     0.003 C 
HETATM   41  C34 UNL     1       9.479  24.874   8.367  1.00  0.00     0.028 C 
HETATM   42  C35 UNL     1       9.999  24.975   6.962  1.00  0.00     0.239 C 
ENDBRANCH  16  36
BRANCH   7  43
HETATM   43  C5  UNL     1       6.965  27.469   2.893  1.00  0.00     0.022 C 
BRANCH  43  44
HETATM   44  C6  UNL     1       5.994  27.316   1.806  1.00  0.00     0.073 C 
BRANCH  44  45
HETATM   45  C7  UNL     1       5.061  28.399   1.535  1.00  0.00     0.086 C 
HETATM   46  N2  UNL     1       4.540  29.109   2.447  1.00  0.00    -0.391 N 
ATOM     47  H22 UNL     1       4.807  28.849   3.397  1.00  0.00     0.157 HD
ATOM     48  H21 UNL     1       3.886  29.868   2.257  1.00  0.00     0.157 HD
HETATM   49  N3  UNL     1       4.685  28.767   0.193  1.00  0.00    -0.088 NA
ENDBRANCH  44  45
ENDBRANCH  43  44
ENDBRANCH   7  43
BRANCH  11  50
HETATM   50  C12 UNL     1       4.388  23.310   1.946  1.00  0.00    -0.005 C 
HETATM   51  C13 UNL     1       3.173  24.072   1.749  1.00  0.00    -0.027 C 
BRANCH  51  52
HETATM   52  C14 UNL     1       3.053  25.397   1.176  1.00  0.00     0.054 C 
BRANCH  52  53
HETATM   53  C15 UNL     1       2.056  26.346   1.792  1.00  0.00     0.233 C 
BRANCH  53  54
HETATM   54  N4  UNL     1       1.932  26.170   3.227  1.00  0.00    -0.079 N 
ATOM     55  H43 UNL     1       0.981  26.367   3.539  1.00  0.00     0.274 HD
ATOM     56  H42 UNL     1       1.989  25.185   3.482  1.00  0.00     0.274 HD
ATOM     57  H41 UNL     1       2.610  26.724   3.750  1.00  0.00     0.274 HD
ENDBRANCH  53  54
ENDBRANCH  52  53
ENDBRANCH  51  52
ENDBRANCH  11  50
TORSDOF 11
ENDMDL
