MODEL 1
REMARK VINA RESULT: -8.761402900      0.000      0.000
REMARK  11 active torsions:
REMARK  status: ('A' for Active; 'I' for Inactive)
REMARK    1  A    between atoms: N1_6  and  C6_7 
REMARK    2  A    between atoms: C6_7  and  C7_8 
REMARK    3  A    between atoms: C6_7  and  C16_24 
REMARK       I    between atoms: C7_8  and  N2_10 
REMARK       I    between atoms: N2_10  and  C8_12 
REMARK       I    between atoms: C8_12  and  N3_14 
REMARK    4  A    between atoms: N3_14  and  C9_16 
REMARK    5  A    between atoms: C16_24  and  C17_25 
REMARK    6  A    between atoms: C16_24  and  N8_34 
REMARK    7  A    between atoms: C17_25  and  C18_26 
REMARK    8  A    between atoms: C18_26  and  C19_27 
REMARK    9  A    between atoms: C19_27  and  C20_28 
REMARK   10  A    between atoms: C20_28  and  N5_29 
REMARK       I    between atoms: N8_34  and  C22_36 
REMARK   11  A    between atoms: C22_36  and  C23_38 
ROOT
HETATM    1  C16 UNL     1       9.976  25.591   4.916  1.00  0.00     0.127 C 
ENDROOT
BRANCH   1   2
HETATM    2  C6  UNL     1      10.458  24.886   6.127  1.00  0.00     0.337 C 
BRANCH   2   3
HETATM    3  N1  UNL     1      10.619  25.710   7.242  1.00  0.00     0.108 N 
HETATM    4  C5  UNL     1      11.707  25.336   8.125  1.00  0.00     0.274 C 
HETATM    5  C4  UNL     1      11.935  26.366   9.205  1.00  0.00     0.031 C 
HETATM    6  C3  UNL     1      10.930  27.494   9.115  1.00  0.00     0.008 C 
HETATM    7  C2  UNL     1       9.578  26.831   9.169  1.00  0.00     0.014 C 
HETATM    8  C1  UNL     1       8.525  27.894   9.135  1.00  0.00     0.012 C 
HETATM    9  C33 UNL     1       9.420  25.795   8.041  1.00  0.00     0.224 C 
HETATM   10  C34 UNL     1       9.002  24.460   8.633  1.00  0.00     0.043 C 
ENDBRANCH   2   3
BRANCH   2  11
HETATM   11  C7  UNL     1      11.618  24.037   5.765  1.00  0.00     0.261 C 
HETATM   12  O1  UNL     1      11.489  22.807   5.857  1.00  0.00    -0.271 OA
HETATM   13  N2  UNL     1      12.849  24.515   5.328  1.00  0.00    -0.277 N 
HETATM   14  C8  UNL     1      14.011  23.814   5.009  1.00  0.00     0.323 C 
ATOM     15  H2  UNL     1      12.910  25.528   5.225  1.00  0.00     0.173 HD
HETATM   16  O2  UNL     1      15.029  24.530   4.668  1.00  0.00    -0.247 OA
HETATM   17  N3  UNL     1      14.241  22.432   5.002  1.00  0.00    -0.338 N 
ATOM     18  H3  UNL     1      13.485  21.795   5.255  1.00  0.00     0.164 HD
BRANCH  17  19
HETATM   19  C9  UNL     1      15.538  21.893   4.641  1.00  0.00     0.089 C 
HETATM   20  C10 UNL     1      16.172  21.220   5.795  1.00  0.00     0.053 C 
HETATM   21  C11 UNL     1      15.814  19.745   5.814  1.00  0.00     0.238 C 
HETATM   22  N4  UNL     1      16.274  19.046   4.644  1.00  0.00    -0.075 N 
HETATM   23  C12 UNL     1      15.373  17.950   4.275  1.00  0.00     0.272 C 
HETATM   24  C13 UNL     1      17.582  18.454   4.923  1.00  0.00     0.272 C 
HETATM   25  C14 UNL     1      16.437  19.915   3.491  1.00  0.00     0.238 C 
HETATM   26  C15 UNL     1      15.313  20.945   3.472  1.00  0.00     0.053 C 
ENDBRANCH  17  19
ENDBRANCH   2  11
ENDBRANCH   1   2
BRANCH   1  27
HETATM   27  C17 UNL     1       9.586  27.033   5.137  1.00  0.00     0.028 C 
BRANCH  27  28
HETATM   28  C18 UNL     1       8.281  27.491   4.661  1.00  0.00     0.004 C 
BRANCH  28  29
HETATM   29  C19 UNL     1       7.219  27.788   5.683  1.00  0.00     0.020 C 
BRANCH  29  30
HETATM   30  C20 UNL     1       5.829  27.826   5.143  1.00  0.00     0.122 C 
BRANCH  30  31
HETATM   31  N5  UNL     1       5.023  26.854   5.836  1.00  0.00    -0.367 N 
HETATM   32  C21 UNL     1       4.198  27.057   6.784  1.00  0.00     0.196 C 
HETATM   33  N6  UNL     1       3.466  25.954   7.373  1.00  0.00    -0.067 NA
HETATM   34  N7  UNL     1       3.905  28.327   7.350  1.00  0.00    -0.067 NA
ATOM     35  H5  UNL     1       5.127  25.886   5.530  1.00  0.00     0.161 HD
ENDBRANCH  30  31
ENDBRANCH  29  30
ENDBRANCH  28  29
ENDBRANCH  27  28
ENDBRANCH   1  27
BRANCH   1  36
HETATM   36  N8  UNL     1       8.823  24.964   4.321  1.00  0.00    -0.352 N 
HETATM   37  C22 UNL     1       8.944  24.382   3.000  1.00  0.00     0.240 C 
HETATM   38  O3  UNL     1      10.025  24.425   2.389  1.00  0.00    -0.271 OA
ATOM     39  H8  UNL     1       7.936  24.930   4.823  1.00  0.00     0.163 HD
BRANCH  37  40
HETATM   40  C23 UNL     1       7.778  23.722   2.344  1.00  0.00     0.176 C 
HETATM   41  C24 UNL     1       6.712  24.814   2.117  1.00  0.00     0.035 C 
HETATM   42  C25 UNL     1       5.435  24.269   1.577  1.00  0.00     0.012 C 
HETATM   43  C26 UNL     1       4.411  23.908   2.583  1.00  0.00    -0.032 C 
HETATM   44  C27 UNL     1       3.571  22.727   2.162  1.00  0.00     0.016 C 
HETATM   45  C28 UNL     1       3.442  25.011   2.953  1.00  0.00     0.010 C 
HETATM   46  C31 UNL     1       4.990  23.646   3.964  1.00  0.00     0.086 C 
HETATM   47  C29 UNL     1       2.793  24.441   4.223  1.00  0.00     0.002 C 
HETATM   48  C30 UNL     1       3.751  23.359   4.735  1.00  0.00     0.015 C 
HETATM   49  C32 UNL     1       5.951  22.544   3.838  1.00  0.00     0.223 C 
HETATM   50  O4  UNL     1       5.658  21.404   4.232  1.00  0.00    -0.273 OA
HETATM   51  N9  UNL     1       7.253  22.720   3.266  1.00  0.00    -0.347 N 
ATOM     52  H9  UNL     1       7.935  22.018   3.554  1.00  0.00     0.163 HD
ENDBRANCH  37  40
ENDBRANCH   1  36
TORSDOF 11
ENDMDL
MODEL 2
REMARK VINA RESULT: -8.720277001      1.525      1.940
REMARK  11 active torsions:
REMARK  status: ('A' for Active; 'I' for Inactive)
REMARK    1  A    between atoms: N1_6  and  C6_7 
REMARK    2  A    between atoms: C6_7  and  C7_8 
REMARK    3  A    between atoms: C6_7  and  C16_24 
REMARK       I    between atoms: C7_8  and  N2_10 
REMARK       I    between atoms: N2_10  and  C8_12 
REMARK       I    between atoms: C8_12  and  N3_14 
REMARK    4  A    between atoms: N3_14  and  C9_16 
REMARK    5  A    between atoms: C16_24  and  C17_25 
REMARK    6  A    between atoms: C16_24  and  N8_34 
REMARK    7  A    between atoms: C17_25  and  C18_26 
REMARK    8  A    between atoms: C18_26  and  C19_27 
REMARK    9  A    between atoms: C19_27  and  C20_28 
REMARK   10  A    between atoms: C20_28  and  N5_29 
REMARK       I    between atoms: N8_34  and  C22_36 
REMARK   11  A    between atoms: C22_36  and  C23_38 
ROOT
HETATM    1  C16 UNL     1       9.904  25.349   4.890  1.00  0.00     0.127 C 
ENDROOT
BRANCH   1   2
HETATM    2  C6  UNL     1      10.109  25.035   6.323  1.00  0.00     0.337 C 
BRANCH   2   3
HETATM    3  N1  UNL     1       9.919  26.122   7.179  1.00  0.00     0.108 N 
HETATM    4  C5  UNL     1      11.010  26.370   8.101  1.00  0.00     0.274 C 
HETATM    5  C4  UNL     1      10.818  27.658   8.867  1.00  0.00     0.031 C 
HETATM    6  C3  UNL     1       9.507  28.324   8.509  1.00  0.00     0.008 C 
HETATM    7  C2  UNL     1       8.446  27.286   8.769  1.00  0.00     0.014 C 
HETATM    8  C1  UNL     1       7.107  27.891   8.483  1.00  0.00     0.012 C 
HETATM    9  C33 UNL     1       8.709  26.004   7.957  1.00  0.00     0.224 C 
HETATM   10  C34 UNL     1       8.714  24.805   8.889  1.00  0.00     0.043 C 
ENDBRANCH   2   3
BRANCH   2  11
HETATM   11  C7  UNL     1      11.381  24.290   6.481  1.00  0.00     0.261 C 
HETATM   12  O1  UNL     1      11.422  23.381   7.324  1.00  0.00    -0.271 OA
HETATM   13  N2  UNL     1      12.541  24.533   5.753  1.00  0.00    -0.277 N 
HETATM   14  C8  UNL     1      13.794  23.930   5.852  1.00  0.00     0.323 C 
ATOM     15  H2  UNL     1      12.463  25.260   5.041  1.00  0.00     0.173 HD
HETATM   16  O2  UNL     1      14.709  24.393   5.068  1.00  0.00    -0.247 OA
HETATM   17  N3  UNL     1      14.213  22.885   6.685  1.00  0.00    -0.338 N 
ATOM     18  H3  UNL     1      13.548  22.460   7.332  1.00  0.00     0.164 HD
BRANCH  17  19
HETATM   19  C9  UNL     1      15.578  22.396   6.641  1.00  0.00     0.089 C 
HETATM   20  C10 UNL     1      16.453  23.188   7.532  1.00  0.00     0.053 C 
HETATM   21  C11 UNL     1      16.511  22.563   8.914  1.00  0.00     0.238 C 
HETATM   22  N4  UNL     1      17.057  21.232   8.900  1.00  0.00    -0.075 N 
HETATM   23  C12 UNL     1      16.463  20.388   9.941  1.00  0.00     0.272 C 
HETATM   24  C13 UNL     1      18.493  21.300   9.168  1.00  0.00     0.272 C 
HETATM   25  C14 UNL     1      16.894  20.565   7.619  1.00  0.00     0.238 C 
HETATM   26  C15 UNL     1      15.534  20.926   7.031  1.00  0.00     0.053 C 
ENDBRANCH  17  19
ENDBRANCH   2  11
ENDBRANCH   1   2
BRANCH   1  27
HETATM   27  C17 UNL     1       9.747  26.818   4.580  1.00  0.00     0.028 C 
BRANCH  27  28
HETATM   28  C18 UNL     1       8.493  27.283   3.988  1.00  0.00     0.004 C 
BRANCH  28  29
HETATM   29  C19 UNL     1       7.389  27.711   4.915  1.00  0.00     0.020 C 
BRANCH  29  30
HETATM   30  C20 UNL     1       6.023  27.283   4.494  1.00  0.00     0.122 C 
BRANCH  30  31
HETATM   31  N5  UNL     1       5.375  26.614   5.593  1.00  0.00    -0.367 N 
HETATM   32  C21 UNL     1       4.302  26.951   6.190  1.00  0.00     0.196 C 
HETATM   33  N6  UNL     1       3.789  26.157   7.288  1.00  0.00    -0.067 NA
HETATM   34  N7  UNL     1       3.516  28.089   5.867  1.00  0.00    -0.067 NA
ATOM     35  H5  UNL     1       5.831  25.767   5.934  1.00  0.00     0.161 HD
ENDBRANCH  30  31
ENDBRANCH  29  30
ENDBRANCH  28  29
ENDBRANCH  27  28
ENDBRANCH   1  27
BRANCH   1  36
HETATM   36  N8  UNL     1       8.739  24.708   4.335  1.00  0.00    -0.352 N 
HETATM   37  C22 UNL     1       8.829  24.100   3.023  1.00  0.00     0.240 C 
HETATM   38  O3  UNL     1       9.894  24.132   2.385  1.00  0.00    -0.271 OA
ATOM     39  H8  UNL     1       7.864  24.682   4.859  1.00  0.00     0.163 HD
BRANCH  37  40
HETATM   40  C23 UNL     1       7.649  23.425   2.409  1.00  0.00     0.176 C 
HETATM   41  C24 UNL     1       6.606  24.522   2.114  1.00  0.00     0.035 C 
HETATM   42  C25 UNL     1       5.316  23.972   1.609  1.00  0.00     0.012 C 
HETATM   43  C26 UNL     1       4.286  23.695   2.635  1.00  0.00    -0.032 C 
HETATM   44  C27 UNL     1       3.421  22.508   2.287  1.00  0.00     0.016 C 
HETATM   45  C28 UNL     1       3.341  24.839   2.936  1.00  0.00     0.010 C 
HETATM   46  C31 UNL     1       4.861  23.506   4.030  1.00  0.00     0.086 C 
HETATM   47  C29 UNL     1       2.681  24.361   4.238  1.00  0.00     0.002 C 
HETATM   48  C30 UNL     1       3.617  23.293   4.816  1.00  0.00     0.015 C 
HETATM   49  C32 UNL     1       5.800  22.379   3.972  1.00  0.00     0.223 C 
HETATM   50  O4  UNL     1       5.483  21.271   4.435  1.00  0.00    -0.273 OA
HETATM   51  N9  UNL     1       7.104  22.492   3.390  1.00  0.00    -0.347 N 
ATOM     52  H9  UNL     1       7.771  21.796   3.721  1.00  0.00     0.163 HD
ENDBRANCH  37  40
ENDBRANCH   1  36
TORSDOF 11
ENDMDL
MODEL 3
REMARK VINA RESULT: -8.694216771      2.744      9.102
REMARK  11 active torsions:
REMARK  status: ('A' for Active; 'I' for Inactive)
REMARK    1  A    between atoms: N1_6  and  C6_7 
REMARK    2  A    between atoms: C6_7  and  C7_8 
REMARK    3  A    between atoms: C6_7  and  C16_24 
REMARK       I    between atoms: C7_8  and  N2_10 
REMARK       I    between atoms: N2_10  and  C8_12 
REMARK       I    between atoms: C8_12  and  N3_14 
REMARK    4  A    between atoms: N3_14  and  C9_16 
REMARK    5  A    between atoms: C16_24  and  C17_25 
REMARK    6  A    between atoms: C16_24  and  N8_34 
REMARK    7  A    between atoms: C17_25  and  C18_26 
REMARK    8  A    between atoms: C18_26  and  C19_27 
REMARK    9  A    between atoms: C19_27  and  C20_28 
REMARK   10  A    between atoms: C20_28  and  N5_29 
REMARK       I    between atoms: N8_34  and  C22_36 
REMARK   11  A    between atoms: C22_36  and  C23_38 
ROOT
HETATM    1  C16 UNL     1      14.481  22.149   5.847  1.00  0.00     0.127 C 
ENDROOT
BRANCH   1   2
HETATM    2  C6  UNL     1      14.770  22.714   7.186  1.00  0.00     0.337 C 
BRANCH   2   3
HETATM    3  N1  UNL     1      15.418  21.830   8.051  1.00  0.00     0.108 N 
HETATM    4  C5  UNL     1      15.151  22.049   9.460  1.00  0.00     0.274 C 
HETATM    5  C4  UNL     1      15.735  20.954  10.321  1.00  0.00     0.031 C 
HETATM    6  C3  UNL     1      16.495  19.943   9.489  1.00  0.00     0.008 C 
HETATM    7  C2  UNL     1      17.518  20.741   8.725  1.00  0.00     0.014 C 
HETATM    8  C1  UNL     1      18.347  19.796   7.912  1.00  0.00     0.012 C 
HETATM    9  C33 UNL     1      16.850  21.836   7.873  1.00  0.00     0.224 C 
HETATM   10  C34 UNL     1      17.484  23.180   8.186  1.00  0.00     0.043 C 
ENDBRANCH   2   3
BRANCH   2  11
HETATM   11  C7  UNL     1      13.549  23.370   7.711  1.00  0.00     0.261 C 
HETATM   12  O1  UNL     1      12.523  22.683   7.824  1.00  0.00    -0.271 OA
HETATM   13  N2  UNL     1      13.464  24.706   8.090  1.00  0.00    -0.277 N 
HETATM   14  C8  UNL     1      12.364  25.430   8.548  1.00  0.00     0.323 C 
ATOM     15  H2  UNL     1      14.334  25.233   8.023  1.00  0.00     0.173 HD
HETATM   16  O2  UNL     1      12.569  26.681   8.787  1.00  0.00    -0.247 OA
HETATM   17  N3  UNL     1      11.054  24.996   8.793  1.00  0.00    -0.338 N 
ATOM     18  H3  UNL     1      10.811  24.019   8.633  1.00  0.00     0.164 HD
BRANCH  17  19
HETATM   19  C9  UNL     1      10.040  25.916   9.269  1.00  0.00     0.089 C 
HETATM   20  C10 UNL     1      10.202  27.250   8.650  1.00  0.00     0.053 C 
HETATM   21  C11 UNL     1       9.378  27.350   7.379  1.00  0.00     0.238 C 
HETATM   22  N4  UNL     1       7.968  27.190   7.616  1.00  0.00    -0.075 N 
HETATM   23  C12 UNL     1       7.293  26.551   6.483  1.00  0.00     0.272 C 
HETATM   24  C13 UNL     1       7.358  28.508   7.793  1.00  0.00     0.272 C 
HETATM   25  C14 UNL     1       7.677  26.423   8.816  1.00  0.00     0.238 C 
HETATM   26  C15 UNL     1       8.690  25.291   8.949  1.00  0.00     0.053 C 
ENDBRANCH  17  19
ENDBRANCH   2  11
ENDBRANCH   1   2
BRANCH   1  27
HETATM   27  C17 UNL     1      15.652  22.150   4.894  1.00  0.00     0.028 C 
BRANCH  27  28
HETATM   28  C18 UNL     1      16.117  20.875   4.350  1.00  0.00     0.004 C 
BRANCH  28  29
HETATM   29  C19 UNL     1      15.718  19.613   5.062  1.00  0.00     0.020 C 
BRANCH  29  30
HETATM   30  C20 UNL     1      15.821  18.374   4.237  1.00  0.00     0.122 C 
BRANCH  30  31
HETATM   31  N5  UNL     1      16.982  17.626   4.644  1.00  0.00    -0.367 N 
HETATM   32  C21 UNL     1      18.139  17.629   4.113  1.00  0.00     0.196 C 
HETATM   33  N6  UNL     1      19.202  16.806   4.655  1.00  0.00    -0.067 NA
HETATM   34  N7  UNL     1      18.512  18.402   2.981  1.00  0.00    -0.067 NA
ATOM     35  H5  UNL     1      16.863  17.021   5.457  1.00  0.00     0.161 HD
ENDBRANCH  30  31
ENDBRANCH  29  30
ENDBRANCH  28  29
ENDBRANCH  27  28
ENDBRANCH   1  27
BRANCH   1  36
HETATM   36  N8  UNL     1      13.421  22.843   5.162  1.00  0.00    -0.352 N 
HETATM   37  C22 UNL     1      13.624  24.222   4.765  1.00  0.00     0.240 C 
HETATM   38  O3  UNL     1      14.697  24.797   5.015  1.00  0.00    -0.271 OA
ATOM     39  H8  UNL     1      12.540  22.370   4.958  1.00  0.00     0.163 HD
BRANCH  37  40
HETATM   40  C23 UNL     1      12.555  24.979   4.054  1.00  0.00     0.176 C 
HETATM   41  C24 UNL     1      11.247  24.760   4.841  1.00  0.00     0.035 C 
HETATM   42  C25 UNL     1      10.061  25.363   4.170  1.00  0.00     0.012 C 
HETATM   43  C26 UNL     1       9.308  24.468   3.264  1.00  0.00    -0.032 C 
HETATM   44  C27 UNL     1       8.705  25.200   2.089  1.00  0.00     0.016 C 
HETATM   45  C28 UNL     1       8.179  23.690   3.906  1.00  0.00     0.010 C 
HETATM   46  C31 UNL     1      10.130  23.295   2.756  1.00  0.00     0.086 C 
HETATM   47  C29 UNL     1       7.873  22.640   2.826  1.00  0.00     0.002 C 
HETATM   48  C30 UNL     1       9.117  22.582   1.932  1.00  0.00     0.015 C 
HETATM   49  C32 UNL     1      11.287  23.844   2.039  1.00  0.00     0.223 C 
HETATM   50  O4  UNL     1      11.323  23.832   0.798  1.00  0.00    -0.273 OA
HETATM   51  N9  UNL     1      12.414  24.410   2.717  1.00  0.00    -0.347 N 
ATOM     52  H9  UNL     1      13.273  24.418   2.167  1.00  0.00     0.163 HD
ENDBRANCH  37  40
ENDBRANCH   1  36
TORSDOF 11
ENDMDL
MODEL 4
REMARK VINA RESULT: -8.684043584      4.015      8.846
REMARK  11 active torsions:
REMARK  status: ('A' for Active; 'I' for Inactive)
REMARK    1  A    between atoms: N1_6  and  C6_7 
REMARK    2  A    between atoms: C6_7  and  C7_8 
REMARK    3  A    between atoms: C6_7  and  C16_24 
REMARK       I    between atoms: C7_8  and  N2_10 
REMARK       I    between atoms: N2_10  and  C8_12 
REMARK       I    between atoms: C8_12  and  N3_14 
REMARK    4  A    between atoms: N3_14  and  C9_16 
REMARK    5  A    between atoms: C16_24  and  C17_25 
REMARK    6  A    between atoms: C16_24  and  N8_34 
REMARK    7  A    between atoms: C17_25  and  C18_26 
REMARK    8  A    between atoms: C18_26  and  C19_27 
REMARK    9  A    between atoms: C19_27  and  C20_28 
REMARK   10  A    between atoms: C20_28  and  N5_29 
REMARK       I    between atoms: N8_34  and  C22_36 
REMARK   11  A    between atoms: C22_36  and  C23_38 
ROOT
HETATM    1  C16 UNL     1       6.103  25.601   2.799  1.00  0.00     0.127 C 
ENDROOT
BRANCH   1   2
HETATM    2  C6  UNL     1       4.807  25.347   3.472  1.00  0.00     0.337 C 
BRANCH   2   3
HETATM    3  N1  UNL     1       4.703  25.912   4.744  1.00  0.00     0.108 N 
HETATM    4  C5  UNL     1       3.613  25.401   5.552  1.00  0.00     0.274 C 
HETATM    5  C4  UNL     1       3.669  25.921   6.969  1.00  0.00     0.031 C 
HETATM    6  C3  UNL     1       4.820  26.886   7.158  1.00  0.00     0.008 C 
HETATM    7  C2  UNL     1       4.623  27.954   6.114  1.00  0.00     0.014 C 
HETATM    8  C1  UNL     1       5.703  28.979   6.272  1.00  0.00     0.012 C 
HETATM    9  C33 UNL     1       4.574  27.349   4.699  1.00  0.00     0.224 C 
HETATM   10  C34 UNL     1       3.313  27.813   3.991  1.00  0.00     0.043 C 
ENDBRANCH   2   3
BRANCH   2  11
HETATM   11  C7  UNL     1       4.478  23.905   3.365  1.00  0.00     0.261 C 
HETATM   12  O1  UNL     1       5.112  23.110   4.075  1.00  0.00    -0.271 OA
HETATM   13  N2  UNL     1       3.507  23.370   2.525  1.00  0.00    -0.277 N 
HETATM   14  C8  UNL     1       3.152  22.039   2.314  1.00  0.00     0.323 C 
ATOM     15  H2  UNL     1       2.977  24.053   1.983  1.00  0.00     0.173 HD
HETATM   16  O2  UNL     1       2.233  21.831   1.432  1.00  0.00    -0.247 OA
HETATM   17  N3  UNL     1       3.649  20.880   2.923  1.00  0.00    -0.338 N 
ATOM     18  H3  UNL     1       4.375  20.958   3.635  1.00  0.00     0.164 HD
BRANCH  17  19
HETATM   19  C9  UNL     1       3.146  19.569   2.557  1.00  0.00     0.089 C 
HETATM   20  C10 UNL     1       4.239  18.574   2.522  1.00  0.00     0.053 C 
HETATM   21  C11 UNL     1       4.383  17.894   3.872  1.00  0.00     0.238 C 
HETATM   22  N4  UNL     1       3.200  17.174   4.261  1.00  0.00    -0.075 N 
HETATM   23  C12 UNL     1       3.012  17.178   5.714  1.00  0.00     0.272 C 
HETATM   24  C13 UNL     1       3.332  15.777   3.848  1.00  0.00     0.272 C 
HETATM   25  C14 UNL     1       1.991  17.689   3.640  1.00  0.00     0.238 C 
HETATM   26  C15 UNL     1       2.069  19.210   3.570  1.00  0.00     0.053 C 
ENDBRANCH  17  19
ENDBRANCH   2  11
ENDBRANCH   1   2
BRANCH   1  27
HETATM   27  C17 UNL     1       6.476  24.590   1.743  1.00  0.00     0.028 C 
BRANCH  27  28
HETATM   28  C18 UNL     1       7.743  23.871   1.871  1.00  0.00     0.004 C 
BRANCH  28  29
HETATM   29  C19 UNL     1       7.717  22.370   1.797  1.00  0.00     0.020 C 
BRANCH  29  30
HETATM   30  C20 UNL     1       8.262  21.677   3.000  1.00  0.00     0.122 C 
BRANCH  30  31
HETATM   31  N5  UNL     1       7.821  20.306   3.001  1.00  0.00    -0.367 N 
HETATM   32  C21 UNL     1       8.390  19.302   2.461  1.00  0.00     0.196 C 
HETATM   33  N6  UNL     1       7.801  17.982   2.557  1.00  0.00    -0.067 NA
HETATM   34  N7  UNL     1       9.611  19.352   1.737  1.00  0.00    -0.067 NA
ATOM     35  H5  UNL     1       6.948  20.116   3.492  1.00  0.00     0.161 HD
ENDBRANCH  30  31
ENDBRANCH  29  30
ENDBRANCH  28  29
ENDBRANCH  27  28
ENDBRANCH   1  27
BRANCH   1  36
HETATM   36  N8  UNL     1       7.214  25.634   3.716  1.00  0.00    -0.352 N 
HETATM   37  C22 UNL     1       8.161  26.728   3.632  1.00  0.00     0.240 C 
HETATM   38  O3  UNL     1       8.017  27.622   2.782  1.00  0.00    -0.271 OA
ATOM     39  H8  UNL     1       7.333  24.899   4.413  1.00  0.00     0.163 HD
BRANCH  37  40
HETATM   40  C23 UNL     1       9.327  26.803   4.559  1.00  0.00     0.176 C 
HETATM   41  C24 UNL     1       9.422  25.441   5.276  1.00  0.00     0.035 C 
HETATM   42  C25 UNL     1      10.475  25.417   6.330  1.00  0.00     0.012 C 
HETATM   43  C26 UNL     1      10.027  25.761   7.698  1.00  0.00    -0.032 C 
HETATM   44  C27 UNL     1      11.090  26.474   8.497  1.00  0.00     0.016 C 
HETATM   45  C28 UNL     1       9.565  24.595   8.547  1.00  0.00     0.010 C 
HETATM   46  C31 UNL     1       8.746  26.579   7.724  1.00  0.00     0.086 C 
HETATM   47  C29 UNL     1       8.856  25.315   9.703  1.00  0.00     0.002 C 
HETATM   48  C30 UNL     1       8.539  26.725   9.189  1.00  0.00     0.015 C 
HETATM   49  C32 UNL     1       8.996  27.815   6.972  1.00  0.00     0.223 C 
HETATM   50  O4  UNL     1       9.169  28.890   7.568  1.00  0.00    -0.273 OA
HETATM   51  N9  UNL     1       9.052  27.847   5.541  1.00  0.00    -0.347 N 
ATOM     52  H9  UNL     1       8.868  28.765   5.136  1.00  0.00     0.163 HD
ENDBRANCH  37  40
ENDBRANCH   1  36
TORSDOF 11
ENDMDL
MODEL 5
REMARK VINA RESULT: -8.551088442      2.336      4.301
REMARK  11 active torsions:
REMARK  status: ('A' for Active; 'I' for Inactive)
REMARK    1  A    between atoms: N1_6  and  C6_7 
REMARK    2  A    between atoms: C6_7  and  C7_8 
REMARK    3  A    between atoms: C6_7  and  C16_24 
REMARK       I    between atoms: C7_8  and  N2_10 
REMARK       I    between atoms: N2_10  and  C8_12 
REMARK       I    between atoms: C8_12  and  N3_14 
REMARK    4  A    between atoms: N3_14  and  C9_16 
REMARK    5  A    between atoms: C16_24  and  C17_25 
REMARK    6  A    between atoms: C16_24  and  N8_34 
REMARK    7  A    between atoms: C17_25  and  C18_26 
REMARK    8  A    between atoms: C18_26  and  C19_27 
REMARK    9  A    between atoms: C19_27  and  C20_28 
REMARK   10  A    between atoms: C20_28  and  N5_29 
REMARK       I    between atoms: N8_34  and  C22_36 
REMARK   11  A    between atoms: C22_36  and  C23_38 
ROOT
HETATM    1  C16 UNL     1       9.502  24.766   5.192  1.00  0.00     0.127 C 
ENDROOT
BRANCH   1   2
HETATM    2  C6  UNL     1       9.907  24.736   6.617  1.00  0.00     0.337 C 
BRANCH   2   3
HETATM    3  N1  UNL     1       9.765  25.958   7.276  1.00  0.00     0.108 N 
HETATM    4  C5  UNL     1      10.880  26.325   8.128  1.00  0.00     0.274 C 
HETATM    5  C4  UNL     1      10.741  27.729   8.666  1.00  0.00     0.031 C 
HETATM    6  C3  UNL     1       9.443  28.367   8.217  1.00  0.00     0.008 C 
HETATM    7  C2  UNL     1       8.358  27.423   8.665  1.00  0.00     0.014 C 
HETATM    8  C1  UNL     1       7.032  28.014   8.298  1.00  0.00     0.012 C 
HETATM    9  C33 UNL     1       8.567  26.014   8.080  1.00  0.00     0.224 C 
HETATM   10  C34 UNL     1       8.554  24.991   9.202  1.00  0.00     0.043 C 
ENDBRANCH   2   3
BRANCH   2  11
HETATM   11  C7  UNL     1      11.230  24.077   6.732  1.00  0.00     0.261 C 
HETATM   12  O1  UNL     1      11.357  23.171   7.569  1.00  0.00    -0.271 OA
HETATM   13  N2  UNL     1      12.348  24.398   5.970  1.00  0.00    -0.277 N 
HETATM   14  C8  UNL     1      13.641  23.880   6.029  1.00  0.00     0.323 C 
ATOM     15  H2  UNL     1      12.201  25.120   5.265  1.00  0.00     0.173 HD
HETATM   16  O2  UNL     1      14.499  24.404   5.220  1.00  0.00    -0.247 OA
HETATM   17  N3  UNL     1      14.154  22.862   6.844  1.00  0.00    -0.338 N 
ATOM     18  H3  UNL     1      13.539  22.393   7.509  1.00  0.00     0.164 HD
BRANCH  17  19
HETATM   19  C9  UNL     1      15.546  22.465   6.757  1.00  0.00     0.089 C 
HETATM   20  C10 UNL     1      16.373  23.222   7.721  1.00  0.00     0.053 C 
HETATM   21  C11 UNL     1      16.475  22.473   9.037  1.00  0.00     0.238 C 
HETATM   22  N4  UNL     1      17.103  21.186   8.898  1.00  0.00    -0.075 N 
HETATM   23  C12 UNL     1      16.566  20.212   9.853  1.00  0.00     0.272 C 
HETATM   24  C13 UNL     1      18.533  21.317   9.174  1.00  0.00     0.272 C 
HETATM   25  C14 UNL     1      16.977  20.635   7.560  1.00  0.00     0.238 C 
HETATM   26  C15 UNL     1      15.595  20.965   7.006  1.00  0.00     0.053 C 
ENDBRANCH  17  19
ENDBRANCH   2  11
ENDBRANCH   1   2
BRANCH   1  27
HETATM   27  C17 UNL     1      10.561  25.273   4.243  1.00  0.00     0.028 C 
BRANCH  27  28
HETATM   28  C18 UNL     1      10.653  24.682   2.909  1.00  0.00     0.004 C 
BRANCH  28  29
HETATM   29  C19 UNL     1      10.751  23.185   2.802  1.00  0.00     0.020 C 
BRANCH  29  30
HETATM   30  C20 UNL     1       9.938  22.585   1.704  1.00  0.00     0.122 C 
BRANCH  30  31
HETATM   31  N5  UNL     1       8.743  22.005   2.260  1.00  0.00    -0.367 N 
HETATM   32  C21 UNL     1       8.428  20.773   2.322  1.00  0.00     0.196 C 
HETATM   33  N6  UNL     1       7.174  20.361   2.918  1.00  0.00    -0.067 NA
HETATM   34  N7  UNL     1       9.232  19.703   1.842  1.00  0.00    -0.067 NA
ATOM     35  H5  UNL     1       8.066  22.661   2.650  1.00  0.00     0.161 HD
ENDBRANCH  30  31
ENDBRANCH  29  30
ENDBRANCH  28  29
ENDBRANCH  27  28
ENDBRANCH   1  27
BRANCH   1  36
HETATM   36  N8  UNL     1       8.342  25.588   4.954  1.00  0.00    -0.352 N 
HETATM   37  C22 UNL     1       7.236  25.040   4.195  1.00  0.00     0.240 C 
HETATM   38  O3  UNL     1       7.288  23.879   3.755  1.00  0.00    -0.271 OA
ATOM     39  H8  UNL     1       8.301  26.541   5.315  1.00  0.00     0.163 HD
BRANCH  37  40
HETATM   40  C23 UNL     1       6.016  25.853   3.925  1.00  0.00     0.176 C 
HETATM   41  C24 UNL     1       6.058  27.060   4.883  1.00  0.00     0.035 C 
HETATM   42  C25 UNL     1       4.828  27.899   4.809  1.00  0.00     0.012 C 
HETATM   43  C26 UNL     1       3.755  27.560   5.770  1.00  0.00    -0.032 C 
HETATM   44  C27 UNL     1       2.374  27.803   5.213  1.00  0.00     0.016 C 
HETATM   45  C28 UNL     1       3.815  28.287   7.097  1.00  0.00     0.010 C 
HETATM   46  C31 UNL     1       3.843  26.134   6.291  1.00  0.00     0.086 C 
HETATM   47  C29 UNL     1       2.833  27.465   7.945  1.00  0.00     0.002 C 
HETATM   48  C30 UNL     1       2.694  26.113   7.236  1.00  0.00     0.015 C 
HETATM   49  C32 UNL     1       3.756  25.235   5.135  1.00  0.00     0.223 C 
HETATM   50  O4  UNL     1       2.708  24.612   4.899  1.00  0.00    -0.273 OA
HETATM   51  N9  UNL     1       4.851  25.031   4.234  1.00  0.00    -0.347 N 
ATOM     52  H9  UNL     1       4.808  24.154   3.715  1.00  0.00     0.163 HD
ENDBRANCH  37  40
ENDBRANCH   1  36
TORSDOF 11
ENDMDL
