MODEL 1
REMARK VINA RESULT: -10.313214579      0.000      0.000
REMARK  10 active torsions:
REMARK  status: ('A' for Active; 'I' for Inactive)
REMARK    1  A    between atoms: C4_7  and  C5_8 
REMARK    2  A    between atoms: C5_8  and  N2_9 
REMARK       I    between atoms: N2_9  and  C6_10 
REMARK    3  A    between atoms: N2_9  and  C11_21 
REMARK    4  A    between atoms: C6_10  and  C7_12 
REMARK    5  A    between atoms: C8_13  and  C9_14 
REMARK       I    between atoms: C9_14  and  N3_16 
REMARK    6  A    between atoms: C11_21  and  C12_22 
REMARK    7  A    between atoms: C19_31  and  C20_32 
REMARK    8  A    between atoms: C20_32  and  C21_33 
REMARK    9  A    between atoms: C22_34  and  N7_35 
REMARK       I    between atoms: N7_35  and  C23_37 
REMARK       I    between atoms: C23_37  and  N8_39 
REMARK   10  A    between atoms: N8_39  and  C24_41 
ROOT
HETATM    1  C1  UNL     1      17.968  19.572   6.635  1.00  0.00     0.069 C 
HETATM    2  C2  UNL     1      16.997  20.624   6.258  1.00  0.00     0.015 A 
HETATM    3  N1  UNL     1      16.929  21.744   7.054  1.00  0.00    -0.327 N 
ATOM      4  H1  UNL     1      17.521  21.780   7.884  1.00  0.00     0.169 HD
HETATM    5  C3  UNL     1      16.137  22.784   6.804  1.00  0.00     0.253 A 
HETATM    6  O1  UNL     1      16.102  23.806   7.565  1.00  0.00    -0.268 OA
HETATM    7  C4  UNL     1      15.287  22.823   5.685  1.00  0.00     0.028 A 
HETATM    8  C18 UNL     1      15.356  21.713   4.904  1.00  0.00     0.023 A 
HETATM    9  C19 UNL     1      16.207  20.598   5.173  1.00  0.00    -0.032 A 
ENDROOT
BRANCH   7  10
HETATM   10  C5  UNL     1      14.419  24.000   5.494  1.00  0.00     0.171 C 
BRANCH  10  11
HETATM   11  N2  UNL     1      13.002  23.784   5.657  1.00  0.00    -0.326 N 
HETATM   12  C6  UNL     1      12.233  23.450   4.514  1.00  0.00     0.244 C 
HETATM   13  O2  UNL     1      12.951  23.395   3.442  1.00  0.00    -0.268 OA
BRANCH  12  14
HETATM   14  C7  UNL     1      10.851  23.183   4.408  1.00  0.00     0.080 C 
HETATM   15  C8  UNL     1       9.905  23.876   3.905  1.00  0.00     0.080 C 
BRANCH  15  16
HETATM   16  C9  UNL     1       9.845  25.152   3.265  1.00  0.00     0.247 C 
HETATM   17  O3  UNL     1       9.811  25.428   2.045  1.00  0.00    -0.268 OA
HETATM   18  N3  UNL     1       9.818  26.335   4.133  1.00  0.00    -0.300 N 
HETATM   19  C10 UNL     1       8.739  27.002   4.314  1.00  0.00     0.203 C 
ATOM     20  H3  UNL     1      10.674  26.633   4.601  1.00  0.00     0.171 HD
HETATM   21  N4  UNL     1       7.536  26.610   3.674  1.00  0.00    -0.066 NA
HETATM   22  N5  UNL     1       8.795  28.123   5.162  1.00  0.00    -0.066 NA
ENDBRANCH  15  16
ENDBRANCH  12  14
BRANCH  11  23
HETATM   23  C11 UNL     1      12.395  23.836   6.971  1.00  0.00     0.114 C 
HETATM   24  C13 UNL     1      13.214  24.770   7.866  1.00  0.00     0.041 C 
HETATM   25  C14 UNL     1      12.489  25.029   9.136  1.00  0.00     0.003 C 
HETATM   26  C15 UNL     1      11.097  25.568   8.993  1.00  0.00     0.000 C 
HETATM   27  C16 UNL     1      10.679  25.600   7.537  1.00  0.00     0.003 C 
HETATM   28  C17 UNL     1      10.977  24.255   6.899  1.00  0.00     0.041 C 
BRANCH  23  29
HETATM   29  C12 UNL     1      12.553  22.485   7.601  1.00  0.00     0.259 C 
HETATM   30  N6  UNL     1      11.723  21.383   7.299  1.00  0.00    -0.060 NA
HETATM   31  O4  UNL     1      13.471  22.322   8.440  1.00  0.00    -0.274 OA
ENDBRANCH  23  29
ENDBRANCH  11  23
ENDBRANCH  10  11
ENDBRANCH   7  10
BRANCH   9  32
HETATM   32  C20 UNL     1      16.073  19.467   4.222  1.00  0.00     0.069 C 
BRANCH  32  33
HETATM   33  C21 UNL     1      17.138  19.253   3.257  1.00  0.00    -0.005 C 
HETATM   34  C22 UNL     1      17.777  18.019   2.857  1.00  0.00     0.089 C 
BRANCH  34  35
HETATM   35  N7  UNL     1      18.753  17.396   3.667  1.00  0.00    -0.319 N 
HETATM   36  C23 UNL     1      18.828  16.675   4.822  1.00  0.00     0.320 C 
HETATM   37  O5  UNL     1      17.881  16.358   5.549  1.00  0.00    -0.247 OA
HETATM   38  N8  UNL     1      20.121  16.195   5.318  1.00  0.00    -0.336 N 
ATOM     39  H8  UNL     1      20.968  16.406   4.791  1.00  0.00     0.164 HD
ATOM     40  H7  UNL     1      19.683  17.524   3.268  1.00  0.00     0.169 HD
BRANCH  38  41
HETATM   41  C24 UNL     1      20.219  15.425   6.545  1.00  0.00     0.116 C 
HETATM   42  C25 UNL     1      19.696  14.086   6.296  1.00  0.00     0.027 C 
HETATM   43  C26 UNL     1      20.302  13.238   5.234  1.00  0.00     0.002 C 
HETATM   44  C27 UNL     1      21.644  12.674   5.460  1.00  0.00     0.002 C 
HETATM   45  C28 UNL     1      21.901  12.482   6.942  1.00  0.00     0.028 C 
HETATM   46  C29 UNL     1      22.724  13.599   7.416  1.00  0.00     0.237 C 
HETATM   47  N9  UNL     1      22.106  14.713   8.037  1.00  0.00    -0.069 N 
HETATM   48  C30 UNL     1      21.216  14.375   9.124  1.00  0.00     0.272 C 
HETATM   49  C31 UNL     1      23.222  15.440   8.692  1.00  0.00     0.272 C 
HETATM   50  C32 UNL     1      21.521  15.685   7.157  1.00  0.00     0.208 C 
HETATM   51  C33 UNL     1      22.536  16.186   6.144  1.00  0.00     0.042 C 
ENDBRANCH  38  41
ENDBRANCH  34  35
ENDBRANCH  32  33
ENDBRANCH   9  32
TORSDOF 10
ENDMDL
MODEL 2
REMARK VINA RESULT: -10.164034919      6.178     11.663
REMARK  10 active torsions:
REMARK  status: ('A' for Active; 'I' for Inactive)
REMARK    1  A    between atoms: C4_7  and  C5_8 
REMARK    2  A    between atoms: C5_8  and  N2_9 
REMARK       I    between atoms: N2_9  and  C6_10 
REMARK    3  A    between atoms: N2_9  and  C11_21 
REMARK    4  A    between atoms: C6_10  and  C7_12 
REMARK    5  A    between atoms: C8_13  and  C9_14 
REMARK       I    between atoms: C9_14  and  N3_16 
REMARK    6  A    between atoms: C11_21  and  C12_22 
REMARK    7  A    between atoms: C19_31  and  C20_32 
REMARK    8  A    between atoms: C20_32  and  C21_33 
REMARK    9  A    between atoms: C22_34  and  N7_35 
REMARK       I    between atoms: N7_35  and  C23_37 
REMARK       I    between atoms: C23_37  and  N8_39 
REMARK   10  A    between atoms: N8_39  and  C24_41 
ROOT
HETATM    1  C1  UNL     1       6.315  25.329   1.759  1.00  0.00     0.069 C 
HETATM    2  C2  UNL     1       7.537  25.396   2.590  1.00  0.00     0.015 A 
HETATM    3  N1  UNL     1       7.784  26.568   3.268  1.00  0.00    -0.327 N 
ATOM      4  H1  UNL     1       7.136  27.344   3.136  1.00  0.00     0.169 HD
HETATM    5  C3  UNL     1       8.818  26.747   4.086  1.00  0.00     0.253 A 
HETATM    6  O1  UNL     1       9.013  27.848   4.698  1.00  0.00    -0.268 OA
HETATM    7  C4  UNL     1       9.763  25.735   4.329  1.00  0.00     0.028 A 
HETATM    8  C18 UNL     1       9.516  24.580   3.655  1.00  0.00     0.023 A 
HETATM    9  C19 UNL     1       8.406  24.389   2.777  1.00  0.00    -0.032 A 
ENDROOT
BRANCH   7  10
HETATM   10  C5  UNL     1      10.896  26.022   5.227  1.00  0.00     0.171 C 
BRANCH  10  11
HETATM   11  N2  UNL     1      10.973  25.235   6.433  1.00  0.00    -0.326 N 
HETATM   12  C6  UNL     1      11.473  23.911   6.346  1.00  0.00     0.244 C 
HETATM   13  O2  UNL     1      11.793  23.589   5.138  1.00  0.00    -0.268 OA
BRANCH  12  14
HETATM   14  C7  UNL     1      11.655  22.951   7.365  1.00  0.00     0.080 C 
HETATM   15  C8  UNL     1      12.710  22.576   7.977  1.00  0.00     0.080 C 
BRANCH  15  16
HETATM   16  C9  UNL     1      14.087  22.950   7.896  1.00  0.00     0.247 C 
HETATM   17  O3  UNL     1      15.036  22.652   8.655  1.00  0.00    -0.268 OA
HETATM   18  N3  UNL     1      14.483  23.806   6.772  1.00  0.00    -0.300 N 
HETATM   19  C10 UNL     1      15.133  23.335   5.774  1.00  0.00     0.203 C 
ATOM     20  H3  UNL     1      14.235  24.796   6.785  1.00  0.00     0.171 HD
HETATM   21  N4  UNL     1      15.488  21.963   5.731  1.00  0.00    -0.066 NA
HETATM   22  N5  UNL     1      15.474  24.221   4.736  1.00  0.00    -0.066 NA
ENDBRANCH  15  16
ENDBRANCH  12  14
BRANCH  11  23
HETATM   23  C11 UNL     1      10.614  25.811   7.713  1.00  0.00     0.114 C 
HETATM   24  C13 UNL     1      10.152  27.255   7.503  1.00  0.00     0.041 C 
HETATM   25  C14 UNL     1       9.557  27.790   8.754  1.00  0.00     0.003 C 
HETATM   26  C15 UNL     1       8.433  26.986   9.336  1.00  0.00     0.000 C 
HETATM   27  C16 UNL     1       8.241  25.694   8.568  1.00  0.00     0.003 C 
HETATM   28  C17 UNL     1       9.583  25.004   8.404  1.00  0.00     0.041 C 
BRANCH  23  29
HETATM   29  C12 UNL     1      11.868  25.937   8.524  1.00  0.00     0.259 C 
HETATM   30  N6  UNL     1      11.918  25.722   9.920  1.00  0.00    -0.060 NA
HETATM   31  O4  UNL     1      12.931  26.249   7.935  1.00  0.00    -0.274 OA
ENDBRANCH  23  29
ENDBRANCH  11  23
ENDBRANCH  10  11
ENDBRANCH   7  10
BRANCH   9  32
HETATM   32  C20 UNL     1       8.367  23.070   2.099  1.00  0.00     0.069 C 
BRANCH  32  33
HETATM   33  C21 UNL     1       8.790  21.900   2.849  1.00  0.00    -0.005 C 
HETATM   34  C22 UNL     1       8.509  20.503   2.603  1.00  0.00     0.089 C 
BRANCH  34  35
HETATM   35  N7  UNL     1       7.259  19.931   2.935  1.00  0.00    -0.319 N 
HETATM   36  C23 UNL     1       6.658  18.708   2.959  1.00  0.00     0.320 C 
HETATM   37  O5  UNL     1       7.171  17.634   2.627  1.00  0.00    -0.247 OA
HETATM   38  N8  UNL     1       5.270  18.568   3.407  1.00  0.00    -0.336 N 
ATOM     39  H8  UNL     1       4.754  19.397   3.701  1.00  0.00     0.164 HD
ATOM     40  H7  UNL     1       6.610  20.652   3.252  1.00  0.00     0.169 HD
BRANCH  38  41
HETATM   41  C24 UNL     1       4.615  17.272   3.441  1.00  0.00     0.116 C 
HETATM   42  C25 UNL     1       4.197  17.000   4.811  1.00  0.00     0.027 C 
HETATM   43  C26 UNL     1       3.277  17.939   5.509  1.00  0.00     0.002 C 
HETATM   44  C27 UNL     1       1.866  17.990   5.087  1.00  0.00     0.002 C 
HETATM   45  C28 UNL     1       1.433  16.657   4.508  1.00  0.00     0.028 C 
HETATM   46  C29 UNL     1       1.461  16.757   3.046  1.00  0.00     0.237 C 
HETATM   47  N9  UNL     1       2.592  16.288   2.332  1.00  0.00    -0.069 N 
HETATM   48  C30 UNL     1       2.983  14.935   2.654  1.00  0.00     0.272 C 
HETATM   49  C31 UNL     1       2.135  16.210   0.922  1.00  0.00     0.272 C 
HETATM   50  C32 UNL     1       3.724  17.170   2.287  1.00  0.00     0.208 C 
HETATM   51  C33 UNL     1       3.332  18.534   1.747  1.00  0.00     0.042 C 
ENDBRANCH  38  41
ENDBRANCH  34  35
ENDBRANCH  32  33
ENDBRANCH   9  32
TORSDOF 10
ENDMDL
MODEL 3
REMARK VINA RESULT: -10.121411885      5.794     11.875
REMARK  10 active torsions:
REMARK  status: ('A' for Active; 'I' for Inactive)
REMARK    1  A    between atoms: C4_7  and  C5_8 
REMARK    2  A    between atoms: C5_8  and  N2_9 
REMARK       I    between atoms: N2_9  and  C6_10 
REMARK    3  A    between atoms: N2_9  and  C11_21 
REMARK    4  A    between atoms: C6_10  and  C7_12 
REMARK    5  A    between atoms: C8_13  and  C9_14 
REMARK       I    between atoms: C9_14  and  N3_16 
REMARK    6  A    between atoms: C11_21  and  C12_22 
REMARK    7  A    between atoms: C19_31  and  C20_32 
REMARK    8  A    between atoms: C20_32  and  C21_33 
REMARK    9  A    between atoms: C22_34  and  N7_35 
REMARK       I    between atoms: N7_35  and  C23_37 
REMARK       I    between atoms: C23_37  and  N8_39 
REMARK   10  A    between atoms: N8_39  and  C24_41 
ROOT
HETATM    1  C1  UNL     1       5.326  25.951   2.717  1.00  0.00     0.069 C 
HETATM    2  C2  UNL     1       6.675  25.855   3.317  1.00  0.00     0.015 A 
HETATM    3  N1  UNL     1       7.291  27.026   3.693  1.00  0.00    -0.327 N 
ATOM      4  H1  UNL     1       6.807  27.905   3.506  1.00  0.00     0.169 HD
HETATM    5  C3  UNL     1       8.481  27.081   4.286  1.00  0.00     0.253 A 
HETATM    6  O1  UNL     1       9.020  28.187   4.620  1.00  0.00    -0.268 OA
HETATM    7  C4  UNL     1       9.222  25.923   4.582  1.00  0.00     0.028 A 
HETATM    8  C18 UNL     1       8.610  24.769   4.207  1.00  0.00     0.023 A 
HETATM    9  C19 UNL     1       7.333  24.712   3.570  1.00  0.00    -0.032 A 
ENDROOT
BRANCH   7  10
HETATM   10  C5  UNL     1      10.545  26.071   5.215  1.00  0.00     0.171 C 
BRANCH  10  11
HETATM   11  N2  UNL     1      10.760  25.324   6.431  1.00  0.00    -0.326 N 
HETATM   12  C6  UNL     1      11.304  24.019   6.335  1.00  0.00     0.244 C 
HETATM   13  O2  UNL     1      11.530  23.673   5.112  1.00  0.00    -0.268 OA
BRANCH  12  14
HETATM   14  C7  UNL     1      11.615  23.098   7.360  1.00  0.00     0.080 C 
HETATM   15  C8  UNL     1      12.740  22.671   7.782  1.00  0.00     0.080 C 
BRANCH  15  16
HETATM   16  C9  UNL     1      14.097  22.929   7.418  1.00  0.00     0.247 C 
HETATM   17  O3  UNL     1      15.018  23.437   8.095  1.00  0.00    -0.268 OA
HETATM   18  N3  UNL     1      14.507  22.557   6.058  1.00  0.00    -0.300 N 
HETATM   19  C10 UNL     1      15.235  21.525   5.843  1.00  0.00     0.203 C 
ATOM     20  H3  UNL     1      14.207  23.130   5.270  1.00  0.00     0.171 HD
HETATM   21  N4  UNL     1      15.666  20.711   6.921  1.00  0.00    -0.066 NA
HETATM   22  N5  UNL     1      15.585  21.234   4.512  1.00  0.00    -0.066 NA
ENDBRANCH  15  16
ENDBRANCH  12  14
BRANCH  11  23
HETATM   23  C11 UNL     1      10.491  25.924   7.722  1.00  0.00     0.114 C 
HETATM   24  C13 UNL     1      10.078  27.384   7.521  1.00  0.00     0.041 C 
HETATM   25  C14 UNL     1       9.571  27.954   8.795  1.00  0.00     0.003 C 
HETATM   26  C15 UNL     1       8.447  27.202   9.442  1.00  0.00     0.000 C 
HETATM   27  C16 UNL     1       8.162  25.913   8.698  1.00  0.00     0.003 C 
HETATM   28  C17 UNL     1       9.465  25.166   8.472  1.00  0.00     0.041 C 
BRANCH  23  29
HETATM   29  C12 UNL     1      11.790  26.005   8.466  1.00  0.00     0.259 C 
HETATM   30  N6  UNL     1      11.918  25.713   9.843  1.00  0.00    -0.060 NA
HETATM   31  O4  UNL     1      12.818  26.348   7.836  1.00  0.00    -0.274 OA
ENDBRANCH  23  29
ENDBRANCH  11  23
ENDBRANCH  10  11
ENDBRANCH   7  10
BRANCH   9  32
HETATM   32  C20 UNL     1       6.885  23.349   3.191  1.00  0.00     0.069 C 
BRANCH  32  33
HETATM   33  C21 UNL     1       7.701  22.220   3.604  1.00  0.00    -0.005 C 
HETATM   34  C22 UNL     1       8.022  21.009   2.882  1.00  0.00     0.089 C 
BRANCH  34  35
HETATM   35  N7  UNL     1       7.093  19.949   2.765  1.00  0.00    -0.319 N 
HETATM   36  C23 UNL     1       5.792  19.680   3.067  1.00  0.00     0.320 C 
HETATM   37  O5  UNL     1       4.995  20.447   3.619  1.00  0.00    -0.247 OA
HETATM   38  N8  UNL     1       5.205  18.378   2.741  1.00  0.00    -0.336 N 
ATOM     39  H8  UNL     1       5.781  17.670   2.286  1.00  0.00     0.164 HD
ATOM     40  H7  UNL     1       7.529  19.142   2.320  1.00  0.00     0.169 HD
BRANCH  38  41
HETATM   41  C24 UNL     1       3.820  18.075   3.055  1.00  0.00     0.116 C 
HETATM   42  C25 UNL     1       3.004  18.366   1.881  1.00  0.00     0.027 C 
HETATM   43  C26 UNL     1       3.289  17.681   0.590  1.00  0.00     0.002 C 
HETATM   44  C27 UNL     1       2.964  16.250   0.463  1.00  0.00     0.002 C 
HETATM   45  C28 UNL     1       1.815  15.879   1.380  1.00  0.00     0.028 C 
HETATM   46  C29 UNL     1       2.368  15.240   2.578  1.00  0.00     0.237 C 
HETATM   47  N9  UNL     1       2.578  16.010   3.750  1.00  0.00    -0.069 N 
HETATM   48  C30 UNL     1       1.424  16.761   4.187  1.00  0.00     0.272 C 
HETATM   49  C31 UNL     1       2.786  15.003   4.823  1.00  0.00     0.272 C 
HETATM   50  C32 UNL     1       3.771  16.806   3.780  1.00  0.00     0.208 C 
HETATM   51  C33 UNL     1       5.003  15.956   3.522  1.00  0.00     0.042 C 
ENDBRANCH  38  41
ENDBRANCH  34  35
ENDBRANCH  32  33
ENDBRANCH   9  32
TORSDOF 10
ENDMDL
MODEL 4
REMARK VINA RESULT: -10.109039252      4.148      8.219
REMARK  10 active torsions:
REMARK  status: ('A' for Active; 'I' for Inactive)
REMARK    1  A    between atoms: C4_7  and  C5_8 
REMARK    2  A    between atoms: C5_8  and  N2_9 
REMARK       I    between atoms: N2_9  and  C6_10 
REMARK    3  A    between atoms: N2_9  and  C11_21 
REMARK    4  A    between atoms: C6_10  and  C7_12 
REMARK    5  A    between atoms: C8_13  and  C9_14 
REMARK       I    between atoms: C9_14  and  N3_16 
REMARK    6  A    between atoms: C11_21  and  C12_22 
REMARK    7  A    between atoms: C19_31  and  C20_32 
REMARK    8  A    between atoms: C20_32  and  C21_33 
REMARK    9  A    between atoms: C22_34  and  N7_35 
REMARK       I    between atoms: N7_35  and  C23_37 
REMARK       I    between atoms: C23_37  and  N8_39 
REMARK   10  A    between atoms: N8_39  and  C24_41 
ROOT
HETATM    1  C1  UNL     1       9.566  25.348   9.366  1.00  0.00     0.069 C 
HETATM    2  C2  UNL     1       8.856  25.761   8.134  1.00  0.00     0.015 A 
HETATM    3  N1  UNL     1       7.621  26.352   8.277  1.00  0.00    -0.327 N 
ATOM      4  H1  UNL     1       7.238  26.442   9.218  1.00  0.00     0.169 HD
HETATM    5  C3  UNL     1       6.898  26.812   7.260  1.00  0.00     0.253 A 
HETATM    6  O1  UNL     1       5.757  27.355   7.432  1.00  0.00    -0.268 OA
HETATM    7  C4  UNL     1       7.344  26.731   5.929  1.00  0.00     0.028 A 
HETATM    8  C18 UNL     1       8.563  26.145   5.793  1.00  0.00     0.023 A 
HETATM    9  C19 UNL     1       9.338  25.651   6.886  1.00  0.00    -0.032 A 
ENDROOT
BRANCH   7  10
HETATM   10  C5  UNL     1       6.471  27.239   4.855  1.00  0.00     0.171 C 
BRANCH  10  11
HETATM   11  N2  UNL     1       6.212  26.337   3.759  1.00  0.00    -0.326 N 
HETATM   12  C6  UNL     1       5.181  25.375   3.905  1.00  0.00     0.244 C 
HETATM   13  O2  UNL     1       4.604  25.448   5.057  1.00  0.00    -0.268 OA
BRANCH  12  14
HETATM   14  C7  UNL     1       4.729  24.398   2.991  1.00  0.00     0.080 C 
HETATM   15  C8  UNL     1       4.912  23.136   2.963  1.00  0.00     0.080 C 
BRANCH  15  16
HETATM   16  C9  UNL     1       5.616  22.219   3.803  1.00  0.00     0.247 C 
HETATM   17  O3  UNL     1       5.188  21.218   4.419  1.00  0.00    -0.268 OA
HETATM   18  N3  UNL     1       7.052  22.455   3.995  1.00  0.00    -0.300 N 
HETATM   19  C10 UNL     1       7.929  21.723   3.415  1.00  0.00     0.203 C 
ATOM     20  H3  UNL     1       7.358  23.215   4.602  1.00  0.00     0.171 HD
HETATM   21  N4  UNL     1       7.530  20.660   2.566  1.00  0.00    -0.066 NA
HETATM   22  N5  UNL     1       9.285  22.014   3.649  1.00  0.00    -0.066 NA
ENDBRANCH  15  16
ENDBRANCH  12  14
BRANCH  11  23
HETATM   23  C11 UNL     1       6.942  26.462   2.515  1.00  0.00     0.114 C 
HETATM   24  C13 UNL     1       7.957  27.601   2.639  1.00  0.00     0.041 C 
HETATM   25  C14 UNL     1       8.876  27.598   1.473  1.00  0.00     0.003 C 
HETATM   26  C15 UNL     1       9.601  26.310   1.218  1.00  0.00     0.000 C 
HETATM   27  C16 UNL     1       9.113  25.224   2.156  1.00  0.00     0.003 C 
HETATM   28  C17 UNL     1       7.595  25.189   2.137  1.00  0.00     0.041 C 
BRANCH  23  29
HETATM   29  C12 UNL     1       5.980  26.935   1.467  1.00  0.00     0.259 C 
HETATM   30  N6  UNL     1       5.772  26.264   0.241  1.00  0.00    -0.060 NA
HETATM   31  O4  UNL     1       5.323  27.980   1.688  1.00  0.00    -0.274 OA
ENDBRANCH  23  29
ENDBRANCH  11  23
ENDBRANCH  10  11
ENDBRANCH   7  10
BRANCH   9  32
HETATM   32  C20 UNL     1      10.611  24.992   6.501  1.00  0.00     0.069 C 
BRANCH  32  33
HETATM   33  C21 UNL     1      11.776  25.829   6.274  1.00  0.00    -0.005 C 
HETATM   34  C22 UNL     1      12.937  25.580   5.449  1.00  0.00     0.089 C 
BRANCH  34  35
HETATM   35  N7  UNL     1      13.975  24.718   5.875  1.00  0.00    -0.319 N 
HETATM   36  C23 UNL     1      14.127  23.524   6.514  1.00  0.00     0.320 C 
HETATM   37  O5  UNL     1      13.220  22.805   6.948  1.00  0.00    -0.247 OA
HETATM   38  N8  UNL     1      15.463  22.972   6.752  1.00  0.00    -0.336 N 
ATOM     39  H8  UNL     1      16.282  23.490   6.435  1.00  0.00     0.164 HD
ATOM     40  H7  UNL     1      14.884  25.108   5.629  1.00  0.00     0.169 HD
BRANCH  38  41
HETATM   41  C24 UNL     1      15.644  21.701   7.431  1.00  0.00     0.116 C 
HETATM   42  C25 UNL     1      15.528  20.629   6.448  1.00  0.00     0.027 C 
HETATM   43  C26 UNL     1      16.442  20.597   5.273  1.00  0.00     0.002 C 
HETATM   44  C27 UNL     1      17.857  20.249   5.489  1.00  0.00     0.002 C 
HETATM   45  C28 UNL     1      18.009  19.352   6.701  1.00  0.00     0.028 C 
HETATM   46  C29 UNL     1      18.451  20.173   7.832  1.00  0.00     0.237 C 
HETATM   47  N9  UNL     1      17.496  20.658   8.762  1.00  0.00    -0.069 N 
HETATM   48  C30 UNL     1      16.629  19.642   9.312  1.00  0.00     0.272 C 
HETATM   49  C31 UNL     1      18.306  21.113   9.920  1.00  0.00     0.272 C 
HETATM   50  C32 UNL     1      16.761  21.825   8.366  1.00  0.00     0.208 C 
HETATM   51  C33 UNL     1      17.698  22.958   7.986  1.00  0.00     0.042 C 
ENDBRANCH  38  41
ENDBRANCH  34  35
ENDBRANCH  32  33
ENDBRANCH   9  32
TORSDOF 10
ENDMDL
MODEL 5
REMARK VINA RESULT: -10.098112676      8.194     12.020
REMARK  10 active torsions:
REMARK  status: ('A' for Active; 'I' for Inactive)
REMARK    1  A    between atoms: C4_7  and  C5_8 
REMARK    2  A    between atoms: C5_8  and  N2_9 
REMARK       I    between atoms: N2_9  and  C6_10 
REMARK    3  A    between atoms: N2_9  and  C11_21 
REMARK    4  A    between atoms: C6_10  and  C7_12 
REMARK    5  A    between atoms: C8_13  and  C9_14 
REMARK       I    between atoms: C9_14  and  N3_16 
REMARK    6  A    between atoms: C11_21  and  C12_22 
REMARK    7  A    between atoms: C19_31  and  C20_32 
REMARK    8  A    between atoms: C20_32  and  C21_33 
REMARK    9  A    between atoms: C22_34  and  N7_35 
REMARK       I    between atoms: N7_35  and  C23_37 
REMARK       I    between atoms: C23_37  and  N8_39 
REMARK   10  A    between atoms: N8_39  and  C24_41 
ROOT
HETATM    1  C1  UNL     1       3.949  27.597   7.150  1.00  0.00     0.069 C 
HETATM    2  C2  UNL     1       5.331  27.447   6.641  1.00  0.00     0.015 A 
HETATM    3  N1  UNL     1       6.295  28.284   7.155  1.00  0.00    -0.327 N 
ATOM      4  H1  UNL     1       6.005  28.991   7.831  1.00  0.00     0.169 HD
HETATM    5  C3  UNL     1       7.581  28.226   6.823  1.00  0.00     0.253 A 
HETATM    6  O1  UNL     1       8.445  29.019   7.321  1.00  0.00    -0.268 OA
HETATM    7  C4  UNL     1       8.072  27.285   5.900  1.00  0.00     0.028 A 
HETATM    8  C18 UNL     1       7.117  26.462   5.393  1.00  0.00     0.023 A 
HETATM    9  C19 UNL     1       5.735  26.526   5.751  1.00  0.00    -0.032 A 
ENDROOT
BRANCH   7  10
HETATM   10  C5  UNL     1       9.508  27.304   5.564  1.00  0.00     0.171 C 
BRANCH  10  11
HETATM   11  N2  UNL     1      10.206  26.046   5.668  1.00  0.00    -0.326 N 
HETATM   12  C6  UNL     1      10.404  25.284   4.489  1.00  0.00     0.244 C 
HETATM   13  O2  UNL     1       9.897  25.854   3.448  1.00  0.00    -0.268 OA
BRANCH  12  14
HETATM   14  C7  UNL     1      11.055  24.042   4.322  1.00  0.00     0.080 C 
HETATM   15  C8  UNL     1      10.846  23.097   3.492  1.00  0.00     0.080 C 
BRANCH  15  16
HETATM   16  C9  UNL     1       9.910  22.901   2.429  1.00  0.00     0.247 C 
HETATM   17  O3  UNL     1      10.012  23.195   1.218  1.00  0.00    -0.268 OA
HETATM   18  N3  UNL     1       8.632  22.266   2.772  1.00  0.00    -0.300 N 
HETATM   19  C10 UNL     1       8.389  21.049   2.456  1.00  0.00     0.203 C 
ATOM     20  H3  UNL     1       7.923  22.804   3.271  1.00  0.00     0.171 HD
HETATM   21  N4  UNL     1       9.357  20.280   1.763  1.00  0.00    -0.066 NA
HETATM   22  N5  UNL     1       7.141  20.512   2.822  1.00  0.00    -0.066 NA
ENDBRANCH  15  16
ENDBRANCH  12  14
BRANCH  11  23
HETATM   23  C11 UNL     1      10.754  25.610   6.936  1.00  0.00     0.114 C 
HETATM   24  C13 UNL     1      10.857  26.812   7.878  1.00  0.00     0.041 C 
HETATM   25  C14 UNL     1      11.189  26.358   9.253  1.00  0.00     0.003 C 
HETATM   26  C15 UNL     1      10.261  25.339   9.844  1.00  0.00     0.000 C 
HETATM   27  C16 UNL     1       9.239  24.885   8.822  1.00  0.00     0.003 C 
HETATM   28  C17 UNL     1       9.949  24.519   7.530  1.00  0.00     0.041 C 
BRANCH  23  29
HETATM   29  C12 UNL     1      12.176  25.199   6.701  1.00  0.00     0.259 C 
HETATM   30  N6  UNL     1      12.690  23.932   7.061  1.00  0.00    -0.060 NA
HETATM   31  O4  UNL     1      12.952  26.019   6.157  1.00  0.00    -0.274 OA
ENDBRANCH  23  29
ENDBRANCH  11  23
ENDBRANCH  10  11
ENDBRANCH   7  10
BRANCH   9  32
HETATM   32  C20 UNL     1       4.859  25.573   5.028  1.00  0.00     0.069 C 
BRANCH  32  33
HETATM   33  C21 UNL     1       5.330  25.031   3.764  1.00  0.00    -0.005 C 
HETATM   34  C22 UNL     1       4.687  24.091   2.874  1.00  0.00     0.089 C 
BRANCH  34  35
HETATM   35  N7  UNL     1       4.666  22.705   3.151  1.00  0.00    -0.319 N 
HETATM   36  C23 UNL     1       3.825  21.640   3.025  1.00  0.00     0.320 C 
HETATM   37  O5  UNL     1       2.680  21.663   2.560  1.00  0.00    -0.247 OA
HETATM   38  N8  UNL     1       4.241  20.305   3.462  1.00  0.00    -0.336 N 
ATOM     39  H8  UNL     1       5.169  20.178   3.865  1.00  0.00     0.164 HD
ATOM     40  H7  UNL     1       5.547  22.413   3.573  1.00  0.00     0.169 HD
BRANCH  38  41
HETATM   41  C24 UNL     1       3.358  19.159   3.334  1.00  0.00     0.116 C 
HETATM   42  C25 UNL     1       3.839  18.323   2.241  1.00  0.00     0.027 C 
HETATM   43  C26 UNL     1       5.221  17.769   2.281  1.00  0.00     0.002 C 
HETATM   44  C27 UNL     1       5.523  16.692   3.241  1.00  0.00     0.002 C 
HETATM   45  C28 UNL     1       4.279  15.880   3.541  1.00  0.00     0.028 C 
HETATM   46  C29 UNL     1       3.732  16.329   4.825  1.00  0.00     0.237 C 
HETATM   47  N9  UNL     1       2.678  17.277   4.846  1.00  0.00    -0.069 N 
HETATM   48  C30 UNL     1       1.544  16.928   4.022  1.00  0.00     0.272 C 
HETATM   49  C31 UNL     1       2.153  17.218   6.234  1.00  0.00     0.272 C 
HETATM   50  C32 UNL     1       3.056  18.650   4.671  1.00  0.00     0.208 C 
HETATM   51  C33 UNL     1       4.107  19.061   5.687  1.00  0.00     0.042 C 
ENDBRANCH  38  41
ENDBRANCH  34  35
ENDBRANCH  32  33
ENDBRANCH   9  32
TORSDOF 10
ENDMDL
