MODEL 1
REMARK VINA RESULT: -8.421625906      0.000      0.000
REMARK  15 active torsions:
REMARK  status: ('A' for Active; 'I' for Inactive)
REMARK    1  A    between atoms: C2_2  and  C3_3 
REMARK    2  A    between atoms: C3_3  and  C4_4 
REMARK    3  A    between atoms: C4_4  and  C5_5 
REMARK    4  A    between atoms: C6_8  and  O1_9 
REMARK    5  A    between atoms: C12_18  and  C13_19 
REMARK    6  A    between atoms: C13_19  and  C14_20 
REMARK    7  A    between atoms: C20_30  and  O3_31 
REMARK    8  A    between atoms: C21_33  and  C22_34 
REMARK    9  A    between atoms: C22_34  and  C23_35 
REMARK   10  A    between atoms: C23_35  and  C24_36 
REMARK   11  A    between atoms: C24_36  and  C25_37 
REMARK   12  A    between atoms: C25_37  and  N5_38 
REMARK   13  A    between atoms: C26_44  and  O4_45 
REMARK   14  A    between atoms: C27_47  and  C28_48 
REMARK   15  A    between atoms: C28_48  and  C29_49 
ROOT
HETATM    1  C5  UNL     1       8.697  27.097   7.366  1.00  0.00     0.175 C 
HETATM    2  N1  UNL     1       8.983  26.161   6.252  1.00  0.00    -0.359 N 
ATOM      3  H1  UNL     1       8.192  25.548   6.054  1.00  0.00     0.162 HD
HETATM    4  C6  UNL     1      10.035  25.914   5.429  1.00  0.00     0.135 C 
HETATM    5  C7  UNL     1      11.219  25.027   5.478  1.00  0.00     0.161 C 
HETATM    6  C8  UNL     1      12.464  25.689   5.990  1.00  0.00     0.035 C 
HETATM    7  C9  UNL     1      13.495  24.664   5.483  1.00  0.00     0.022 C 
HETATM    8  C10 UNL     1      13.008  24.503   4.075  1.00  0.00     0.127 C 
HETATM    9  N2  UNL     1      11.553  24.524   4.142  1.00  0.00    -0.338 N 
HETATM   10  C11 UNL     1      10.658  24.160   3.151  1.00  0.00     0.243 C 
HETATM   11  O2  UNL     1      11.083  24.067   1.943  1.00  0.00    -0.271 OA
HETATM   12  C12 UNL     1       9.191  23.831   3.231  1.00  0.00     0.181 C 
HETATM   13  N4  UNL     1       8.496  24.347   2.070  1.00  0.00    -0.355 N 
ATOM     14  H4  UNL     1       9.037  24.214   1.216  1.00  0.00     0.162 HD
HETATM   15  C20 UNL     1       7.294  24.970   1.819  1.00  0.00     0.163 C 
HETATM   16  C21 UNL     1       6.439  25.954   2.521  1.00  0.00     0.081 C 
HETATM   17  N6  UNL     1       6.153  25.629   3.897  1.00  0.00    -0.336 N 
ATOM     18  H6  UNL     1       6.565  24.729   4.143  1.00  0.00     0.168 HD
HETATM   19  C26 UNL     1       5.489  26.169   4.982  1.00  0.00     0.139 C 
HETATM   20  C27 UNL     1       5.571  27.364   5.806  1.00  0.00     0.165 C 
HETATM   21  N8  UNL     1       6.772  28.121   5.907  1.00  0.00    -0.347 N 
ATOM     22  H8  UNL     1       6.886  28.763   5.124  1.00  0.00     0.163 HD
HETATM   23  C35 UNL     1       7.830  28.202   6.810  1.00  0.00     0.241 C 
HETATM   24  O5  UNL     1       8.144  29.363   7.251  1.00  0.00    -0.271 OA
ENDROOT
BRANCH  12  25
HETATM   25  C13 UNL     1       9.180  22.288   3.040  1.00  0.00     0.092 C 
BRANCH  25  26
HETATM   26  C14 UNL     1       7.836  21.743   3.283  1.00  0.00     0.017 A 
HETATM   27  N3  UNL     1       6.798  22.351   3.880  1.00  0.00    -0.363 N 
HETATM   28  C15 UNL     1       5.730  21.544   3.911  1.00  0.00     0.006 A 
ATOM     29  H3  UNL     1       6.819  23.298   4.258  1.00  0.00     0.165 HD
HETATM   30  C16 UNL     1       4.365  21.813   4.478  1.00  0.00     0.068 C 
HETATM   31  C17 UNL     1       6.078  20.359   3.311  1.00  0.00     0.033 A 
HETATM   32  C18 UNL     1       7.405  20.493   2.920  1.00  0.00    -0.037 A 
HETATM   33  C19 UNL     1       8.195  19.412   2.222  1.00  0.00     0.050 C 
ENDBRANCH  25  26
ENDBRANCH  12  25
BRANCH  15  34
HETATM   34  O3  UNL     1       6.819  24.567   0.656  1.00  0.00    -0.345 OA
ATOM     35  H3  UNL     1       6.013  25.031   0.461  1.00  0.00     0.219 HD
ENDBRANCH  15  34
BRANCH  16  36
HETATM   36  C22 UNL     1       6.509  27.355   2.119  1.00  0.00     0.007 C 
BRANCH  36  37
HETATM   37  C23 UNL     1       5.516  28.136   1.430  1.00  0.00     0.031 C 
BRANCH  37  38
HETATM   38  C24 UNL     1       4.139  27.578   1.268  1.00  0.00     0.031 C 
BRANCH  38  39
HETATM   39  C25 UNL     1       3.873  27.312  -0.220  1.00  0.00     0.230 C 
BRANCH  39  40
HETATM   40  N5  UNL     1       4.503  26.074  -0.635  1.00  0.00    -0.079 N 
ATOM     41  H53 UNL     1       5.451  25.988  -0.267  1.00  0.00     0.274 HD
ATOM     42  H52 UNL     1       4.088  25.264  -0.174  1.00  0.00     0.274 HD
ATOM     43  H51 UNL     1       4.481  25.985  -1.650  1.00  0.00     0.274 HD
ENDBRANCH  39  40
ENDBRANCH  38  39
ENDBRANCH  37  38
ENDBRANCH  36  37
ENDBRANCH  16  36
BRANCH   4  44
HETATM   44  O1  UNL     1      10.084  26.578   4.303  1.00  0.00    -0.348 OA
ATOM     45  H1  UNL     1       9.411  26.391   3.659  1.00  0.00     0.219 HD
ENDBRANCH   4  44
BRANCH  19  46
HETATM   46  O4  UNL     1       4.492  25.411   5.438  1.00  0.00    -0.348 OA
ATOM     47  H4  UNL     1       3.684  25.886   5.588  1.00  0.00     0.219 HD
ENDBRANCH  19  46
BRANCH   1  48
HETATM   48  C4  UNL     1       7.976  26.258   8.381  1.00  0.00     0.035 C 
BRANCH  48  49
HETATM   49  C3  UNL     1       8.673  25.240   9.152  1.00  0.00     0.002 C 
BRANCH  49  50
HETATM   50  C2  UNL     1       9.884  25.572   9.929  1.00  0.00    -0.004 C 
HETATM   51  C1  UNL     1      11.212  25.550   9.302  1.00  0.00     0.005 C 
ENDBRANCH  49  50
ENDBRANCH  48  49
ENDBRANCH   1  48
BRANCH  20  52
HETATM   52  C28 UNL     1       4.396  28.309   5.488  1.00  0.00     0.090 C 
BRANCH  52  53
HETATM   53  C29 UNL     1       3.220  28.079   6.334  1.00  0.00     0.013 A 
HETATM   54  C30 UNL     1       3.371  28.320   7.705  1.00  0.00     0.025 A 
HETATM   55  C31 UNL     1       2.320  28.180   8.570  1.00  0.00     0.003 A 
HETATM   56  C32 UNL     1       1.094  27.788   8.032  1.00  0.00     0.017 A 
HETATM   57  C33 UNL     1       0.937  27.553   6.707  1.00  0.00     0.090 A 
HETATM   58  N7  UNL     1       2.026  27.710   5.882  1.00  0.00    -0.364 N 
HETATM   59  C34 UNL     1       1.815  27.522   4.448  1.00  0.00     0.155 C 
ENDBRANCH  52  53
ENDBRANCH  20  52
TORSDOF 15
ENDMDL
MODEL 2
REMARK VINA RESULT: -8.349681959      2.319      7.945
REMARK  15 active torsions:
REMARK  status: ('A' for Active; 'I' for Inactive)
REMARK    1  A    between atoms: C2_2  and  C3_3 
REMARK    2  A    between atoms: C3_3  and  C4_4 
REMARK    3  A    between atoms: C4_4  and  C5_5 
REMARK    4  A    between atoms: C6_8  and  O1_9 
REMARK    5  A    between atoms: C12_18  and  C13_19 
REMARK    6  A    between atoms: C13_19  and  C14_20 
REMARK    7  A    between atoms: C20_30  and  O3_31 
REMARK    8  A    between atoms: C21_33  and  C22_34 
REMARK    9  A    between atoms: C22_34  and  C23_35 
REMARK   10  A    between atoms: C23_35  and  C24_36 
REMARK   11  A    between atoms: C24_36  and  C25_37 
REMARK   12  A    between atoms: C25_37  and  N5_38 
REMARK   13  A    between atoms: C26_44  and  O4_45 
REMARK   14  A    between atoms: C27_47  and  C28_48 
REMARK   15  A    between atoms: C28_48  and  C29_49 
ROOT
HETATM    1  C5  UNL     1       9.477  24.182   1.874  1.00  0.00     0.175 C 
HETATM    2  N1  UNL     1       8.156  24.425   2.504  1.00  0.00    -0.359 N 
ATOM      3  H1  UNL     1       8.097  24.020   3.439  1.00  0.00     0.162 HD
HETATM    4  C6  UNL     1       7.005  25.053   2.149  1.00  0.00     0.135 C 
HETATM    5  C7  UNL     1       5.758  24.647   1.463  1.00  0.00     0.161 C 
HETATM    6  C8  UNL     1       5.741  24.939  -0.007  1.00  0.00     0.035 C 
HETATM    7  C9  UNL     1       4.225  24.818  -0.249  1.00  0.00     0.022 C 
HETATM    8  C10 UNL     1       3.728  25.647   0.896  1.00  0.00     0.127 C 
HETATM    9  N2  UNL     1       4.599  25.347   2.025  1.00  0.00    -0.338 N 
HETATM   10  C11 UNL     1       4.393  25.664   3.356  1.00  0.00     0.243 C 
HETATM   11  O2  UNL     1       3.520  26.560   3.647  1.00  0.00    -0.271 OA
HETATM   12  C12 UNL     1       5.040  25.122   4.602  1.00  0.00     0.181 C 
HETATM   13  N4  UNL     1       5.235  26.180   5.570  1.00  0.00    -0.355 N 
ATOM     14  H4  UNL     1       4.435  26.812   5.604  1.00  0.00     0.162 HD
HETATM   15  C20 UNL     1       6.219  26.556   6.458  1.00  0.00     0.163 C 
HETATM   16  C21 UNL     1       7.699  26.540   6.474  1.00  0.00     0.081 C 
HETATM   17  N6  UNL     1       8.291  25.272   6.124  1.00  0.00    -0.336 N 
ATOM     18  H6  UNL     1       7.565  24.573   5.964  1.00  0.00     0.168 HD
HETATM   19  C26 UNL     1       9.543  24.718   5.942  1.00  0.00     0.139 C 
HETATM   20  C27 UNL     1      10.693  24.923   5.075  1.00  0.00     0.165 C 
HETATM   21  N8  UNL     1      10.571  25.569   3.813  1.00  0.00    -0.347 N 
ATOM     22  H8  UNL     1      10.571  26.585   3.901  1.00  0.00     0.163 HD
HETATM   23  C35 UNL     1      10.452  25.159   2.487  1.00  0.00     0.241 C 
HETATM   24  O5  UNL     1      11.266  25.662   1.636  1.00  0.00    -0.271 OA
ENDROOT
BRANCH  12  25
HETATM   25  C13 UNL     1       3.914  24.238   5.210  1.00  0.00     0.092 C 
BRANCH  25  26
HETATM   26  C14 UNL     1       3.827  22.949   4.506  1.00  0.00     0.017 A 
HETATM   27  N3  UNL     1       4.749  21.975   4.458  1.00  0.00    -0.363 N 
HETATM   28  C15 UNL     1       4.309  20.943   3.727  1.00  0.00     0.006 A 
ATOM     29  H3  UNL     1       5.660  22.015   4.915  1.00  0.00     0.165 HD
HETATM   30  C16 UNL     1       5.007  19.650   3.413  1.00  0.00     0.068 C 
HETATM   31  C17 UNL     1       3.049  21.249   3.277  1.00  0.00     0.033 A 
HETATM   32  C18 UNL     1       2.754  22.514   3.771  1.00  0.00    -0.037 A 
HETATM   33  C19 UNL     1       1.459  23.244   3.509  1.00  0.00     0.050 C 
ENDBRANCH  25  26
ENDBRANCH  12  25
BRANCH  15  34
HETATM   34  O3  UNL     1       5.667  27.049   7.550  1.00  0.00    -0.345 OA
ATOM     35  H3  UNL     1       6.322  27.515   8.056  1.00  0.00     0.219 HD
ENDBRANCH  15  34
BRANCH  16  36
HETATM   36  C22 UNL     1       8.416  27.772   6.160  1.00  0.00     0.007 C 
BRANCH  36  37
HETATM   37  C23 UNL     1       9.163  28.620   7.051  1.00  0.00     0.031 C 
BRANCH  37  38
HETATM   38  C24 UNL     1       9.228  28.269   8.502  1.00  0.00     0.031 C 
BRANCH  38  39
HETATM   39  C25 UNL     1      10.376  27.277   8.731  1.00  0.00     0.230 C 
BRANCH  39  40
HETATM   40  N5  UNL     1       9.865  26.016   9.232  1.00  0.00    -0.079 N 
ATOM     41  H53 UNL     1       8.953  25.792   8.835  1.00  0.00     0.274 HD
ATOM     42  H52 UNL     1      10.390  25.222   8.866  1.00  0.00     0.274 HD
ATOM     43  H51 UNL     1       9.844  26.020  10.251  1.00  0.00     0.274 HD
ENDBRANCH  39  40
ENDBRANCH  38  39
ENDBRANCH  37  38
ENDBRANCH  36  37
ENDBRANCH  16  36
BRANCH   4  44
HETATM   44  O1  UNL     1       6.895  26.320   2.454  1.00  0.00    -0.348 OA
ATOM     45  H1  UNL     1       6.949  26.945   1.740  1.00  0.00     0.219 HD
ENDBRANCH   4  44
BRANCH  19  46
HETATM   46  O4  UNL     1       9.811  23.703   6.762  1.00  0.00    -0.348 OA
ATOM     47  H4  UNL     1      10.726  23.446   6.772  1.00  0.00     0.219 HD
ENDBRANCH  19  46
BRANCH   1  48
HETATM   48  C4  UNL     1       9.797  22.756   2.222  1.00  0.00     0.035 C 
BRANCH  48  49
HETATM   49  C3  UNL     1       8.939  21.663   1.793  1.00  0.00     0.002 C 
BRANCH  49  50
HETATM   50  C2  UNL     1       8.573  20.575   2.723  1.00  0.00    -0.004 C 
HETATM   51  C1  UNL     1       8.731  19.167   2.335  1.00  0.00     0.005 C 
ENDBRANCH  49  50
ENDBRANCH  48  49
ENDBRANCH   1  48
BRANCH  20  52
HETATM   52  C28 UNL     1      11.848  25.565   5.869  1.00  0.00     0.090 C 
BRANCH  52  53
HETATM   53  C29 UNL     1      13.039  24.714   5.952  1.00  0.00     0.013 A 
HETATM   54  C30 UNL     1      13.596  24.287   4.741  1.00  0.00     0.025 A 
HETATM   55  C31 UNL     1      14.736  23.530   4.711  1.00  0.00     0.003 A 
HETATM   56  C32 UNL     1      15.318  23.200   5.935  1.00  0.00     0.017 A 
HETATM   57  C33 UNL     1      14.788  23.609   7.113  1.00  0.00     0.090 A 
HETATM   58  N7  UNL     1      13.642  24.369   7.085  1.00  0.00    -0.364 N 
HETATM   59  C34 UNL     1      13.130  24.860   8.362  1.00  0.00     0.155 C 
ENDBRANCH  52  53
ENDBRANCH  20  52
TORSDOF 15
ENDMDL
MODEL 3
REMARK VINA RESULT: -7.519446541      2.251      7.899
REMARK  15 active torsions:
REMARK  status: ('A' for Active; 'I' for Inactive)
REMARK    1  A    between atoms: C2_2  and  C3_3 
REMARK    2  A    between atoms: C3_3  and  C4_4 
REMARK    3  A    between atoms: C4_4  and  C5_5 
REMARK    4  A    between atoms: C6_8  and  O1_9 
REMARK    5  A    between atoms: C12_18  and  C13_19 
REMARK    6  A    between atoms: C13_19  and  C14_20 
REMARK    7  A    between atoms: C20_30  and  O3_31 
REMARK    8  A    between atoms: C21_33  and  C22_34 
REMARK    9  A    between atoms: C22_34  and  C23_35 
REMARK   10  A    between atoms: C23_35  and  C24_36 
REMARK   11  A    between atoms: C24_36  and  C25_37 
REMARK   12  A    between atoms: C25_37  and  N5_38 
REMARK   13  A    between atoms: C26_44  and  O4_45 
REMARK   14  A    between atoms: C27_47  and  C28_48 
REMARK   15  A    between atoms: C28_48  and  C29_49 
ROOT
HETATM    1  C5  UNL     1       9.621  24.055   2.137  1.00  0.00     0.175 C 
HETATM    2  N1  UNL     1       8.290  24.437   2.671  1.00  0.00    -0.359 N 
ATOM      3  H1  UNL     1       8.122  24.042   3.597  1.00  0.00     0.162 HD
HETATM    4  C6  UNL     1       7.241  25.182   2.238  1.00  0.00     0.135 C 
HETATM    5  C7  UNL     1       6.011  24.908   1.461  1.00  0.00     0.161 C 
HETATM    6  C8  UNL     1       6.132  25.198  -0.005  1.00  0.00     0.035 C 
HETATM    7  C9  UNL     1       4.633  25.236  -0.356  1.00  0.00     0.022 C 
HETATM    8  C10 UNL     1       4.144  26.115   0.754  1.00  0.00     0.127 C 
HETATM    9  N2  UNL     1       4.894  25.727   1.942  1.00  0.00    -0.338 N 
HETATM   10  C11 UNL     1       4.627  26.066   3.256  1.00  0.00     0.243 C 
HETATM   11  O2  UNL     1       3.833  27.050   3.488  1.00  0.00    -0.271 OA
HETATM   12  C12 UNL     1       5.120  25.461   4.543  1.00  0.00     0.181 C 
HETATM   13  N4  UNL     1       5.355  26.495   5.528  1.00  0.00    -0.355 N 
ATOM     14  H4  UNL     1       4.626  27.208   5.508  1.00  0.00     0.162 HD
HETATM   15  C20 UNL     1       6.306  26.767   6.487  1.00  0.00     0.163 C 
HETATM   16  C21 UNL     1       7.771  26.595   6.610  1.00  0.00     0.081 C 
HETATM   17  N6  UNL     1       8.251  25.271   6.297  1.00  0.00    -0.336 N 
ATOM     18  H6  UNL     1       7.469  24.652   6.080  1.00  0.00     0.168 HD
HETATM   19  C26 UNL     1       9.448  24.588   6.202  1.00  0.00     0.139 C 
HETATM   20  C27 UNL     1      10.672  24.670   5.422  1.00  0.00     0.165 C 
HETATM   21  N8  UNL     1      10.711  25.323   4.158  1.00  0.00    -0.347 N 
ATOM     22  H8  UNL     1      10.811  26.333   4.252  1.00  0.00     0.163 HD
HETATM   23  C35 UNL     1      10.646  24.925   2.824  1.00  0.00     0.241 C 
HETATM   24  O5  UNL     1      11.568  25.339   2.037  1.00  0.00    -0.271 OA
ENDROOT
BRANCH  12  25
HETATM   25  C13 UNL     1       3.867  24.702   5.062  1.00  0.00     0.092 C 
BRANCH  25  26
HETATM   26  C14 UNL     1       3.389  23.738   4.059  1.00  0.00     0.017 A 
HETATM   27  N3  UNL     1       2.244  23.779   3.360  1.00  0.00    -0.363 N 
HETATM   28  C15 UNL     1       2.158  22.733   2.530  1.00  0.00     0.006 A 
ATOM     29  H3  UNL     1       1.536  24.508   3.449  1.00  0.00     0.165 HD
HETATM   30  C16 UNL     1       1.057  22.384   1.568  1.00  0.00     0.068 C 
HETATM   31  C17 UNL     1       3.290  21.973   2.689  1.00  0.00     0.033 A 
HETATM   32  C18 UNL     1       4.059  22.612   3.653  1.00  0.00    -0.037 A 
HETATM   33  C19 UNL     1       5.395  22.108   4.142  1.00  0.00     0.050 C 
ENDBRANCH  25  26
ENDBRANCH  12  25
BRANCH  15  34
HETATM   34  O3  UNL     1       5.732  27.317   7.539  1.00  0.00    -0.345 OA
ATOM     35  H3  UNL     1       4.788  27.298   7.435  1.00  0.00     0.219 HD
ENDBRANCH  15  34
BRANCH  16  36
HETATM   36  C22 UNL     1       8.635  27.744   6.357  1.00  0.00     0.007 C 
BRANCH  36  37
HETATM   37  C23 UNL     1       9.320  28.573   7.312  1.00  0.00     0.031 C 
BRANCH  37  38
HETATM   38  C24 UNL     1       9.416  28.115   8.732  1.00  0.00     0.031 C 
BRANCH  38  39
HETATM   39  C25 UNL     1      10.551  27.088   8.855  1.00  0.00     0.230 C 
BRANCH  39  40
HETATM   40  N5  UNL     1      10.049  25.838   9.391  1.00  0.00    -0.079 N 
ATOM     41  H53 UNL     1      10.805  25.191   9.616  1.00  0.00     0.274 HD
ATOM     42  H52 UNL     1       9.664  25.955  10.328  1.00  0.00     0.274 HD
ATOM     43  H51 UNL     1       9.372  25.422   8.752  1.00  0.00     0.274 HD
ENDBRANCH  39  40
ENDBRANCH  38  39
ENDBRANCH  37  38
ENDBRANCH  36  37
ENDBRANCH  16  36
BRANCH   4  44
HETATM   44  O1  UNL     1       7.242  26.454   2.541  1.00  0.00    -0.348 OA
ATOM     45  H1  UNL     1       6.421  26.924   2.450  1.00  0.00     0.219 HD
ENDBRANCH   4  44
BRANCH  19  46
HETATM   46  O4  UNL     1       9.548  23.552   7.034  1.00  0.00    -0.348 OA
ATOM     47  H4  UNL     1      10.199  22.911   6.775  1.00  0.00     0.219 HD
ENDBRANCH  19  46
BRANCH   1  48
HETATM   48  C4  UNL     1       9.763  22.604   2.498  1.00  0.00     0.035 C 
BRANCH  48  49
HETATM   49  C3  UNL     1       9.043  21.570   1.772  1.00  0.00     0.002 C 
BRANCH  49  50
HETATM   50  C2  UNL     1       8.298  20.516   2.491  1.00  0.00    -0.004 C 
HETATM   51  C1  UNL     1       8.712  19.109   2.405  1.00  0.00     0.005 C 
ENDBRANCH  49  50
ENDBRANCH  48  49
ENDBRANCH   1  48
BRANCH  20  52
HETATM   52  C28 UNL     1      11.828  25.188   6.301  1.00  0.00     0.090 C 
BRANCH  52  53
HETATM   53  C29 UNL     1      12.871  24.185   6.540  1.00  0.00     0.013 A 
HETATM   54  C30 UNL     1      12.674  23.315   7.618  1.00  0.00     0.025 A 
HETATM   55  C31 UNL     1      13.567  22.315   7.895  1.00  0.00     0.003 A 
HETATM   56  C32 UNL     1      14.678  22.198   7.061  1.00  0.00     0.017 A 
HETATM   57  C33 UNL     1      14.877  23.035   6.013  1.00  0.00     0.090 A 
HETATM   58  N7  UNL     1      13.949  24.022   5.780  1.00  0.00    -0.364 N 
HETATM   59  C34 UNL     1      14.146  24.866   4.603  1.00  0.00     0.155 C 
ENDBRANCH  52  53
ENDBRANCH  20  52
TORSDOF 15
ENDMDL
MODEL 4
REMARK VINA RESULT: -7.495600581      1.091      1.439
REMARK  15 active torsions:
REMARK  status: ('A' for Active; 'I' for Inactive)
REMARK    1  A    between atoms: C2_2  and  C3_3 
REMARK    2  A    between atoms: C3_3  and  C4_4 
REMARK    3  A    between atoms: C4_4  and  C5_5 
REMARK    4  A    between atoms: C6_8  and  O1_9 
REMARK    5  A    between atoms: C12_18  and  C13_19 
REMARK    6  A    between atoms: C13_19  and  C14_20 
REMARK    7  A    between atoms: C20_30  and  O3_31 
REMARK    8  A    between atoms: C21_33  and  C22_34 
REMARK    9  A    between atoms: C22_34  and  C23_35 
REMARK   10  A    between atoms: C23_35  and  C24_36 
REMARK   11  A    between atoms: C24_36  and  C25_37 
REMARK   12  A    between atoms: C25_37  and  N5_38 
REMARK   13  A    between atoms: C26_44  and  O4_45 
REMARK   14  A    between atoms: C27_47  and  C28_48 
REMARK   15  A    between atoms: C28_48  and  C29_49 
ROOT
HETATM    1  C5  UNL     1       8.691  26.831   7.233  1.00  0.00     0.175 C 
HETATM    2  N1  UNL     1       8.912  25.790   6.200  1.00  0.00    -0.359 N 
ATOM      3  H1  UNL     1       8.090  25.201   6.068  1.00  0.00     0.162 HD
HETATM    4  C6  UNL     1       9.936  25.423   5.386  1.00  0.00     0.135 C 
HETATM    5  C7  UNL     1      11.078  24.487   5.494  1.00  0.00     0.161 C 
HETATM    6  C8  UNL     1      12.361  25.130   5.928  1.00  0.00     0.035 C 
HETATM    7  C9  UNL     1      13.333  24.016   5.496  1.00  0.00     0.022 C 
HETATM    8  C10 UNL     1      12.813  23.758   4.115  1.00  0.00     0.127 C 
HETATM    9  N2  UNL     1      11.361  23.856   4.201  1.00  0.00    -0.338 N 
HETATM   10  C11 UNL     1      10.431  23.452   3.260  1.00  0.00     0.243 C 
HETATM   11  O2  UNL     1      10.829  23.236   2.058  1.00  0.00    -0.271 OA
HETATM   12  C12 UNL     1       8.953  23.202   3.389  1.00  0.00     0.181 C 
HETATM   13  N4  UNL     1       8.260  23.650   2.199  1.00  0.00    -0.355 N 
ATOM     14  H4  UNL     1       8.779  23.418   1.352  1.00  0.00     0.162 HD
HETATM   15  C20 UNL     1       7.084  24.307   1.913  1.00  0.00     0.163 C 
HETATM   16  C21 UNL     1       6.290  25.387   2.540  1.00  0.00     0.081 C 
HETATM   17  N6  UNL     1       6.015  25.196   3.943  1.00  0.00    -0.336 N 
ATOM     18  H6  UNL     1       6.390  24.302   4.260  1.00  0.00     0.168 HD
HETATM   19  C26 UNL     1       5.399  25.858   4.987  1.00  0.00     0.139 C 
HETATM   20  C27 UNL     1       5.552  27.114   5.703  1.00  0.00     0.165 C 
HETATM   21  N8  UNL     1       6.789  27.818   5.721  1.00  0.00    -0.347 N 
ATOM     22  H8  UNL     1       6.918  28.385   4.883  1.00  0.00     0.163 HD
HETATM   23  C35 UNL     1       7.867  27.925   6.597  1.00  0.00     0.241 C 
HETATM   24  O5  UNL     1       8.243  29.103   6.931  1.00  0.00    -0.271 OA
ENDROOT
BRANCH  12  25
HETATM   25  C13 UNL     1       8.865  21.651   3.333  1.00  0.00     0.092 C 
BRANCH  25  26
HETATM   26  C14 UNL     1       7.468  21.204   3.438  1.00  0.00     0.017 A 
HETATM   27  N3  UNL     1       6.438  21.851   4.005  1.00  0.00    -0.363 N 
HETATM   28  C15 UNL     1       5.312  21.136   3.897  1.00  0.00     0.006 A 
ATOM     29  H3  UNL     1       6.504  22.764   4.457  1.00  0.00     0.165 HD
HETATM   30  C16 UNL     1       3.932  21.477   4.386  1.00  0.00     0.068 C 
HETATM   31  C17 UNL     1       5.612  19.973   3.234  1.00  0.00     0.033 A 
HETATM   32  C18 UNL     1       6.971  20.023   2.949  1.00  0.00    -0.037 A 
HETATM   33  C19 UNL     1       7.725  18.934   2.226  1.00  0.00     0.050 C 
ENDBRANCH  25  26
ENDBRANCH  12  25
BRANCH  15  34
HETATM   34  O3  UNL     1       6.569  23.829   0.797  1.00  0.00    -0.345 OA
ATOM     35  H3  UNL     1       5.633  23.705   0.904  1.00  0.00     0.219 HD
ENDBRANCH  15  34
BRANCH  16  36
HETATM   36  C22 UNL     1       6.418  26.744   2.017  1.00  0.00     0.007 C 
BRANCH  36  37
HETATM   37  C23 UNL     1       7.199  27.832   2.542  1.00  0.00     0.031 C 
BRANCH  37  38
HETATM   38  C24 UNL     1       8.604  28.012   2.065  1.00  0.00     0.031 C 
BRANCH  38  39
HETATM   39  C25 UNL     1       8.915  26.953   0.999  1.00  0.00     0.230 C 
BRANCH  39  40
HETATM   40  N5  UNL     1      10.143  26.254   1.322  1.00  0.00    -0.079 N 
ATOM     41  H53 UNL     1      10.967  26.813   1.100  1.00  0.00     0.274 HD
ATOM     42  H52 UNL     1      10.280  26.172   2.329  1.00  0.00     0.274 HD
ATOM     43  H51 UNL     1      10.167  25.344   0.861  1.00  0.00     0.274 HD
ENDBRANCH  39  40
ENDBRANCH  38  39
ENDBRANCH  37  38
ENDBRANCH  36  37
ENDBRANCH  16  36
BRANCH   4  44
HETATM   44  O1  UNL     1       9.994  25.985   4.207  1.00  0.00    -0.348 OA
ATOM     45  H1  UNL     1      10.788  25.855   3.702  1.00  0.00     0.219 HD
ENDBRANCH   4  44
BRANCH  19  46
HETATM   46  O4  UNL     1       4.376  25.191   5.522  1.00  0.00    -0.348 OA
ATOM     47  H4  UNL     1       4.313  25.275   6.466  1.00  0.00     0.219 HD
ENDBRANCH  19  46
BRANCH   1  48
HETATM   48  C4  UNL     1       7.952  26.118   8.328  1.00  0.00     0.035 C 
BRANCH  48  49
HETATM   49  C3  UNL     1       8.626  25.171   9.203  1.00  0.00     0.002 C 
BRANCH  49  50
HETATM   50  C2  UNL     1       9.849  25.553   9.937  1.00  0.00    -0.004 C 
HETATM   51  C1  UNL     1      11.165  25.503   9.285  1.00  0.00     0.005 C 
ENDBRANCH  49  50
ENDBRANCH  48  49
ENDBRANCH   1  48
BRANCH  20  52
HETATM   52  C28 UNL     1       4.417  28.084   5.323  1.00  0.00     0.090 C 
BRANCH  52  53
HETATM   53  C29 UNL     1       3.251  27.990   6.208  1.00  0.00     0.013 A 
HETATM   54  C30 UNL     1       3.445  28.343   7.548  1.00  0.00     0.025 A 
HETATM   55  C31 UNL     1       2.408  28.334   8.442  1.00  0.00     0.003 A 
HETATM   56  C32 UNL     1       1.153  27.959   7.964  1.00  0.00     0.017 A 
HETATM   57  C33 UNL     1       0.954  27.616   6.668  1.00  0.00     0.090 A 
HETATM   58  N7  UNL     1       2.030  27.643   5.812  1.00  0.00    -0.364 N 
HETATM   59  C34 UNL     1       1.778  27.341   4.405  1.00  0.00     0.155 C 
ENDBRANCH  52  53
ENDBRANCH  20  52
TORSDOF 15
ENDMDL
MODEL 5
REMARK VINA RESULT: -7.438473005      2.102      6.848
REMARK  15 active torsions:
REMARK  status: ('A' for Active; 'I' for Inactive)
REMARK    1  A    between atoms: C2_2  and  C3_3 
REMARK    2  A    between atoms: C3_3  and  C4_4 
REMARK    3  A    between atoms: C4_4  and  C5_5 
REMARK    4  A    between atoms: C6_8  and  O1_9 
REMARK    5  A    between atoms: C12_18  and  C13_19 
REMARK    6  A    between atoms: C13_19  and  C14_20 
REMARK    7  A    between atoms: C20_30  and  O3_31 
REMARK    8  A    between atoms: C21_33  and  C22_34 
REMARK    9  A    between atoms: C22_34  and  C23_35 
REMARK   10  A    between atoms: C23_35  and  C24_36 
REMARK   11  A    between atoms: C24_36  and  C25_37 
REMARK   12  A    between atoms: C25_37  and  N5_38 
REMARK   13  A    between atoms: C26_44  and  O4_45 
REMARK   14  A    between atoms: C27_47  and  C28_48 
REMARK   15  A    between atoms: C28_48  and  C29_49 
ROOT
HETATM    1  C5  UNL     1       8.504  26.116   1.110  1.00  0.00     0.175 C 
HETATM    2  N1  UNL     1       7.198  25.539   1.512  1.00  0.00    -0.359 N 
ATOM      3  H1  UNL     1       7.280  24.944   2.336  1.00  0.00     0.162 HD
HETATM    4  C6  UNL     1       5.920  25.605   1.058  1.00  0.00     0.135 C 
HETATM    5  C7  UNL     1       5.110  24.831   0.090  1.00  0.00     0.161 C 
HETATM    6  C8  UNL     1       5.062  25.424  -1.286  1.00  0.00     0.035 C 
HETATM    7  C9  UNL     1       3.842  24.655  -1.826  1.00  0.00     0.022 C 
HETATM    8  C10 UNL     1       2.905  24.842  -0.672  1.00  0.00     0.127 C 
HETATM    9  N2  UNL     1       3.715  24.733   0.534  1.00  0.00    -0.338 N 
HETATM   10  C11 UNL     1       3.274  24.582   1.837  1.00  0.00     0.243 C 
HETATM   11  O2  UNL     1       2.047  24.851   2.104  1.00  0.00    -0.271 OA
HETATM   12  C12 UNL     1       4.006  24.132   3.072  1.00  0.00     0.181 C 
HETATM   13  N4  UNL     1       3.561  24.887   4.224  1.00  0.00    -0.355 N 
ATOM     14  H4  UNL     1       2.551  25.030   4.213  1.00  0.00     0.162 HD
HETATM   15  C20 UNL     1       4.144  25.460   5.332  1.00  0.00     0.163 C 
HETATM   16  C21 UNL     1       5.421  26.150   5.624  1.00  0.00     0.081 C 
HETATM   17  N6  UNL     1       6.600  25.446   5.183  1.00  0.00    -0.336 N 
ATOM     18  H6  UNL     1       6.345  24.548   4.773  1.00  0.00     0.168 HD
HETATM   19  C26 UNL     1       7.970  25.621   5.148  1.00  0.00     0.139 C 
HETATM   20  C27 UNL     1       8.920  26.553   4.561  1.00  0.00     0.165 C 
HETATM   21  N8  UNL     1       8.587  27.344   3.427  1.00  0.00    -0.347 N 
ATOM     22  H8  UNL     1       8.064  28.181   3.684  1.00  0.00     0.163 HD
HETATM   23  C35 UNL     1       8.797  27.260   2.052  1.00  0.00     0.241 C 
HETATM   24  O5  UNL     1       9.306  28.280   1.468  1.00  0.00    -0.271 OA
ENDROOT
BRANCH  12  25
HETATM   25  C13 UNL     1       3.442  22.701   3.298  1.00  0.00     0.092 C 
BRANCH  25  26
HETATM   26  C14 UNL     1       4.512  21.697   3.194  1.00  0.00     0.017 A 
HETATM   27  N3  UNL     1       5.824  21.910   3.005  1.00  0.00    -0.363 N 
HETATM   28  C15 UNL     1       6.492  20.751   2.974  1.00  0.00     0.006 A 
ATOM     29  H3  UNL     1       6.253  22.829   2.898  1.00  0.00     0.165 HD
HETATM   30  C16 UNL     1       7.965  20.520   2.787  1.00  0.00     0.068 C 
HETATM   31  C17 UNL     1       5.585  19.735   3.150  1.00  0.00     0.033 A 
HETATM   32  C18 UNL     1       4.342  20.340   3.287  1.00  0.00    -0.037 A 
HETATM   33  C19 UNL     1       3.051  19.584   3.494  1.00  0.00     0.050 C 
ENDBRANCH  25  26
ENDBRANCH  12  25
BRANCH  15  34
HETATM   34  O3  UNL     1       3.336  25.350   6.368  1.00  0.00    -0.345 OA
ATOM     35  H3  UNL     1       2.535  24.912   6.104  1.00  0.00     0.219 HD
ENDBRANCH  15  34
BRANCH  16  36
HETATM   36  C22 UNL     1       5.436  27.609   5.664  1.00  0.00     0.007 C 
BRANCH  36  37
HETATM   37  C23 UNL     1       4.961  28.477   6.709  1.00  0.00     0.031 C 
BRANCH  37  38
HETATM   38  C24 UNL     1       3.547  28.960   6.664  1.00  0.00     0.031 C 
BRANCH  38  39
HETATM   39  C25 UNL     1       2.923  28.826   8.059  1.00  0.00     0.230 C 
BRANCH  39  40
HETATM   40  N5  UNL     1       2.461  27.470   8.280  1.00  0.00    -0.079 N 
ATOM     41  H53 UNL     1       2.152  27.326   9.242  1.00  0.00     0.274 HD
ATOM     42  H52 UNL     1       1.575  27.290   7.808  1.00  0.00     0.274 HD
ATOM     43  H51 UNL     1       3.179  26.799   8.008  1.00  0.00     0.274 HD
ENDBRANCH  39  40
ENDBRANCH  38  39
ENDBRANCH  37  38
ENDBRANCH  36  37
ENDBRANCH  16  36
BRANCH   4  44
HETATM   44  O1  UNL     1       5.158  26.549   1.546  1.00  0.00    -0.348 OA
ATOM     45  H1  UNL     1       4.820  27.194   0.936  1.00  0.00     0.219 HD
ENDBRANCH   4  44
BRANCH  19  46
HETATM   46  O4  UNL     1       8.651  24.694   5.821  1.00  0.00    -0.348 OA
ATOM     47  H4  UNL     1       9.358  24.299   5.325  1.00  0.00     0.219 HD
ENDBRANCH  19  46
BRANCH   1  48
HETATM   48  C4  UNL     1       9.475  24.982   1.265  1.00  0.00     0.035 C 
BRANCH  48  49
HETATM   49  C3  UNL     1       9.236  23.907   2.215  1.00  0.00     0.002 C 
BRANCH  49  50
HETATM   50  C2  UNL     1      10.347  23.310   2.984  1.00  0.00    -0.004 C 
HETATM   51  C1  UNL     1      11.715  23.831   2.859  1.00  0.00     0.005 C 
ENDBRANCH  49  50
ENDBRANCH  48  49
ENDBRANCH   1  48
BRANCH  20  52
HETATM   52  C28 UNL     1       9.523  27.456   5.656  1.00  0.00     0.090 C 
BRANCH  52  53
HETATM   53  C29 UNL     1      10.500  26.766   6.505  1.00  0.00     0.013 A 
HETATM   54  C30 UNL     1      11.517  26.061   5.852  1.00  0.00     0.025 A 
HETATM   55  C31 UNL     1      12.504  25.424   6.557  1.00  0.00     0.003 A 
HETATM   56  C32 UNL     1      12.453  25.506   7.948  1.00  0.00     0.017 A 
HETATM   57  C33 UNL     1      11.473  26.187   8.589  1.00  0.00     0.090 A 
HETATM   58  N7  UNL     1      10.507  26.809   7.833  1.00  0.00    -0.364 N 
HETATM   59  C34 UNL     1       9.503  27.598   8.543  1.00  0.00     0.155 C 
ENDBRANCH  52  53
ENDBRANCH  20  52
TORSDOF 15
ENDMDL
