MODEL 1
REMARK VINA RESULT: -5.874632981      0.000      0.000
REMARK  3 active torsions:
REMARK  status: ('A' for Active; 'I' for Inactive)
REMARK    1  A    between atoms: N1_1  and  C1_5 
REMARK    2  A    between atoms: C5_12  and  N3_13 
REMARK    3  A    between atoms: N3_13  and  C6_15 
ROOT
HETATM    1  C1  UNL     1      44.565   8.833  -3.336  1.00  0.00     0.216 C 
HETATM    2  C2  UNL     1      43.854   8.437  -4.615  1.00  0.00     0.055 C 
HETATM    3  C3  UNL     1      43.318   7.022  -4.560  1.00  0.00     0.125 C 
HETATM    4  N2  UNL     1      42.598   6.877  -3.314  1.00  0.00    -0.359 N 
ATOM      5  H2  UNL     1      42.162   5.982  -3.092  1.00  0.00     0.162 HD
HETATM    6  C4  UNL     1      42.487   7.937  -2.403  1.00  0.00     0.242 C 
HETATM    7  O1  UNL     1      41.427   8.074  -1.747  1.00  0.00    -0.271 OA
HETATM    8  C5  UNL     1      43.624   8.944  -2.174  1.00  0.00     0.204 C 
ENDROOT
BRANCH   8   9
HETATM    9  N3  UNL     1      44.272   8.597  -0.974  1.00  0.00    -0.378 N 
ATOM     10  H3  UNL     1      44.518   7.627  -0.775  1.00  0.00     0.160 HD
BRANCH   9  11
HETATM   11  C6  UNL     1      44.582   9.652  -0.026  1.00  0.00     0.006 C 
HETATM   12  C7  UNL     1      43.857  10.837  -0.380  1.00  0.00     0.020 C 
HETATM   13  C8  UNL     1      44.082  12.198   0.136  1.00  0.00    -0.024 C 
HETATM   14  C9  UNL     1      43.982  12.645   1.520  1.00  0.00     0.038 C 
HETATM   15  C10 UNL     1      45.204  12.317   2.449  1.00  0.00     0.083 C 
HETATM   16  C11 UNL     1      45.705  11.116   1.925  1.00  0.00    -0.182 C 
HETATM   17  C12 UNL     1      46.450   9.943   1.721  1.00  0.00     0.086 C 
HETATM   18  C13 UNL     1      45.988   9.452   0.306  1.00  0.00     0.067 C 
ENDBRANCH   9  11
ENDBRANCH   8   9
BRANCH   1  19
HETATM   19  N1  UNL     1      45.536   7.818  -3.053  1.00  0.00    -0.072 N 
ATOM     20  H13 UNL     1      45.115   6.935  -2.761  1.00  0.00     0.274 HD
ATOM     21  H12 UNL     1      46.005   7.470  -3.890  1.00  0.00     0.274 HD
ATOM     22  H11 UNL     1      46.184   8.198  -2.363  1.00  0.00     0.274 HD
ENDBRANCH   1  19
TORSDOF 3
ENDMDL
MODEL 2
REMARK VINA RESULT: -5.587446417      3.727      5.756
REMARK  3 active torsions:
REMARK  status: ('A' for Active; 'I' for Inactive)
REMARK    1  A    between atoms: N1_1  and  C1_5 
REMARK    2  A    between atoms: C5_12  and  N3_13 
REMARK    3  A    between atoms: N3_13  and  C6_15 
ROOT
HETATM    1  C1  UNL     1      48.524   7.905   1.302  1.00  0.00     0.216 C 
HETATM    2  C2  UNL     1      49.255   6.642   1.712  1.00  0.00     0.055 C 
HETATM    3  C3  UNL     1      49.839   6.744   3.106  1.00  0.00     0.125 C 
HETATM    4  N2  UNL     1      48.797   7.236   3.980  1.00  0.00    -0.359 N 
ATOM      5  H2  UNL     1      49.002   7.374   4.970  1.00  0.00     0.162 HD
HETATM    6  C4  UNL     1      47.513   7.529   3.500  1.00  0.00     0.242 C 
HETATM    7  O1  UNL     1      46.519   7.300   4.228  1.00  0.00    -0.271 OA
HETATM    8  C5  UNL     1      47.276   8.126   2.104  1.00  0.00     0.204 C 
ENDROOT
BRANCH   8   9
HETATM    9  N3  UNL     1      47.022   9.501   2.261  1.00  0.00    -0.378 N 
ATOM     10  H3  UNL     1      47.512  10.044   2.973  1.00  0.00     0.160 HD
BRANCH   9  11
HETATM   11  C6  UNL     1      46.047  10.127   1.387  1.00  0.00     0.006 C 
HETATM   12  C7  UNL     1      45.511  11.292   2.029  1.00  0.00     0.020 C 
HETATM   13  C8  UNL     1      44.317  12.052   1.626  1.00  0.00    -0.024 C 
HETATM   14  C9  UNL     1      44.097  12.746   0.363  1.00  0.00     0.038 C 
HETATM   15  C10 UNL     1      43.684  11.854  -0.860  1.00  0.00     0.083 C 
HETATM   16  C11 UNL     1      44.317  10.627  -0.604  1.00  0.00    -0.182 C 
HETATM   17  C12 UNL     1      44.799   9.313  -0.712  1.00  0.00     0.086 C 
HETATM   18  C13 UNL     1      45.387   9.017   0.711  1.00  0.00     0.067 C 
ENDBRANCH   9  11
ENDBRANCH   8   9
BRANCH   1  19
HETATM   19  N1  UNL     1      49.416   9.006   1.517  1.00  0.00    -0.072 N 
ATOM     20  H13 UNL     1      48.960   9.914   1.413  1.00  0.00     0.274 HD
ATOM     21  H12 UNL     1      49.693   9.109   2.493  1.00  0.00     0.274 HD
ATOM     22  H11 UNL     1      50.209   8.885   0.888  1.00  0.00     0.274 HD
ENDBRANCH   1  19
TORSDOF 3
ENDMDL
MODEL 3
REMARK VINA RESULT: -5.548216669      1.762      2.222
REMARK  3 active torsions:
REMARK  status: ('A' for Active; 'I' for Inactive)
REMARK    1  A    between atoms: N1_1  and  C1_5 
REMARK    2  A    between atoms: C5_12  and  N3_13 
REMARK    3  A    between atoms: N3_13  and  C6_15 
ROOT
HETATM    1  C1  UNL     1      42.285   9.646  -4.184  1.00  0.00     0.216 C 
HETATM    2  C2  UNL     1      41.400   8.525  -4.692  1.00  0.00     0.055 C 
HETATM    3  C3  UNL     1      42.026   7.161  -4.488  1.00  0.00     0.125 C 
HETATM    4  N2  UNL     1      42.486   7.093  -3.119  1.00  0.00    -0.359 N 
ATOM      5  H2  UNL     1      42.943   6.242  -2.789  1.00  0.00     0.162 HD
HETATM    6  C4  UNL     1      42.319   8.167  -2.233  1.00  0.00     0.242 C 
HETATM    7  O1  UNL     1      42.077   7.935  -1.026  1.00  0.00    -0.271 OA
HETATM    8  C5  UNL     1      42.423   9.630  -2.691  1.00  0.00     0.204 C 
ENDROOT
BRANCH   8   9
HETATM    9  N3  UNL     1      43.686  10.113  -2.302  1.00  0.00    -0.378 N 
ATOM     10  H3  UNL     1      44.541   9.683  -2.654  1.00  0.00     0.160 HD
BRANCH   9  11
HETATM   11  C6  UNL     1      43.742  11.240  -1.388  1.00  0.00     0.006 C 
HETATM   12  C7  UNL     1      43.920  12.451  -2.135  1.00  0.00     0.020 C 
HETATM   13  C8  UNL     1      44.300  13.770  -1.602  1.00  0.00    -0.024 C 
HETATM   14  C9  UNL     1      43.570  14.572  -0.629  1.00  0.00     0.038 C 
HETATM   15  C10 UNL     1      43.725  14.154   0.876  1.00  0.00     0.083 C 
HETATM   16  C11 UNL     1      43.916  12.765   0.816  1.00  0.00    -0.182 C 
HETATM   17  C12 UNL     1      44.094  11.414   1.156  1.00  0.00     0.086 C 
HETATM   18  C13 UNL     1      44.436  10.729  -0.211  1.00  0.00     0.067 C 
ENDBRANCH   9  11
ENDBRANCH   8   9
BRANCH   1  19
HETATM   19  N1  UNL     1      43.580   9.470  -4.772  1.00  0.00    -0.072 N 
ATOM     20  H13 UNL     1      43.958   8.532  -4.630  1.00  0.00     0.274 HD
ATOM     21  H12 UNL     1      43.556   9.450  -5.792  1.00  0.00     0.274 HD
ATOM     22  H11 UNL     1      44.186  10.203  -4.403  1.00  0.00     0.274 HD
ENDBRANCH   1  19
TORSDOF 3
ENDMDL
MODEL 4
REMARK VINA RESULT: -5.453619181      2.383      3.630
REMARK  3 active torsions:
REMARK  status: ('A' for Active; 'I' for Inactive)
REMARK    1  A    between atoms: N1_1  and  C1_5 
REMARK    2  A    between atoms: C5_12  and  N3_13 
REMARK    3  A    between atoms: N3_13  and  C6_15 
ROOT
HETATM    1  C1  UNL     1      45.032   9.265  -0.056  1.00  0.00     0.216 C 
HETATM    2  C2  UNL     1      45.692   8.603  -1.250  1.00  0.00     0.055 C 
HETATM    3  C3  UNL     1      44.947   8.873  -2.541  1.00  0.00     0.125 C 
HETATM    4  N2  UNL     1      44.696  10.295  -2.610  1.00  0.00    -0.359 N 
ATOM      5  H2  UNL     1      44.197  10.674  -3.415  1.00  0.00     0.162 HD
HETATM    6  C4  UNL     1      45.120  11.166  -1.597  1.00  0.00     0.242 C 
HETATM    7  O1  UNL     1      45.513  12.317  -1.900  1.00  0.00    -0.271 OA
HETATM    8  C5  UNL     1      45.122  10.761  -0.114  1.00  0.00     0.204 C 
ENDROOT
BRANCH   8   9
HETATM    9  N3  UNL     1      43.998  11.350   0.494  1.00  0.00    -0.378 N 
ATOM     10  H3  UNL     1      43.063  10.969   0.345  1.00  0.00     0.160 HD
BRANCH   9  11
HETATM   11  C6  UNL     1      44.201  12.513   1.339  1.00  0.00     0.006 C 
HETATM   12  C7  UNL     1      43.567  13.652   0.741  1.00  0.00     0.020 C 
HETATM   13  C8  UNL     1      43.757  15.064   1.112  1.00  0.00    -0.024 C 
HETATM   14  C9  UNL     1      43.475  15.684   2.401  1.00  0.00     0.038 C 
HETATM   15  C10 UNL     1      44.543  15.463   3.529  1.00  0.00     0.083 C 
HETATM   16  C11 UNL     1      45.079  14.200   3.235  1.00  0.00    -0.182 C 
HETATM   17  C12 UNL     1      45.811  13.003   3.287  1.00  0.00     0.086 C 
HETATM   18  C13 UNL     1      45.540  12.342   1.892  1.00  0.00     0.067 C 
ENDBRANCH   9  11
ENDBRANCH   8   9
BRANCH   1  19
HETATM   19  N1  UNL     1      43.652   8.881  -0.062  1.00  0.00    -0.072 N 
ATOM     20  H13 UNL     1      43.134   9.268  -0.851  1.00  0.00     0.274 HD
ATOM     21  H12 UNL     1      43.513   7.895  -0.284  1.00  0.00     0.274 HD
ATOM     22  H11 UNL     1      43.257   9.145   0.841  1.00  0.00     0.274 HD
ENDBRANCH   1  19
TORSDOF 3
ENDMDL
MODEL 5
REMARK VINA RESULT: -5.391764309      1.217      1.772
REMARK  3 active torsions:
REMARK  status: ('A' for Active; 'I' for Inactive)
REMARK    1  A    between atoms: N1_1  and  C1_5 
REMARK    2  A    between atoms: C5_12  and  N3_13 
REMARK    3  A    between atoms: N3_13  and  C6_15 
ROOT
HETATM    1  C1  UNL     1      44.185   9.064  -3.350  1.00  0.00     0.216 C 
HETATM    2  C2  UNL     1      43.642   8.237  -4.498  1.00  0.00     0.055 C 
HETATM    3  C3  UNL     1      43.022   6.937  -4.026  1.00  0.00     0.125 C 
HETATM    4  N2  UNL     1      42.126   7.252  -2.936  1.00  0.00    -0.359 N 
ATOM      5  H2  UNL     1      41.612   6.498  -2.481  1.00  0.00     0.162 HD
HETATM    6  C4  UNL     1      41.947   8.569  -2.489  1.00  0.00     0.242 C 
HETATM    7  O1  UNL     1      40.815   8.935  -2.095  1.00  0.00    -0.271 OA
HETATM    8  C5  UNL     1      43.097   9.588  -2.461  1.00  0.00     0.204 C 
ENDROOT
BRANCH   8   9
HETATM    9  N3  UNL     1      43.546   9.694  -1.132  1.00  0.00    -0.378 N 
ATOM     10  H3  UNL     1      43.791   8.861  -0.595  1.00  0.00     0.160 HD
BRANCH   9  11
HETATM   11  C6  UNL     1      43.655  11.016  -0.542  1.00  0.00     0.006 C 
HETATM   12  C7  UNL     1      43.754  11.995  -1.585  1.00  0.00     0.020 C 
HETATM   13  C8  UNL     1      44.151  13.405  -1.438  1.00  0.00    -0.024 C 
HETATM   14  C9  UNL     1      43.485  14.432  -0.647  1.00  0.00     0.038 C 
HETATM   15  C10 UNL     1      43.763  14.412   0.898  1.00  0.00     0.083 C 
HETATM   16  C11 UNL     1      43.972  13.053   1.178  1.00  0.00    -0.182 C 
HETATM   17  C12 UNL     1      44.199  11.834   1.837  1.00  0.00     0.086 C 
HETATM   18  C13 UNL     1      44.446  10.820   0.666  1.00  0.00     0.067 C 
ENDBRANCH   9  11
ENDBRANCH   8   9
BRANCH   1  19
HETATM   19  N1  UNL     1      45.046   8.216  -2.579  1.00  0.00    -0.072 N 
ATOM     20  H13 UNL     1      44.592   7.839  -1.747  1.00  0.00     0.274 HD
ATOM     21  H12 UNL     1      45.242   7.326  -3.038  1.00  0.00     0.274 HD
ATOM     22  H11 UNL     1      45.889   8.749  -2.366  1.00  0.00     0.274 HD
ENDBRANCH   1  19
TORSDOF 3
ENDMDL
