MODEL 1
REMARK VINA RESULT: -4.998446285      0.000      0.000
REMARK  6 active torsions:
REMARK  status: ('A' for Active; 'I' for Inactive)
REMARK    1  A    between atoms: C2_2  and  C3_3 
REMARK    2  A    between atoms: C2_2  and  C11_17 
REMARK    3  A    between atoms: C5_5  and  O1_6 
REMARK    4  A    between atoms: C6_8  and  O2_9 
REMARK    5  A    between atoms: C7_11  and  O3_12 
REMARK    6  A    between atoms: C11_17  and  O4_20 
ROOT
HETATM    1  C3  UNL     1      43.905  11.434  -0.644  1.00  0.00    -0.013 C 
HETATM    2  C4  UNL     1      43.437  10.502  -1.423  1.00  0.00    -0.042 C 
HETATM    3  C5  UNL     1      43.128   9.083  -1.113  1.00  0.00     0.179 C 
HETATM    4  C6  UNL     1      41.888   8.760  -1.969  1.00  0.00     0.180 C 
HETATM    5  C7  UNL     1      42.229   9.463  -3.239  1.00  0.00     0.162 C 
HETATM    6  C8  UNL     1      43.099  10.641  -2.879  1.00  0.00     0.007 C 
HETATM    7  C9  UNL     1      42.383  11.898  -3.201  1.00  0.00     0.022 C 
HETATM    8  C10 UNL     1      44.411  10.599  -3.653  1.00  0.00     0.022 C 
ENDROOT
BRANCH   1   9
HETATM    9  C2  UNL     1      44.285  11.455   0.749  1.00  0.00     0.038 C 
HETATM   10  C1  UNL     1      43.939  12.605   1.594  1.00  0.00     0.017 C 
BRANCH   9  11
HETATM   11  C11 UNL     1      45.773  11.137   0.877  1.00  0.00     0.057 C 
HETATM   12  C12 UNL     1      45.974   9.658   1.199  1.00  0.00     0.046 C 
HETATM   13  C13 UNL     1      46.510  11.484  -0.383  1.00  0.00     0.046 C 
BRANCH  11  14
HETATM   14  O4  UNL     1      46.348  11.861   1.924  1.00  0.00    -0.390 OA
ATOM     15  H4  UNL     1      45.936  12.711   2.014  1.00  0.00     0.210 HD
ENDBRANCH  11  14
ENDBRANCH   9  11
ENDBRANCH   1   9
BRANCH   3  16
HETATM   16  O1  UNL     1      44.124   8.226  -1.573  1.00  0.00    -0.389 OA
ATOM     17  H1  UNL     1      44.714   8.663  -2.176  1.00  0.00     0.210 HD
ENDBRANCH   3  16
BRANCH   4  18
HETATM   18  O2  UNL     1      41.842   7.368  -2.140  1.00  0.00    -0.390 OA
ATOM     19  H2  UNL     1      41.022   7.158  -2.571  1.00  0.00     0.210 HD
ENDBRANCH   4  18
BRANCH   5  20
HETATM   20  O3  UNL     1      42.810   8.637  -4.195  1.00  0.00    -0.392 OA
ATOM     21  H3  UNL     1      42.738   7.711  -3.994  1.00  0.00     0.210 HD
ENDBRANCH   5  20
TORSDOF 6
ENDMDL
MODEL 2
REMARK VINA RESULT: -4.822533868      1.664      5.334
REMARK  6 active torsions:
REMARK  status: ('A' for Active; 'I' for Inactive)
REMARK    1  A    between atoms: C2_2  and  C3_3 
REMARK    2  A    between atoms: C2_2  and  C11_17 
REMARK    3  A    between atoms: C5_5  and  O1_6 
REMARK    4  A    between atoms: C6_8  and  O2_9 
REMARK    5  A    between atoms: C7_11  and  O3_12 
REMARK    6  A    between atoms: C11_17  and  O4_20 
ROOT
HETATM    1  C3  UNL     1      44.112   9.663  -1.787  1.00  0.00    -0.013 C 
HETATM    2  C4  UNL     1      44.954   9.992  -0.850  1.00  0.00    -0.042 C 
HETATM    3  C5  UNL     1      46.023   9.180  -0.217  1.00  0.00     0.179 C 
HETATM    4  C6  UNL     1      47.159  10.183   0.062  1.00  0.00     0.180 C 
HETATM    5  C7  UNL     1      46.384  11.367   0.529  1.00  0.00     0.162 C 
HETATM    6  C8  UNL     1      45.038  11.318  -0.150  1.00  0.00     0.007 C 
HETATM    7  C9  UNL     1      44.905  12.477  -1.063  1.00  0.00     0.022 C 
HETATM    8  C10 UNL     1      43.914  11.358   0.878  1.00  0.00     0.022 C 
ENDROOT
BRANCH   1   9
HETATM    9  C2  UNL     1      43.898   8.449  -2.537  1.00  0.00     0.038 C 
HETATM   10  C1  UNL     1      44.499   8.285  -3.867  1.00  0.00     0.017 C 
BRANCH   9  11
HETATM   11  C11 UNL     1      42.403   8.139  -2.593  1.00  0.00     0.057 C 
HETATM   12  C12 UNL     1      41.619   9.383  -3.003  1.00  0.00     0.046 C 
HETATM   13  C13 UNL     1      42.119   7.023  -3.553  1.00  0.00     0.046 C 
BRANCH  11  14
HETATM   14  O4  UNL     1      41.928   7.757  -1.337  1.00  0.00    -0.390 OA
ATOM     15  H4  UNL     1      41.510   6.905  -1.378  1.00  0.00     0.210 HD
ENDBRANCH  11  14
ENDBRANCH   9  11
ENDBRANCH   1   9
BRANCH   3  16
HETATM   16  O1  UNL     1      45.639   8.705   1.033  1.00  0.00    -0.389 OA
ATOM     17  H1  UNL     1      46.341   8.228   1.460  1.00  0.00     0.210 HD
ENDBRANCH   3  16
BRANCH   4  18
HETATM   18  O2  UNL     1      47.958   9.646   1.083  1.00  0.00    -0.390 OA
ATOM     19  H2  UNL     1      48.187  10.355   1.671  1.00  0.00     0.210 HD
ENDBRANCH   4  18
BRANCH   5  20
HETATM   20  O3  UNL     1      46.285  11.457   1.914  1.00  0.00    -0.392 OA
ATOM     21  H3  UNL     1      45.541  10.988   2.275  1.00  0.00     0.210 HD
ENDBRANCH   5  20
TORSDOF 6
ENDMDL
MODEL 3
REMARK VINA RESULT: -4.680670375      0.804      1.128
REMARK  6 active torsions:
REMARK  status: ('A' for Active; 'I' for Inactive)
REMARK    1  A    between atoms: C2_2  and  C3_3 
REMARK    2  A    between atoms: C2_2  and  C11_17 
REMARK    3  A    between atoms: C5_5  and  O1_6 
REMARK    4  A    between atoms: C6_8  and  O2_9 
REMARK    5  A    between atoms: C7_11  and  O3_12 
REMARK    6  A    between atoms: C11_17  and  O4_20 
ROOT
HETATM    1  C3  UNL     1      43.901  11.738  -0.669  1.00  0.00    -0.013 C 
HETATM    2  C4  UNL     1      43.529  10.711  -1.378  1.00  0.00    -0.042 C 
HETATM    3  C5  UNL     1      43.140   9.349  -0.931  1.00  0.00     0.179 C 
HETATM    4  C6  UNL     1      42.032   8.920  -1.912  1.00  0.00     0.180 C 
HETATM    5  C7  UNL     1      42.574   9.442  -3.199  1.00  0.00     0.162 C 
HETATM    6  C8  UNL     1      43.413  10.652  -2.874  1.00  0.00     0.007 C 
HETATM    7  C9  UNL     1      42.786  11.858  -3.465  1.00  0.00     0.022 C 
HETATM    8  C10 UNL     1      44.823  10.497  -3.430  1.00  0.00     0.022 C 
ENDROOT
BRANCH   1   9
HETATM    9  C2  UNL     1      44.073  11.946   0.749  1.00  0.00     0.038 C 
HETATM   10  C1  UNL     1      43.851  13.274   1.334  1.00  0.00     0.017 C 
BRANCH   9  11
HETATM   11  C11 UNL     1      45.430  11.399   1.185  1.00  0.00     0.057 C 
HETATM   12  C12 UNL     1      46.476  11.650   0.102  1.00  0.00     0.046 C 
HETATM   13  C13 UNL     1      45.876  12.024   2.473  1.00  0.00     0.046 C 
BRANCH  11  14
HETATM   14  O4  UNL     1      45.371  10.017   1.377  1.00  0.00    -0.390 OA
ATOM     15  H4  UNL     1      44.992   9.586   0.620  1.00  0.00     0.210 HD
ENDBRANCH  11  14
ENDBRANCH   9  11
ENDBRANCH   1   9
BRANCH   3  16
HETATM   16  O1  UNL     1      44.169   8.432  -1.118  1.00  0.00    -0.389 OA
ATOM     17  H1  UNL     1      44.809   8.473  -0.417  1.00  0.00     0.210 HD
ENDBRANCH   3  16
BRANCH   4  18
HETATM   18  O2  UNL     1      41.974   7.519  -1.899  1.00  0.00    -0.390 OA
ATOM     19  H2  UNL     1      41.805   7.230  -2.788  1.00  0.00     0.210 HD
ENDBRANCH   4  18
BRANCH   5  20
HETATM   20  O3  UNL     1      43.268   8.489  -3.938  1.00  0.00    -0.392 OA
ATOM     21  H3  UNL     1      43.734   8.850  -4.683  1.00  0.00     0.210 HD
ENDBRANCH   5  20
TORSDOF 6
ENDMDL
MODEL 4
REMARK VINA RESULT: -4.679558537      2.674      4.530
REMARK  6 active torsions:
REMARK  status: ('A' for Active; 'I' for Inactive)
REMARK    1  A    between atoms: C2_2  and  C3_3 
REMARK    2  A    between atoms: C2_2  and  C11_17 
REMARK    3  A    between atoms: C5_5  and  O1_6 
REMARK    4  A    between atoms: C6_8  and  O2_9 
REMARK    5  A    between atoms: C7_11  and  O3_12 
REMARK    6  A    between atoms: C11_17  and  O4_20 
ROOT
HETATM    1  C3  UNL     1      44.323  11.884  -0.671  1.00  0.00    -0.013 C 
HETATM    2  C4  UNL     1      45.047  10.945  -0.134  1.00  0.00    -0.042 C 
HETATM    3  C5  UNL     1      46.158  11.056   0.845  1.00  0.00     0.179 C 
HETATM    4  C6  UNL     1      46.015   9.808   1.737  1.00  0.00     0.180 C 
HETATM    5  C7  UNL     1      45.666   8.772   0.723  1.00  0.00     0.162 C 
HETATM    6  C8  UNL     1      44.937   9.471  -0.398  1.00  0.00     0.007 C 
HETATM    7  C9  UNL     1      43.539   8.984  -0.454  1.00  0.00     0.022 C 
HETATM    8  C10 UNL     1      45.617   9.200  -1.735  1.00  0.00     0.022 C 
ENDROOT
BRANCH   1   9
HETATM    9  C2  UNL     1      44.313  13.322  -0.534  1.00  0.00     0.038 C 
HETATM   10  C1  UNL     1      43.740  13.947   0.664  1.00  0.00     0.017 C 
BRANCH   9  11
HETATM   11  C11 UNL     1      43.719  13.951  -1.792  1.00  0.00     0.057 C 
HETATM   12  C12 UNL     1      44.823  14.555  -2.656  1.00  0.00     0.046 C 
HETATM   13  C13 UNL     1      42.951  12.940  -2.590  1.00  0.00     0.046 C 
BRANCH  11  14
HETATM   14  O4  UNL     1      42.848  14.991  -1.464  1.00  0.00    -0.390 OA
ATOM     15  H4  UNL     1      42.900  15.691  -2.103  1.00  0.00     0.210 HD
ENDBRANCH  11  14
ENDBRANCH   9  11
ENDBRANCH   1   9
BRANCH   3  16
HETATM   16  O1  UNL     1      47.400  10.928   0.232  1.00  0.00    -0.389 OA
ATOM     17  H1  UNL     1      47.775  10.067   0.372  1.00  0.00     0.210 HD
ENDBRANCH   3  16
BRANCH   4  18
HETATM   18  O2  UNL     1      47.265   9.562   2.325  1.00  0.00    -0.390 OA
ATOM     19  H2  UNL     1      47.125   9.438   3.256  1.00  0.00     0.210 HD
ENDBRANCH   4  18
BRANCH   5  20
HETATM   20  O3  UNL     1      46.760   8.037   0.277  1.00  0.00    -0.392 OA
ATOM     21  H3  UNL     1      46.692   7.764  -0.630  1.00  0.00     0.210 HD
ENDBRANCH   5  20
TORSDOF 6
ENDMDL
MODEL 5
REMARK VINA RESULT: -4.649006569      1.139      1.373
REMARK  6 active torsions:
REMARK  status: ('A' for Active; 'I' for Inactive)
REMARK    1  A    between atoms: C2_2  and  C3_3 
REMARK    2  A    between atoms: C2_2  and  C11_17 
REMARK    3  A    between atoms: C5_5  and  O1_6 
REMARK    4  A    between atoms: C6_8  and  O2_9 
REMARK    5  A    between atoms: C7_11  and  O3_12 
REMARK    6  A    between atoms: C11_17  and  O4_20 
ROOT
HETATM    1  C3  UNL     1      44.334  10.331  -1.100  1.00  0.00    -0.013 C 
HETATM    2  C4  UNL     1      43.448   9.734  -1.844  1.00  0.00    -0.042 C 
HETATM    3  C5  UNL     1      42.143   9.140  -1.461  1.00  0.00     0.179 C 
HETATM    4  C6  UNL     1      41.222   9.415  -2.667  1.00  0.00     0.180 C 
HETATM    5  C7  UNL     1      42.154   9.154  -3.801  1.00  0.00     0.162 C 
HETATM    6  C8  UNL     1      43.546   9.483  -3.321  1.00  0.00     0.007 C 
HETATM    7  C9  UNL     1      44.068  10.641  -4.084  1.00  0.00     0.022 C 
HETATM    8  C10 UNL     1      44.479   8.293  -3.516  1.00  0.00     0.022 C 
ENDROOT
BRANCH   1   9
HETATM    9  C2  UNL     1      44.392  10.634   0.311  1.00  0.00     0.038 C 
HETATM   10  C1  UNL     1      43.952  11.944   0.805  1.00  0.00     0.017 C 
BRANCH   9  11
HETATM   11  C11 UNL     1      45.786  10.311   0.845  1.00  0.00     0.057 C 
HETATM   12  C12 UNL     1      45.970   8.801   0.968  1.00  0.00     0.046 C 
HETATM   13  C13 UNL     1      46.851  10.879  -0.046  1.00  0.00     0.046 C 
BRANCH  11  14
HETATM   14  O4  UNL     1      45.965  10.846   2.123  1.00  0.00    -0.390 OA
ATOM     15  H4  UNL     1      46.336  11.718   2.075  1.00  0.00     0.210 HD
ENDBRANCH  11  14
ENDBRANCH   9  11
ENDBRANCH   1   9
BRANCH   3  16
HETATM   16  O1  UNL     1      42.216   7.754  -1.365  1.00  0.00    -0.389 OA
ATOM     17  H1  UNL     1      42.926   7.477  -0.798  1.00  0.00     0.210 HD
ENDBRANCH   3  16
BRANCH   4  18
HETATM   18  O2  UNL     1      40.177   8.479  -2.624  1.00  0.00    -0.390 OA
ATOM     19  H2  UNL     1      39.599   8.661  -3.355  1.00  0.00     0.210 HD
ENDBRANCH   4  18
BRANCH   5  20
HETATM   20  O3  UNL     1      42.054   7.867  -4.320  1.00  0.00    -0.392 OA
ATOM     21  H3  UNL     1      41.839   7.209  -3.669  1.00  0.00     0.210 HD
ENDBRANCH   5  20
TORSDOF 6
ENDMDL
