MODEL 1
REMARK VINA RESULT: -5.416312872      0.000      0.000
REMARK  3 active torsions:
REMARK  status: ('A' for Active; 'I' for Inactive)
REMARK    1  A    between atoms: O1_2  and  C2_3 
REMARK    2  A    between atoms: C7_8  and  N1_9 
REMARK       I    between atoms: N1_9  and  C8_11 
REMARK    3  A    between atoms: C10_17  and  O2_18 
ROOT
HETATM    1  C2  UNL     1      46.400  11.307  -1.351  1.00  0.00     0.066 C 
HETATM    2  C3  UNL     1      45.269  12.323  -1.592  1.00  0.00     0.043 C 
HETATM    3  C4  UNL     1      44.008  11.884  -0.940  1.00  0.00    -0.009 C 
HETATM    4  C5  UNL     1      44.082  12.248   0.521  1.00  0.00     0.007 C 
HETATM    5  C6  UNL     1      44.465  11.088   1.365  1.00  0.00     0.031 C 
HETATM    6  C7  UNL     1      45.713  10.367   0.905  1.00  0.00     0.038 C 
HETATM    7  C9  UNL     1      45.285   9.134   0.167  1.00  0.00     0.069 C 
HETATM    8  C10 UNL     1      44.771   9.502  -1.198  1.00  0.00     0.063 C 
HETATM    9  C11 UNL     1      43.637  10.460  -1.189  1.00  0.00     0.042 C 
HETATM   10  C12 UNL     1      45.929  10.027  -1.993  1.00  0.00     0.076 C 
HETATM   11  C13 UNL     1      46.646  11.217   0.107  1.00  0.00     0.069 C 
ENDROOT
BRANCH   6  12
HETATM   12  N1  UNL     1      46.406   9.955   2.111  1.00  0.00    -0.355 N 
HETATM   13  C8  UNL     1      47.080   8.738   2.284  1.00  0.00     0.182 C 
HETATM   14  N2  UNL     1      46.575   7.811   3.003  1.00  0.00    -0.374 N 
HETATM   15  N3  UNL     1      48.326   8.532   1.662  1.00  0.00    -0.064 NA
ATOM     16  H22 UNL     1      45.672   7.960   3.453  1.00  0.00     0.158 HD
ATOM     17  H21 UNL     1      47.065   6.926   3.129  1.00  0.00     0.158 HD
ATOM     18  H1  UNL     1      46.404  10.604   2.898  1.00  0.00     0.163 HD
ENDBRANCH   6  12
BRANCH   8  19
HETATM   19  O2  UNL     1      44.333   8.331  -1.859  1.00  0.00    -0.390 OA
ATOM     20  H2  UNL     1      43.965   8.568  -2.702  1.00  0.00     0.210 HD
ENDBRANCH   8  19
BRANCH   1  21
HETATM   21  O1  UNL     1      47.483  11.863  -1.974  1.00  0.00    -0.385 OA
HETATM   22  C1  UNL     1      48.677  11.858  -1.332  1.00  0.00     0.202 C 
ENDBRANCH   1  21
TORSDOF 3
ENDMDL
MODEL 2
REMARK VINA RESULT: -5.021759494      1.371      3.287
REMARK  3 active torsions:
REMARK  status: ('A' for Active; 'I' for Inactive)
REMARK    1  A    between atoms: O1_2  and  C2_3 
REMARK    2  A    between atoms: C7_8  and  N1_9 
REMARK       I    between atoms: N1_9  and  C8_11 
REMARK    3  A    between atoms: C10_17  and  O2_18 
ROOT
HETATM    1  C2  UNL     1      44.243   9.428  -0.571  1.00  0.00     0.066 C 
HETATM    2  C3  UNL     1      44.943   9.504  -1.940  1.00  0.00     0.043 C 
HETATM    3  C4  UNL     1      45.996  10.553  -1.945  1.00  0.00    -0.009 C 
HETATM    4  C5  UNL     1      47.231   9.983  -1.297  1.00  0.00     0.007 C 
HETATM    5  C6  UNL     1      47.363  10.406   0.121  1.00  0.00     0.031 C 
HETATM    6  C7  UNL     1      46.129  10.164   0.961  1.00  0.00     0.038 C 
HETATM    7  C9  UNL     1      45.400  11.467   1.093  1.00  0.00     0.069 C 
HETATM    8  C10 UNL     1      44.687  11.792  -0.191  1.00  0.00     0.063 C 
HETATM    9  C11 UNL     1      45.571  11.869  -1.381  1.00  0.00     0.042 C 
HETATM   10  C12 UNL     1      43.600  10.777  -0.376  1.00  0.00     0.076 C 
HETATM   11  C13 UNL     1      45.253   9.067   0.451  1.00  0.00     0.069 C 
ENDROOT
BRANCH   6  12
HETATM   12  N1  UNL     1      46.608   9.777   2.275  1.00  0.00    -0.355 N 
HETATM   13  C8  UNL     1      47.224   8.557   2.587  1.00  0.00     0.182 C 
HETATM   14  N2  UNL     1      46.592   7.657   3.237  1.00  0.00    -0.374 N 
HETATM   15  N3  UNL     1      48.552   8.319   2.185  1.00  0.00    -0.064 NA
ATOM     16  H22 UNL     1      45.630   7.830   3.528  1.00  0.00     0.158 HD
ATOM     17  H21 UNL     1      47.040   6.770   3.465  1.00  0.00     0.158 HD
ATOM     18  H1  UNL     1      46.487  10.448   3.034  1.00  0.00     0.163 HD
ENDBRANCH   6  12
BRANCH   8  19
HETATM   19  O2  UNL     1      44.044  13.045  -0.059  1.00  0.00    -0.390 OA
ATOM     20  H2  UNL     1      43.973  13.451  -0.915  1.00  0.00     0.210 HD
ENDBRANCH   8  19
BRANCH   1  21
HETATM   21  O1  UNL     1      43.342   8.409  -0.716  1.00  0.00    -0.385 OA
HETATM   22  C1  UNL     1      42.335   8.553  -1.613  1.00  0.00     0.202 C 
ENDBRANCH   1  21
TORSDOF 3
ENDMDL
MODEL 3
REMARK VINA RESULT: -4.999640934      1.284      2.602
REMARK  3 active torsions:
REMARK  status: ('A' for Active; 'I' for Inactive)
REMARK    1  A    between atoms: O1_2  and  C2_3 
REMARK    2  A    between atoms: C7_8  and  N1_9 
REMARK       I    between atoms: N1_9  and  C8_11 
REMARK    3  A    between atoms: C10_17  and  O2_18 
ROOT
HETATM    1  C2  UNL     1      44.609  12.063  -0.160  1.00  0.00     0.066 C 
HETATM    2  C3  UNL     1      43.493  11.328  -0.922  1.00  0.00     0.043 C 
HETATM    3  C4  UNL     1      43.949   9.990  -1.381  1.00  0.00    -0.009 C 
HETATM    4  C5  UNL     1      43.845   9.034  -0.221  1.00  0.00     0.007 C 
HETATM    5  C6  UNL     1      45.157   8.822   0.445  1.00  0.00     0.031 C 
HETATM    6  C7  UNL     1      45.872  10.096   0.834  1.00  0.00     0.038 C 
HETATM    7  C9  UNL     1      46.928  10.363  -0.197  1.00  0.00     0.069 C 
HETATM    8  C10 UNL     1      46.298  10.884  -1.460  1.00  0.00     0.063 C 
HETATM    9  C11 UNL     1      45.281   9.981  -2.055  1.00  0.00     0.042 C 
HETATM   10  C12 UNL     1      45.726  12.236  -1.157  1.00  0.00     0.076 C 
HETATM   11  C13 UNL     1      44.963  11.265   1.037  1.00  0.00     0.069 C 
ENDROOT
BRANCH   6  12
HETATM   12  N1  UNL     1      46.530   9.818   2.096  1.00  0.00    -0.355 N 
HETATM   13  C8  UNL     1      47.175   8.619   2.428  1.00  0.00     0.182 C 
HETATM   14  N2  UNL     1      46.636   7.792   3.239  1.00  0.00    -0.374 N 
HETATM   15  N3  UNL     1      48.431   8.320   1.866  1.00  0.00    -0.064 NA
ATOM     16  H22 UNL     1      45.726   8.009   3.645  1.00  0.00     0.158 HD
ATOM     17  H21 UNL     1      47.106   6.920   3.480  1.00  0.00     0.158 HD
ATOM     18  H1  UNL     1      46.522  10.556   2.801  1.00  0.00     0.163 HD
ENDBRANCH   6  12
BRANCH   8  19
HETATM   19  O2  UNL     1      47.307  11.086  -2.430  1.00  0.00    -0.390 OA
ATOM     20  H2  UNL     1      47.372  12.014  -2.623  1.00  0.00     0.210 HD
ENDBRANCH   8  19
BRANCH   1  21
HETATM   21  O1  UNL     1      44.030  13.242   0.220  1.00  0.00    -0.385 OA
HETATM   22  C1  UNL     1      43.934  13.525   1.543  1.00  0.00     0.202 C 
ENDBRANCH   1  21
TORSDOF 3
ENDMDL
MODEL 4
REMARK VINA RESULT: -4.999098188      4.563      7.148
REMARK  3 active torsions:
REMARK  status: ('A' for Active; 'I' for Inactive)
REMARK    1  A    between atoms: O1_2  and  C2_3 
REMARK    2  A    between atoms: C7_8  and  N1_9 
REMARK       I    between atoms: N1_9  and  C8_11 
REMARK    3  A    between atoms: C10_17  and  O2_18 
ROOT
HETATM    1  C2  UNL     1      50.480   7.194   3.372  1.00  0.00     0.066 C 
HETATM    2  C3  UNL     1      51.183   6.148   2.489  1.00  0.00     0.043 C 
HETATM    3  C4  UNL     1      50.353   4.924   2.344  1.00  0.00    -0.009 C 
HETATM    4  C5  UNL     1      49.314   5.182   1.284  1.00  0.00     0.007 C 
HETATM    5  C6  UNL     1      47.996   5.536   1.871  1.00  0.00     0.031 C 
HETATM    6  C7  UNL     1      48.046   6.654   2.888  1.00  0.00     0.038 C 
HETATM    7  C9  UNL     1      48.000   6.035   4.253  1.00  0.00     0.069 C 
HETATM    8  C10 UNL     1      49.332   5.422   4.588  1.00  0.00     0.063 C 
HETATM    9  C11 UNL     1      49.793   4.393   3.623  1.00  0.00     0.042 C 
HETATM   10  C12 UNL     1      50.325   6.538   4.720  1.00  0.00     0.076 C 
HETATM   11  C13 UNL     1      49.207   7.578   2.718  1.00  0.00     0.069 C 
ENDROOT
BRANCH   6  12
HETATM   12  N1  UNL     1      46.832   7.424   2.698  1.00  0.00    -0.355 N 
HETATM   13  C8  UNL     1      46.687   8.508   1.820  1.00  0.00     0.182 C 
HETATM   14  N2  UNL     1      46.636   9.704   2.267  1.00  0.00    -0.374 N 
HETATM   15  N3  UNL     1      46.595   8.281   0.434  1.00  0.00    -0.064 NA
ATOM     16  H22 UNL     1      46.703   9.869   3.271  1.00  0.00     0.158 HD
ATOM     17  H21 UNL     1      46.530  10.492   1.628  1.00  0.00     0.158 HD
ATOM     18  H1  UNL     1      46.015   7.155   3.248  1.00  0.00     0.163 HD
ENDBRANCH   6  12
BRANCH   8  19
HETATM   19  O2  UNL     1      49.252   4.807   5.859  1.00  0.00    -0.390 OA
ATOM     20  H2  UNL     1      48.745   4.007   5.786  1.00  0.00     0.210 HD
ENDBRANCH   8  19
BRANCH   1  21
HETATM   21  O1  UNL     1      51.341   8.256   3.378  1.00  0.00    -0.385 OA
HETATM   22  C1  UNL     1      51.901   8.635   4.553  1.00  0.00     0.202 C 
ENDBRANCH   1  21
TORSDOF 3
ENDMDL
MODEL 5
REMARK VINA RESULT: -4.885687881      2.660      4.611
REMARK  3 active torsions:
REMARK  status: ('A' for Active; 'I' for Inactive)
REMARK    1  A    between atoms: O1_2  and  C2_3 
REMARK    2  A    between atoms: C7_8  and  N1_9 
REMARK       I    between atoms: N1_9  and  C8_11 
REMARK    3  A    between atoms: C10_17  and  O2_18 
ROOT
HETATM    1  C2  UNL     1      44.188  10.053  -0.374  1.00  0.00     0.066 C 
HETATM    2  C3  UNL     1      45.313   9.193   0.227  1.00  0.00     0.043 C 
HETATM    3  C4  UNL     1      46.454  10.036   0.671  1.00  0.00    -0.009 C 
HETATM    4  C5  UNL     1      46.115  10.613   2.021  1.00  0.00     0.007 C 
HETATM    5  C6  UNL     1      45.624  12.012   1.921  1.00  0.00     0.031 C 
HETATM    6  C7  UNL     1      44.498  12.209   0.932  1.00  0.00     0.038 C 
HETATM    7  C9  UNL     1      45.085  12.785  -0.322  1.00  0.00     0.069 C 
HETATM    8  C10 UNL     1      45.818  11.717  -1.088  1.00  0.00     0.063 C 
HETATM    9  C11 UNL     1      46.904  11.053  -0.325  1.00  0.00     0.042 C 
HETATM   10  C12 UNL     1      44.801  10.728  -1.574  1.00  0.00     0.076 C 
HETATM   11  C13 UNL     1      43.694  10.977   0.674  1.00  0.00     0.069 C 
ENDROOT
BRANCH   6  12
HETATM   12  N1  UNL     1      43.617  13.201   1.518  1.00  0.00    -0.355 N 
HETATM   13  C8  UNL     1      43.723  14.588   1.337  1.00  0.00     0.182 C 
HETATM   14  N2  UNL     1      44.167  15.334   2.275  1.00  0.00    -0.374 N 
HETATM   15  N3  UNL     1      43.336  15.167   0.114  1.00  0.00    -0.064 NA
ATOM     16  H22 UNL     1      44.448  14.913   3.160  1.00  0.00     0.158 HD
ATOM     17  H21 UNL     1      44.244  16.342   2.144  1.00  0.00     0.158 HD
ATOM     18  H1  UNL     1      42.858  12.863   2.109  1.00  0.00     0.163 HD
ENDBRANCH   6  12
BRANCH   8  19
HETATM   19  O2  UNL     1      46.399  12.292  -2.242  1.00  0.00    -0.390 OA
ATOM     20  H2  UNL     1      47.277  11.946  -2.353  1.00  0.00     0.210 HD
ENDBRANCH   8  19
BRANCH   1  21
HETATM   21  O1  UNL     1      43.214   9.148  -0.696  1.00  0.00    -0.385 OA
HETATM   22  C1  UNL     1      42.503   9.334  -1.835  1.00  0.00     0.202 C 
ENDBRANCH   1  21
TORSDOF 3
ENDMDL
