MODEL 1
REMARK VINA RESULT: -5.950834785      0.000      0.000
REMARK  5 active torsions:
REMARK  status: ('A' for Active; 'I' for Inactive)
REMARK    1  A    between atoms: N1_1  and  C1_5 
REMARK    2  A    between atoms: C4_10  and  N3_11 
REMARK    3  A    between atoms: N3_11  and  C5_13 
REMARK    4  A    between atoms: C5_13  and  N4_15 
REMARK    5  A    between atoms: N4_15  and  C6_17 
ROOT
HETATM    1  N3  UNL     1      47.369   9.320   1.903  1.00  0.00    -0.356 N 
ATOM      2  H3  UNL     1      48.204   9.888   2.040  1.00  0.00     0.162 HD
ENDROOT
BRANCH   1   3
HETATM    3  C4  UNL     1      47.462   7.913   2.157  1.00  0.00     0.154 C 
HETATM    4  C1  UNL     1      47.801   7.633   3.598  1.00  0.00     0.228 C 
HETATM    5  C2  UNL     1      49.213   7.081   3.483  1.00  0.00     0.154 C 
HETATM    6  N2  UNL     1      49.482   6.873   2.108  1.00  0.00    -0.398 N 
HETATM    7  C3  UNL     1      48.564   7.306   1.362  1.00  0.00     0.082 C 
ATOM      8  H2  UNL     1      50.327   6.420   1.761  1.00  0.00     0.158 HD
BRANCH   4   9
HETATM    9  N1  UNL     1      46.922   6.622   4.100  1.00  0.00    -0.071 N 
ATOM     10  H13 UNL     1      46.692   5.928   3.390  1.00  0.00     0.274 HD
ATOM     11  H12 UNL     1      47.387   6.006   4.767  1.00  0.00     0.274 HD
ATOM     12  H11 UNL     1      46.087   7.054   4.498  1.00  0.00     0.274 HD
ENDBRANCH   4   9
ENDBRANCH   1   3
BRANCH   1  13
HETATM   13  C5  UNL     1      46.184   9.971   1.472  1.00  0.00     0.168 C 
HETATM   14  S1  UNL     1      45.592   9.490   0.029  1.00  0.00    -0.041 SA
BRANCH  13  15
HETATM   15  N4  UNL     1      45.576  10.964   2.283  1.00  0.00    -0.359 N 
ATOM     16  H4  UNL     1      45.078  10.627   3.107  1.00  0.00     0.162 HD
BRANCH  15  17
HETATM   17  C6  UNL     1      45.577  12.365   2.090  1.00  0.00     0.116 C 
HETATM   18  C7  UNL     1      45.687  13.107   3.401  1.00  0.00    -0.005 C 
HETATM   19  C8  UNL     1      45.748  14.540   3.501  1.00  0.00    -0.028 C 
HETATM   20  C9  UNL     1      44.520  15.430   3.619  1.00  0.00     0.038 C 
HETATM   21  C10 UNL     1      43.545  15.241   2.405  1.00  0.00     0.083 C 
HETATM   22  C11 UNL     1      43.911  14.031   1.800  1.00  0.00    -0.180 C 
HETATM   23  C12 UNL     1      44.329  12.809   1.253  1.00  0.00     0.109 C 
ENDBRANCH  15  17
ENDBRANCH  13  15
ENDBRANCH   1  13
TORSDOF 5
ENDMDL
MODEL 2
REMARK VINA RESULT: -5.801803480      1.397      2.040
REMARK  5 active torsions:
REMARK  status: ('A' for Active; 'I' for Inactive)
REMARK    1  A    between atoms: N1_1  and  C1_5 
REMARK    2  A    between atoms: C4_10  and  N3_11 
REMARK    3  A    between atoms: N3_11  and  C5_13 
REMARK    4  A    between atoms: C5_13  and  N4_15 
REMARK    5  A    between atoms: N4_15  and  C6_17 
ROOT
HETATM    1  N3  UNL     1      46.123   9.926   0.383  1.00  0.00    -0.356 N 
ATOM      2  H3  UNL     1      46.899  10.562   0.206  1.00  0.00     0.162 HD
ENDROOT
BRANCH   1   3
HETATM    3  C4  UNL     1      46.427   8.612   0.869  1.00  0.00     0.154 C 
HETATM    4  C1  UNL     1      47.128   8.665   2.202  1.00  0.00     0.228 C 
HETATM    5  C2  UNL     1      48.523   8.185   1.838  1.00  0.00     0.154 C 
HETATM    6  N2  UNL     1      48.479   7.706   0.506  1.00  0.00    -0.398 N 
HETATM    7  C3  UNL     1      47.368   7.916  -0.050  1.00  0.00     0.082 C 
ATOM      8  H2  UNL     1      49.262   7.240   0.047  1.00  0.00     0.158 HD
BRANCH   4   9
HETATM    9  N1  UNL     1      46.509   7.734   3.095  1.00  0.00    -0.071 N 
ATOM     10  H13 UNL     1      47.128   7.470   3.861  1.00  0.00     0.274 HD
ATOM     11  H12 UNL     1      45.767   8.168   3.646  1.00  0.00     0.274 HD
ATOM     12  H11 UNL     1      46.175   6.922   2.576  1.00  0.00     0.274 HD
ENDBRANCH   4   9
ENDBRANCH   1   3
BRANCH   1  13
HETATM   13  C5  UNL     1      44.806  10.394   0.135  1.00  0.00     0.168 C 
HETATM   14  S1  UNL     1      43.738   9.273  -0.379  1.00  0.00    -0.041 SA
BRANCH  13  15
HETATM   15  N4  UNL     1      44.479  11.759   0.349  1.00  0.00    -0.359 N 
ATOM     16  H4  UNL     1      44.398  12.336  -0.488  1.00  0.00     0.162 HD
BRANCH  15  17
HETATM   17  C6  UNL     1      44.250  12.416   1.579  1.00  0.00     0.116 C 
HETATM   18  C7  UNL     1      43.974  13.888   1.381  1.00  0.00    -0.005 C 
HETATM   19  C8  UNL     1      43.671  14.792   2.458  1.00  0.00    -0.028 C 
HETATM   20  C9  UNL     1      44.729  15.558   3.238  1.00  0.00     0.038 C 
HETATM   21  C10 UNL     1      45.762  14.593   3.918  1.00  0.00     0.083 C 
HETATM   22  C11 UNL     1      45.623  13.359   3.271  1.00  0.00    -0.180 C 
HETATM   23  C12 UNL     1      45.434  12.156   2.573  1.00  0.00     0.109 C 
ENDBRANCH  15  17
ENDBRANCH  13  15
ENDBRANCH   1  13
TORSDOF 5
ENDMDL
MODEL 3
REMARK VINA RESULT: -5.795168469      3.657      5.062
REMARK  5 active torsions:
REMARK  status: ('A' for Active; 'I' for Inactive)
REMARK    1  A    between atoms: N1_1  and  C1_5 
REMARK    2  A    between atoms: C4_10  and  N3_11 
REMARK    3  A    between atoms: N3_11  and  C5_13 
REMARK    4  A    between atoms: C5_13  and  N4_15 
REMARK    5  A    between atoms: N4_15  and  C6_17 
ROOT
HETATM    1  N3  UNL     1      43.579   9.190  -0.265  1.00  0.00    -0.356 N 
ATOM      2  H3  UNL     1      43.086   8.544   0.351  1.00  0.00     0.162 HD
ENDROOT
BRANCH   1   3
HETATM    3  C4  UNL     1      43.115   9.321  -1.614  1.00  0.00     0.154 C 
HETATM    4  C1  UNL     1      41.854   8.527  -1.845  1.00  0.00     0.228 C 
HETATM    5  C2  UNL     1      42.345   7.427  -2.770  1.00  0.00     0.154 C 
HETATM    6  N2  UNL     1      43.663   7.756  -3.169  1.00  0.00    -0.398 N 
HETATM    7  C3  UNL     1      44.114   8.769  -2.570  1.00  0.00     0.082 C 
ATOM      8  H2  UNL     1      44.191   7.230  -3.865  1.00  0.00     0.158 HD
BRANCH   4   9
HETATM    9  N1  UNL     1      40.900   9.348  -2.524  1.00  0.00    -0.071 N 
ATOM     10  H13 UNL     1      41.133  10.339  -2.459  1.00  0.00     0.274 HD
ATOM     11  H12 UNL     1      40.961   9.247  -3.538  1.00  0.00     0.274 HD
ATOM     12  H11 UNL     1      39.962   9.153  -2.176  1.00  0.00     0.274 HD
ENDBRANCH   4   9
ENDBRANCH   1   3
BRANCH   1  13
HETATM   13  C5  UNL     1      44.683   9.906   0.266  1.00  0.00     0.168 C 
HETATM   14  S1  UNL     1      45.982   9.008   0.676  1.00  0.00    -0.041 SA
BRANCH  13  15
HETATM   15  N4  UNL     1      44.624  11.317   0.403  1.00  0.00    -0.359 N 
ATOM     16  H4  UNL     1      44.814  11.857  -0.441  1.00  0.00     0.162 HD
BRANCH  15  17
HETATM   17  C6  UNL     1      44.333  12.067   1.566  1.00  0.00     0.116 C 
HETATM   18  C7  UNL     1      44.018  13.507   1.235  1.00  0.00    -0.005 C 
HETATM   19  C8  UNL     1      43.650  14.486   2.222  1.00  0.00    -0.028 C 
HETATM   20  C9  UNL     1      44.656  15.351   2.967  1.00  0.00     0.038 C 
HETATM   21  C10 UNL     1      45.695  14.482   3.759  1.00  0.00     0.083 C 
HETATM   22  C11 UNL     1      45.617  13.194   3.214  1.00  0.00    -0.180 C 
HETATM   23  C12 UNL     1      45.489  11.932   2.615  1.00  0.00     0.109 C 
ENDBRANCH  15  17
ENDBRANCH  13  15
ENDBRANCH   1  13
TORSDOF 5
ENDMDL
MODEL 4
REMARK VINA RESULT: -5.775256713      0.761      1.533
REMARK  5 active torsions:
REMARK  status: ('A' for Active; 'I' for Inactive)
REMARK    1  A    between atoms: N1_1  and  C1_5 
REMARK    2  A    between atoms: C4_10  and  N3_11 
REMARK    3  A    between atoms: N3_11  and  C5_13 
REMARK    4  A    between atoms: C5_13  and  N4_15 
REMARK    5  A    between atoms: N4_15  and  C6_17 
ROOT
HETATM    1  N3  UNL     1      46.452   8.708   1.907  1.00  0.00    -0.356 N 
ATOM      2  H3  UNL     1      45.712   8.044   1.682  1.00  0.00     0.162 HD
ENDROOT
BRANCH   1   3
HETATM    3  C4  UNL     1      47.569   8.238   2.670  1.00  0.00     0.154 C 
HETATM    4  C1  UNL     1      48.474   7.360   1.843  1.00  0.00     0.228 C 
HETATM    5  C2  UNL     1      48.251   5.998   2.479  1.00  0.00     0.154 C 
HETATM    6  N2  UNL     1      47.498   6.195   3.662  1.00  0.00    -0.398 N 
HETATM    7  C3  UNL     1      47.113   7.386   3.802  1.00  0.00     0.082 C 
ATOM      8  H2  UNL     1      47.290   5.451   4.329  1.00  0.00     0.158 HD
BRANCH   4   9
HETATM    9  N1  UNL     1      49.831   7.773   2.033  1.00  0.00    -0.071 N 
ATOM     10  H13 UNL     1      50.377   7.695   1.175  1.00  0.00     0.274 HD
ATOM     11  H12 UNL     1      49.909   8.781   2.169  1.00  0.00     0.274 HD
ATOM     12  H11 UNL     1      50.249   7.249   2.802  1.00  0.00     0.274 HD
ENDBRANCH   4   9
ENDBRANCH   1   3
BRANCH   1  13
HETATM   13  C5  UNL     1      46.313  10.043   1.444  1.00  0.00     0.168 C 
HETATM   14  S1  UNL     1      46.964  10.360  -0.017  1.00  0.00    -0.041 SA
BRANCH  13  15
HETATM   15  N4  UNL     1      45.630  11.007   2.232  1.00  0.00    -0.359 N 
ATOM     16  H4  UNL     1      45.097  10.643   3.022  1.00  0.00     0.162 HD
BRANCH  15  17
HETATM   17  C6  UNL     1      45.598  12.409   2.054  1.00  0.00     0.116 C 
HETATM   18  C7  UNL     1      45.708  13.139   3.373  1.00  0.00    -0.005 C 
HETATM   19  C8  UNL     1      45.739  14.572   3.487  1.00  0.00    -0.028 C 
HETATM   20  C9  UNL     1      44.493  15.433   3.630  1.00  0.00     0.038 C 
HETATM   21  C10 UNL     1      43.508  15.236   2.425  1.00  0.00     0.083 C 
HETATM   22  C11 UNL     1      43.894  14.042   1.803  1.00  0.00    -0.180 C 
HETATM   23  C12 UNL     1      44.332  12.835   1.237  1.00  0.00     0.109 C 
ENDBRANCH  15  17
ENDBRANCH  13  15
ENDBRANCH   1  13
TORSDOF 5
ENDMDL
MODEL 5
REMARK VINA RESULT: -5.774968077      2.547      4.003
REMARK  5 active torsions:
REMARK  status: ('A' for Active; 'I' for Inactive)
REMARK    1  A    between atoms: N1_1  and  C1_5 
REMARK    2  A    between atoms: C4_10  and  N3_11 
REMARK    3  A    between atoms: N3_11  and  C5_13 
REMARK    4  A    between atoms: C5_13  and  N4_15 
REMARK    5  A    between atoms: N4_15  and  C6_17 
ROOT
HETATM    1  N3  UNL     1      46.116   9.925   0.207  1.00  0.00    -0.356 N 
ATOM      2  H3  UNL     1      46.680  10.594  -0.315  1.00  0.00     0.162 HD
ENDROOT
BRANCH   1   3
HETATM    3  C4  UNL     1      45.254   9.051  -0.532  1.00  0.00     0.154 C 
HETATM    4  C1  UNL     1      45.394   9.261  -2.018  1.00  0.00     0.228 C 
HETATM    5  C2  UNL     1      44.052   9.880  -2.372  1.00  0.00     0.154 C 
HETATM    6  N2  UNL     1      43.217   9.776  -1.233  1.00  0.00    -0.398 N 
HETATM    7  C3  UNL     1      43.826   9.334  -0.222  1.00  0.00     0.082 C 
ATOM      8  H2  UNL     1      42.230  10.032  -1.231  1.00  0.00     0.158 HD
BRANCH   4   9
HETATM    9  N1  UNL     1      45.532   7.991  -2.662  1.00  0.00    -0.071 N 
ATOM     10  H13 UNL     1      45.670   7.236  -1.991  1.00  0.00     0.274 HD
ATOM     11  H12 UNL     1      44.652   7.671  -3.068  1.00  0.00     0.274 HD
ATOM     12  H11 UNL     1      46.280   8.031  -3.354  1.00  0.00     0.274 HD
ENDBRANCH   4   9
ENDBRANCH   1   3
BRANCH   1  13
HETATM   13  C5  UNL     1      46.231   9.915   1.621  1.00  0.00     0.168 C 
HETATM   14  S1  UNL     1      47.098   8.687   2.255  1.00  0.00    -0.041 SA
BRANCH  13  15
HETATM   15  N4  UNL     1      45.626  10.938   2.397  1.00  0.00    -0.359 N 
ATOM     16  H4  UNL     1      45.151  10.633   3.247  1.00  0.00     0.162 HD
BRANCH  15  17
HETATM   17  C6  UNL     1      45.601  12.327   2.136  1.00  0.00     0.116 C 
HETATM   18  C7  UNL     1      45.705  13.134   3.409  1.00  0.00    -0.005 C 
HETATM   19  C8  UNL     1      45.742  14.571   3.438  1.00  0.00    -0.028 C 
HETATM   20  C9  UNL     1      44.498  15.444   3.522  1.00  0.00     0.038 C 
HETATM   21  C10 UNL     1      43.519  15.178   2.325  1.00  0.00     0.083 C 
HETATM   22  C11 UNL     1      43.904  13.948   1.777  1.00  0.00    -0.180 C 
HETATM   23  C12 UNL     1      44.340  12.707   1.287  1.00  0.00     0.109 C 
ENDBRANCH  15  17
ENDBRANCH  13  15
ENDBRANCH   1  13
TORSDOF 5
ENDMDL
