MODEL 1
REMARK VINA RESULT: -5.531316293      0.000      0.000
REMARK  5 active torsions:
REMARK  status: ('A' for Active; 'I' for Inactive)
REMARK    1  A    between atoms: C2_2  and  O1_3 
REMARK    2  A    between atoms: C2_2  and  C3_5 
REMARK    3  A    between atoms: C10_12  and  O2_13 
REMARK    4  A    between atoms: C13_17  and  C14_18 
REMARK    5  A    between atoms: C14_18  and  O3_19 
ROOT
HETATM    1  C3  UNL     1      43.300   9.923  -1.538  1.00  0.00     0.019 C 
HETATM    2  C4  UNL     1      43.457  11.022  -2.568  1.00  0.00     0.008 C 
HETATM    3  C5  UNL     1      43.397  12.378  -1.912  1.00  0.00     0.010 C 
HETATM    4  C6  UNL     1      44.144  12.484  -0.619  1.00  0.00    -0.035 C 
HETATM    5  C7  UNL     1      43.897  13.860  -0.055  1.00  0.00     0.016 C 
HETATM    6  C8  UNL     1      43.741  11.386   0.294  1.00  0.00     0.002 C 
HETATM    7  C9  UNL     1      44.320  11.414   1.659  1.00  0.00     0.038 C 
HETATM    8  C10 UNL     1      45.812  11.342   1.519  1.00  0.00     0.123 C 
HETATM    9  C11 UNL     1      46.328  11.500   0.156  1.00  0.00     0.031 A 
HETATM   10  C12 UNL     1      45.590  12.195  -0.857  1.00  0.00     0.013 A 
HETATM   11  C13 UNL     1      45.627  10.699  -0.914  1.00  0.00    -0.003 A 
HETATM   12  C15 UNL     1      44.307  10.168  -0.474  1.00  0.00     0.008 C 
ENDROOT
BRANCH   1  13
HETATM   13  C2  UNL     1      43.215   8.570  -2.127  1.00  0.00     0.118 C 
HETATM   14  C1  UNL     1      41.874   8.142  -2.596  1.00  0.00     0.040 C 
BRANCH  13  15
HETATM   15  O1  UNL     1      44.049   8.555  -3.279  1.00  0.00    -0.396 OA
ATOM     16  H1  UNL     1      44.917   8.334  -2.966  1.00  0.00     0.210 HD
ENDBRANCH  13  15
ENDBRANCH   1  13
BRANCH  11  17
HETATM   17  C14 UNL     1      46.565   9.984  -1.816  1.00  0.00     0.175 C 
BRANCH  17  18
HETATM   18  O3  UNL     1      46.517   8.617  -1.450  1.00  0.00    -0.400 OA
ATOM     19  H3  UNL     1      47.368   8.403  -1.087  1.00  0.00     0.209 HD
ENDBRANCH  17  18
ENDBRANCH  11  17
BRANCH   8  20
HETATM   20  O2  UNL     1      46.359  12.329   2.334  1.00  0.00    -0.395 OA
ATOM     21  H2  UNL     1      46.315  12.018   3.231  1.00  0.00     0.210 HD
ENDBRANCH   8  20
TORSDOF 5
ENDMDL
MODEL 2
REMARK VINA RESULT: -5.154950604      1.597      2.269
REMARK  5 active torsions:
REMARK  status: ('A' for Active; 'I' for Inactive)
REMARK    1  A    between atoms: C2_2  and  O1_3 
REMARK    2  A    between atoms: C2_2  and  C3_5 
REMARK    3  A    between atoms: C10_12  and  O2_13 
REMARK    4  A    between atoms: C13_17  and  C14_18 
REMARK    5  A    between atoms: C14_18  and  O3_19 
ROOT
HETATM    1  C3  UNL     1      43.797   9.929  -0.829  1.00  0.00     0.019 C 
HETATM    2  C4  UNL     1      43.640  11.431  -0.726  1.00  0.00     0.008 C 
HETATM    3  C5  UNL     1      44.315  11.952   0.517  1.00  0.00     0.010 C 
HETATM    4  C6  UNL     1      45.650  11.342   0.810  1.00  0.00    -0.035 C 
HETATM    5  C7  UNL     1      46.132  11.895   2.126  1.00  0.00     0.016 C 
HETATM    6  C8  UNL     1      45.548   9.861   0.789  1.00  0.00     0.002 C 
HETATM    7  C9  UNL     1      46.770   9.109   1.164  1.00  0.00     0.038 C 
HETATM    8  C10 UNL     1      47.851   9.488   0.194  1.00  0.00     0.123 C 
HETATM    9  C11 UNL     1      47.542  10.620  -0.686  1.00  0.00     0.031 A 
HETATM   10  C12 UNL     1      46.582  11.620  -0.324  1.00  0.00     0.013 A 
HETATM   11  C13 UNL     1      46.183  10.597  -1.342  1.00  0.00    -0.003 A 
HETATM   12  C15 UNL     1      45.246   9.627  -0.710  1.00  0.00     0.008 C 
ENDROOT
BRANCH   1  13
HETATM   13  C2  UNL     1      43.045   9.332  -1.954  1.00  0.00     0.118 C 
HETATM   14  C1  UNL     1      42.688  10.249  -3.063  1.00  0.00     0.040 C 
BRANCH  13  15
HETATM   15  O1  UNL     1      43.872   8.331  -2.533  1.00  0.00    -0.396 OA
ATOM     16  H1  UNL     1      43.470   7.501  -2.306  1.00  0.00     0.210 HD
ENDBRANCH  13  15
ENDBRANCH   1  13
BRANCH  11  17
HETATM   17  C14 UNL     1      46.233  10.896  -2.796  1.00  0.00     0.175 C 
BRANCH  17  18
HETATM   18  O3  UNL     1      46.206   9.649  -3.467  1.00  0.00    -0.400 OA
ATOM     19  H3  UNL     1      45.596   9.098  -2.991  1.00  0.00     0.209 HD
ENDBRANCH  17  18
ENDBRANCH  11  17
BRANCH   8  20
HETATM   20  O2  UNL     1      48.995   9.777   0.930  1.00  0.00    -0.395 OA
ATOM     21  H2  UNL     1      49.740   9.700   0.347  1.00  0.00     0.210 HD
ENDBRANCH   8  20
TORSDOF 5
ENDMDL
MODEL 3
REMARK VINA RESULT: -4.991253568      1.121      1.208
REMARK  5 active torsions:
REMARK  status: ('A' for Active; 'I' for Inactive)
REMARK    1  A    between atoms: C2_2  and  O1_3 
REMARK    2  A    between atoms: C2_2  and  C3_5 
REMARK    3  A    between atoms: C10_12  and  O2_13 
REMARK    4  A    between atoms: C13_17  and  C14_18 
REMARK    5  A    between atoms: C14_18  and  O3_19 
ROOT
HETATM    1  C3  UNL     1      42.514  10.086  -2.100  1.00  0.00     0.019 C 
HETATM    2  C4  UNL     1      42.733  11.148  -3.156  1.00  0.00     0.008 C 
HETATM    3  C5  UNL     1      43.071  12.472  -2.519  1.00  0.00     0.010 C 
HETATM    4  C6  UNL     1      44.023  12.389  -1.366  1.00  0.00    -0.035 C 
HETATM    5  C7  UNL     1      44.170  13.773  -0.789  1.00  0.00     0.016 C 
HETATM    6  C8  UNL     1      43.547  11.382  -0.384  1.00  0.00     0.002 C 
HETATM    7  C9  UNL     1      44.332  11.257   0.868  1.00  0.00     0.038 C 
HETATM    8  C10 UNL     1      45.732  10.872   0.489  1.00  0.00     0.123 C 
HETATM    9  C11 UNL     1      46.042  10.944  -0.943  1.00  0.00     0.031 A 
HETATM   10  C12 UNL     1      45.316  11.803  -1.832  1.00  0.00     0.013 A 
HETATM   11  C13 UNL     1      45.022  10.335  -1.873  1.00  0.00    -0.003 A 
HETATM   12  C15 UNL     1      43.708  10.088  -1.217  1.00  0.00     0.008 C 
ENDROOT
BRANCH   1  13
HETATM   13  C2  UNL     1      42.046   8.795  -2.648  1.00  0.00     0.118 C 
HETATM   14  C1  UNL     1      42.426   8.503  -4.051  1.00  0.00     0.040 C 
BRANCH  13  15
HETATM   15  O1  UNL     1      42.637   7.764  -1.866  1.00  0.00    -0.396 OA
ATOM     16  H1  UNL     1      41.934   7.160  -1.662  1.00  0.00     0.210 HD
ENDBRANCH  13  15
ENDBRANCH   1  13
BRANCH  11  17
HETATM   17  C14 UNL     1      45.627   9.456  -2.906  1.00  0.00     0.175 C 
BRANCH  17  18
HETATM   18  O3  UNL     1      45.501   8.127  -2.431  1.00  0.00    -0.400 OA
ATOM     19  H3  UNL     1      45.654   8.158  -1.494  1.00  0.00     0.209 HD
ENDBRANCH  17  18
ENDBRANCH  11  17
BRANCH   8  20
HETATM   20  O2  UNL     1      46.601  11.701   1.189  1.00  0.00    -0.395 OA
ATOM     21  H2  UNL     1      46.224  12.573   1.197  1.00  0.00     0.210 HD
ENDBRANCH   8  20
TORSDOF 5
ENDMDL
MODEL 4
REMARK VINA RESULT: -4.927218008      1.812      3.879
REMARK  5 active torsions:
REMARK  status: ('A' for Active; 'I' for Inactive)
REMARK    1  A    between atoms: C2_2  and  O1_3 
REMARK    2  A    between atoms: C2_2  and  C3_5 
REMARK    3  A    between atoms: C10_12  and  O2_13 
REMARK    4  A    between atoms: C13_17  and  C14_18 
REMARK    5  A    between atoms: C14_18  and  O3_19 
ROOT
HETATM    1  C3  UNL     1      47.167  10.897   0.020  1.00  0.00     0.019 C 
HETATM    2  C4  UNL     1      46.483  10.708   1.358  1.00  0.00     0.008 C 
HETATM    3  C5  UNL     1      45.484  11.810   1.605  1.00  0.00     0.010 C 
HETATM    4  C6  UNL     1      44.657  12.186   0.415  1.00  0.00    -0.035 C 
HETATM    5  C7  UNL     1      43.793  13.356   0.805  1.00  0.00     0.016 C 
HETATM    6  C8  UNL     1      45.535  12.457  -0.751  1.00  0.00     0.002 C 
HETATM    7  C9  UNL     1      44.868  12.943  -1.982  1.00  0.00     0.038 C 
HETATM    8  C10 UNL     1      43.884  11.894  -2.410  1.00  0.00     0.123 C 
HETATM    9  C11 UNL     1      43.649  10.817  -1.443  1.00  0.00     0.031 A 
HETATM   10  C12 UNL     1      43.872  10.998  -0.039  1.00  0.00     0.013 A 
HETATM   11  C13 UNL     1      44.880  10.209  -0.816  1.00  0.00    -0.003 A 
HETATM   12  C15 UNL     1      46.101  11.039  -1.004  1.00  0.00     0.008 C 
ENDROOT
BRANCH   1  13
HETATM   13  C2  UNL     1      48.256   9.928  -0.228  1.00  0.00     0.118 C 
HETATM   14  C1  UNL     1      48.187   8.656   0.530  1.00  0.00     0.040 C 
BRANCH  13  15
HETATM   15  O1  UNL     1      48.193   9.563  -1.601  1.00  0.00    -0.396 OA
ATOM     16  H1  UNL     1      48.661   8.740  -1.671  1.00  0.00     0.210 HD
ENDBRANCH  13  15
ENDBRANCH   1  13
BRANCH  11  17
HETATM   17  C14 UNL     1      44.861   8.724  -0.817  1.00  0.00     0.175 C 
BRANCH  17  18
HETATM   18  O3  UNL     1      45.601   8.311  -1.952  1.00  0.00    -0.400 OA
ATOM     19  H3  UNL     1      45.903   9.102  -2.382  1.00  0.00     0.209 HD
ENDBRANCH  17  18
ENDBRANCH  11  17
BRANCH   8  20
HETATM   20  O2  UNL     1      42.681  12.533  -2.687  1.00  0.00    -0.395 OA
ATOM     21  H2  UNL     1      42.196  11.985  -3.294  1.00  0.00     0.210 HD
ENDBRANCH   8  20
TORSDOF 5
ENDMDL
MODEL 5
REMARK VINA RESULT: -4.788273188      2.150      3.746
REMARK  5 active torsions:
REMARK  status: ('A' for Active; 'I' for Inactive)
REMARK    1  A    between atoms: C2_2  and  O1_3 
REMARK    2  A    between atoms: C2_2  and  C3_5 
REMARK    3  A    between atoms: C10_12  and  O2_13 
REMARK    4  A    between atoms: C13_17  and  C14_18 
REMARK    5  A    between atoms: C14_18  and  O3_19 
ROOT
HETATM    1  C3  UNL     1      46.620   8.763  -0.092  1.00  0.00     0.019 C 
HETATM    2  C4  UNL     1      46.481   8.434  -1.563  1.00  0.00     0.008 C 
HETATM    3  C5  UNL     1      45.079   8.715  -2.041  1.00  0.00     0.010 C 
HETATM    4  C6  UNL     1      44.482   9.986  -1.524  1.00  0.00    -0.035 C 
HETATM    5  C7  UNL     1      43.058  10.059  -2.012  1.00  0.00     0.016 C 
HETATM    6  C8  UNL     1      44.607  10.043  -0.045  1.00  0.00     0.002 C 
HETATM    7  C9  UNL     1      43.968  11.199   0.629  1.00  0.00     0.038 C 
HETATM    8  C10 UNL     1      44.602  12.447   0.086  1.00  0.00     0.123 C 
HETATM    9  C11 UNL     1      45.470  12.259  -1.080  1.00  0.00     0.031 A 
HETATM   10  C12 UNL     1      45.318  11.143  -1.966  1.00  0.00     0.013 A 
HETATM   11  C13 UNL     1      46.458  11.121  -0.995  1.00  0.00    -0.003 A 
HETATM   12  C15 UNL     1      46.144  10.157   0.096  1.00  0.00     0.008 C 
ENDROOT
BRANCH   1  13
HETATM   13  C2  UNL     1      47.931   8.385   0.477  1.00  0.00     0.118 C 
HETATM   14  C1  UNL     1      49.050   8.252  -0.487  1.00  0.00     0.040 C 
BRANCH  13  15
HETATM   15  O1  UNL     1      48.317   9.419   1.374  1.00  0.00    -0.396 OA
ATOM     16  H1  UNL     1      48.959   9.029   1.956  1.00  0.00     0.210 HD
ENDBRANCH  13  15
ENDBRANCH   1  13
BRANCH  11  17
HETATM   17  C14 UNL     1      47.831  11.509  -1.408  1.00  0.00     0.175 C 
BRANCH  17  18
HETATM   18  O3  UNL     1      48.570  11.711  -0.218  1.00  0.00    -0.400 OA
ATOM     19  H3  UNL     1      48.910  10.862   0.039  1.00  0.00     0.209 HD
ENDBRANCH  17  18
ENDBRANCH  11  17
BRANCH   8  20
HETATM   20  O2  UNL     1      43.579  13.331  -0.240  1.00  0.00    -0.395 OA
ATOM     21  H2  UNL     1      43.724  14.132   0.249  1.00  0.00     0.210 HD
ENDBRANCH   8  20
TORSDOF 5
ENDMDL
