MODEL 1
REMARK VINA RESULT: -5.393604058      0.000      0.000
REMARK  5 active torsions:
REMARK  status: ('A' for Active; 'I' for Inactive)
REMARK    1  A    between atoms: C4_4  and  O1_5 
REMARK    2  A    between atoms: C7_9  and  O2_10 
REMARK    3  A    between atoms: C12_16  and  C13_17 
REMARK    4  A    between atoms: C13_17  and  C14_18 
REMARK    5  A    between atoms: C14_18  and  O3_19 
ROOT
HETATM    1  C1  UNL     1      45.586  10.771  -1.934  1.00  0.00     0.016 C 
HETATM    2  C2  UNL     1      44.086  10.792  -1.761  1.00  0.00    -0.031 C 
HETATM    3  C3  UNL     1      43.741   9.445  -1.099  1.00  0.00     0.041 C 
HETATM    4  C4  UNL     1      42.758   8.744  -1.955  1.00  0.00     0.119 C 
HETATM    5  C5  UNL     1      42.210   9.798  -2.858  1.00  0.00     0.039 C 
HETATM    6  C6  UNL     1      43.470  10.638  -3.097  1.00  0.00     0.025 C 
HETATM    7  C7  UNL     1      43.092  11.848  -3.846  1.00  0.00     0.123 C 
HETATM    8  C8  UNL     1      44.074  12.985  -3.801  1.00  0.00     0.032 C 
HETATM    9  C9  UNL     1      44.112  13.728  -2.512  1.00  0.00     0.007 C 
HETATM   10  C10 UNL     1      43.310  13.196  -1.414  1.00  0.00    -0.009 C 
HETATM   11  C11 UNL     1      43.857  13.732  -0.064  1.00  0.00     0.010 C 
HETATM   12  C12 UNL     1      44.545  12.403   0.121  1.00  0.00    -0.007 C 
HETATM   13  C15 UNL     1      43.567  11.850  -0.889  1.00  0.00     0.002 C 
ENDROOT
BRANCH  12  14
HETATM   14  C13 UNL     1      44.447  11.911   1.525  1.00  0.00     0.031 C 
BRANCH  14  15
HETATM   15  C14 UNL     1      45.830  11.656   2.067  1.00  0.00     0.164 C 
BRANCH  15  16
HETATM   16  O3  UNL     1      46.363  12.674   2.817  1.00  0.00    -0.401 OA
ATOM     17  H3  UNL     1      46.329  12.546   3.758  1.00  0.00     0.209 HD
ENDBRANCH  15  16
ENDBRANCH  14  15
ENDBRANCH  12  14
BRANCH   4  18
HETATM   18  O1  UNL     1      43.340   7.752  -2.760  1.00  0.00    -0.396 OA
ATOM     19  H1  UNL     1      43.349   7.980  -3.682  1.00  0.00     0.210 HD
ENDBRANCH   4  18
BRANCH   7  20
HETATM   20  O2  UNL     1      41.791  12.238  -3.536  1.00  0.00    -0.395 OA
ATOM     21  H2  UNL     1      41.754  12.640  -2.676  1.00  0.00     0.210 HD
ENDBRANCH   7  20
TORSDOF 5
ENDMDL
MODEL 2
REMARK VINA RESULT: -5.242192428      2.332      4.102
REMARK  5 active torsions:
REMARK  status: ('A' for Active; 'I' for Inactive)
REMARK    1  A    between atoms: C4_4  and  O1_5 
REMARK    2  A    between atoms: C7_9  and  O2_10 
REMARK    3  A    between atoms: C12_16  and  C13_17 
REMARK    4  A    between atoms: C13_17  and  C14_18 
REMARK    5  A    between atoms: C14_18  and  O3_19 
ROOT
HETATM    1  C1  UNL     1      43.321  12.215  -2.474  1.00  0.00     0.016 C 
HETATM    2  C2  UNL     1      44.745  12.135  -1.977  1.00  0.00    -0.031 C 
HETATM    3  C3  UNL     1      45.421  13.418  -2.494  1.00  0.00     0.041 C 
HETATM    4  C4  UNL     1      46.601  13.030  -3.299  1.00  0.00     0.119 C 
HETATM    5  C5  UNL     1      46.874  11.611  -2.926  1.00  0.00     0.039 C 
HETATM    6  C6  UNL     1      45.443  11.090  -2.758  1.00  0.00     0.025 C 
HETATM    7  C7  UNL     1      45.502   9.722  -2.216  1.00  0.00     0.123 C 
HETATM    8  C8  UNL     1      44.239   9.209  -1.582  1.00  0.00     0.032 C 
HETATM    9  C9  UNL     1      43.933   9.784  -0.245  1.00  0.00     0.007 C 
HETATM   10  C10 UNL     1      44.797  10.860   0.230  1.00  0.00    -0.009 C 
HETATM   11  C11 UNL     1      44.058  11.677   1.323  1.00  0.00     0.010 C 
HETATM   12  C12 UNL     1      43.762  12.714   0.269  1.00  0.00    -0.007 C 
HETATM   13  C15 UNL     1      44.903  12.117  -0.521  1.00  0.00     0.002 C 
ENDROOT
BRANCH  12  14
HETATM   14  C13 UNL     1      43.926  14.103   0.786  1.00  0.00     0.031 C 
BRANCH  14  15
HETATM   15  C14 UNL     1      43.235  15.070  -0.139  1.00  0.00     0.164 C 
BRANCH  15  16
HETATM   16  O3  UNL     1      42.789  16.228   0.448  1.00  0.00    -0.401 OA
ATOM     17  H3  UNL     1      42.081  16.668  -0.008  1.00  0.00     0.209 HD
ENDBRANCH  15  16
ENDBRANCH  14  15
ENDBRANCH  12  14
BRANCH   4  18
HETATM   18  O1  UNL     1      46.360  13.070  -4.681  1.00  0.00    -0.396 OA
ATOM     19  H1  UNL     1      46.584  13.905  -5.074  1.00  0.00     0.210 HD
ENDBRANCH   4  18
BRANCH   7  20
HETATM   20  O2  UNL     1      46.625   9.556  -1.409  1.00  0.00    -0.395 OA
ATOM     21  H2  UNL     1      46.465   9.888  -0.534  1.00  0.00     0.210 HD
ENDBRANCH   7  20
TORSDOF 5
ENDMDL
MODEL 3
REMARK VINA RESULT: -5.179410495      2.417      3.573
REMARK  5 active torsions:
REMARK  status: ('A' for Active; 'I' for Inactive)
REMARK    1  A    between atoms: C4_4  and  O1_5 
REMARK    2  A    between atoms: C7_9  and  O2_10 
REMARK    3  A    between atoms: C12_16  and  C13_17 
REMARK    4  A    between atoms: C13_17  and  C14_18 
REMARK    5  A    between atoms: C14_18  and  O3_19 
ROOT
HETATM    1  C1  UNL     1      47.315  11.507  -0.157  1.00  0.00     0.016 C 
HETATM    2  C2  UNL     1      46.331  10.580   0.517  1.00  0.00    -0.031 C 
HETATM    3  C3  UNL     1      47.166   9.788   1.542  1.00  0.00     0.041 C 
HETATM    4  C4  UNL     1      47.000   8.345   1.260  1.00  0.00     0.119 C 
HETATM    5  C5  UNL     1      45.789   8.256   0.392  1.00  0.00     0.039 C 
HETATM    6  C6  UNL     1      45.962   9.524  -0.451  1.00  0.00     0.025 C 
HETATM    7  C7  UNL     1      44.754   9.709  -1.273  1.00  0.00     0.123 C 
HETATM    8  C8  UNL     1      44.539  11.089  -1.827  1.00  0.00     0.032 C 
HETATM    9  C9  UNL     1      44.084  12.098  -0.834  1.00  0.00     0.007 C 
HETATM   10  C10 UNL     1      44.032  11.680   0.564  1.00  0.00    -0.009 C 
HETATM   11  C11 UNL     1      44.069  12.929   1.483  1.00  0.00     0.010 C 
HETATM   12  C12 UNL     1      45.532  12.650   1.710  1.00  0.00    -0.007 C 
HETATM   13  C15 UNL     1      45.250  11.238   1.254  1.00  0.00     0.002 C 
ENDROOT
BRANCH  12  14
HETATM   14  C13 UNL     1      45.929  12.855   3.133  1.00  0.00     0.031 C 
BRANCH  14  15
HETATM   15  C14 UNL     1      46.006  14.330   3.427  1.00  0.00     0.164 C 
BRANCH  15  16
HETATM   16  O3  UNL     1      46.030  14.662   4.759  1.00  0.00    -0.401 OA
ATOM     17  H3  UNL     1      46.603  15.384   4.987  1.00  0.00     0.209 HD
ENDBRANCH  15  16
ENDBRANCH  14  15
ENDBRANCH  12  14
BRANCH   4  18
HETATM   18  O1  UNL     1      48.079   7.797   0.547  1.00  0.00    -0.396 OA
ATOM     19  H1  UNL     1      48.282   8.278  -0.247  1.00  0.00     0.210 HD
ENDBRANCH   4  18
BRANCH   7  20
HETATM   20  O2  UNL     1      43.631   9.199  -0.626  1.00  0.00    -0.395 OA
ATOM     21  H2  UNL     1      42.858   9.283  -1.172  1.00  0.00     0.210 HD
ENDBRANCH   7  20
TORSDOF 5
ENDMDL
MODEL 4
REMARK VINA RESULT: -5.026738243      2.721      4.651
REMARK  5 active torsions:
REMARK  status: ('A' for Active; 'I' for Inactive)
REMARK    1  A    between atoms: C4_4  and  O1_5 
REMARK    2  A    between atoms: C7_9  and  O2_10 
REMARK    3  A    between atoms: C12_16  and  C13_17 
REMARK    4  A    between atoms: C13_17  and  C14_18 
REMARK    5  A    between atoms: C14_18  and  O3_19 
ROOT
HETATM    1  C1  UNL     1      47.467  11.455  -0.273  1.00  0.00     0.016 C 
HETATM    2  C2  UNL     1      46.865  10.101   0.021  1.00  0.00    -0.031 C 
HETATM    3  C3  UNL     1      47.008   9.922   1.544  1.00  0.00     0.041 C 
HETATM    4  C4  UNL     1      47.761   8.674   1.797  1.00  0.00     0.119 C 
HETATM    5  C5  UNL     1      47.696   7.916   0.513  1.00  0.00     0.039 C 
HETATM    6  C6  UNL     1      47.792   9.068  -0.493  1.00  0.00     0.025 C 
HETATM    7  C7  UNL     1      47.573   8.530  -1.845  1.00  0.00     0.123 C 
HETATM    8  C8  UNL     1      47.198   9.533  -2.901  1.00  0.00     0.032 C 
HETATM    9  C9  UNL     1      45.801  10.038  -2.816  1.00  0.00     0.007 C 
HETATM   10  C10 UNL     1      45.012   9.619  -1.662  1.00  0.00    -0.009 C 
HETATM   11  C11 UNL     1      43.839  10.613  -1.446  1.00  0.00     0.010 C 
HETATM   12  C12 UNL     1      44.653  11.248  -0.348  1.00  0.00    -0.007 C 
HETATM   13  C15 UNL     1      45.443   9.962  -0.301  1.00  0.00     0.002 C 
ENDROOT
BRANCH  12  14
HETATM   14  C13 UNL     1      43.820  11.597   0.839  1.00  0.00     0.031 C 
BRANCH  14  15
HETATM   15  C14 UNL     1      44.051  13.038   1.211  1.00  0.00     0.164 C 
BRANCH  15  16
HETATM   16  O3  UNL     1      43.696  13.955   0.253  1.00  0.00    -0.401 OA
ATOM     17  H3  UNL     1      43.277  14.743   0.580  1.00  0.00     0.209 HD
ENDBRANCH  15  16
ENDBRANCH  14  15
ENDBRANCH  12  14
BRANCH   4  18
HETATM   18  O1  UNL     1      49.115   8.899   2.092  1.00  0.00    -0.396 OA
ATOM     19  H1  UNL     1      49.523   8.171   2.545  1.00  0.00     0.210 HD
ENDBRANCH   4  18
BRANCH   7  20
HETATM   20  O2  UNL     1      46.719   7.430  -1.809  1.00  0.00    -0.395 OA
ATOM     21  H2  UNL     1      47.174   6.639  -2.073  1.00  0.00     0.210 HD
ENDBRANCH   7  20
TORSDOF 5
ENDMDL
MODEL 5
REMARK VINA RESULT: -4.962022363      1.760      4.589
REMARK  5 active torsions:
REMARK  status: ('A' for Active; 'I' for Inactive)
REMARK    1  A    between atoms: C4_4  and  O1_5 
REMARK    2  A    between atoms: C7_9  and  O2_10 
REMARK    3  A    between atoms: C12_16  and  C13_17 
REMARK    4  A    between atoms: C13_17  and  C14_18 
REMARK    5  A    between atoms: C14_18  and  O3_19 
ROOT
HETATM    1  C1  UNL     1      43.722   9.264  -0.547  1.00  0.00     0.016 C 
HETATM    2  C2  UNL     1      44.961   9.965  -1.050  1.00  0.00    -0.031 C 
HETATM    3  C3  UNL     1      45.403   9.158  -2.286  1.00  0.00     0.041 C 
HETATM    4  C4  UNL     1      46.798   8.712  -2.076  1.00  0.00     0.119 C 
HETATM    5  C5  UNL     1      47.317   9.571  -0.971  1.00  0.00     0.039 C 
HETATM    6  C6  UNL     1      46.061   9.687  -0.100  1.00  0.00     0.025 C 
HETATM    7  C7  UNL     1      46.326  10.654   0.979  1.00  0.00     0.123 C 
HETATM    8  C8  UNL     1      45.115  11.227   1.662  1.00  0.00     0.032 C 
HETATM    9  C9  UNL     1      44.368  12.237   0.865  1.00  0.00     0.007 C 
HETATM   10  C10 UNL     1      44.801  12.452  -0.512  1.00  0.00    -0.009 C 
HETATM   11  C11 UNL     1      43.645  13.089  -1.327  1.00  0.00     0.010 C 
HETATM   12  C12 UNL     1      43.361  11.720  -1.890  1.00  0.00    -0.007 C 
HETATM   13  C15 UNL     1      44.768  11.351  -1.482  1.00  0.00     0.002 C 
ENDROOT
BRANCH  12  14
HETATM   14  C13 UNL     1      43.049  11.766  -3.348  1.00  0.00     0.031 C 
BRANCH  14  15
HETATM   15  C14 UNL     1      41.865  10.881  -3.637  1.00  0.00     0.164 C 
BRANCH  15  16
HETATM   16  O3  UNL     1      42.146   9.543  -3.754  1.00  0.00    -0.401 OA
ATOM     17  H3  UNL     1      42.219   9.219  -4.645  1.00  0.00     0.209 HD
ENDBRANCH  15  16
ENDBRANCH  14  15
ENDBRANCH  12  14
BRANCH   4  18
HETATM   18  O1  UNL     1      46.890   7.375  -1.658  1.00  0.00    -0.396 OA
ATOM     19  H1  UNL     1      46.552   7.236  -0.782  1.00  0.00     0.210 HD
ENDBRANCH   4  18
BRANCH   7  20
HETATM   20  O2  UNL     1      47.230  11.628   0.561  1.00  0.00    -0.395 OA
ATOM     21  H2  UNL     1      47.649  11.374  -0.253  1.00  0.00     0.210 HD
ENDBRANCH   7  20
TORSDOF 5
ENDMDL
