MODEL 1
REMARK VINA RESULT: -6.035865201      0.000      0.000
REMARK  3 active torsions:
REMARK  status: ('A' for Active; 'I' for Inactive)
REMARK    1  A    between atoms: N1_1  and  C1_4 
REMARK    2  A    between atoms: C11_21  and  C12_22 
REMARK    3  A    between atoms: C12_22  and  C13_23 
ROOT
HETATM    1  C1  UNL     1      45.708  12.523   2.173  1.00  0.00     0.675 A 
HETATM    2  N2  UNL     1      46.297  11.545   1.473  1.00  0.00    -0.194 N 
ATOM      3  H2  UNL     1      47.222  11.222   1.756  1.00  0.00     0.184 HD
HETATM    4  C2  UNL     1      45.698  10.970   0.393  1.00  0.00     0.045 A 
HETATM    5  C3  UNL     1      44.461  11.474   0.095  1.00  0.00    -0.018 A 
HETATM    6  C4  UNL     1      43.845  12.494   0.824  1.00  0.00     0.115 A 
HETATM    7  N3  UNL     1      44.492  13.014   1.876  1.00  0.00    -0.202 N 
ATOM      8  H3  UNL     1      44.076  13.760   2.433  1.00  0.00     0.183 HD
HETATM    9  C5  UNL     1      43.740  10.881  -1.085  1.00  0.00     0.042 C 
HETATM   10  C6  UNL     1      43.872   9.368  -0.853  1.00  0.00     0.006 C 
HETATM   11  C7  UNL     1      45.320   9.019  -1.060  1.00  0.00     0.018 C 
HETATM   12  C8  UNL     1      46.301   9.918  -0.401  1.00  0.00     0.033 C 
HETATM   13  C9  UNL     1      47.217  10.589  -1.458  1.00  0.00     0.045 C 
HETATM   14  C10 UNL     1      48.378  10.987  -0.547  1.00  0.00     0.234 C 
HETATM   15  N4  UNL     1      48.399  10.032   0.511  1.00  0.00    -0.070 N 
ATOM     16  H41 UNL     1      48.354  10.471   1.430  1.00  0.00     0.277 HD
ATOM     17  H42 UNL     1      49.311   9.584   0.611  1.00  0.00     0.277 HD
HETATM   18  C11 UNL     1      47.354   9.091   0.312  1.00  0.00     0.200 C 
ENDROOT
BRANCH  18  19
HETATM   19  C12 UNL     1      46.856   8.402   1.517  1.00  0.00     0.039 C 
BRANCH  19  20
HETATM   20  C13 UNL     1      47.825   8.308   2.641  1.00  0.00    -0.013 A 
HETATM   21  C14 UNL     1      47.642   7.366   3.769  1.00  0.00     0.005 A 
HETATM   22  C15 UNL     1      48.841   7.269   2.778  1.00  0.00     0.005 A 
ENDBRANCH  19  20
ENDBRANCH  18  19
BRANCH   1  23
HETATM   23  N1  UNL     1      46.324  13.045   3.203  1.00  0.00    -0.234 N 
ATOM     24  H12 UNL     1      46.797  12.399   3.836  1.00  0.00     0.174 HD
ATOM     25  H11 UNL     1      46.314  14.056   3.339  1.00  0.00     0.174 HD
ENDBRANCH   1  23
TORSDOF 3
ENDMDL
MODEL 2
REMARK VINA RESULT: -5.777988190      2.832      5.293
REMARK  3 active torsions:
REMARK  status: ('A' for Active; 'I' for Inactive)
REMARK    1  A    between atoms: N1_1  and  C1_4 
REMARK    2  A    between atoms: C11_21  and  C12_22 
REMARK    3  A    between atoms: C12_22  and  C13_23 
ROOT
HETATM    1  C1  UNL     1      47.828  11.306  -0.721  1.00  0.00     0.675 A 
HETATM    2  N2  UNL     1      46.520  11.466  -0.482  1.00  0.00    -0.194 N 
ATOM      3  H2  UNL     1      46.124  11.085   0.377  1.00  0.00     0.184 HD
HETATM    4  C2  UNL     1      45.704  12.123  -1.353  1.00  0.00     0.045 A 
HETATM    5  C3  UNL     1      46.332  12.595  -2.474  1.00  0.00    -0.018 A 
HETATM    6  C4  UNL     1      47.696  12.428  -2.724  1.00  0.00     0.115 A 
HETATM    7  N3  UNL     1      48.440  11.771  -1.824  1.00  0.00    -0.202 N 
ATOM      8  H3  UNL     1      49.439  11.630  -1.971  1.00  0.00     0.183 HD
HETATM    9  C5  UNL     1      45.489  13.334  -3.477  1.00  0.00     0.042 C 
HETATM   10  C6  UNL     1      44.703  14.330  -2.611  1.00  0.00     0.006 C 
HETATM   11  C7  UNL     1      43.729  13.524  -1.795  1.00  0.00     0.018 C 
HETATM   12  C8  UNL     1      44.282  12.310  -1.143  1.00  0.00     0.033 C 
HETATM   13  C9  UNL     1      43.556  11.040  -1.656  1.00  0.00     0.045 C 
HETATM   14  C10 UNL     1      43.909  10.087  -0.515  1.00  0.00     0.234 C 
HETATM   15  N4  UNL     1      44.064  10.898   0.647  1.00  0.00    -0.070 N 
ATOM     16  H41 UNL     1      44.970  10.763   1.095  1.00  0.00     0.277 HD
ATOM     17  H42 UNL     1      43.474  10.585   1.419  1.00  0.00     0.277 HD
HETATM   18  C11 UNL     1      43.828  12.256   0.304  1.00  0.00     0.200 C 
ENDROOT
BRANCH  18  19
HETATM   19  C12 UNL     1      44.464  13.268   1.167  1.00  0.00     0.039 C 
BRANCH  19  20
HETATM   20  C13 UNL     1      43.555  14.323   1.687  1.00  0.00    -0.013 A 
HETATM   21  C14 UNL     1      44.031  15.423   2.556  1.00  0.00     0.005 A 
HETATM   22  C15 UNL     1      43.441  15.669   1.134  1.00  0.00     0.005 A 
ENDBRANCH  19  20
ENDBRANCH  18  19
BRANCH   1  23
HETATM   23  N1  UNL     1      48.572  10.666   0.146  1.00  0.00    -0.234 N 
ATOM     24  H12 UNL     1      48.213  10.592   1.098  1.00  0.00     0.174 HD
ATOM     25  H11 UNL     1      49.466  10.273  -0.147  1.00  0.00     0.174 HD
ENDBRANCH   1  23
TORSDOF 3
ENDMDL
MODEL 3
REMARK VINA RESULT: -5.671167105      2.309      4.449
REMARK  3 active torsions:
REMARK  status: ('A' for Active; 'I' for Inactive)
REMARK    1  A    between atoms: N1_1  and  C1_4 
REMARK    2  A    between atoms: C11_21  and  C12_22 
REMARK    3  A    between atoms: C12_22  and  C13_23 
ROOT
HETATM    1  C1  UNL     1      47.937  11.891  -1.778  1.00  0.00     0.675 A 
HETATM    2  N2  UNL     1      47.128  11.587  -0.755  1.00  0.00    -0.194 N 
ATOM      3  H2  UNL     1      47.510  11.080   0.044  1.00  0.00     0.184 HD
HETATM    4  C2  UNL     1      45.811  11.933  -0.750  1.00  0.00     0.045 A 
HETATM    5  C3  UNL     1      45.397  12.609  -1.867  1.00  0.00    -0.018 A 
HETATM    6  C4  UNL     1      46.240  12.927  -2.935  1.00  0.00     0.115 A 
HETATM    7  N3  UNL     1      47.525  12.555  -2.872  1.00  0.00    -0.202 N 
ATOM      8  H3  UNL     1      48.172  12.769  -3.632  1.00  0.00     0.183 HD
HETATM    9  C5  UNL     1      43.952  13.025  -1.926  1.00  0.00     0.042 C 
HETATM   10  C6  UNL     1      43.718  13.676  -0.554  1.00  0.00     0.006 C 
HETATM   11  C7  UNL     1      43.768  12.572   0.467  1.00  0.00     0.018 C 
HETATM   12  C8  UNL     1      44.895  11.615   0.328  1.00  0.00     0.033 C 
HETATM   13  C9  UNL     1      44.361  10.180   0.087  1.00  0.00     0.045 C 
HETATM   14  C10 UNL     1      45.603   9.391   0.500  1.00  0.00     0.234 C 
HETATM   15  N4  UNL     1      46.276  10.189   1.471  1.00  0.00    -0.070 N 
ATOM     16  H41 UNL     1      47.247  10.370   1.218  1.00  0.00     0.277 HD
ATOM     17  H42 UNL     1      46.446   9.681   2.340  1.00  0.00     0.277 HD
HETATM   18  C11 UNL     1      45.542  11.388   1.681  1.00  0.00     0.200 C 
ENDROOT
BRANCH  18  19
HETATM   19  C12 UNL     1      46.309  12.544   2.178  1.00  0.00     0.039 C 
BRANCH  19  20
HETATM   20  C13 UNL     1      45.624  13.365   3.212  1.00  0.00    -0.013 A 
HETATM   21  C14 UNL     1      46.325  14.416   3.984  1.00  0.00     0.005 A 
HETATM   22  C15 UNL     1      45.149  14.730   3.010  1.00  0.00     0.005 A 
ENDBRANCH  19  20
ENDBRANCH  18  19
BRANCH   1  23
HETATM   23  N1  UNL     1      49.196  11.536  -1.737  1.00  0.00    -0.234 N 
ATOM     24  H12 UNL     1      49.617  11.430  -0.813  1.00  0.00     0.174 HD
ATOM     25  H11 UNL     1      49.707  11.380  -2.606  1.00  0.00     0.174 HD
ENDBRANCH   1  23
TORSDOF 3
ENDMDL
MODEL 4
REMARK VINA RESULT: -5.646953678      2.392      5.063
REMARK  3 active torsions:
REMARK  status: ('A' for Active; 'I' for Inactive)
REMARK    1  A    between atoms: N1_1  and  C1_4 
REMARK    2  A    between atoms: C11_21  and  C12_22 
REMARK    3  A    between atoms: C12_22  and  C13_23 
ROOT
HETATM    1  C1  UNL     1      47.198   8.215   0.225  1.00  0.00     0.675 A 
HETATM    2  N2  UNL     1      46.347   8.883  -0.565  1.00  0.00    -0.194 N 
ATOM      3  H2  UNL     1      46.109   8.494  -1.477  1.00  0.00     0.184 HD
HETATM    4  C2  UNL     1      45.790  10.067  -0.185  1.00  0.00     0.045 A 
HETATM    5  C3  UNL     1      46.174  10.503   1.055  1.00  0.00    -0.018 A 
HETATM    6  C4  UNL     1      47.062   9.807   1.879  1.00  0.00     0.115 A 
HETATM    7  N3  UNL     1      47.571   8.648   1.441  1.00  0.00    -0.202 N 
ATOM      8  H3  UNL     1      48.222   8.111   2.014  1.00  0.00     0.183 HD
HETATM    9  C5  UNL     1      45.593  11.804   1.538  1.00  0.00     0.042 C 
HETATM   10  C6  UNL     1      44.092  11.646   1.256  1.00  0.00     0.006 C 
HETATM   11  C7  UNL     1      43.923  11.671  -0.239  1.00  0.00     0.018 C 
HETATM   12  C8  UNL     1      44.875  10.831  -1.010  1.00  0.00     0.033 C 
HETATM   13  C9  UNL     1      45.720  11.709  -1.967  1.00  0.00     0.045 C 
HETATM   14  C10 UNL     1      46.177  10.626  -2.943  1.00  0.00     0.234 C 
HETATM   15  N4  UNL     1      45.154   9.632  -2.941  1.00  0.00    -0.070 N 
ATOM     16  H41 UNL     1      45.516   8.704  -2.724  1.00  0.00     0.277 HD
ATOM     17  H42 UNL     1      44.804   9.435  -3.879  1.00  0.00     0.277 HD
HETATM   18  C11 UNL     1      44.119  10.029  -2.052  1.00  0.00     0.200 C 
ENDROOT
BRANCH  18  19
HETATM   19  C12 UNL     1      43.292   8.947  -1.489  1.00  0.00     0.039 C 
BRANCH  19  20
HETATM   20  C13 UNL     1      41.986   8.727  -2.165  1.00  0.00    -0.013 A 
HETATM   21  C14 UNL     1      41.428   9.685  -3.147  1.00  0.00     0.005 A 
HETATM   22  C15 UNL     1      41.828   8.227  -3.527  1.00  0.00     0.005 A 
ENDBRANCH  19  20
ENDBRANCH  18  19
BRANCH   1  23
HETATM   23  N1  UNL     1      47.707   7.080  -0.185  1.00  0.00    -0.234 N 
ATOM     24  H12 UNL     1      47.953   7.013  -1.173  1.00  0.00     0.174 HD
ATOM     25  H11 UNL     1      47.839   6.317   0.478  1.00  0.00     0.174 HD
ENDBRANCH   1  23
TORSDOF 3
ENDMDL
MODEL 5
REMARK VINA RESULT: -5.613780801      1.820      4.595
REMARK  3 active torsions:
REMARK  status: ('A' for Active; 'I' for Inactive)
REMARK    1  A    between atoms: N1_1  and  C1_4 
REMARK    2  A    between atoms: C11_21  and  C12_22 
REMARK    3  A    between atoms: C12_22  and  C13_23 
ROOT
HETATM    1  C1  UNL     1      49.903  11.256  -0.751  1.00  0.00     0.675 A 
HETATM    2  N2  UNL     1      48.834  10.750  -0.122  1.00  0.00    -0.194 N 
ATOM      3  H2  UNL     1      48.721  10.922   0.877  1.00  0.00     0.184 HD
HETATM    4  C2  UNL     1      47.895  10.013  -0.778  1.00  0.00     0.045 A 
HETATM    5  C3  UNL     1      48.140   9.839  -2.113  1.00  0.00    -0.018 A 
HETATM    6  C4  UNL     1      49.254  10.367  -2.770  1.00  0.00     0.115 A 
HETATM    7  N3  UNL     1      50.138  11.083  -2.063  1.00  0.00    -0.202 N 
ATOM      8  H3  UNL     1      50.964  11.484  -2.507  1.00  0.00     0.183 HD
HETATM    9  C5  UNL     1      47.139   9.036  -2.899  1.00  0.00     0.042 C 
HETATM   10  C6  UNL     1      45.792   9.645  -2.480  1.00  0.00     0.006 C 
HETATM   11  C7  UNL     1      45.567   9.258  -1.044  1.00  0.00     0.018 C 
HETATM   12  C8  UNL     1      46.729   9.435  -0.137  1.00  0.00     0.033 C 
HETATM   13  C9  UNL     1      47.151   8.075   0.476  1.00  0.00     0.045 C 
HETATM   14  C10 UNL     1      47.937   8.590   1.681  1.00  0.00     0.234 C 
HETATM   15  N4  UNL     1      47.354   9.845   2.028  1.00  0.00    -0.070 N 
ATOM     16  H41 UNL     1      48.042  10.597   2.054  1.00  0.00     0.277 HD
ATOM     17  H42 UNL     1      47.065   9.881   3.006  1.00  0.00     0.277 HD
HETATM   18  C11 UNL     1      46.283  10.125   1.138  1.00  0.00     0.200 C 
ENDROOT
BRANCH  18  19
HETATM   19  C12 UNL     1      45.938  11.547   0.958  1.00  0.00     0.039 C 
BRANCH  19  20
HETATM   20  C13 UNL     1      44.483  11.854   0.963  1.00  0.00    -0.013 A 
HETATM   21  C14 UNL     1      43.962  13.230   1.130  1.00  0.00     0.005 A 
HETATM   22  C15 UNL     1      43.743  12.400  -0.171  1.00  0.00     0.005 A 
ENDBRANCH  19  20
ENDBRANCH  18  19
BRANCH   1  23
HETATM   23  N1  UNL     1      50.779  11.959  -0.077  1.00  0.00    -0.234 N 
ATOM     24  H12 UNL     1      50.423  12.745   0.466  1.00  0.00     0.174 HD
ATOM     25  H11 UNL     1      51.767  11.706  -0.115  1.00  0.00     0.174 HD
ENDBRANCH   1  23
TORSDOF 3
ENDMDL
