MODEL 1
REMARK VINA RESULT: -6.203073404      0.000      0.000
REMARK  2 active torsions:
REMARK  status: ('A' for Active; 'I' for Inactive)
REMARK    1  A    between atoms: C10_13  and  C11_14 
REMARK    2  A    between atoms: C11_14  and  C12_15 
ROOT
HETATM    1  C1  UNL     1      43.849   8.149  -3.305  1.00  0.00     0.022 C 
HETATM    2  C2  UNL     1      43.142   9.090  -2.370  1.00  0.00     0.110 C 
HETATM    3  C3  UNL     1      41.783   9.379  -2.884  1.00  0.00     0.223 C 
HETATM    4  O1  UNL     1      40.749   8.948  -2.324  1.00  0.00    -0.273 OA
HETATM    5  N1  UNL     1      41.693  10.185  -4.068  1.00  0.00    -0.361 N 
ATOM      6  H1  UNL     1      40.900  10.121  -4.707  1.00  0.00     0.162 HD
HETATM    7  C4  UNL     1      42.797  11.094  -4.302  1.00  0.00     0.125 C 
HETATM    8  C5  UNL     1      43.326  11.519  -2.953  1.00  0.00     0.059 C 
HETATM    9  C6  UNL     1      43.875  10.383  -2.149  1.00  0.00     0.139 C 
HETATM   10  C7  UNL     1      45.377  10.219  -2.378  1.00  0.00     0.040 C 
HETATM   11  C8  UNL     1      46.157  10.584  -1.108  1.00  0.00     0.004 C 
HETATM   12  C9  UNL     1      45.764  11.960  -0.646  1.00  0.00     0.033 C 
HETATM   13  C10 UNL     1      44.282  12.010  -0.462  1.00  0.00     0.192 C 
HETATM   14  N5  UNL     1      43.721  10.726  -0.747  1.00  0.00    -0.061 N 
ATOM     15  H51 UNL     1      44.110  10.004  -0.141  1.00  0.00     0.278 HD
ATOM     16  H52 UNL     1      42.747  10.669  -0.452  1.00  0.00     0.278 HD
ENDROOT
BRANCH  13  17
HETATM   17  C11 UNL     1      43.982  12.478   0.947  1.00  0.00     0.093 C 
BRANCH  17  18
HETATM   18  C12 UNL     1      43.674  13.927   0.891  1.00  0.00     0.046 A 
HETATM   19  C13 UNL     1      43.712  14.822   1.967  1.00  0.00     0.135 A 
HETATM   20  N2  UNL     1      43.366  16.027   1.489  1.00  0.00    -0.296 N 
HETATM   21  N3  UNL     1      43.118  15.941   0.205  1.00  0.00    -0.243 N 
ATOM     22  H2  UNL     1      43.305  16.883   2.042  1.00  0.00     0.187 HD
HETATM   23  N4  UNL     1      43.301  14.698  -0.147  1.00  0.00    -0.289 N 
ATOM     24  H3  UNL     1      42.834  16.706  -0.407  1.00  0.00     0.208 HD
ATOM     25  H4  UNL     1      43.176  14.351  -1.098  1.00  0.00     0.188 HD
ENDBRANCH  17  18
ENDBRANCH  13  17
TORSDOF 2
ENDMDL
MODEL 2
REMARK VINA RESULT: -6.055312332      1.272      1.448
REMARK  2 active torsions:
REMARK  status: ('A' for Active; 'I' for Inactive)
REMARK    1  A    between atoms: C10_13  and  C11_14 
REMARK    2  A    between atoms: C11_14  and  C12_15 
ROOT
HETATM    1  C1  UNL     1      44.435   8.620  -2.768  1.00  0.00     0.022 C 
HETATM    2  C2  UNL     1      43.780   9.811  -2.125  1.00  0.00     0.110 C 
HETATM    3  C3  UNL     1      43.061  10.601  -3.151  1.00  0.00     0.223 C 
HETATM    4  O1  UNL     1      41.810  10.654  -3.200  1.00  0.00    -0.273 OA
HETATM    5  N1  UNL     1      43.862  11.315  -4.103  1.00  0.00    -0.361 N 
ATOM      6  H1  UNL     1      43.517  11.548  -5.034  1.00  0.00     0.162 HD
HETATM    7  C4  UNL     1      45.191  11.687  -3.662  1.00  0.00     0.125 C 
HETATM    8  C5  UNL     1      45.121  11.926  -2.172  1.00  0.00     0.059 C 
HETATM    9  C6  UNL     1      44.743  10.706  -1.394  1.00  0.00     0.139 C 
HETATM   10  C7  UNL     1      45.980   9.936  -0.934  1.00  0.00     0.040 C 
HETATM   11  C8  UNL     1      46.124  10.015   0.591  1.00  0.00     0.004 C 
HETATM   12  C9  UNL     1      46.110  11.453   1.031  1.00  0.00     0.033 C 
HETATM   13  C10 UNL     1      44.867  12.107   0.523  1.00  0.00     0.192 C 
HETATM   14  N5  UNL     1      44.076  11.149  -0.184  1.00  0.00    -0.061 N 
ATOM     15  H51 UNL     1      43.820  10.362   0.412  1.00  0.00     0.278 HD
ATOM     16  H52 UNL     1      43.141  11.506  -0.380  1.00  0.00     0.278 HD
ENDROOT
BRANCH  13  17
HETATM   17  C11 UNL     1      44.129  12.724   1.693  1.00  0.00     0.093 C 
BRANCH  17  18
HETATM   18  C12 UNL     1      43.728  14.099   1.306  1.00  0.00     0.046 A 
HETATM   19  C13 UNL     1      43.570  15.188   2.172  1.00  0.00     0.135 A 
HETATM   20  N2  UNL     1      43.201  16.237   1.421  1.00  0.00    -0.296 N 
HETATM   21  N3  UNL     1      43.120  15.876   0.164  1.00  0.00    -0.243 N 
ATOM     22  H2  UNL     1      43.012  17.175   1.776  1.00  0.00     0.187 HD
HETATM   23  N4  UNL     1      43.432  14.612   0.098  1.00  0.00    -0.289 N 
ATOM     24  H3  UNL     1      42.860  16.476  -0.620  1.00  0.00     0.208 HD
ATOM     25  H4  UNL     1      43.449  14.074  -0.769  1.00  0.00     0.188 HD
ENDBRANCH  17  18
ENDBRANCH  13  17
TORSDOF 2
ENDMDL
MODEL 3
REMARK VINA RESULT: -5.790076353      1.858      2.340
REMARK  2 active torsions:
REMARK  status: ('A' for Active; 'I' for Inactive)
REMARK    1  A    between atoms: C10_13  and  C11_14 
REMARK    2  A    between atoms: C11_14  and  C12_15 
ROOT
HETATM    1  C1  UNL     1      46.264   8.555  -2.357  1.00  0.00     0.022 C 
HETATM    2  C2  UNL     1      45.260   9.617  -2.007  1.00  0.00     0.110 C 
HETATM    3  C3  UNL     1      44.762  10.263  -3.243  1.00  0.00     0.223 C 
HETATM    4  O1  UNL     1      43.594  10.097  -3.663  1.00  0.00    -0.273 OA
HETATM    5  N1  UNL     1      45.684  11.101  -3.956  1.00  0.00    -0.361 N 
ATOM      6  H1  UNL     1      45.602  11.264  -4.959  1.00  0.00     0.162 HD
HETATM    7  C4  UNL     1      46.738  11.702  -3.164  1.00  0.00     0.125 C 
HETATM    8  C5  UNL     1      46.185  11.933  -1.777  1.00  0.00     0.059 C 
HETATM    9  C6  UNL     1      45.796  10.670  -1.077  1.00  0.00     0.139 C 
HETATM   10  C7  UNL     1      46.946  10.131  -0.228  1.00  0.00     0.040 C 
HETATM   11  C8  UNL     1      46.610  10.243   1.264  1.00  0.00     0.004 C 
HETATM   12  C9  UNL     1      46.228  11.658   1.597  1.00  0.00     0.033 C 
HETATM   13  C10 UNL     1      45.105  12.083   0.707  1.00  0.00     0.192 C 
HETATM   14  N5  UNL     1      44.732  10.997  -0.145  1.00  0.00    -0.061 N 
ATOM     15  H51 UNL     1      44.443  10.181   0.393  1.00  0.00     0.278 HD
ATOM     16  H52 UNL     1      43.855  11.185  -0.629  1.00  0.00     0.278 HD
ENDROOT
BRANCH  13  17
HETATM   17  C11 UNL     1      43.958  12.568   1.568  1.00  0.00     0.093 C 
BRANCH  17  18
HETATM   18  C12 UNL     1      43.661  13.970   1.185  1.00  0.00     0.046 A 
HETATM   19  C13 UNL     1      43.588  15.066   2.054  1.00  0.00     0.135 A 
HETATM   20  N2  UNL     1      43.297  16.142   1.306  1.00  0.00    -0.296 N 
HETATM   21  N3  UNL     1      43.185  15.791   0.049  1.00  0.00    -0.243 N 
ATOM     22  H2  UNL     1      43.180  17.090   1.663  1.00  0.00     0.187 HD
HETATM   23  N4  UNL     1      43.400  14.506  -0.021  1.00  0.00    -0.289 N 
ATOM     24  H3  UNL     1      42.969  16.410  -0.733  1.00  0.00     0.208 HD
ATOM     25  H4  UNL     1      43.375  13.971  -0.889  1.00  0.00     0.188 HD
ENDBRANCH  17  18
ENDBRANCH  13  17
TORSDOF 2
ENDMDL
MODEL 4
REMARK VINA RESULT: -5.685086347      2.717      4.245
REMARK  2 active torsions:
REMARK  status: ('A' for Active; 'I' for Inactive)
REMARK    1  A    between atoms: C10_13  and  C11_14 
REMARK    2  A    between atoms: C11_14  and  C12_15 
ROOT
HETATM    1  C1  UNL     1      47.579   8.686  -1.725  1.00  0.00     0.022 C 
HETATM    2  C2  UNL     1      47.299  10.128  -1.408  1.00  0.00     0.110 C 
HETATM    3  C3  UNL     1      48.275  10.619  -0.408  1.00  0.00     0.223 C 
HETATM    4  O1  UNL     1      49.171  11.445  -0.695  1.00  0.00    -0.273 OA
HETATM    5  N1  UNL     1      48.153  10.105   0.926  1.00  0.00    -0.361 N 
ATOM      6  H1  UNL     1      48.950  10.053   1.561  1.00  0.00     0.162 HD
HETATM    7  C4  UNL     1      46.830   9.663   1.318  1.00  0.00     0.125 C 
HETATM    8  C5  UNL     1      45.830  10.523   0.581  1.00  0.00     0.059 C 
HETATM    9  C6  UNL     1      45.904  10.374  -0.905  1.00  0.00     0.139 C 
HETATM   10  C7  UNL     1      44.934   9.304  -1.403  1.00  0.00     0.040 C 
HETATM   11  C8  UNL     1      43.804   9.943  -2.219  1.00  0.00     0.004 C 
HETATM   12  C9  UNL     1      43.143  11.027  -1.414  1.00  0.00     0.033 C 
HETATM   13  C10 UNL     1      44.179  12.010  -0.975  1.00  0.00     0.192 C 
HETATM   14  N5  UNL     1      45.455  11.624  -1.492  1.00  0.00    -0.061 N 
ATOM     15  H51 UNL     1      45.448  11.578  -2.510  1.00  0.00     0.278 HD
ATOM     16  H52 UNL     1      46.146  12.363  -1.373  1.00  0.00     0.278 HD
ENDROOT
BRANCH  13  17
HETATM   17  C11 UNL     1      43.761  13.393  -1.427  1.00  0.00     0.093 C 
BRANCH  17  18
HETATM   18  C12 UNL     1      43.589  14.236  -0.219  1.00  0.00     0.046 A 
HETATM   19  C13 UNL     1      43.835  13.845   1.103  1.00  0.00     0.135 A 
HETATM   20  N2  UNL     1      43.555  14.900   1.884  1.00  0.00    -0.296 N 
HETATM   21  N3  UNL     1      43.156  15.906   1.144  1.00  0.00    -0.243 N 
ATOM     22  H2  UNL     1      43.639  14.917   2.900  1.00  0.00     0.187 HD
HETATM   23  N4  UNL     1      43.178  15.511  -0.099  1.00  0.00    -0.289 N 
ATOM     24  H3  UNL     1      42.880  16.829   1.480  1.00  0.00     0.208 HD
ATOM     25  H4  UNL     1      42.913  16.101  -0.888  1.00  0.00     0.188 HD
ENDBRANCH  17  18
ENDBRANCH  13  17
TORSDOF 2
ENDMDL
MODEL 5
REMARK VINA RESULT: -5.611802935      3.038      4.952
REMARK  2 active torsions:
REMARK  status: ('A' for Active; 'I' for Inactive)
REMARK    1  A    between atoms: C10_13  and  C11_14 
REMARK    2  A    between atoms: C11_14  and  C12_15 
ROOT
HETATM    1  C1  UNL     1      43.877  10.818  -3.990  1.00  0.00     0.022 C 
HETATM    2  C2  UNL     1      44.770  10.135  -2.993  1.00  0.00     0.110 C 
HETATM    3  C3  UNL     1      44.847   8.688  -3.298  1.00  0.00     0.223 C 
HETATM    4  O1  UNL     1      45.887   8.152  -3.744  1.00  0.00    -0.273 OA
HETATM    5  N1  UNL     1      43.666   7.909  -3.059  1.00  0.00    -0.361 N 
ATOM      6  H1  UNL     1      43.473   7.048  -3.571  1.00  0.00     0.162 HD
HETATM    7  C4  UNL     1      42.764   8.418  -2.046  1.00  0.00     0.125 C 
HETATM    8  C5  UNL     1      43.602   9.136  -1.015  1.00  0.00     0.059 C 
HETATM    9  C6  UNL     1      44.332  10.320  -1.566  1.00  0.00     0.139 C 
HETATM   10  C7  UNL     1      43.518  11.602  -1.394  1.00  0.00     0.040 C 
HETATM   11  C8  UNL     1      44.193  12.533  -0.379  1.00  0.00     0.004 C 
HETATM   12  C9  UNL     1      44.434  11.795   0.909  1.00  0.00     0.033 C 
HETATM   13  C10 UNL     1      45.228  10.562   0.624  1.00  0.00     0.192 C 
HETATM   14  N5  UNL     1      45.533  10.501  -0.772  1.00  0.00    -0.061 N 
ATOM     15  H51 UNL     1      46.063  11.317  -1.075  1.00  0.00     0.278 HD
ATOM     16  H52 UNL     1      46.227   9.781  -0.973  1.00  0.00     0.278 HD
ENDROOT
BRANCH  13  17
HETATM   17  C11 UNL     1      46.469  10.569   1.492  1.00  0.00     0.093 C 
BRANCH  17  18
HETATM   18  C12 UNL     1      47.037   9.200   1.489  1.00  0.00     0.046 A 
HETATM   19  C13 UNL     1      48.394   8.868   1.385  1.00  0.00     0.135 A 
HETATM   20  N2  UNL     1      48.475   7.529   1.421  1.00  0.00    -0.296 N 
HETATM   21  N3  UNL     1      47.276   7.015   1.538  1.00  0.00    -0.243 N 
ATOM     22  H2  UNL     1      49.341   6.992   1.366  1.00  0.00     0.187 HD
HETATM   23  N4  UNL     1      46.427   8.004   1.578  1.00  0.00    -0.289 N 
ATOM     24  H3  UNL     1      47.048   6.021   1.589  1.00  0.00     0.208 HD
ATOM     25  H4  UNL     1      45.417   7.885   1.667  1.00  0.00     0.188 HD
ENDBRANCH  17  18
ENDBRANCH  13  17
TORSDOF 2
ENDMDL
