MODEL 1
REMARK VINA RESULT: -5.403863433      0.000      0.000
REMARK  5 active torsions:
REMARK  status: ('A' for Active; 'I' for Inactive)
REMARK    1  A    between atoms: C4_4  and  O1_5 
REMARK    2  A    between atoms: C10_12  and  C11_13 
REMARK    3  A    between atoms: C14_16  and  O2_17 
REMARK    4  A    between atoms: O2_17  and  N1_18 
REMARK    5  A    between atoms: C15_21  and  O3_22 
ROOT
HETATM    1  C1  UNL     1      43.804  13.309  -0.079  1.00  0.00     0.015 C 
HETATM    2  C2  UNL     1      44.473  12.184  -0.181  1.00  0.00    -0.082 C 
HETATM    3  C3  UNL     1      45.331  11.742   0.936  1.00  0.00     0.065 C 
HETATM    4  C4  UNL     1      46.402  10.788   0.562  1.00  0.00     0.122 C 
HETATM    5  C5  UNL     1      46.245  10.126  -0.760  1.00  0.00     0.044 C 
HETATM    6  C6  UNL     1      44.807  10.008  -1.203  1.00  0.00    -0.006 C 
HETATM    7  C7  UNL     1      44.048   9.277  -0.155  1.00  0.00     0.019 C 
HETATM    8  C8  UNL     1      44.314  11.416  -1.447  1.00  0.00     0.025 C 
HETATM    9  C9  UNL     1      42.960  11.483  -2.036  1.00  0.00     0.017 C 
HETATM   10  C10 UNL     1      42.414  10.239  -2.607  1.00  0.00     0.024 C 
HETATM   11  C14 UNL     1      43.370   9.227  -3.095  1.00  0.00     0.185 C 
HETATM   12  C15 UNL     1      44.768   9.354  -2.562  1.00  0.00     0.158 C 
ENDROOT
BRANCH  11  13
HETATM   13  O2  UNL     1      42.935   7.923  -2.758  1.00  0.00    -0.279 OA
BRANCH  13  14
HETATM   14  N1  UNL     1      42.950   7.086  -3.791  1.00  0.00    -0.311 N 
ATOM     15  H12 UNL     1      42.830   7.399  -4.754  1.00  0.00     0.184 HD
ATOM     16  H11 UNL     1      43.091   6.113  -3.515  1.00  0.00     0.184 HD
ENDBRANCH  13  14
ENDBRANCH  11  13
BRANCH  10  17
HETATM   17  C11 UNL     1      41.412  10.502  -3.742  1.00  0.00    -0.016 C 
HETATM   18  C12 UNL     1      40.077   9.857  -3.420  1.00  0.00     0.010 C 
HETATM   19  C13 UNL     1      41.178  11.951  -3.974  1.00  0.00     0.010 C 
ENDBRANCH  10  17
BRANCH  12  20
HETATM   20  O3  UNL     1      45.431   8.134  -2.555  1.00  0.00    -0.392 OA
ATOM     21  H3  UNL     1      45.208   7.614  -3.319  1.00  0.00     0.210 HD
ENDBRANCH  12  20
BRANCH   4  22
HETATM   22  O1  UNL     1      47.677  11.394   0.615  1.00  0.00    -0.395 OA
ATOM     23  H1  UNL     1      48.336  10.858   0.189  1.00  0.00     0.210 HD
ENDBRANCH   4  22
TORSDOF 5
ENDMDL
MODEL 2
REMARK VINA RESULT: -5.289025686      1.511      1.810
REMARK  5 active torsions:
REMARK  status: ('A' for Active; 'I' for Inactive)
REMARK    1  A    between atoms: C4_4  and  O1_5 
REMARK    2  A    between atoms: C10_12  and  C11_13 
REMARK    3  A    between atoms: C14_16  and  O2_17 
REMARK    4  A    between atoms: O2_17  and  N1_18 
REMARK    5  A    between atoms: C15_21  and  O3_22 
ROOT
HETATM    1  C1  UNL     1      43.525  14.109  -0.268  1.00  0.00     0.015 C 
HETATM    2  C2  UNL     1      44.175  13.020   0.070  1.00  0.00    -0.082 C 
HETATM    3  C3  UNL     1      44.284  12.650   1.495  1.00  0.00     0.065 C 
HETATM    4  C4  UNL     1      45.414  11.748   1.822  1.00  0.00     0.122 C 
HETATM    5  C5  UNL     1      46.039  11.050   0.668  1.00  0.00     0.044 C 
HETATM    6  C6  UNL     1      45.093  10.845  -0.491  1.00  0.00    -0.006 C 
HETATM    7  C7  UNL     1      43.905  10.096  -0.004  1.00  0.00     0.019 C 
HETATM    8  C8  UNL     1      44.771  12.218  -1.034  1.00  0.00     0.025 C 
HETATM    9  C9  UNL     1      43.970  12.198  -2.276  1.00  0.00     0.017 C 
HETATM   10  C10 UNL     1      43.874  10.915  -2.993  1.00  0.00     0.024 C 
HETATM   11  C14 UNL     1      44.974   9.946  -2.822  1.00  0.00     0.185 C 
HETATM   12  C15 UNL     1      45.836  10.160  -1.612  1.00  0.00     0.158 C 
ENDROOT
BRANCH  11  13
HETATM   13  O2  UNL     1      44.470   8.628  -2.720  1.00  0.00    -0.279 OA
BRANCH  13  14
HETATM   14  N1  UNL     1      45.012   7.793  -3.600  1.00  0.00    -0.311 N 
ATOM     15  H12 UNL     1      45.110   6.793  -3.421  1.00  0.00     0.184 HD
ATOM     16  H11 UNL     1      45.313   8.256  -4.458  1.00  0.00     0.184 HD
ENDBRANCH  13  14
ENDBRANCH  11  13
BRANCH  10  17
HETATM   17  C11 UNL     1      43.662  11.099  -4.504  1.00  0.00    -0.016 C 
HETATM   18  C12 UNL     1      42.333  10.497  -4.922  1.00  0.00     0.010 C 
HETATM   19  C13 UNL     1      43.667  12.528  -4.912  1.00  0.00     0.010 C 
ENDBRANCH  10  17
BRANCH  12  20
HETATM   20  O3  UNL     1      46.424   8.979  -1.181  1.00  0.00    -0.392 OA
ATOM     21  H3  UNL     1      45.949   8.602  -0.449  1.00  0.00     0.210 HD
ENDBRANCH  12  20
BRANCH   4  22
HETATM   22  O1  UNL     1      46.425  12.423   2.542  1.00  0.00    -0.395 OA
ATOM     23  H1  UNL     1      47.291  12.172   2.245  1.00  0.00     0.210 HD
ENDBRANCH   4  22
TORSDOF 5
ENDMDL
MODEL 3
REMARK VINA RESULT: -5.105816752      2.694      4.848
REMARK  5 active torsions:
REMARK  status: ('A' for Active; 'I' for Inactive)
REMARK    1  A    between atoms: C4_4  and  O1_5 
REMARK    2  A    between atoms: C10_12  and  C11_13 
REMARK    3  A    between atoms: C14_16  and  O2_17 
REMARK    4  A    between atoms: O2_17  and  N1_18 
REMARK    5  A    between atoms: C15_21  and  O3_22 
ROOT
HETATM    1  C1  UNL     1      43.653  14.552   1.064  1.00  0.00     0.015 C 
HETATM    2  C2  UNL     1      43.553  14.274  -0.214  1.00  0.00    -0.082 C 
HETATM    3  C3  UNL     1      43.183  15.341  -1.165  1.00  0.00     0.065 C 
HETATM    4  C4  UNL     1      42.608  14.866  -2.446  1.00  0.00     0.122 C 
HETATM    5  C5  UNL     1      42.821  13.428  -2.756  1.00  0.00     0.044 C 
HETATM    6  C6  UNL     1      44.063  12.855  -2.117  1.00  0.00    -0.006 C 
HETATM    7  C7  UNL     1      45.232  13.666  -2.547  1.00  0.00     0.019 C 
HETATM    8  C8  UNL     1      43.825  12.868  -0.624  1.00  0.00     0.025 C 
HETATM    9  C9  UNL     1      44.885  12.198   0.157  1.00  0.00     0.017 C 
HETATM   10  C10 UNL     1      45.827  11.342  -0.585  1.00  0.00     0.024 C 
HETATM   11  C14 UNL     1      45.359  10.734  -1.845  1.00  0.00     0.185 C 
HETATM   12  C15 UNL     1      44.164  11.392  -2.471  1.00  0.00     0.158 C 
ENDROOT
BRANCH  11  13
HETATM   13  O2  UNL     1      46.381  10.758  -2.823  1.00  0.00    -0.279 OA
BRANCH  13  14
HETATM   14  N1  UNL     1      46.618   9.565  -3.359  1.00  0.00    -0.311 N 
ATOM     15  H12 UNL     1      47.522   9.097  -3.281  1.00  0.00     0.184 HD
ATOM     16  H11 UNL     1      45.811   9.178  -3.848  1.00  0.00     0.184 HD
ENDBRANCH  13  14
ENDBRANCH  11  13
BRANCH  10  17
HETATM   17  C11 UNL     1      46.399  10.208   0.282  1.00  0.00    -0.016 C 
HETATM   18  C12 UNL     1      46.435  10.632   1.738  1.00  0.00     0.010 C 
HETATM   19  C13 UNL     1      45.603   8.957   0.186  1.00  0.00     0.010 C 
ENDBRANCH  10  17
BRANCH  12  20
HETATM   20  O3  UNL     1      44.129  11.201  -3.845  1.00  0.00    -0.392 OA
ATOM     21  H3  UNL     1      44.935  11.493  -4.256  1.00  0.00     0.210 HD
ENDBRANCH  12  20
BRANCH   4  22
HETATM   22  O1  UNL     1      41.225  15.145  -2.528  1.00  0.00    -0.395 OA
ATOM     23  H1  UNL     1      40.764  14.853  -1.750  1.00  0.00     0.210 HD
ENDBRANCH   4  22
TORSDOF 5
ENDMDL
MODEL 4
REMARK VINA RESULT: -5.070069456      1.947      2.184
REMARK  5 active torsions:
REMARK  status: ('A' for Active; 'I' for Inactive)
REMARK    1  A    between atoms: C4_4  and  O1_5 
REMARK    2  A    between atoms: C10_12  and  C11_13 
REMARK    3  A    between atoms: C14_16  and  O2_17 
REMARK    4  A    between atoms: O2_17  and  N1_18 
REMARK    5  A    between atoms: C15_21  and  O3_22 
ROOT
HETATM    1  C1  UNL     1      43.774  13.815   1.129  1.00  0.00     0.015 C 
HETATM    2  C2  UNL     1      44.323  12.741   0.612  1.00  0.00    -0.082 C 
HETATM    3  C3  UNL     1      44.788  11.660   1.504  1.00  0.00     0.065 C 
HETATM    4  C4  UNL     1      45.815  10.765   0.919  1.00  0.00     0.122 C 
HETATM    5  C5  UNL     1      45.961  10.828  -0.559  1.00  0.00     0.044 C 
HETATM    6  C6  UNL     1      44.698  11.252  -1.268  1.00  0.00    -0.006 C 
HETATM    7  C7  UNL     1      43.606  10.318  -0.887  1.00  0.00     0.019 C 
HETATM    8  C8  UNL     1      44.441  12.688  -0.871  1.00  0.00     0.025 C 
HETATM    9  C9  UNL     1      43.318  13.318  -1.596  1.00  0.00     0.017 C 
HETATM   10  C10 UNL     1      42.824  12.627  -2.800  1.00  0.00     0.024 C 
HETATM   11  C14 UNL     1      43.766  11.760  -3.533  1.00  0.00     0.185 C 
HETATM   12  C15 UNL     1      44.968  11.312  -2.751  1.00  0.00     0.158 C 
ENDROOT
BRANCH  11  13
HETATM   13  O2  UNL     1      43.122  10.582  -3.976  1.00  0.00    -0.279 OA
BRANCH  13  14
HETATM   14  N1  UNL     1      43.250  10.377  -5.284  1.00  0.00    -0.311 N 
ATOM     15  H12 UNL     1      44.151  10.191  -5.725  1.00  0.00     0.184 HD
ATOM     16  H11 UNL     1      42.363  10.426  -5.786  1.00  0.00     0.184 HD
ENDBRANCH  13  14
ENDBRANCH  11  13
BRANCH  10  17
HETATM   17  C11 UNL     1      42.208  13.596  -3.823  1.00  0.00    -0.016 C 
HETATM   18  C12 UNL     1      40.766  13.214  -4.101  1.00  0.00     0.010 C 
HETATM   19  C13 UNL     1      42.229  15.007  -3.360  1.00  0.00     0.010 C 
ENDBRANCH  10  17
BRANCH  12  20
HETATM   20  O3  UNL     1      45.471  10.108  -3.223  1.00  0.00    -0.392 OA
ATOM     21  H3  UNL     1      46.043  10.240  -3.970  1.00  0.00     0.210 HD
ENDBRANCH  12  20
BRANCH   4  22
HETATM   22  O1  UNL     1      47.082  10.975   1.507  1.00  0.00    -0.395 OA
ATOM     23  H1  UNL     1      47.203  11.883   1.758  1.00  0.00     0.210 HD
ENDBRANCH   4  22
TORSDOF 5
ENDMDL
MODEL 5
REMARK VINA RESULT: -5.038648801      2.099      2.565
REMARK  5 active torsions:
REMARK  status: ('A' for Active; 'I' for Inactive)
REMARK    1  A    between atoms: C4_4  and  O1_5 
REMARK    2  A    between atoms: C10_12  and  C11_13 
REMARK    3  A    between atoms: C14_16  and  O2_17 
REMARK    4  A    between atoms: O2_17  and  N1_18 
REMARK    5  A    between atoms: C15_21  and  O3_22 
ROOT
HETATM    1  C1  UNL     1      43.601  13.701  -0.581  1.00  0.00     0.015 C 
HETATM    2  C2  UNL     1      44.343  12.724  -0.114  1.00  0.00    -0.082 C 
HETATM    3  C3  UNL     1      44.315  12.413   1.329  1.00  0.00     0.065 C 
HETATM    4  C4  UNL     1      45.503  11.688   1.836  1.00  0.00     0.122 C 
HETATM    5  C5  UNL     1      46.362  11.052   0.803  1.00  0.00     0.044 C 
HETATM    6  C6  UNL     1      45.613  10.683  -0.454  1.00  0.00    -0.006 C 
HETATM    7  C7  UNL     1      44.484   9.789  -0.086  1.00  0.00     0.019 C 
HETATM    8  C8  UNL     1      45.181  11.982  -1.096  1.00  0.00     0.025 C 
HETATM    9  C9  UNL     1      44.560  11.815  -2.426  1.00  0.00     0.017 C 
HETATM   10  C10 UNL     1      44.732  10.511  -3.090  1.00  0.00     0.024 C 
HETATM   11  C14 UNL     1      45.921   9.711  -2.738  1.00  0.00     0.185 C 
HETATM   12  C15 UNL     1      46.581  10.078  -1.440  1.00  0.00     0.158 C 
ENDROOT
BRANCH  11  13
HETATM   13  O2  UNL     1      45.591   8.339  -2.639  1.00  0.00    -0.279 OA
BRANCH  13  14
HETATM   14  N1  UNL     1      46.373   7.560  -3.380  1.00  0.00    -0.311 N 
ATOM     15  H12 UNL     1      46.721   7.842  -4.297  1.00  0.00     0.184 HD
ATOM     16  H11 UNL     1      46.581   6.664  -2.937  1.00  0.00     0.184 HD
ENDBRANCH  13  14
ENDBRANCH  11  13
BRANCH  10  17
HETATM   17  C11 UNL     1      44.696  10.621  -4.623  1.00  0.00    -0.016 C 
HETATM   18  C12 UNL     1      43.843  11.804  -5.041  1.00  0.00     0.010 C 
HETATM   19  C13 UNL     1      46.047  10.796  -5.216  1.00  0.00     0.010 C 
ENDBRANCH  10  17
BRANCH  12  20
HETATM   20  O3  UNL     1      47.262   9.004  -0.885  1.00  0.00    -0.392 OA
ATOM     21  H3  UNL     1      46.786   8.633  -0.151  1.00  0.00     0.210 HD
ENDBRANCH  12  20
BRANCH   4  22
HETATM   22  O1  UNL     1      46.311  12.518   2.646  1.00  0.00    -0.395 OA
ATOM     23  H1  UNL     1      46.547  12.088   3.458  1.00  0.00     0.210 HD
ENDBRANCH   4  22
TORSDOF 5
ENDMDL
