MODEL 1
REMARK VINA RESULT: -6.291069155      0.000      0.000
REMARK  4 active torsions:
REMARK  status: ('A' for Active; 'I' for Inactive)
REMARK    1  A    between atoms: C2_2  and  C3_3 
REMARK    2  A    between atoms: C3_3  and  C4_4 
REMARK    3  A    between atoms: C6_13  and  C7_14 
REMARK    4  A    between atoms: C8_15  and  C9_16 
ROOT
HETATM    1  C4  UNL     1      45.197  13.759   2.528  1.00  0.00     0.048 A 
HETATM    2  N1  UNL     1      44.209  14.628   2.165  1.00  0.00    -0.302 N 
ATOM      3  H1  UNL     1      44.015  15.517   2.626  1.00  0.00     0.186 HD
HETATM    4  N2  UNL     1      43.549  14.156   1.142  1.00  0.00    -0.284 N 
ATOM      5  H2  UNL     1      42.763  14.611   0.678  1.00  0.00     0.188 HD
HETATM    6  C5  UNL     1      44.080  12.971   0.805  1.00  0.00     0.134 A 
HETATM    7  N3  UNL     1      43.711  12.181  -0.156  1.00  0.00    -0.383 N 
ATOM      8  H31 UNL     1      44.115  11.281  -0.412  1.00  0.00     0.157 HD
ATOM      9  H32 UNL     1      42.937  12.398  -0.784  1.00  0.00     0.157 HD
HETATM   10  C6  UNL     1      45.142  12.674   1.667  1.00  0.00     0.086 A 
ENDROOT
BRANCH  10  11
HETATM   11  C7  UNL     1      45.978  11.502   1.649  1.00  0.00    -0.058 C 
HETATM   12  C8  UNL     1      46.678  10.518   1.636  1.00  0.00    -0.066 C 
BRANCH  12  13
HETATM   13  C9  UNL     1      47.557   9.327   1.615  1.00  0.00     0.228 C 
HETATM   14  C10 UNL     1      46.849   8.130   1.056  1.00  0.00     0.216 C 
HETATM   15  O1  UNL     1      47.012   7.147   2.052  1.00  0.00    -0.352 OA
HETATM   16  C11 UNL     1      48.132   7.576   2.757  1.00  0.00     0.158 C 
HETATM   17  C12 UNL     1      49.361   7.210   1.982  1.00  0.00     0.078 C 
HETATM   18  C13 UNL     1      48.218   6.882   4.105  1.00  0.00     0.078 C 
HETATM   19  O2  UNL     1      47.918   8.927   2.873  1.00  0.00    -0.336 OA
ENDBRANCH  12  13
ENDBRANCH  10  11
BRANCH   1  20
HETATM   20  C3  UNL     1      46.178  13.880   3.619  1.00  0.00     0.060 C 
BRANCH  20  21
HETATM   21  C2  UNL     1      45.921  15.216   4.326  1.00  0.00     0.002 C 
HETATM   22  C1  UNL     1      47.082  16.156   4.100  1.00  0.00     0.005 C 
ENDBRANCH  20  21
ENDBRANCH   1  20
TORSDOF 4
ENDMDL
MODEL 2
REMARK VINA RESULT: -6.265169878      0.981      1.090
REMARK  4 active torsions:
REMARK  status: ('A' for Active; 'I' for Inactive)
REMARK    1  A    between atoms: C2_2  and  C3_3 
REMARK    2  A    between atoms: C3_3  and  C4_4 
REMARK    3  A    between atoms: C6_13  and  C7_14 
REMARK    4  A    between atoms: C8_15  and  C9_16 
ROOT
HETATM    1  C4  UNL     1      44.986  14.576   2.907  1.00  0.00     0.048 A 
HETATM    2  N1  UNL     1      44.052  15.542   2.671  1.00  0.00    -0.302 N 
ATOM      3  H1  UNL     1      43.906  16.368   3.251  1.00  0.00     0.186 HD
HETATM    4  N2  UNL     1      43.371  15.255   1.594  1.00  0.00    -0.284 N 
ATOM      5  H2  UNL     1      42.614  15.815   1.200  1.00  0.00     0.188 HD
HETATM    6  C5  UNL     1      43.835  14.100   1.094  1.00  0.00     0.134 A 
HETATM    7  N3  UNL     1      43.426  13.474   0.034  1.00  0.00    -0.383 N 
ATOM      8  H31 UNL     1      43.779  12.596  -0.346  1.00  0.00     0.157 HD
ATOM      9  H32 UNL     1      42.669  13.819  -0.556  1.00  0.00     0.157 HD
HETATM   10  C6  UNL     1      44.874  13.626   1.903  1.00  0.00     0.086 A 
ENDROOT
BRANCH  10  11
HETATM   11  C7  UNL     1      45.641  12.422   1.721  1.00  0.00    -0.058 C 
HETATM   12  C8  UNL     1      46.285  11.411   1.569  1.00  0.00    -0.066 C 
BRANCH  12  13
HETATM   13  C9  UNL     1      47.087  10.184   1.363  1.00  0.00     0.228 C 
HETATM   14  C10 UNL     1      46.319   9.147   0.599  1.00  0.00     0.216 C 
HETATM   15  O1  UNL     1      46.391   8.003   1.418  1.00  0.00    -0.352 OA
HETATM   16  C11 UNL     1      47.517   8.232   2.204  1.00  0.00     0.158 C 
HETATM   17  C12 UNL     1      48.740   7.918   1.399  1.00  0.00     0.078 C 
HETATM   18  C13 UNL     1      47.520   7.319   3.418  1.00  0.00     0.078 C 
HETATM   19  O2  UNL     1      47.386   9.556   2.542  1.00  0.00    -0.336 OA
ENDBRANCH  12  13
ENDBRANCH  10  11
BRANCH   1  20
HETATM   20  C3  UNL     1      45.968  14.488   4.000  1.00  0.00     0.060 C 
BRANCH  20  21
HETATM   21  C2  UNL     1      46.831  15.754   3.950  1.00  0.00     0.002 C 
HETATM   22  C1  UNL     1      46.369  16.739   4.999  1.00  0.00     0.005 C 
ENDBRANCH  20  21
ENDBRANCH   1  20
TORSDOF 4
ENDMDL
MODEL 3
REMARK VINA RESULT: -6.232238100      2.244      2.978
REMARK  4 active torsions:
REMARK  status: ('A' for Active; 'I' for Inactive)
REMARK    1  A    between atoms: C2_2  and  C3_3 
REMARK    2  A    between atoms: C3_3  and  C4_4 
REMARK    3  A    between atoms: C6_13  and  C7_14 
REMARK    4  A    between atoms: C8_15  and  C9_16 
ROOT
HETATM    1  C4  UNL     1      44.452  15.248   3.113  1.00  0.00     0.048 A 
HETATM    2  N1  UNL     1      43.687  16.367   2.956  1.00  0.00    -0.302 N 
ATOM      3  H1  UNL     1      43.594  17.113   3.646  1.00  0.00     0.186 HD
HETATM    4  N2  UNL     1      43.090  16.345   1.795  1.00  0.00    -0.284 N 
ATOM      5  H2  UNL     1      42.462  17.062   1.433  1.00  0.00     0.188 HD
HETATM    6  C5  UNL     1      43.444  15.218   1.159  1.00  0.00     0.134 A 
HETATM    7  N3  UNL     1      43.068  14.820  -0.018  1.00  0.00    -0.383 N 
ATOM      8  H31 UNL     1      43.337  13.963  -0.501  1.00  0.00     0.157 HD
ATOM      9  H32 UNL     1      42.430  15.357  -0.606  1.00  0.00     0.157 HD
HETATM   10  C6  UNL     1      44.318  14.481   1.966  1.00  0.00     0.086 A 
ENDROOT
BRANCH  10  11
HETATM   11  C7  UNL     1      44.931  13.216   1.659  1.00  0.00    -0.058 C 
HETATM   12  C8  UNL     1      45.445  12.153   1.404  1.00  0.00    -0.066 C 
BRANCH  12  13
HETATM   13  C9  UNL     1      46.084  10.860   1.068  1.00  0.00     0.228 C 
HETATM   14  C10 UNL     1      47.347  11.058   0.285  1.00  0.00     0.216 C 
HETATM   15  O1  UNL     1      47.160  10.262  -0.863  1.00  0.00    -0.352 OA
HETATM   16  C11 UNL     1      46.205   9.331  -0.464  1.00  0.00     0.158 C 
HETATM   17  C12 UNL     1      46.877   8.268   0.349  1.00  0.00     0.078 C 
HETATM   18  C13 UNL     1      45.576   8.656  -1.671  1.00  0.00     0.078 C 
HETATM   19  O2  UNL     1      45.309  10.098   0.237  1.00  0.00    -0.336 OA
ENDBRANCH  12  13
ENDBRANCH  10  11
BRANCH   1  20
HETATM   20  C3  UNL     1      45.292  14.857   4.257  1.00  0.00     0.060 C 
BRANCH  20  21
HETATM   21  C2  UNL     1      46.695  15.426   4.016  1.00  0.00     0.002 C 
HETATM   22  C1  UNL     1      46.832  16.773   4.689  1.00  0.00     0.005 C 
ENDBRANCH  20  21
ENDBRANCH   1  20
TORSDOF 4
ENDMDL
MODEL 4
REMARK VINA RESULT: -5.949222495      1.924      2.524
REMARK  4 active torsions:
REMARK  status: ('A' for Active; 'I' for Inactive)
REMARK    1  A    between atoms: C2_2  and  C3_3 
REMARK    2  A    between atoms: C3_3  and  C4_4 
REMARK    3  A    between atoms: C6_13  and  C7_14 
REMARK    4  A    between atoms: C8_15  and  C9_16 
ROOT
HETATM    1  C4  UNL     1      44.353  14.972   2.473  1.00  0.00     0.048 A 
HETATM    2  N1  UNL     1      43.683  16.161   2.490  1.00  0.00    -0.302 N 
ATOM      3  H1  UNL     1      43.679  16.818   3.271  1.00  0.00     0.186 HD
HETATM    4  N2  UNL     1      43.048  16.336   1.362  1.00  0.00    -0.284 N 
ATOM      5  H2  UNL     1      42.474  17.143   1.120  1.00  0.00     0.188 HD
HETATM    6  C5  UNL     1      43.282  15.274   0.576  1.00  0.00     0.134 A 
HETATM    7  N3  UNL     1      42.834  15.062  -0.623  1.00  0.00    -0.383 N 
ATOM      8  H31 UNL     1      43.011  14.255  -1.221  1.00  0.00     0.157 HD
ATOM      9  H32 UNL     1      42.227  15.720  -1.112  1.00  0.00     0.157 HD
HETATM   10  C6  UNL     1      44.115  14.371   1.246  1.00  0.00     0.086 A 
ENDROOT
BRANCH  10  11
HETATM   11  C7  UNL     1      44.604  13.109   0.758  1.00  0.00    -0.058 C 
HETATM   12  C8  UNL     1      45.015  12.049   0.350  1.00  0.00    -0.066 C 
BRANCH  12  13
HETATM   13  C9  UNL     1      45.538  10.761  -0.160  1.00  0.00     0.228 C 
HETATM   14  C10 UNL     1      44.454   9.732  -0.272  1.00  0.00     0.216 C 
HETATM   15  O1  UNL     1      44.951   8.638   0.464  1.00  0.00    -0.352 OA
HETATM   16  C11 UNL     1      46.328   8.841   0.465  1.00  0.00     0.158 C 
HETATM   17  C12 UNL     1      46.882   8.399  -0.854  1.00  0.00     0.078 C 
HETATM   18  C13 UNL     1      46.994   8.006   1.545  1.00  0.00     0.078 C 
HETATM   19  O2  UNL     1      46.435  10.189   0.701  1.00  0.00    -0.336 OA
ENDBRANCH  12  13
ENDBRANCH  10  11
BRANCH   1  20
HETATM   20  C3  UNL     1      45.193  14.370   3.521  1.00  0.00     0.060 C 
BRANCH  20  21
HETATM   21  C2  UNL     1      45.618  15.494   4.474  1.00  0.00     0.002 C 
HETATM   22  C1  UNL     1      46.966  16.041   4.063  1.00  0.00     0.005 C 
ENDBRANCH  20  21
ENDBRANCH   1  20
TORSDOF 4
ENDMDL
MODEL 5
REMARK VINA RESULT: -5.843952644      3.534      6.392
REMARK  4 active torsions:
REMARK  status: ('A' for Active; 'I' for Inactive)
REMARK    1  A    between atoms: C2_2  and  C3_3 
REMARK    2  A    between atoms: C3_3  and  C4_4 
REMARK    3  A    between atoms: C6_13  and  C7_14 
REMARK    4  A    between atoms: C8_15  and  C9_16 
ROOT
HETATM    1  C4  UNL     1      45.021  10.253  -0.175  1.00  0.00     0.048 A 
HETATM    2  N1  UNL     1      45.534   9.124  -0.745  1.00  0.00    -0.302 N 
ATOM      3  H1  UNL     1      45.129   8.636  -1.543  1.00  0.00     0.186 HD
HETATM    4  N2  UNL     1      46.620   8.759  -0.118  1.00  0.00    -0.284 N 
ATOM      5  H2  UNL     1      47.196   7.948  -0.345  1.00  0.00     0.188 HD
HETATM    6  C5  UNL     1      46.851   9.632   0.874  1.00  0.00     0.134 A 
HETATM    7  N3  UNL     1      47.828   9.622   1.727  1.00  0.00    -0.383 N 
ATOM      8  H31 UNL     1      48.003  10.286   2.482  1.00  0.00     0.157 HD
ATOM      9  H32 UNL     1      48.558   8.909   1.726  1.00  0.00     0.157 HD
HETATM   10  C6  UNL     1      45.850  10.610   0.877  1.00  0.00     0.086 A 
ENDROOT
BRANCH  10  11
HETATM   11  C7  UNL     1      45.725  11.727   1.776  1.00  0.00    -0.058 C 
HETATM   12  C8  UNL     1      45.621  12.665   2.530  1.00  0.00    -0.066 C 
BRANCH  12  13
HETATM   13  C9  UNL     1      45.473  13.803   3.465  1.00  0.00     0.228 C 
HETATM   14  C10 UNL     1      44.750  14.950   2.826  1.00  0.00     0.216 C 
HETATM   15  O1  UNL     1      45.618  16.044   3.017  1.00  0.00    -0.352 OA
HETATM   16  C11 UNL     1      46.400  15.657   4.101  1.00  0.00     0.158 C 
HETATM   17  C12 UNL     1      45.617  15.866   5.361  1.00  0.00     0.078 C 
HETATM   18  C13 UNL     1      47.652  16.512   4.194  1.00  0.00     0.078 C 
HETATM   19  O2  UNL     1      46.680  14.343   3.820  1.00  0.00    -0.336 OA
ENDBRANCH  12  13
ENDBRANCH  10  11
BRANCH   1  20
HETATM   20  C3  UNL     1      43.816  11.011  -0.551  1.00  0.00     0.060 C 
BRANCH  20  21
HETATM   21  C2  UNL     1      44.264  12.190  -1.423  1.00  0.00     0.002 C 
HETATM   22  C1  UNL     1      43.799  13.492  -0.814  1.00  0.00     0.005 C 
ENDBRANCH  20  21
ENDBRANCH   1  20
TORSDOF 4
ENDMDL
