MODEL 1
REMARK VINA RESULT: -6.460630483      0.000      0.000
REMARK  3 active torsions:
REMARK  status: ('A' for Active; 'I' for Inactive)
REMARK    1  A    between atoms: O1_2  and  C2_3 
REMARK    2  A    between atoms: C6_7  and  C7_8 
REMARK    3  A    between atoms: N2_12  and  N3_14 
ROOT
HETATM    1  C7  UNL     1      14.642  46.415  19.133  1.00  0.00     0.155 C 
HETATM    2  N1  UNL     1      15.453  45.398  19.823  1.00  0.00    -0.214 N 
ATOM      3  H1  UNL     1      14.976  44.560  20.155  1.00  0.00     0.178 HD
HETATM    4  C8  UNL     1      16.851  45.496  20.061  1.00  0.00     0.695 C 
HETATM    5  N2  UNL     1      17.368  44.517  20.721  1.00  0.00    -0.139 N 
ATOM      6  H2  UNL     1      16.753  43.759  21.018  1.00  0.00     0.205 HD
HETATM    7  N4  UNL     1      17.748  46.530  19.668  1.00  0.00    -0.162 N 
ATOM      8  H4  UNL     1      18.659  46.554  20.125  1.00  0.00     0.187 HD
HETATM    9  C9  UNL     1      17.505  47.455  18.769  1.00  0.00     0.205 C 
HETATM   10  N5  UNL     1      18.534  48.406  18.515  1.00  0.00    -0.063 NA
HETATM   11  N6  UNL     1      16.330  47.652  17.989  1.00  0.00    -0.353 N 
HETATM   12  C10 UNL     1      16.151  48.930  17.322  1.00  0.00     0.152 C 
HETATM   13  C11 UNL     1      15.275  46.673  17.798  1.00  0.00     0.110 C 
HETATM   14  C12 UNL     1      14.291  47.145  16.759  1.00  0.00     0.035 C 
ENDROOT
BRANCH   1  15
HETATM   15  C6  UNL     1      13.264  45.930  19.058  1.00  0.00    -0.030 A 
HETATM   16  C5  UNL     1      12.938  44.880  18.236  1.00  0.00     0.009 A 
HETATM   17  C4  UNL     1      11.638  44.454  18.191  1.00  0.00     0.003 A 
HETATM   18  C3  UNL     1      10.681  45.075  18.960  1.00  0.00     0.037 A 
HETATM   19  C2  UNL     1      10.983  46.130  19.792  1.00  0.00     0.068 A 
HETATM   20  C13 UNL     1      12.297  46.544  19.824  1.00  0.00     0.046 A 
BRANCH  19  21
HETATM   21  O1  UNL     1       9.986  46.750  20.570  1.00  0.00    -0.356 OA
HETATM   22  C1  UNL     1      10.319  47.736  21.522  1.00  0.00     0.210 C 
ENDBRANCH  19  21
ENDBRANCH   1  15
BRANCH   5  23
HETATM   23  N3  UNL     1      18.712  44.434  21.049  1.00  0.00    -0.331 N 
ATOM     24  H32 UNL     1      19.382  44.728  20.338  1.00  0.00     0.177 HD
ATOM     25  H31 UNL     1      19.056  44.100  21.950  1.00  0.00     0.177 HD
ENDBRANCH   5  23
TORSDOF 3
ENDMDL
MODEL 2
REMARK VINA RESULT: -5.711560161      4.073      5.155
REMARK  3 active torsions:
REMARK  status: ('A' for Active; 'I' for Inactive)
REMARK    1  A    between atoms: O1_2  and  C2_3 
REMARK    2  A    between atoms: C6_7  and  C7_8 
REMARK    3  A    between atoms: N2_12  and  N3_14 
ROOT
HETATM    1  C7  UNL     1      13.328  44.475  16.399  1.00  0.00     0.155 C 
HETATM    2  N1  UNL     1      12.676  43.240  15.934  1.00  0.00    -0.214 N 
ATOM      3  H1  UNL     1      11.881  42.895  16.472  1.00  0.00     0.178 HD
HETATM    4  C8  UNL     1      13.071  42.493  14.791  1.00  0.00     0.695 C 
HETATM    5  N2  UNL     1      12.396  41.415  14.577  1.00  0.00    -0.139 N 
ATOM      6  H2  UNL     1      11.645  41.180  15.227  1.00  0.00     0.205 HD
HETATM    7  N4  UNL     1      14.109  42.778  13.859  1.00  0.00    -0.162 N 
ATOM      8  H4  UNL     1      14.406  42.019  13.246  1.00  0.00     0.187 HD
HETATM    9  C9  UNL     1      14.718  43.932  13.720  1.00  0.00     0.205 C 
HETATM   10  N5  UNL     1      15.735  44.019  12.726  1.00  0.00    -0.063 NA
HETATM   11  N6  UNL     1      14.504  45.144  14.435  1.00  0.00    -0.353 N 
HETATM   12  C10 UNL     1      15.518  46.181  14.357  1.00  0.00     0.152 C 
HETATM   13  C11 UNL     1      13.342  45.442  15.253  1.00  0.00     0.110 C 
HETATM   14  C12 UNL     1      13.357  46.883  15.696  1.00  0.00     0.035 C 
ENDROOT
BRANCH   1  15
HETATM   15  C6  UNL     1      12.610  44.957  17.579  1.00  0.00    -0.030 A 
HETATM   16  C5  UNL     1      13.298  45.429  18.669  1.00  0.00     0.009 A 
HETATM   17  C4  UNL     1      12.593  45.871  19.756  1.00  0.00     0.003 A 
HETATM   18  C3  UNL     1      11.217  45.837  19.746  1.00  0.00     0.037 A 
HETATM   19  C2  UNL     1      10.504  45.368  18.665  1.00  0.00     0.068 A 
HETATM   20  C13 UNL     1      11.232  44.929  17.582  1.00  0.00     0.046 A 
BRANCH  19  21
HETATM   21  O1  UNL     1       9.097  45.344  18.679  1.00  0.00    -0.356 OA
HETATM   22  C1  UNL     1       8.377  45.714  19.834  1.00  0.00     0.210 C 
ENDBRANCH  19  21
ENDBRANCH   1  15
BRANCH   5  23
HETATM   23  N3  UNL     1      12.633  40.557  13.514  1.00  0.00    -0.331 N 
ATOM     24  H32 UNL     1      13.532  40.643  13.039  1.00  0.00     0.177 HD
ATOM     25  H31 UNL     1      11.964  39.858  13.191  1.00  0.00     0.177 HD
ENDBRANCH   5  23
TORSDOF 3
ENDMDL
MODEL 3
REMARK VINA RESULT: -5.681644256      4.822      6.742
REMARK  3 active torsions:
REMARK  status: ('A' for Active; 'I' for Inactive)
REMARK    1  A    between atoms: O1_2  and  C2_3 
REMARK    2  A    between atoms: C6_7  and  C7_8 
REMARK    3  A    between atoms: N2_12  and  N3_14 
ROOT
HETATM    1  C7  UNL     1      10.491  45.417  16.687  1.00  0.00     0.155 C 
HETATM    2  N1  UNL     1       9.278  45.465  17.520  1.00  0.00    -0.214 N 
ATOM      3  H1  UNL     1       8.390  45.234  17.075  1.00  0.00     0.178 HD
HETATM    4  C8  UNL     1       9.251  45.811  18.899  1.00  0.00     0.695 C 
HETATM    5  N2  UNL     1       8.080  45.836  19.438  1.00  0.00    -0.139 N 
ATOM      6  H2  UNL     1       7.275  45.613  18.852  1.00  0.00     0.205 HD
HETATM    7  N4  UNL     1      10.343  46.132  19.755  1.00  0.00    -0.162 N 
ATOM      8  H4  UNL     1      10.121  46.583  20.642  1.00  0.00     0.187 HD
HETATM    9  C9  UNL     1      11.609  45.897  19.503  1.00  0.00     0.205 C 
HETATM   10  N5  UNL     1      12.557  46.294  20.489  1.00  0.00    -0.063 NA
HETATM   11  N6  UNL     1      12.190  45.287  18.355  1.00  0.00    -0.353 N 
HETATM   12  C10 UNL     1      13.618  45.446  18.137  1.00  0.00     0.152 C 
HETATM   13  C11 UNL     1      11.472  44.507  17.365  1.00  0.00     0.110 C 
HETATM   14  C12 UNL     1      12.430  43.851  16.404  1.00  0.00     0.035 C 
ENDROOT
BRANCH   1  15
HETATM   15  C6  UNL     1      10.107  44.989  15.342  1.00  0.00    -0.030 A 
HETATM   16  C5  UNL     1      10.623  45.617  14.237  1.00  0.00     0.009 A 
HETATM   17  C4  UNL     1      10.242  45.190  12.993  1.00  0.00     0.003 A 
HETATM   18  C3  UNL     1       9.353  44.146  12.866  1.00  0.00     0.037 A 
HETATM   19  C2  UNL     1       8.821  43.500  13.959  1.00  0.00     0.068 A 
HETATM   20  C13 UNL     1       9.219  43.945  15.201  1.00  0.00     0.046 A 
BRANCH  19  21
HETATM   21  O1  UNL     1       7.914  42.435  13.803  1.00  0.00    -0.356 OA
HETATM   22  C1  UNL     1       6.665  42.445  14.458  1.00  0.00     0.210 C 
ENDBRANCH  19  21
ENDBRANCH   1  15
BRANCH   5  23
HETATM   23  N3  UNL     1       7.853  46.151  20.769  1.00  0.00    -0.331 N 
ATOM     24  H32 UNL     1       8.644  46.511  21.303  1.00  0.00     0.177 HD
ATOM     25  H31 UNL     1       6.949  46.041  21.230  1.00  0.00     0.177 HD
ENDBRANCH   5  23
TORSDOF 3
ENDMDL
MODEL 4
REMARK VINA RESULT: -5.642698647      3.995      4.970
REMARK  3 active torsions:
REMARK  status: ('A' for Active; 'I' for Inactive)
REMARK    1  A    between atoms: O1_2  and  C2_3 
REMARK    2  A    between atoms: C6_7  and  C7_8 
REMARK    3  A    between atoms: N2_12  and  N3_14 
ROOT
HETATM    1  C7  UNL     1      13.067  44.435  16.297  1.00  0.00     0.155 C 
HETATM    2  N1  UNL     1      12.616  43.152  15.733  1.00  0.00    -0.214 N 
ATOM      3  H1  UNL     1      11.745  42.761  16.089  1.00  0.00     0.178 HD
HETATM    4  C8  UNL     1      13.305  42.418  14.730  1.00  0.00     0.695 C 
HETATM    5  N2  UNL     1      12.766  41.294  14.401  1.00  0.00    -0.139 N 
ATOM      6  H2  UNL     1      11.905  41.017  14.873  1.00  0.00     0.205 HD
HETATM    7  N4  UNL     1      14.506  42.761  14.046  1.00  0.00    -0.162 N 
ATOM      8  H4  UNL     1      14.980  42.015  13.537  1.00  0.00     0.187 HD
HETATM    9  C9  UNL     1      15.056  43.951  14.012  1.00  0.00     0.205 C 
HETATM   10  N5  UNL     1      16.263  44.094  13.270  1.00  0.00    -0.063 NA
HETATM   11  N6  UNL     1      14.610  45.155  14.627  1.00  0.00    -0.353 N 
HETATM   12  C10 UNL     1      15.548  46.258  14.747  1.00  0.00     0.152 C 
HETATM   13  C11 UNL     1      13.277  45.385  15.155  1.00  0.00     0.110 C 
HETATM   14  C12 UNL     1      13.100  46.829  15.549  1.00  0.00     0.035 C 
ENDROOT
BRANCH   1  15
HETATM   15  C6  UNL     1      12.073  44.883  17.272  1.00  0.00    -0.030 A 
HETATM   16  C5  UNL     1      10.732  44.775  17.001  1.00  0.00     0.009 A 
HETATM   17  C4  UNL     1       9.830  45.204  17.937  1.00  0.00     0.003 A 
HETATM   18  C3  UNL     1      10.272  45.735  19.127  1.00  0.00     0.037 A 
HETATM   19  C2  UNL     1      11.611  45.854  19.423  1.00  0.00     0.068 A 
HETATM   20  C13 UNL     1      12.502  45.416  18.468  1.00  0.00     0.046 A 
BRANCH  19  21
HETATM   21  O1  UNL     1      12.039  46.400  20.648  1.00  0.00    -0.356 OA
HETATM   22  C1  UNL     1      11.237  47.326  21.348  1.00  0.00     0.210 C 
ENDBRANCH  19  21
ENDBRANCH   1  15
BRANCH   5  23
HETATM   23  N3  UNL     1      13.290  40.439  13.444  1.00  0.00    -0.331 N 
ATOM     24  H32 UNL     1      14.092  39.872  13.716  1.00  0.00     0.177 HD
ATOM     25  H31 UNL     1      12.918  40.353  12.497  1.00  0.00     0.177 HD
ENDBRANCH   5  23
TORSDOF 3
ENDMDL
MODEL 5
REMARK VINA RESULT: -5.613014525      5.956      7.646
REMARK  3 active torsions:
REMARK  status: ('A' for Active; 'I' for Inactive)
REMARK    1  A    between atoms: O1_2  and  C2_3 
REMARK    2  A    between atoms: C6_7  and  C7_8 
REMARK    3  A    between atoms: N2_12  and  N3_14 
ROOT
HETATM    1  C7  UNL     1      10.574  44.546  15.133  1.00  0.00     0.155 C 
HETATM    2  N1  UNL     1       9.171  44.100  15.142  1.00  0.00    -0.214 N 
ATOM      3  H1  UNL     1       8.752  43.882  16.046  1.00  0.00     0.178 HD
HETATM    4  C8  UNL     1       8.357  43.951  13.986  1.00  0.00     0.695 C 
HETATM    5  N2  UNL     1       7.166  43.507  14.204  1.00  0.00    -0.139 N 
ATOM      6  H2  UNL     1       6.899  43.299  15.166  1.00  0.00     0.205 HD
HETATM    7  N4  UNL     1       8.685  44.226  12.628  1.00  0.00    -0.162 N 
ATOM      8  H4  UNL     1       8.070  43.839  11.913  1.00  0.00     0.187 HD
HETATM    9  C9  UNL     1       9.710  44.934  12.216  1.00  0.00     0.205 C 
HETATM   10  N5  UNL     1       9.869  45.097  10.809  1.00  0.00    -0.063 NA
HETATM   11  N6  UNL     1      10.714  45.582  12.989  1.00  0.00    -0.353 N 
HETATM   12  C10 UNL     1      11.933  46.007  12.323  1.00  0.00     0.152 C 
HETATM   13  C11 UNL     1      10.630  45.860  14.412  1.00  0.00     0.110 C 
HETATM   14  C12 UNL     1      11.778  46.729  14.855  1.00  0.00     0.035 C 
ENDROOT
BRANCH   1  15
HETATM   15  C6  UNL     1      11.047  44.602  16.516  1.00  0.00    -0.030 A 
HETATM   16  C5  UNL     1      12.256  44.053  16.862  1.00  0.00     0.009 A 
HETATM   17  C4  UNL     1      12.667  44.123  18.166  1.00  0.00     0.003 A 
HETATM   18  C3  UNL     1      11.871  44.737  19.107  1.00  0.00     0.037 A 
HETATM   19  C2  UNL     1      10.655  45.297  18.785  1.00  0.00     0.068 A 
HETATM   20  C13 UNL     1      10.261  45.215  17.467  1.00  0.00     0.046 A 
BRANCH  19  21
HETATM   21  O1  UNL     1       9.859  45.919  19.765  1.00  0.00    -0.356 OA
HETATM   22  C1  UNL     1       8.464  45.716  19.802  1.00  0.00     0.210 C 
ENDBRANCH  19  21
ENDBRANCH   1  15
BRANCH   5  23
HETATM   23  N3  UNL     1       6.229  43.297  13.205  1.00  0.00    -0.331 N 
ATOM     24  H32 UNL     1       6.113  42.340  12.871  1.00  0.00     0.177 HD
ATOM     25  H31 UNL     1       5.662  44.039  12.795  1.00  0.00     0.177 HD
ENDBRANCH   5  23
TORSDOF 3
ENDMDL
