MODEL 1
REMARK VINA RESULT: -6.915838905      0.000      0.000
REMARK  3 active torsions:
REMARK  status: ('A' for Active; 'I' for Inactive)
REMARK    1  A    between atoms: C4_11  and  N5_12 
REMARK    2  A    between atoms: C5_18  and  N8_19 
REMARK    3  A    between atoms: C6_21  and  C7_22 
ROOT
HETATM    1  N1  UNL     1      13.582  48.371  15.676  1.00  0.00    -0.190 NA
HETATM    2  C1  UNL     1      14.332  48.065  16.496  1.00  0.00     0.123 C 
HETATM    3  C2  UNL     1      15.282  47.666  17.506  1.00  0.00     0.175 A 
HETATM    4  N2  UNL     1      16.343  48.410  17.740  1.00  0.00    -0.273 N 
ATOM      5  H2  UNL     1      16.477  49.264  17.198  1.00  0.00     0.188 HD
HETATM    6  N3  UNL     1      17.226  48.092  18.638  1.00  0.00    -0.129 N 
ATOM      7  H3  UNL     1      18.039  48.688  18.796  1.00  0.00     0.205 HD
HETATM    8  C3  UNL     1      17.058  46.979  19.352  1.00  0.00     0.735 A 
HETATM    9  N4  UNL     1      17.802  46.413  20.335  1.00  0.00    -0.018 N 
ATOM     10  H4  UNL     1      18.675  46.786  20.707  1.00  0.00     0.203 HD
HETATM   11  C4  UNL     1      17.214  45.307  20.730  1.00  0.00     0.706 A 
HETATM   12  N6  UNL     1      16.081  45.153  19.998  1.00  0.00    -0.109 N 
ATOM     13  H6  UNL     1      15.414  44.385  20.078  1.00  0.00     0.207 HD
HETATM   14  N7  UNL     1      15.996  46.172  19.167  1.00  0.00    -0.050 N 
HETATM   15  C5  UNL     1      15.051  46.465  18.238  1.00  0.00     0.185 A 
ENDROOT
BRANCH  15  16
HETATM   16  N8  UNL     1      14.029  45.841  17.944  1.00  0.00    -0.347 N 
HETATM   17  C6  UNL     1      13.125  45.002  18.506  1.00  0.00     0.101 C 
ATOM     18  H8  UNL     1      13.787  46.010  16.968  1.00  0.00     0.167 HD
BRANCH  17  19
HETATM   19  C7  UNL     1      12.016  45.654  19.273  1.00  0.00    -0.021 A 
HETATM   20  C8  UNL     1      12.196  46.538  20.289  1.00  0.00     0.013 A 
HETATM   21  C9  UNL     1      11.129  47.102  20.954  1.00  0.00     0.001 A 
HETATM   22  C10 UNL     1       9.841  46.769  20.587  1.00  0.00     0.000 A 
HETATM   23  C11 UNL     1       9.654  45.880  19.563  1.00  0.00     0.001 A 
HETATM   24  C12 UNL     1      10.731  45.334  18.918  1.00  0.00     0.013 A 
ENDBRANCH  17  19
ENDBRANCH  15  16
BRANCH  11  25
HETATM   25  N5  UNL     1      17.568  44.461  21.633  1.00  0.00    -0.233 N 
ATOM     26  H52 UNL     1      18.429  44.566  22.169  1.00  0.00     0.174 HD
ATOM     27  H51 UNL     1      17.102  43.611  21.952  1.00  0.00     0.174 HD
ENDBRANCH  11  25
TORSDOF 3
ENDMDL
MODEL 2
REMARK VINA RESULT: -6.811175695      0.117      1.057
REMARK  3 active torsions:
REMARK  status: ('A' for Active; 'I' for Inactive)
REMARK    1  A    between atoms: C4_11  and  N5_12 
REMARK    2  A    between atoms: C5_18  and  N8_19 
REMARK    3  A    between atoms: C6_21  and  C7_22 
ROOT
HETATM    1  N1  UNL     1      13.617  48.463  15.657  1.00  0.00    -0.190 NA
HETATM    2  C1  UNL     1      14.350  48.138  16.486  1.00  0.00     0.123 C 
HETATM    3  C2  UNL     1      15.278  47.718  17.507  1.00  0.00     0.175 A 
HETATM    4  N2  UNL     1      16.322  48.467  17.795  1.00  0.00    -0.273 N 
ATOM      5  H2  UNL     1      16.458  49.341  17.286  1.00  0.00     0.188 HD
HETATM    6  N3  UNL     1      17.185  48.131  18.706  1.00  0.00    -0.129 N 
ATOM      7  H3  UNL     1      17.985  48.731  18.906  1.00  0.00     0.205 HD
HETATM    8  C3  UNL     1      17.014  46.992  19.377  1.00  0.00     0.735 A 
HETATM    9  N4  UNL     1      17.739  46.403  20.360  1.00  0.00    -0.018 N 
ATOM     10  H4  UNL     1      18.597  46.774  20.768  1.00  0.00     0.203 HD
HETATM   11  C4  UNL     1      17.157  45.276  20.701  1.00  0.00     0.706 A 
HETATM   12  N6  UNL     1      16.045  45.132  19.934  1.00  0.00    -0.109 N 
ATOM     13  H6  UNL     1      15.387  44.353  19.970  1.00  0.00     0.207 HD
HETATM   14  N7  UNL     1      15.969  46.178  19.136  1.00  0.00    -0.050 N 
HETATM   15  C5  UNL     1      15.045  46.490  18.192  1.00  0.00     0.185 A 
ENDROOT
BRANCH  15  16
HETATM   16  N8  UNL     1      14.040  45.863  17.849  1.00  0.00    -0.347 N 
HETATM   17  C6  UNL     1      13.139  44.986  18.355  1.00  0.00     0.101 C 
ATOM     18  H8  UNL     1      13.815  46.070  16.876  1.00  0.00     0.167 HD
BRANCH  17  19
HETATM   19  C7  UNL     1      12.003  45.586  19.125  1.00  0.00    -0.021 A 
HETATM   20  C8  UNL     1      10.690  45.328  18.890  1.00  0.00     0.013 A 
HETATM   21  C9  UNL     1       9.692  45.915  19.639  1.00  0.00     0.001 A 
HETATM   22  C10 UNL     1      10.024  46.788  20.655  1.00  0.00     0.000 A 
HETATM   23  C11 UNL     1      11.346  47.051  20.896  1.00  0.00     0.001 A 
HETATM   24  C12 UNL     1      12.317  46.454  20.139  1.00  0.00     0.013 A 
ENDBRANCH  17  19
ENDBRANCH  15  16
BRANCH  11  25
HETATM   25  N5  UNL     1      17.498  44.404  21.584  1.00  0.00    -0.233 N 
ATOM     26  H52 UNL     1      17.913  44.669  22.477  1.00  0.00     0.174 HD
ATOM     27  H51 UNL     1      17.426  43.386  21.561  1.00  0.00     0.174 HD
ENDBRANCH  11  25
TORSDOF 3
ENDMDL
MODEL 3
REMARK VINA RESULT: -6.769313587      1.094      1.813
REMARK  3 active torsions:
REMARK  status: ('A' for Active; 'I' for Inactive)
REMARK    1  A    between atoms: C4_11  and  N5_12 
REMARK    2  A    between atoms: C5_18  and  N8_19 
REMARK    3  A    between atoms: C6_21  and  C7_22 
ROOT
HETATM    1  N1  UNL     1      11.960  46.841  14.744  1.00  0.00    -0.190 NA
HETATM    2  C1  UNL     1      12.868  46.963  15.445  1.00  0.00     0.123 C 
HETATM    3  C2  UNL     1      14.013  47.096  16.311  1.00  0.00     0.175 A 
HETATM    4  N2  UNL     1      14.971  47.947  16.007  1.00  0.00    -0.273 N 
ATOM      5  H2  UNL     1      14.886  48.503  15.156  1.00  0.00     0.188 HD
HETATM    6  N3  UNL     1      16.022  48.102  16.755  1.00  0.00    -0.129 N 
ATOM      7  H3  UNL     1      16.748  48.769  16.492  1.00  0.00     0.205 HD
HETATM    8  C3  UNL     1      16.141  47.381  17.869  1.00  0.00     0.735 A 
HETATM    9  N4  UNL     1      17.107  47.336  18.820  1.00  0.00    -0.018 N 
ATOM     10  H4  UNL     1      17.961  47.895  18.825  1.00  0.00     0.203 HD
HETATM   11  C4  UNL     1      16.765  46.456  19.733  1.00  0.00     0.706 A 
HETATM   12  N6  UNL     1      15.569  45.925  19.373  1.00  0.00    -0.109 N 
ATOM     13  H6  UNL     1      15.048  45.214  19.886  1.00  0.00     0.207 HD
HETATM   14  N7  UNL     1      15.200  46.493  18.242  1.00  0.00    -0.050 N 
HETATM   15  C5  UNL     1      14.088  46.299  17.490  1.00  0.00     0.185 A 
ENDROOT
BRANCH  15  16
HETATM   16  N8  UNL     1      13.139  45.534  17.685  1.00  0.00    -0.347 N 
HETATM   17  C6  UNL     1      12.526  44.877  18.698  1.00  0.00     0.101 C 
ATOM     18  H8  UNL     1      12.668  45.332  16.803  1.00  0.00     0.167 HD
BRANCH  17  19
HETATM   19  C7  UNL     1      11.518  45.667  19.476  1.00  0.00    -0.021 A 
HETATM   20  C8  UNL     1      10.173  45.582  19.305  1.00  0.00     0.013 A 
HETATM   21  C9  UNL     1       9.300  46.340  20.056  1.00  0.00     0.001 A 
HETATM   22  C10 UNL     1       9.794  47.208  21.009  1.00  0.00     0.000 A 
HETATM   23  C11 UNL     1      11.149  47.296  21.185  1.00  0.00     0.001 A 
HETATM   24  C12 UNL     1      11.994  46.533  20.426  1.00  0.00     0.013 A 
ENDBRANCH  17  19
ENDBRANCH  15  16
BRANCH  11  25
HETATM   25  N5  UNL     1      17.382  46.094  20.803  1.00  0.00    -0.233 N 
ATOM     26  H52 UNL     1      18.104  45.374  20.797  1.00  0.00     0.174 HD
ATOM     27  H51 UNL     1      17.277  46.425  21.762  1.00  0.00     0.174 HD
ENDBRANCH  11  25
TORSDOF 3
ENDMDL
MODEL 4
REMARK VINA RESULT: -6.739901751      1.036      1.443
REMARK  3 active torsions:
REMARK  status: ('A' for Active; 'I' for Inactive)
REMARK    1  A    between atoms: C4_11  and  N5_12 
REMARK    2  A    between atoms: C5_18  and  N8_19 
REMARK    3  A    between atoms: C6_21  and  C7_22 
ROOT
HETATM    1  N1  UNL     1      12.040  46.882  14.768  1.00  0.00    -0.190 NA
HETATM    2  C1  UNL     1      12.952  47.011  15.462  1.00  0.00     0.123 C 
HETATM    3  C2  UNL     1      14.103  47.151  16.319  1.00  0.00     0.175 A 
HETATM    4  N2  UNL     1      15.057  48.004  16.005  1.00  0.00    -0.273 N 
ATOM      5  H2  UNL     1      14.963  48.556  15.152  1.00  0.00     0.188 HD
HETATM    6  N3  UNL     1      16.111  48.166  16.745  1.00  0.00    -0.129 N 
ATOM      7  H3  UNL     1      16.834  48.834  16.475  1.00  0.00     0.205 HD
HETATM    8  C3  UNL     1      16.240  47.451  17.863  1.00  0.00     0.735 A 
HETATM    9  N4  UNL     1      17.213  47.414  18.807  1.00  0.00    -0.018 N 
ATOM     10  H4  UNL     1      18.064  47.975  18.804  1.00  0.00     0.203 HD
HETATM   11  C4  UNL     1      16.880  46.537  19.726  1.00  0.00     0.706 A 
HETATM   12  N6  UNL     1      15.683  46.000  19.376  1.00  0.00    -0.109 N 
ATOM     13  H6  UNL     1      15.168  45.289  19.896  1.00  0.00     0.207 HD
HETATM   14  N7  UNL     1      15.304  46.562  18.246  1.00  0.00    -0.050 N 
HETATM   15  C5  UNL     1      14.188  46.360  17.502  1.00  0.00     0.185 A 
ENDROOT
BRANCH  15  16
HETATM   16  N8  UNL     1      13.244  45.593  17.706  1.00  0.00    -0.347 N 
HETATM   17  C6  UNL     1      12.642  44.934  18.726  1.00  0.00     0.101 C 
ATOM     18  H8  UNL     1      12.764  45.390  16.829  1.00  0.00     0.167 HD
BRANCH  17  19
HETATM   19  C7  UNL     1      11.641  45.722  19.514  1.00  0.00    -0.021 A 
HETATM   20  C8  UNL     1      11.958  46.620  20.483  1.00  0.00     0.013 A 
HETATM   21  C9  UNL     1      10.985  47.313  21.171  1.00  0.00     0.001 A 
HETATM   22  C10 UNL     1       9.654  47.097  20.877  1.00  0.00     0.000 A 
HETATM   23  C11 UNL     1       9.330  46.194  19.900  1.00  0.00     0.001 A 
HETATM   24  C12 UNL     1      10.315  45.519  19.231  1.00  0.00     0.013 A 
ENDBRANCH  17  19
ENDBRANCH  15  16
BRANCH  11  25
HETATM   25  N5  UNL     1      17.505  46.182  20.794  1.00  0.00    -0.233 N 
ATOM     26  H52 UNL     1      18.522  46.125  20.835  1.00  0.00     0.174 HD
ATOM     27  H51 UNL     1      17.139  45.918  21.709  1.00  0.00     0.174 HD
ENDBRANCH  11  25
TORSDOF 3
ENDMDL
MODEL 5
REMARK VINA RESULT: -6.614321398      1.683      2.465
REMARK  3 active torsions:
REMARK  status: ('A' for Active; 'I' for Inactive)
REMARK    1  A    between atoms: C4_11  and  N5_12 
REMARK    2  A    between atoms: C5_18  and  N8_19 
REMARK    3  A    between atoms: C6_21  and  C7_22 
ROOT
HETATM    1  N1  UNL     1      11.500  45.616  15.634  1.00  0.00    -0.190 NA
HETATM    2  C1  UNL     1      12.454  46.204  15.907  1.00  0.00     0.123 C 
HETATM    3  C2  UNL     1      13.661  46.921  16.239  1.00  0.00     0.175 A 
HETATM    4  N2  UNL     1      14.096  47.878  15.445  1.00  0.00    -0.273 N 
ATOM      5  H2  UNL     1      13.567  48.097  14.601  1.00  0.00     0.188 HD
HETATM    6  N3  UNL     1      15.177  48.551  15.701  1.00  0.00    -0.129 N 
ATOM      7  H3  UNL     1      15.489  49.286  15.066  1.00  0.00     0.205 HD
HETATM    8  C3  UNL     1      15.873  48.271  16.803  1.00  0.00     0.735 A 
HETATM    9  N4  UNL     1      17.013  48.801  17.311  1.00  0.00    -0.018 N 
ATOM     10  H4  UNL     1      17.555  49.557  16.892  1.00  0.00     0.203 HD
HETATM   11  C4  UNL     1      17.306  48.183  18.432  1.00  0.00     0.706 A 
HETATM   12  N6  UNL     1      16.350  47.244  18.653  1.00  0.00    -0.109 N 
ATOM     13  H6  UNL     1      16.308  46.605  19.447  1.00  0.00     0.207 HD
HETATM   14  N7  UNL     1      15.487  47.307  17.659  1.00  0.00    -0.050 N 
HETATM   15  C5  UNL     1      14.366  46.579  17.430  1.00  0.00     0.185 A 
ENDROOT
BRANCH  15  16
HETATM   16  N8  UNL     1      13.876  45.670  18.104  1.00  0.00    -0.347 N 
HETATM   17  C6  UNL     1      13.488  45.413  19.377  1.00  0.00     0.101 C 
ATOM     18  H8  UNL     1      13.710  44.852  17.518  1.00  0.00     0.167 HD
BRANCH  17  19
HETATM   19  C7  UNL     1      12.113  45.878  19.748  1.00  0.00    -0.021 A 
HETATM   20  C8  UNL     1      11.847  46.834  20.676  1.00  0.00     0.013 A 
HETATM   21  C9  UNL     1      10.555  47.216  20.970  1.00  0.00     0.001 A 
HETATM   22  C10 UNL     1       9.499  46.619  20.312  1.00  0.00     0.000 A 
HETATM   23  C11 UNL     1       9.762  45.655  19.375  1.00  0.00     0.001 A 
HETATM   24  C12 UNL     1      11.054  45.295  19.102  1.00  0.00     0.013 A 
ENDBRANCH  17  19
ENDBRANCH  15  16
BRANCH  11  25
HETATM   25  N5  UNL     1      18.293  48.360  19.240  1.00  0.00    -0.233 N 
ATOM     26  H52 UNL     1      18.799  49.244  19.293  1.00  0.00     0.174 HD
ATOM     27  H51 UNL     1      18.711  47.718  19.913  1.00  0.00     0.174 HD
ENDBRANCH  11  25
TORSDOF 3
ENDMDL
