MODEL 1
REMARK VINA RESULT: -6.123526103      0.000      0.000
REMARK  3 active torsions:
REMARK  status: ('A' for Active; 'I' for Inactive)
REMARK    1  A    between atoms: N1_2  and  C2_4 
REMARK    2  A    between atoms: C3_7  and  N3_8 
REMARK    3  A    between atoms: C8_15  and  N5_16 
ROOT
HETATM    1  C2  UNL     1      12.649  43.516  15.497  1.00  0.00     0.680 A 
HETATM    2  N2  UNL     1      11.607  43.996  14.761  1.00  0.00    -0.175 N 
ATOM      3  H2  UNL     1      11.580  43.866  13.750  1.00  0.00     0.186 HD
HETATM    4  C3  UNL     1      10.633  44.634  15.387  1.00  0.00     0.145 A 
HETATM    5  C7  UNL     1      10.676  44.805  16.738  1.00  0.00     0.100 A 
HETATM    6  C8  UNL     1      11.739  44.315  17.487  1.00  0.00     0.126 A 
HETATM    7  N8  UNL     1      12.722  43.669  16.849  1.00  0.00    -0.177 N 
ATOM      8  H8  UNL     1      13.516  43.296  17.369  1.00  0.00     0.186 HD
ENDROOT
BRANCH   6   9
HETATM    9  N5  UNL     1      11.680  44.518  18.759  1.00  0.00    -0.327 N 
HETATM   10  C9  UNL     1      10.965  45.417  19.450  1.00  0.00     0.123 A 
HETATM   11  C10 UNL     1      10.258  46.306  20.133  1.00  0.00     0.075 A 
HETATM   12  N7  UNL     1      12.358  46.117  20.064  1.00  0.00    -0.285 N 
HETATM   13  C11 UNL     1      10.748  47.229  20.889  1.00  0.00     0.025 A 
HETATM   14  C12 UNL     1      10.096  48.290  21.717  1.00  0.00     0.070 C 
HETATM   15  N6  UNL     1      12.062  47.047  20.796  1.00  0.00    -0.304 N 
ATOM     16  H6  UNL     1      12.749  47.621  21.285  1.00  0.00     0.186 HD
ATOM     17  H7  UNL     1      13.309  45.811  19.858  1.00  0.00     0.188 HD
ATOM     18  H5  UNL     1      12.267  43.904  19.325  1.00  0.00     0.169 HD
ENDBRANCH   6   9
BRANCH   4  19
HETATM   19  N3  UNL     1       9.501  45.153  14.658  1.00  0.00    -0.251 N 
HETATM   20  C4  UNL     1       9.223  46.468  14.503  1.00  0.00     0.119 A 
HETATM   21  C5  UNL     1       8.059  46.624  13.761  1.00  0.00     0.038 A 
HETATM   22  C6  UNL     1       7.664  45.333  13.488  1.00  0.00     0.109 A 
HETATM   23  N4  UNL     1       8.558  44.489  14.046  1.00  0.00    -0.304 N 
ATOM     24  H4  UNL     1       8.503  43.472  13.996  1.00  0.00     0.186 HD
ENDBRANCH   4  19
BRANCH   1  25
HETATM   25  N1  UNL     1      13.574  42.904  14.876  1.00  0.00    -0.230 N 
HETATM   26  C1  UNL     1      14.600  43.517  14.089  1.00  0.00     0.165 C 
ATOM     27  H1  UNL     1      13.586  41.886  14.945  1.00  0.00     0.177 HD
ENDBRANCH   1  25
TORSDOF 3
ENDMDL
MODEL 2
REMARK VINA RESULT: -6.081634735      2.138      6.476
REMARK  3 active torsions:
REMARK  status: ('A' for Active; 'I' for Inactive)
REMARK    1  A    between atoms: N1_2  and  C2_4 
REMARK    2  A    between atoms: C3_7  and  N3_8 
REMARK    3  A    between atoms: C8_15  and  N5_16 
ROOT
HETATM    1  C2  UNL     1      12.663  46.035  19.889  1.00  0.00     0.680 A 
HETATM    2  N2  UNL     1      11.960  46.811  20.762  1.00  0.00    -0.175 N 
ATOM      3  H2  UNL     1      12.430  47.282  21.536  1.00  0.00     0.186 HD
HETATM    4  C3  UNL     1      10.656  46.939  20.585  1.00  0.00     0.145 A 
HETATM    5  C7  UNL     1      10.035  46.306  19.551  1.00  0.00     0.100 A 
HETATM    6  C8  UNL     1      10.753  45.516  18.662  1.00  0.00     0.126 A 
HETATM    7  N8  UNL     1      12.072  45.390  18.844  1.00  0.00    -0.177 N 
ATOM      8  H8  UNL     1      12.629  44.818  18.209  1.00  0.00     0.186 HD
ENDROOT
BRANCH   6   9
HETATM    9  N5  UNL     1      10.074  44.969  17.710  1.00  0.00    -0.327 N 
HETATM   10  C9  UNL     1      10.446  44.666  16.458  1.00  0.00     0.123 A 
HETATM   11  C10 UNL     1      10.813  44.367  15.221  1.00  0.00     0.075 A 
HETATM   12  N7  UNL     1       9.278  45.684  15.821  1.00  0.00    -0.285 N 
HETATM   13  C11 UNL     1      10.280  44.845  14.147  1.00  0.00     0.025 A 
HETATM   14  C12 UNL     1      10.571  44.609  12.700  1.00  0.00     0.070 C 
HETATM   15  N6  UNL     1       9.329  45.657  14.603  1.00  0.00    -0.304 N 
ATOM     16  H6  UNL     1       8.710  46.197  13.999  1.00  0.00     0.186 HD
ATOM     17  H7  UNL     1       8.622  46.241  16.369  1.00  0.00     0.188 HD
ATOM     18  H5  UNL     1       9.110  44.731  17.946  1.00  0.00     0.169 HD
ENDBRANCH   6   9
BRANCH   4  19
HETATM   19  N3  UNL     1       9.865  47.757  21.472  1.00  0.00    -0.251 N 
HETATM   20  C4  UNL     1       9.025  47.276  22.418  1.00  0.00     0.119 A 
HETATM   21  C5  UNL     1       8.412  48.327  23.087  1.00  0.00     0.038 A 
HETATM   22  C6  UNL     1       8.933  49.452  22.488  1.00  0.00     0.109 A 
HETATM   23  N4  UNL     1       9.797  49.060  21.528  1.00  0.00    -0.304 N 
ATOM     24  H4  UNL     1      10.324  49.695  20.928  1.00  0.00     0.186 HD
ENDBRANCH   4  19
BRANCH   1  25
HETATM   25  N1  UNL     1      13.916  45.927  20.076  1.00  0.00    -0.230 N 
HETATM   26  C1  UNL     1      14.915  45.905  19.051  1.00  0.00     0.165 C 
ATOM     27  H1  UNL     1      14.237  45.850  21.041  1.00  0.00     0.177 HD
ENDBRANCH   1  25
TORSDOF 3
ENDMDL
MODEL 3
REMARK VINA RESULT: -5.943922228      0.830      3.943
REMARK  3 active torsions:
REMARK  status: ('A' for Active; 'I' for Inactive)
REMARK    1  A    between atoms: N1_2  and  C2_4 
REMARK    2  A    between atoms: C3_7  and  N3_8 
REMARK    3  A    between atoms: C8_15  and  N5_16 
ROOT
HETATM    1  C2  UNL     1      10.154  44.810  15.235  1.00  0.00     0.680 A 
HETATM    2  N2  UNL     1      11.215  44.215  14.619  1.00  0.00    -0.175 N 
ATOM      3  H2  UNL     1      11.225  44.085  13.607  1.00  0.00     0.186 HD
HETATM    4  C3  UNL     1      12.230  43.810  15.362  1.00  0.00     0.145 A 
HETATM    5  C7  UNL     1      12.210  43.985  16.713  1.00  0.00     0.100 A 
HETATM    6  C8  UNL     1      11.128  44.592  17.339  1.00  0.00     0.126 A 
HETATM    7  N8  UNL     1      10.104  45.002  16.583  1.00  0.00    -0.177 N 
ATOM      8  H8  UNL     1       9.294  45.451  17.011  1.00  0.00     0.186 HD
ENDROOT
BRANCH   6   9
HETATM    9  N5  UNL     1      11.210  44.721  18.620  1.00  0.00    -0.327 N 
HETATM   10  C9  UNL     1      10.591  45.587  19.435  1.00  0.00     0.123 A 
HETATM   11  C10 UNL     1       9.979  46.443  20.240  1.00  0.00     0.075 A 
HETATM   12  N7  UNL     1      12.056  46.230  19.934  1.00  0.00    -0.285 N 
HETATM   13  C11 UNL     1      10.566  47.314  20.990  1.00  0.00     0.025 A 
HETATM   14  C12 UNL     1      10.028  48.333  21.943  1.00  0.00     0.070 C 
HETATM   15  N6  UNL     1      11.859  47.119  20.745  1.00  0.00    -0.304 N 
ATOM     16  H6  UNL     1      12.606  47.654  21.189  1.00  0.00     0.186 HD
ATOM     17  H7  UNL     1      12.973  45.924  19.608  1.00  0.00     0.188 HD
ATOM     18  H5  UNL     1      11.842  44.066  19.083  1.00  0.00     0.169 HD
ENDBRANCH   6   9
BRANCH   4  19
HETATM   19  N3  UNL     1      13.383  43.184  14.762  1.00  0.00    -0.251 N 
HETATM   20  C4  UNL     1      14.441  43.852  14.246  1.00  0.00     0.119 A 
HETATM   21  C5  UNL     1      15.369  42.952  13.738  1.00  0.00     0.038 A 
HETATM   22  C6  UNL     1      14.805  41.720  13.981  1.00  0.00     0.109 A 
HETATM   23  N4  UNL     1      13.618  41.910  14.594  1.00  0.00    -0.304 N 
ATOM     24  H4  UNL     1      12.990  41.161  14.887  1.00  0.00     0.186 HD
ENDBRANCH   4  19
BRANCH   1  25
HETATM   25  N1  UNL     1       9.190  45.195  14.502  1.00  0.00    -0.230 N 
HETATM   26  C1  UNL     1       8.606  46.502  14.506  1.00  0.00     0.165 C 
ATOM     27  H1  UNL     1       8.798  44.512  13.853  1.00  0.00     0.177 HD
ENDBRANCH   1  25
TORSDOF 3
ENDMDL
MODEL 4
REMARK VINA RESULT: -5.887290726      2.537      6.365
REMARK  3 active torsions:
REMARK  status: ('A' for Active; 'I' for Inactive)
REMARK    1  A    between atoms: N1_2  and  C2_4 
REMARK    2  A    between atoms: C3_7  and  N3_8 
REMARK    3  A    between atoms: C8_15  and  N5_16 
ROOT
HETATM    1  C2  UNL     1      13.872  45.915  19.099  1.00  0.00     0.680 A 
HETATM    2  N2  UNL     1      12.922  46.415  19.940  1.00  0.00    -0.175 N 
ATOM      3  H2  UNL     1      13.180  47.033  20.709  1.00  0.00     0.186 HD
HETATM    4  C3  UNL     1      11.660  46.079  19.736  1.00  0.00     0.145 A 
HETATM    5  C7  UNL     1      11.322  45.252  18.707  1.00  0.00     0.100 A 
HETATM    6  C8  UNL     1      12.292  44.744  17.851  1.00  0.00     0.126 A 
HETATM    7  N8  UNL     1      13.568  45.087  18.060  1.00  0.00    -0.177 N 
ATOM      8  H8  UNL     1      14.304  44.733  17.450  1.00  0.00     0.186 HD
ENDROOT
BRANCH   6   9
HETATM    9  N5  UNL     1      11.870  43.980  16.902  1.00  0.00    -0.327 N 
HETATM   10  C9  UNL     1      12.515  43.522  15.820  1.00  0.00     0.123 A 
HETATM   11  C10 UNL     1      13.153  43.071  14.750  1.00  0.00     0.075 A 
HETATM   12  N7  UNL     1      11.431  44.288  14.798  1.00  0.00    -0.285 N 
HETATM   13  C11 UNL     1      12.820  43.307  13.526  1.00  0.00     0.025 A 
HETATM   14  C12 UNL     1      13.422  42.875  12.227  1.00  0.00     0.070 C 
HETATM   15  N6  UNL     1      11.736  44.071  13.637  1.00  0.00    -0.304 N 
ATOM     16  H6  UNL     1      11.217  44.435  12.838  1.00  0.00     0.186 HD
ATOM     17  H7  UNL     1      10.635  44.850  15.100  1.00  0.00     0.188 HD
ATOM     18  H5  UNL     1      10.899  43.677  16.988  1.00  0.00     0.169 HD
ENDBRANCH   6   9
BRANCH   4  19
HETATM   19  N3  UNL     1      10.612  46.587  20.588  1.00  0.00    -0.251 N 
HETATM   20  C4  UNL     1      10.790  47.514  21.558  1.00  0.00     0.119 A 
HETATM   21  C5  UNL     1       9.584  47.771  22.197  1.00  0.00     0.038 A 
HETATM   22  C6  UNL     1       8.686  46.947  21.556  1.00  0.00     0.109 A 
HETATM   23  N4  UNL     1       9.348  46.259  20.601  1.00  0.00    -0.304 N 
ATOM     24  H4  UNL     1       8.920  45.576  19.977  1.00  0.00     0.186 HD
ENDBRANCH   4  19
BRANCH   1  25
HETATM   25  N1  UNL     1      15.080  46.252  19.311  1.00  0.00    -0.230 N 
HETATM   26  C1  UNL     1      16.036  45.502  20.067  1.00  0.00     0.165 C 
ATOM     27  H1  UNL     1      15.394  47.135  18.907  1.00  0.00     0.177 HD
ENDBRANCH   1  25
TORSDOF 3
ENDMDL
MODEL 5
REMARK VINA RESULT: -5.812628828      2.094      6.333
REMARK  3 active torsions:
REMARK  status: ('A' for Active; 'I' for Inactive)
REMARK    1  A    between atoms: N1_2  and  C2_4 
REMARK    2  A    between atoms: C3_7  and  N3_8 
REMARK    3  A    between atoms: C8_15  and  N5_16 
ROOT
HETATM    1  C2  UNL     1      12.739  46.021  19.483  1.00  0.00     0.680 A 
HETATM    2  N2  UNL     1      11.898  46.539  20.423  1.00  0.00    -0.175 N 
ATOM      3  H2  UNL     1      12.266  46.995  21.258  1.00  0.00     0.186 HD
HETATM    4  C3  UNL     1      10.594  46.439  20.227  1.00  0.00     0.145 A 
HETATM    5  C7  UNL     1      10.109  45.828  19.110  1.00  0.00     0.100 A 
HETATM    6  C8  UNL     1      10.968  45.301  18.153  1.00  0.00     0.126 A 
HETATM    7  N8  UNL     1      12.286  45.406  18.355  1.00  0.00    -0.177 N 
ATOM      8  H8  UNL     1      12.944  45.030  17.672  1.00  0.00     0.186 HD
ENDROOT
BRANCH   6   9
HETATM    9  N5  UNL     1      10.410  44.753  17.127  1.00  0.00    -0.327 N 
HETATM   10  C9  UNL     1      10.943  44.404  15.947  1.00  0.00     0.123 A 
HETATM   11  C10 UNL     1      11.470  44.060  14.781  1.00  0.00     0.075 A 
HETATM   12  N7  UNL     1       9.918  45.446  15.129  1.00  0.00    -0.285 N 
HETATM   13  C11 UNL     1      11.114  44.527  13.633  1.00  0.00     0.025 A 
HETATM   14  C12 UNL     1      11.597  44.243  12.247  1.00  0.00     0.070 C 
HETATM   15  N6  UNL     1      10.140  45.385  13.931  1.00  0.00    -0.304 N 
ATOM     16  H6  UNL     1       9.635  45.931  13.233  1.00  0.00     0.186 HD
ATOM     17  H7  UNL     1       9.214  46.041  15.565  1.00  0.00     0.188 HD
ATOM     18  H5  UNL     1       9.414  44.556  17.228  1.00  0.00     0.169 HD
ENDBRANCH   6   9
BRANCH   4  19
HETATM   19  N3  UNL     1       9.658  46.979  21.183  1.00  0.00    -0.251 N 
HETATM   20  C4  UNL     1       9.900  48.047  21.977  1.00  0.00     0.119 A 
HETATM   21  C5  UNL     1       8.799  48.297  22.786  1.00  0.00     0.038 A 
HETATM   22  C6  UNL     1       7.896  47.321  22.429  1.00  0.00     0.109 A 
HETATM   23  N4  UNL     1       8.456  46.556  21.466  1.00  0.00    -0.304 N 
ATOM     24  H4  UNL     1       8.001  45.759  21.022  1.00  0.00     0.186 HD
ENDBRANCH   4  19
BRANCH   1  25
HETATM   25  N1  UNL     1      13.989  46.131  19.690  1.00  0.00    -0.230 N 
HETATM   26  C1  UNL     1      15.005  46.128  18.682  1.00  0.00     0.165 C 
ATOM     27  H1  UNL     1      14.293  46.230  20.659  1.00  0.00     0.177 HD
ENDBRANCH   1  25
TORSDOF 3
ENDMDL
