MODEL 1
REMARK VINA RESULT: -5.848955739      0.000      0.000
REMARK  4 active torsions:
REMARK  status: ('A' for Active; 'I' for Inactive)
REMARK    1  A    between atoms: N1_1  and  C1_4 
REMARK    2  A    between atoms: C5_10  and  C6_11 
REMARK    3  A    between atoms: C10_16  and  N3_17 
REMARK    4  A    between atoms: C11_21  and  N4_22 
ROOT
HETATM    1  C6  UNL     1      10.970  44.389  17.609  1.00  0.00     0.165 C 
HETATM    2  O1  UNL     1      12.013  43.406  17.681  1.00  0.00    -0.373 OA
HETATM    3  C7  UNL     1      12.925  44.144  16.995  1.00  0.00     0.154 C 
HETATM    4  C8  UNL     1      11.862  45.075  16.581  1.00  0.00     0.052 C 
HETATM    5  C9  UNL     1      11.410  44.651  15.190  1.00  0.00     0.045 C 
HETATM    6  C10 UNL     1      12.801  44.416  14.588  1.00  0.00     0.209 C 
HETATM    7  C11 UNL     1      13.488  43.651  15.670  1.00  0.00     0.150 C 
ENDROOT
BRANCH   1   8
HETATM    8  C5  UNL     1      10.922  45.305  18.774  1.00  0.00     0.013 A 
HETATM    9  C1  UNL     1       9.654  45.671  19.185  1.00  0.00     0.037 A 
HETATM   10  C2  UNL     1       9.531  46.511  20.277  1.00  0.00     0.046 A 
HETATM   11  C3  UNL     1      10.630  46.978  20.947  1.00  0.00     0.090 A 
HETATM   12  N2  UNL     1      11.829  46.607  20.529  1.00  0.00    -0.374 N 
HETATM   13  C4  UNL     1      12.005  45.781  19.457  1.00  0.00     0.099 A 
ATOM     14  H2  UNL     1      12.651  46.951  21.025  1.00  0.00     0.164 HD
BRANCH   9  15
HETATM   15  N1  UNL     1       8.579  45.284  18.594  1.00  0.00    -0.399 N 
ATOM     16  H12 UNL     1       7.646  45.423  18.980  1.00  0.00     0.156 HD
ATOM     17  H11 UNL     1       8.670  44.803  17.699  1.00  0.00     0.156 HD
ENDBRANCH   9  15
ENDBRANCH   1   8
BRANCH   7  18
HETATM   18  N4  UNL     1      14.893  44.024  15.696  1.00  0.00    -0.342 N 
HETATM   19  C12 UNL     1      15.572  44.467  16.764  1.00  0.00     0.109 A 
HETATM   20  C13 UNL     1      16.871  44.746  16.402  1.00  0.00     0.106 A 
HETATM   21  N5  UNL     1      16.924  44.453  15.098  1.00  0.00    -0.361 N 
HETATM   22  C14 UNL     1      15.721  44.003  14.639  1.00  0.00     0.183 A 
ATOM     23  H5  UNL     1      17.758  44.554  14.520  1.00  0.00     0.166 HD
ENDBRANCH   7  18
BRANCH   6  24
HETATM   24  N3  UNL     1      12.684  43.774  13.328  1.00  0.00    -0.073 N 
ATOM     25  H33 UNL     1      11.756  43.373  13.188  1.00  0.00     0.274 HD
ATOM     26  H32 UNL     1      12.675  44.443  12.558  1.00  0.00     0.274 HD
ATOM     27  H31 UNL     1      13.422  43.078  13.220  1.00  0.00     0.274 HD
ENDBRANCH   6  24
TORSDOF 4
ENDMDL
MODEL 2
REMARK VINA RESULT: -5.704478179      2.512      5.487
REMARK  4 active torsions:
REMARK  status: ('A' for Active; 'I' for Inactive)
REMARK    1  A    between atoms: N1_1  and  C1_4 
REMARK    2  A    between atoms: C5_10  and  C6_11 
REMARK    3  A    between atoms: C10_16  and  N3_17 
REMARK    4  A    between atoms: C11_21  and  N4_22 
ROOT
HETATM    1  C6  UNL     1      12.444  43.357  15.696  1.00  0.00     0.165 C 
HETATM    2  O1  UNL     1      13.099  44.593  15.378  1.00  0.00    -0.373 OA
HETATM    3  C7  UNL     1      13.957  44.553  16.430  1.00  0.00     0.154 C 
HETATM    4  C8  UNL     1      13.169  43.463  17.032  1.00  0.00     0.052 C 
HETATM    5  C9  UNL     1      12.226  44.099  18.044  1.00  0.00     0.045 C 
HETATM    6  C10 UNL     1      13.235  45.055  18.690  1.00  0.00     0.209 C 
HETATM    7  C11 UNL     1      13.928  45.632  17.503  1.00  0.00     0.150 C 
ENDROOT
BRANCH   1   8
HETATM    8  C5  UNL     1      13.026  42.174  15.017  1.00  0.00     0.013 A 
HETATM    9  C1  UNL     1      12.611  41.980  13.712  1.00  0.00     0.037 A 
HETATM   10  C2  UNL     1      13.124  40.904  13.010  1.00  0.00     0.046 A 
HETATM   11  C3  UNL     1      14.024  40.043  13.578  1.00  0.00     0.090 A 
HETATM   12  N2  UNL     1      14.402  40.258  14.827  1.00  0.00    -0.374 N 
HETATM   13  C4  UNL     1      13.925  41.304  15.564  1.00  0.00     0.099 A 
ATOM     14  H2  UNL     1      15.073  39.620  15.255  1.00  0.00     0.164 HD
BRANCH   9  15
HETATM   15  N1  UNL     1      11.757  42.738  13.121  1.00  0.00    -0.399 N 
ATOM     16  H12 UNL     1      10.827  42.424  12.841  1.00  0.00     0.156 HD
ATOM     17  H11 UNL     1      12.030  43.698  12.911  1.00  0.00     0.156 HD
ENDBRANCH   9  15
ENDBRANCH   1   8
BRANCH   7  18
HETATM   18  N4  UNL     1      15.324  45.870  17.835  1.00  0.00    -0.342 N 
HETATM   19  C12 UNL     1      15.999  45.312  18.851  1.00  0.00     0.109 A 
HETATM   20  C13 UNL     1      17.288  45.797  18.869  1.00  0.00     0.106 A 
HETATM   21  N5  UNL     1      17.338  46.649  17.840  1.00  0.00    -0.361 N 
HETATM   22  C14 UNL     1      16.143  46.711  17.185  1.00  0.00     0.183 A 
ATOM     23  H5  UNL     1      18.165  47.185  17.579  1.00  0.00     0.166 HD
ENDBRANCH   7  18
BRANCH   6  24
HETATM   24  N3  UNL     1      12.563  45.969  19.544  1.00  0.00    -0.073 N 
ATOM     25  H33 UNL     1      12.268  46.810  19.048  1.00  0.00     0.274 HD
ATOM     26  H32 UNL     1      11.641  45.627  19.819  1.00  0.00     0.274 HD
ATOM     27  H31 UNL     1      13.146  46.186  20.352  1.00  0.00     0.274 HD
ENDBRANCH   6  24
TORSDOF 4
ENDMDL
MODEL 3
REMARK VINA RESULT: -5.662745111      1.393      1.580
REMARK  4 active torsions:
REMARK  status: ('A' for Active; 'I' for Inactive)
REMARK    1  A    between atoms: N1_1  and  C1_4 
REMARK    2  A    between atoms: C5_10  and  C6_11 
REMARK    3  A    between atoms: C10_16  and  N3_17 
REMARK    4  A    between atoms: C11_21  and  N4_22 
ROOT
HETATM    1  C6  UNL     1      11.052  44.798  18.218  1.00  0.00     0.165 C 
HETATM    2  O1  UNL     1      12.049  43.824  18.560  1.00  0.00    -0.373 OA
HETATM    3  C7  UNL     1      13.107  44.608  18.226  1.00  0.00     0.154 C 
HETATM    4  C8  UNL     1      12.198  45.550  17.552  1.00  0.00     0.052 C 
HETATM    5  C9  UNL     1      12.207  45.199  16.070  1.00  0.00     0.045 C 
HETATM    6  C10 UNL     1      13.722  45.013  15.916  1.00  0.00     0.209 C 
HETATM    7  C11 UNL     1      14.064  44.197  17.116  1.00  0.00     0.150 C 
ENDROOT
BRANCH   1   8
HETATM    8  C5  UNL     1      10.623  45.646  19.356  1.00  0.00     0.013 A 
HETATM    9  C1  UNL     1       9.256  45.743  19.537  1.00  0.00     0.037 A 
HETATM   10  C2  UNL     1       8.781  46.506  20.589  1.00  0.00     0.046 A 
HETATM   11  C3  UNL     1       9.634  47.155  21.442  1.00  0.00     0.090 A 
HETATM   12  N2  UNL     1      10.936  47.040  21.242  1.00  0.00    -0.374 N 
HETATM   13  C4  UNL     1      11.455  46.301  20.218  1.00  0.00     0.099 A 
ATOM     14  H2  UNL     1      11.575  47.520  21.875  1.00  0.00     0.164 HD
BRANCH   9  15
HETATM   15  N1  UNL     1       8.398  45.175  18.765  1.00  0.00    -0.399 N 
ATOM     16  H12 UNL     1       8.443  44.189  18.506  1.00  0.00     0.156 HD
ATOM     17  H11 UNL     1       7.643  45.744  18.384  1.00  0.00     0.156 HD
ENDBRANCH   9  15
ENDBRANCH   1   8
BRANCH   7  18
HETATM   18  N4  UNL     1      15.382  44.583  17.594  1.00  0.00    -0.342 N 
HETATM   19  C12 UNL     1      15.655  45.175  18.766  1.00  0.00     0.109 A 
HETATM   20  C13 UNL     1      17.008  45.413  18.857  1.00  0.00     0.106 A 
HETATM   21  N5  UNL     1      17.508  44.945  17.710  1.00  0.00    -0.361 N 
HETATM   22  C14 UNL     1      16.529  44.425  16.914  1.00  0.00     0.183 A 
ATOM     23  H5  UNL     1      18.496  44.973  17.460  1.00  0.00     0.166 HD
ENDBRANCH   7  18
BRANCH   6  24
HETATM   24  N3  UNL     1      14.016  44.442  14.650  1.00  0.00    -0.073 N 
ATOM     25  H33 UNL     1      13.420  44.819  13.912  1.00  0.00     0.274 HD
ATOM     26  H32 UNL     1      14.917  44.756  14.289  1.00  0.00     0.274 HD
ATOM     27  H31 UNL     1      13.959  43.425  14.704  1.00  0.00     0.274 HD
ENDBRANCH   6  24
TORSDOF 4
ENDMDL
MODEL 4
REMARK VINA RESULT: -5.563823172      2.336      3.357
REMARK  4 active torsions:
REMARK  status: ('A' for Active; 'I' for Inactive)
REMARK    1  A    between atoms: N1_1  and  C1_4 
REMARK    2  A    between atoms: C5_10  and  C6_11 
REMARK    3  A    between atoms: C10_16  and  N3_17 
REMARK    4  A    between atoms: C11_21  and  N4_22 
ROOT
HETATM    1  C6  UNL     1      11.810  44.400  17.715  1.00  0.00     0.165 C 
HETATM    2  O1  UNL     1      12.872  45.140  17.096  1.00  0.00    -0.373 OA
HETATM    3  C7  UNL     1      12.136  45.542  16.027  1.00  0.00     0.154 C 
HETATM    4  C8  UNL     1      11.085  44.575  16.386  1.00  0.00     0.052 C 
HETATM    5  C9  UNL     1      11.316  43.328  15.543  1.00  0.00     0.045 C 
HETATM    6  C10 UNL     1      11.589  44.033  14.209  1.00  0.00     0.209 C 
HETATM    7  C11 UNL     1      12.520  45.126  14.614  1.00  0.00     0.150 C 
ENDROOT
BRANCH   1   8
HETATM    8  C5  UNL     1      11.028  45.181  18.704  1.00  0.00     0.013 A 
HETATM    9  C1  UNL     1      11.779  45.859  19.646  1.00  0.00     0.037 A 
HETATM   10  C2  UNL     1      11.118  46.622  20.593  1.00  0.00     0.046 A 
HETATM   11  C3  UNL     1       9.752  46.713  20.609  1.00  0.00     0.090 A 
HETATM   12  N2  UNL     1       9.064  46.053  19.693  1.00  0.00    -0.374 N 
HETATM   13  C4  UNL     1       9.667  45.286  18.738  1.00  0.00     0.099 A 
ATOM     14  H2  UNL     1       8.046  46.119  19.700  1.00  0.00     0.164 HD
BRANCH   9  15
HETATM   15  N1  UNL     1      13.063  45.805  19.700  1.00  0.00    -0.399 N 
ATOM     16  H12 UNL     1      13.634  46.503  20.177  1.00  0.00     0.156 HD
ATOM     17  H11 UNL     1      13.532  45.031  19.230  1.00  0.00     0.156 HD
ENDBRANCH   9  15
ENDBRANCH   1   8
BRANCH   7  18
HETATM   18  N4  UNL     1      12.262  46.299  13.794  1.00  0.00    -0.342 N 
HETATM   19  C12 UNL     1      11.165  47.069  13.841  1.00  0.00     0.109 A 
HETATM   20  C13 UNL     1      11.263  48.068  12.898  1.00  0.00     0.106 A 
HETATM   21  N5  UNL     1      12.442  47.854  12.306  1.00  0.00    -0.361 N 
HETATM   22  C14 UNL     1      13.080  46.773  12.840  1.00  0.00     0.183 A 
ATOM     23  H5  UNL     1      12.818  48.427  11.550  1.00  0.00     0.166 HD
ENDBRANCH   7  18
BRANCH   6  24
HETATM   24  N3  UNL     1      12.077  43.100  13.256  1.00  0.00    -0.073 N 
ATOM     25  H33 UNL     1      12.494  43.562  12.447  1.00  0.00     0.274 HD
ATOM     26  H32 UNL     1      12.906  42.610  13.591  1.00  0.00     0.274 HD
ATOM     27  H31 UNL     1      11.334  42.455  12.987  1.00  0.00     0.274 HD
ENDBRANCH   6  24
TORSDOF 4
ENDMDL
MODEL 5
REMARK VINA RESULT: -5.536828343      2.328      5.457
REMARK  4 active torsions:
REMARK  status: ('A' for Active; 'I' for Inactive)
REMARK    1  A    between atoms: N1_1  and  C1_4 
REMARK    2  A    between atoms: C5_10  and  C6_11 
REMARK    3  A    between atoms: C10_16  and  N3_17 
REMARK    4  A    between atoms: C11_21  and  N4_22 
ROOT
HETATM    1  C6  UNL     1      15.520  44.960  16.385  1.00  0.00     0.165 C 
HETATM    2  O1  UNL     1      14.462  45.889  16.104  1.00  0.00    -0.373 OA
HETATM    3  C7  UNL     1      13.500  45.178  16.749  1.00  0.00     0.154 C 
HETATM    4  C8  UNL     1      14.404  44.018  16.823  1.00  0.00     0.052 C 
HETATM    5  C9  UNL     1      14.058  43.105  15.655  1.00  0.00     0.045 C 
HETATM    6  C10 UNL     1      12.531  43.172  15.791  1.00  0.00     0.209 C 
HETATM    7  C11 UNL     1      12.297  44.631  15.995  1.00  0.00     0.150 C 
ENDROOT
BRANCH   1   8
HETATM    8  C5  UNL     1      16.287  45.273  17.614  1.00  0.00     0.013 A 
HETATM    9  C1  UNL     1      16.864  46.529  17.645  1.00  0.00     0.037 A 
HETATM   10  C2  UNL     1      17.583  46.898  18.768  1.00  0.00     0.046 A 
HETATM   11  C3  UNL     1      17.729  46.050  19.833  1.00  0.00     0.090 A 
HETATM   12  N2  UNL     1      17.163  44.856  19.772  1.00  0.00    -0.374 N 
HETATM   13  C4  UNL     1      16.445  44.443  18.687  1.00  0.00     0.099 A 
ATOM     14  H2  UNL     1      17.268  44.221  20.563  1.00  0.00     0.164 HD
BRANCH   9  15
HETATM   15  N1  UNL     1      16.781  47.370  16.675  1.00  0.00    -0.399 N 
ATOM     16  H12 UNL     1      16.898  47.110  15.696  1.00  0.00     0.156 HD
ATOM     17  H11 UNL     1      16.603  48.349  16.901  1.00  0.00     0.156 HD
ENDBRANCH   9  15
ENDBRANCH   1   8
BRANCH   7  18
HETATM   18  N4  UNL     1      11.172  44.809  16.900  1.00  0.00    -0.342 N 
HETATM   19  C12 UNL     1      11.239  44.877  18.237  1.00  0.00     0.109 A 
HETATM   20  C13 UNL     1       9.970  45.021  18.755  1.00  0.00     0.106 A 
HETATM   21  N5  UNL     1       9.172  45.034  17.683  1.00  0.00    -0.361 N 
HETATM   22  C14 UNL     1       9.886  44.908  16.527  1.00  0.00     0.183 A 
ATOM     23  H5  UNL     1       8.157  45.125  17.724  1.00  0.00     0.166 HD
ENDBRANCH   7  18
BRANCH   6  24
HETATM   24  N3  UNL     1      11.915  42.578  14.659  1.00  0.00    -0.073 N 
ATOM     25  H33 UNL     1      11.385  41.742  14.906  1.00  0.00     0.274 HD
ATOM     26  H32 UNL     1      11.144  43.143  14.303  1.00  0.00     0.274 HD
ATOM     27  H31 UNL     1      12.614  42.388  13.940  1.00  0.00     0.274 HD
ENDBRANCH   6  24
TORSDOF 4
ENDMDL
