MODEL 1
REMARK VINA RESULT: -5.054651558      0.000      0.000
REMARK  3 active torsions:
REMARK  status: ('A' for Active; 'I' for Inactive)
REMARK    1  A    between atoms: S1_2  and  C2_3 
REMARK    2  A    between atoms: S1_2  and  C7_11 
REMARK    3  A    between atoms: C2_3  and  N1_4 
ROOT
HETATM    1  C7  UNL     1      47.431   9.801   0.348  1.00  0.00     0.131 C 
HETATM    2  N3  UNL     1      46.879  10.186   1.451  1.00  0.00    -0.365 N 
ATOM      3  H3  UNL     1      47.254  10.019   2.385  1.00  0.00     0.162 HD
HETATM    4  C8  UNL     1      45.683  10.869   1.165  1.00  0.00     0.109 C 
HETATM    5  C9  UNL     1      45.360  12.090   1.970  1.00  0.00     0.054 C 
HETATM    6  C10 UNL     1      44.069  12.652   1.357  1.00  0.00     0.234 C 
HETATM    7  N4  UNL     1      44.143  12.879  -0.043  1.00  0.00    -0.073 N 
ATOM      8  H41 UNL     1      44.698  13.713  -0.238  1.00  0.00     0.277 HD
ATOM      9  H42 UNL     1      43.237  13.183  -0.401  1.00  0.00     0.277 HD
HETATM   10  C11 UNL     1      44.639  11.747  -0.820  1.00  0.00     0.259 C 
HETATM   11  C12 UNL     1      45.956  11.385  -0.251  1.00  0.00     0.132 C 
HETATM   12  N5  UNL     1      46.617  10.234  -0.759  1.00  0.00    -0.363 N 
ATOM     13  H5  UNL     1      46.535   9.815  -1.686  1.00  0.00     0.162 HD
ENDROOT
BRANCH   1  14
HETATM   14  S1  UNL     1      48.934   8.909   0.147  1.00  0.00    -0.118 SA
HETATM   15  C1  UNL     1      49.220   8.690  -1.590  1.00  0.00     0.093 C 
BRANCH  14  16
HETATM   16  C2  UNL     1      48.875   7.358   0.940  1.00  0.00     0.132 C 
BRANCH  16  17
HETATM   17  N1  UNL     1      49.259   7.275   2.268  1.00  0.00    -0.362 N 
HETATM   18  C3  UNL     1      50.555   6.907   2.646  1.00  0.00     0.083 C 
HETATM   19  C4  UNL     1      50.660   6.555   4.123  1.00  0.00     0.158 C 
HETATM   20  N2  UNL     1      49.590   5.741   4.596  1.00  0.00    -0.415 N 
HETATM   21  C5  UNL     1      48.309   6.010   4.035  1.00  0.00     0.134 C 
ATOM     22  H2  UNL     1      49.733   5.011   5.293  1.00  0.00     0.153 HD
HETATM   23  C6  UNL     1      48.276   7.347   3.279  1.00  0.00     0.147 C 
ENDBRANCH  16  17
ENDBRANCH  14  16
ENDBRANCH   1  14
TORSDOF 3
ENDMDL
MODEL 2
REMARK VINA RESULT: -5.047002806      0.988      1.325
REMARK  3 active torsions:
REMARK  status: ('A' for Active; 'I' for Inactive)
REMARK    1  A    between atoms: S1_2  and  C2_3 
REMARK    2  A    between atoms: S1_2  and  C7_11 
REMARK    3  A    between atoms: C2_3  and  N1_4 
ROOT
HETATM    1  C7  UNL     1      47.537   9.807   0.306  1.00  0.00     0.131 C 
HETATM    2  N3  UNL     1      46.923  10.107   1.402  1.00  0.00    -0.365 N 
ATOM      3  H3  UNL     1      47.249   9.877   2.342  1.00  0.00     0.162 HD
HETATM    4  C8  UNL     1      45.736  10.800   1.102  1.00  0.00     0.109 C 
HETATM    5  C9  UNL     1      45.356  11.957   1.973  1.00  0.00     0.054 C 
HETATM    6  C10 UNL     1      44.094  12.552   1.332  1.00  0.00     0.234 C 
HETATM    7  N4  UNL     1      44.239  12.879  -0.042  1.00  0.00    -0.073 N 
ATOM      8  H41 UNL     1      44.795  13.729  -0.147  1.00  0.00     0.277 HD
ATOM      9  H42 UNL     1      43.350  13.201  -0.426  1.00  0.00     0.277 HD
HETATM   10  C11 UNL     1      44.790  11.809  -0.870  1.00  0.00     0.259 C 
HETATM   11  C12 UNL     1      46.078  11.418  -0.257  1.00  0.00     0.132 C 
HETATM   12  N5  UNL     1      46.779  10.311  -0.810  1.00  0.00    -0.363 N 
ATOM     13  H5  UNL     1      46.751   9.959  -1.767  1.00  0.00     0.162 HD
ENDROOT
BRANCH   1  14
HETATM   14  S1  UNL     1      49.059   8.943   0.124  1.00  0.00    -0.118 SA
HETATM   15  C1  UNL     1      49.761   9.381  -1.445  1.00  0.00     0.093 C 
BRANCH  14  16
HETATM   16  C2  UNL     1      48.836   7.217   0.214  1.00  0.00     0.132 C 
BRANCH  16  17
HETATM   17  N1  UNL     1      48.785   6.616   1.461  1.00  0.00    -0.362 N 
HETATM   18  C3  UNL     1      48.168   5.377   1.664  1.00  0.00     0.083 C 
HETATM   19  C4  UNL     1      47.931   5.072   3.136  1.00  0.00     0.158 C 
HETATM   20  N2  UNL     1      47.425   6.179   3.877  1.00  0.00    -0.415 N 
HETATM   21  C5  UNL     1      47.927   7.458   3.504  1.00  0.00     0.134 C 
ATOM     22  H2  UNL     1      46.745   6.062   4.628  1.00  0.00     0.153 HD
HETATM   23  C6  UNL     1      49.165   7.355   2.602  1.00  0.00     0.147 C 
ENDBRANCH  16  17
ENDBRANCH  14  16
ENDBRANCH   1  14
TORSDOF 3
ENDMDL
MODEL 3
REMARK VINA RESULT: -4.981564977      1.331      6.441
REMARK  3 active torsions:
REMARK  status: ('A' for Active; 'I' for Inactive)
REMARK    1  A    between atoms: S1_2  and  C2_3 
REMARK    2  A    between atoms: S1_2  and  C7_11 
REMARK    3  A    between atoms: C2_3  and  N1_4 
ROOT
HETATM    1  C7  UNL     1      48.621   8.702   1.065  1.00  0.00     0.131 C 
HETATM    2  N3  UNL     1      47.679   8.198   1.791  1.00  0.00    -0.365 N 
ATOM      3  H3  UNL     1      46.684   8.219   1.563  1.00  0.00     0.162 HD
HETATM    4  C8  UNL     1      48.235   7.614   2.944  1.00  0.00     0.109 C 
HETATM    5  C9  UNL     1      47.668   6.311   3.417  1.00  0.00     0.054 C 
HETATM    6  C10 UNL     1      48.542   5.896   4.609  1.00  0.00     0.234 C 
HETATM    7  N4  UNL     1      49.933   5.857   4.324  1.00  0.00    -0.073 N 
ATOM      8  H41 UNL     1      50.156   5.033   3.765  1.00  0.00     0.277 HD
ATOM      9  H42 UNL     1      50.462   5.645   5.170  1.00  0.00     0.277 HD
HETATM   10  C11 UNL     1      50.459   7.060   3.685  1.00  0.00     0.259 C 
HETATM   11  C12 UNL     1      49.652   7.282   2.465  1.00  0.00     0.132 C 
HETATM   12  N5  UNL     1      49.888   8.460   1.706  1.00  0.00    -0.363 N 
ATOM     13  H5  UNL     1      50.748   9.004   1.632  1.00  0.00     0.162 HD
ENDROOT
BRANCH   1  14
HETATM   14  S1  UNL     1      48.465   9.545  -0.473  1.00  0.00    -0.118 SA
HETATM   15  C1  UNL     1      50.047   9.533  -1.274  1.00  0.00     0.093 C 
BRANCH  14  16
HETATM   16  C2  UNL     1      47.920  11.186  -0.257  1.00  0.00     0.132 C 
BRANCH  16  17
HETATM   17  N1  UNL     1      46.557  11.436  -0.222  1.00  0.00    -0.362 N 
HETATM   18  C3  UNL     1      45.773  11.123   0.894  1.00  0.00     0.083 C 
HETATM   19  C4  UNL     1      44.281  11.164   0.595  1.00  0.00     0.158 C 
HETATM   20  N2  UNL     1      43.927  10.550  -0.641  1.00  0.00    -0.415 N 
HETATM   21  C5  UNL     1      44.855  10.718  -1.708  1.00  0.00     0.134 C 
ATOM     22  H2  UNL     1      43.062  10.022  -0.755  1.00  0.00     0.153 HD
HETATM   23  C6  UNL     1      45.892  11.812  -1.408  1.00  0.00     0.147 C 
ENDBRANCH  16  17
ENDBRANCH  14  16
ENDBRANCH   1  14
TORSDOF 3
ENDMDL
MODEL 4
REMARK VINA RESULT: -4.972175092      4.569      6.971
REMARK  3 active torsions:
REMARK  status: ('A' for Active; 'I' for Inactive)
REMARK    1  A    between atoms: S1_2  and  C2_3 
REMARK    2  A    between atoms: S1_2  and  C7_11 
REMARK    3  A    between atoms: C2_3  and  N1_4 
ROOT
HETATM    1  C7  UNL     1      45.391  12.430   1.979  1.00  0.00     0.131 C 
HETATM    2  N3  UNL     1      46.112  12.688   3.019  1.00  0.00    -0.365 N 
ATOM      3  H3  UNL     1      46.946  12.172   3.300  1.00  0.00     0.162 HD
HETATM    4  C8  UNL     1      45.570  13.790   3.705  1.00  0.00     0.109 C 
HETATM    5  C9  UNL     1      46.518  14.801   4.273  1.00  0.00     0.054 C 
HETATM    6  C10 UNL     1      45.629  15.909   4.857  1.00  0.00     0.234 C 
HETATM    7  N4  UNL     1      44.689  16.444   3.936  1.00  0.00    -0.073 N 
ATOM      8  H41 UNL     1      45.157  17.055   3.267  1.00  0.00     0.277 HD
ATOM      9  H42 UNL     1      44.084  17.122   4.401  1.00  0.00     0.277 HD
HETATM   10  C11 UNL     1      43.886  15.446   3.235  1.00  0.00     0.259 C 
HETATM   11  C12 UNL     1      44.835  14.522   2.578  1.00  0.00     0.132 C 
HETATM   12  N5  UNL     1      44.312  13.382   1.908  1.00  0.00    -0.363 N 
ATOM     13  H5  UNL     1      43.394  13.267   1.479  1.00  0.00     0.162 HD
ENDROOT
BRANCH   1  14
HETATM   14  S1  UNL     1      45.631  11.156   0.788  1.00  0.00    -0.118 SA
HETATM   15  C1  UNL     1      46.995  11.617  -0.249  1.00  0.00     0.093 C 
BRANCH  14  16
HETATM   16  C2  UNL     1      44.205  10.904  -0.183  1.00  0.00     0.132 C 
BRANCH  16  17
HETATM   17  N1  UNL     1      44.156  11.461  -1.451  1.00  0.00    -0.362 N 
HETATM   18  C3  UNL     1      43.845  12.809  -1.658  1.00  0.00     0.083 C 
HETATM   19  C4  UNL     1      43.518  13.121  -3.111  1.00  0.00     0.158 C 
HETATM   20  N2  UNL     1      42.670  12.156  -3.728  1.00  0.00    -0.415 N 
HETATM   21  C5  UNL     1      42.881  10.803  -3.338  1.00  0.00     0.134 C 
ATOM     22  H2  UNL     1      41.956  12.418  -4.407  1.00  0.00     0.153 HD
HETATM   23  C6  UNL     1      44.205  10.617  -2.581  1.00  0.00     0.147 C 
ENDBRANCH  16  17
ENDBRANCH  14  16
ENDBRANCH   1  14
TORSDOF 3
ENDMDL
MODEL 5
REMARK VINA RESULT: -4.952101225      3.647      6.304
REMARK  3 active torsions:
REMARK  status: ('A' for Active; 'I' for Inactive)
REMARK    1  A    between atoms: S1_2  and  C2_3 
REMARK    2  A    between atoms: S1_2  and  C7_11 
REMARK    3  A    between atoms: C2_3  and  N1_4 
ROOT
HETATM    1  C7  UNL     1      45.571  12.158   1.902  1.00  0.00     0.131 C 
HETATM    2  N3  UNL     1      46.100  12.556   3.010  1.00  0.00    -0.365 N 
ATOM      3  H3  UNL     1      46.918  12.139   3.455  1.00  0.00     0.162 HD
HETATM    4  C8  UNL     1      45.375  13.654   3.509  1.00  0.00     0.109 C 
HETATM    5  C9  UNL     1      46.143  14.785   4.120  1.00  0.00     0.054 C 
HETATM    6  C10 UNL     1      45.092  15.850   4.466  1.00  0.00     0.234 C 
HETATM    7  N4  UNL     1      44.268  16.228   3.374  1.00  0.00    -0.073 N 
ATOM      8  H41 UNL     1      44.785  16.827   2.730  1.00  0.00     0.277 HD
ATOM      9  H42 UNL     1      43.548  16.882   3.683  1.00  0.00     0.277 HD
HETATM   10  C11 UNL     1      43.662  15.113   2.652  1.00  0.00     0.259 C 
HETATM   11  C12 UNL     1      44.769  14.230   2.226  1.00  0.00     0.132 C 
HETATM   12  N5  UNL     1      44.446  13.001   1.589  1.00  0.00    -0.363 N 
ATOM     13  H5  UNL     1      43.616  12.772   1.041  1.00  0.00     0.162 HD
ENDROOT
BRANCH   1  14
HETATM   14  S1  UNL     1      46.089  10.825   0.876  1.00  0.00    -0.118 SA
HETATM   15  C1  UNL     1      46.795   9.571   1.912  1.00  0.00     0.093 C 
BRANCH  14  16
HETATM   16  C2  UNL     1      47.255  11.341  -0.313  1.00  0.00     0.132 C 
BRANCH  16  17
HETATM   17  N1  UNL     1      46.800  11.785  -1.543  1.00  0.00    -0.362 N 
HETATM   18  C3  UNL     1      47.611  12.519  -2.415  1.00  0.00     0.083 C 
HETATM   19  C4  UNL     1      46.822  13.183  -3.534  1.00  0.00     0.158 C 
HETATM   20  N2  UNL     1      45.614  13.799  -3.097  1.00  0.00    -0.415 N 
HETATM   21  C5  UNL     1      44.912  13.124  -2.058  1.00  0.00     0.134 C 
ATOM     22  H2  UNL     1      45.272  14.670  -3.503  1.00  0.00     0.153 HD
HETATM   23  C6  UNL     1      45.425  11.691  -1.848  1.00  0.00     0.147 C 
ENDBRANCH  16  17
ENDBRANCH  14  16
ENDBRANCH   1  14
TORSDOF 3
ENDMDL
