MODEL 1
REMARK VINA RESULT: -5.204098959      0.000      0.000
REMARK  4 active torsions:
REMARK  status: ('A' for Active; 'I' for Inactive)
REMARK    1  A    between atoms: C2_2  and  C3_3 
REMARK    2  A    between atoms: C10_14  and  N3_15 
REMARK    3  A    between atoms: N3_15  and  C11_17 
REMARK    4  A    between atoms: C14_22  and  N5_23 
ROOT
HETATM    1  C3  UNL     1      45.682  10.887   0.311  1.00  0.00     0.231 C 
HETATM    2  N1  UNL     1      45.250  11.653  -0.841  1.00  0.00    -0.065 N 
ATOM      3  H11 UNL     1      45.470  12.646  -0.774  1.00  0.00     0.278 HD
ATOM      4  H12 UNL     1      44.237  11.754  -0.906  1.00  0.00     0.278 HD
HETATM    5  C4  UNL     1      45.852  10.997  -2.012  1.00  0.00     0.240 C 
HETATM    6  C5  UNL     1      47.303  11.412  -2.010  1.00  0.00     0.047 C 
HETATM    7  C6  UNL     1      48.242  10.343  -2.451  1.00  0.00     0.278 C 
HETATM    8  N2  UNL     1      49.506  10.592  -1.779  1.00  0.00     0.085 N 
HETATM    9  C7  UNL     1      50.490  11.066  -2.756  1.00  0.00     0.309 C 
HETATM   10  C8  UNL     1      49.270  11.556  -0.747  1.00  0.00     0.279 C 
HETATM   11  C9  UNL     1      47.781  11.717  -0.612  1.00  0.00     0.046 C 
HETATM   12  C10 UNL     1      47.187  10.802   0.429  1.00  0.00     0.123 C 
ENDROOT
BRANCH  12  13
HETATM   13  N3  UNL     1      47.682   9.466   0.364  1.00  0.00    -0.368 N 
ATOM     14  H3  UNL     1      47.757   9.058  -0.567  1.00  0.00     0.161 HD
BRANCH  13  15
HETATM   15  C11 UNL     1      48.042   8.719   1.343  1.00  0.00     0.118 A 
HETATM   16  C12 UNL     1      49.378   8.388   1.447  1.00  0.00     0.066 A 
HETATM   17  C13 UNL     1      49.842   7.577   2.489  1.00  0.00     0.110 A 
HETATM   18  N4  UNL     1      48.982   7.113   3.402  1.00  0.00    -0.202 N 
HETATM   19  C14 UNL     1      47.677   7.441   3.295  1.00  0.00     0.677 A 
ATOM     20  H4  UNL     1      49.307   6.522   4.167  1.00  0.00     0.183 HD
HETATM   21  N6  UNL     1      47.219   8.228   2.285  1.00  0.00    -0.177 N 
ATOM     22  H6  UNL     1      46.225   8.452   2.242  1.00  0.00     0.185 HD
BRANCH  19  23
HETATM   23  N5  UNL     1      46.886   6.970   4.200  1.00  0.00    -0.234 N 
ATOM     24  H52 UNL     1      47.195   6.263   4.867  1.00  0.00     0.174 HD
ATOM     25  H51 UNL     1      45.935   7.339   4.213  1.00  0.00     0.174 HD
ENDBRANCH  19  23
ENDBRANCH  13  15
ENDBRANCH  12  13
BRANCH   1  26
HETATM   26  C2  UNL     1      45.028  11.475   1.501  1.00  0.00    -0.002 C 
HETATM   27  C1  UNL     1      44.202  12.492   1.340  1.00  0.00     0.009 C 
ENDBRANCH   1  26
TORSDOF 4
ENDMDL
MODEL 2
REMARK VINA RESULT: -5.076371812      1.600      1.918
REMARK  4 active torsions:
REMARK  status: ('A' for Active; 'I' for Inactive)
REMARK    1  A    between atoms: C2_2  and  C3_3 
REMARK    2  A    between atoms: C10_14  and  N3_15 
REMARK    3  A    between atoms: N3_15  and  C11_17 
REMARK    4  A    between atoms: C14_22  and  N5_23 
ROOT
HETATM    1  C3  UNL     1      44.909  11.059   0.381  1.00  0.00     0.231 C 
HETATM    2  N1  UNL     1      43.849  11.578  -0.460  1.00  0.00    -0.065 N 
ATOM      3  H11 UNL     1      43.849  12.594  -0.533  1.00  0.00     0.278 HD
ATOM      4  H12 UNL     1      42.920  11.483  -0.049  1.00  0.00     0.278 HD
HETATM    5  C4  UNL     1      43.990  10.896  -1.755  1.00  0.00     0.240 C 
HETATM    6  C5  UNL     1      45.156  11.565  -2.442  1.00  0.00     0.047 C 
HETATM    7  C6  UNL     1      46.008  10.636  -3.236  1.00  0.00     0.278 C 
HETATM    8  N2  UNL     1      47.349  11.196  -3.239  1.00  0.00     0.085 N 
HETATM    9  C7  UNL     1      47.658  11.711  -4.575  1.00  0.00     0.309 C 
HETATM   10  C8  UNL     1      47.394  12.227  -2.245  1.00  0.00     0.279 C 
HETATM   11  C9  UNL     1      46.129  12.130  -1.437  1.00  0.00     0.046 C 
HETATM   12  C10 UNL     1      46.284  11.265  -0.212  1.00  0.00     0.123 C 
ENDROOT
BRANCH  12  13
HETATM   13  N3  UNL     1      46.979  10.044  -0.459  1.00  0.00    -0.368 N 
ATOM     14  H3  UNL     1      46.774   9.580  -1.343  1.00  0.00     0.161 HD
BRANCH  13  15
HETATM   15  C11 UNL     1      47.832   9.464   0.304  1.00  0.00     0.118 A 
HETATM   16  C12 UNL     1      49.157   9.472  -0.083  1.00  0.00     0.066 A 
HETATM   17  C13 UNL     1      50.141   8.858   0.700  1.00  0.00     0.110 A 
HETATM   18  N4  UNL     1      49.799   8.254   1.843  1.00  0.00    -0.202 N 
HETATM   19  C14 UNL     1      48.501   8.251   2.216  1.00  0.00     0.677 A 
ATOM     20  H4  UNL     1      50.506   7.804   2.423  1.00  0.00     0.183 HD
HETATM   21  N6  UNL     1      47.540   8.845   1.460  1.00  0.00    -0.177 N 
ATOM     22  H6  UNL     1      46.572   8.819   1.779  1.00  0.00     0.185 HD
BRANCH  19  23
HETATM   23  N5  UNL     1      48.221   7.656   3.326  1.00  0.00    -0.234 N 
ATOM     24  H52 UNL     1      47.288   7.289   3.518  1.00  0.00     0.174 HD
ATOM     25  H51 UNL     1      48.978   7.573   4.004  1.00  0.00     0.174 HD
ENDBRANCH  19  23
ENDBRANCH  13  15
ENDBRANCH  12  13
BRANCH   1  26
HETATM   26  C2  UNL     1      44.746  11.667   1.721  1.00  0.00    -0.002 C 
HETATM   27  C1  UNL     1      45.808  12.155   2.335  1.00  0.00     0.009 C 
ENDBRANCH   1  26
TORSDOF 4
ENDMDL
MODEL 3
REMARK VINA RESULT: -5.018172724      1.027      1.622
REMARK  4 active torsions:
REMARK  status: ('A' for Active; 'I' for Inactive)
REMARK    1  A    between atoms: C2_2  and  C3_3 
REMARK    2  A    between atoms: C10_14  and  N3_15 
REMARK    3  A    between atoms: N3_15  and  C11_17 
REMARK    4  A    between atoms: C14_22  and  N5_23 
ROOT
HETATM    1  C3  UNL     1      45.548  10.930   1.118  1.00  0.00     0.231 C 
HETATM    2  N1  UNL     1      44.933  11.677   0.039  1.00  0.00    -0.065 N 
ATOM      3  H11 UNL     1      45.233  12.650  -0.005  1.00  0.00     0.278 HD
ATOM      4  H12 UNL     1      43.940  11.860   0.185  1.00  0.00     0.278 HD
HETATM    5  C4  UNL     1      45.215  10.919  -1.190  1.00  0.00     0.240 C 
HETATM    6  C5  UNL     1      46.659  11.210  -1.523  1.00  0.00     0.047 C 
HETATM    7  C6  UNL     1      47.399  10.047  -2.087  1.00  0.00     0.278 C 
HETATM    8  N2  UNL     1      48.794  10.218  -1.717  1.00  0.00     0.085 N 
HETATM    9  C7  UNL     1      49.573  10.562  -2.909  1.00  0.00     0.309 C 
HETATM   10  C8  UNL     1      48.858  11.245  -0.720  1.00  0.00     0.279 C 
HETATM   11  C9  UNL     1      47.450  11.537  -0.282  1.00  0.00     0.046 C 
HETATM   12  C10 UNL     1      47.032  10.723   0.918  1.00  0.00     0.123 C 
ENDROOT
BRANCH  12  13
HETATM   13  N3  UNL     1      47.402   9.349   0.833  1.00  0.00    -0.368 N 
ATOM     14  H3  UNL     1      47.298   8.910  -0.081  1.00  0.00     0.161 HD
BRANCH  13  15
HETATM   15  C11 UNL     1      47.851   8.602   1.775  1.00  0.00     0.118 A 
HETATM   16  C12 UNL     1      46.959   8.157   2.729  1.00  0.00     0.066 A 
HETATM   17  C13 UNL     1      47.380   7.340   3.784  1.00  0.00     0.110 A 
HETATM   18  N4  UNL     1      48.664   6.980   3.874  1.00  0.00    -0.202 N 
HETATM   19  C14 UNL     1      49.531   7.419   2.937  1.00  0.00     0.677 A 
ATOM     20  H4  UNL     1      48.983   6.384   4.637  1.00  0.00     0.183 HD
HETATM   21  N6  UNL     1      49.130   8.213   1.910  1.00  0.00    -0.177 N 
ATOM     22  H6  UNL     1      49.818   8.521   1.223  1.00  0.00     0.185 HD
BRANCH  19  23
HETATM   23  N5  UNL     1      50.760   7.044   3.066  1.00  0.00    -0.234 N 
ATOM     24  H52 UNL     1      51.006   6.084   3.308  1.00  0.00     0.174 HD
ATOM     25  H51 UNL     1      51.473   7.758   2.915  1.00  0.00     0.174 HD
ENDBRANCH  19  23
ENDBRANCH  13  15
ENDBRANCH  12  13
BRANCH   1  26
HETATM   26  C2  UNL     1      45.213  11.625   2.381  1.00  0.00    -0.002 C 
HETATM   27  C1  UNL     1      45.943  12.660   2.755  1.00  0.00     0.009 C 
ENDBRANCH   1  26
TORSDOF 4
ENDMDL
MODEL 4
REMARK VINA RESULT: -4.962420269      3.527      5.762
REMARK  4 active torsions:
REMARK  status: ('A' for Active; 'I' for Inactive)
REMARK    1  A    between atoms: C2_2  and  C3_3 
REMARK    2  A    between atoms: C10_14  and  N3_15 
REMARK    3  A    between atoms: N3_15  and  C11_17 
REMARK    4  A    between atoms: C14_22  and  N5_23 
ROOT
HETATM    1  C3  UNL     1      46.654  11.884  -1.164  1.00  0.00     0.231 C 
HETATM    2  N1  UNL     1      46.885  12.471  -2.469  1.00  0.00    -0.065 N 
ATOM      3  H11 UNL     1      47.161  11.792  -3.177  1.00  0.00     0.278 HD
ATOM      4  H12 UNL     1      47.726  13.046  -2.514  1.00  0.00     0.278 HD
HETATM    5  C4  UNL     1      45.654  13.204  -2.806  1.00  0.00     0.240 C 
HETATM    6  C5  UNL     1      44.655  12.151  -3.219  1.00  0.00     0.047 C 
HETATM    7  C6  UNL     1      43.258  12.437  -2.788  1.00  0.00     0.278 C 
HETATM    8  N2  UNL     1      42.600  11.152  -2.617  1.00  0.00     0.085 N 
HETATM    9  C7  UNL     1      41.622  10.961  -3.691  1.00  0.00     0.309 C 
HETATM   10  C8  UNL     1      43.612  10.139  -2.627  1.00  0.00     0.279 C 
HETATM   11  C9  UNL     1      44.945  10.831  -2.548  1.00  0.00     0.046 C 
HETATM   12  C10 UNL     1      45.440  10.983  -1.132  1.00  0.00     0.123 C 
ENDROOT
BRANCH  12  13
HETATM   13  N3  UNL     1      44.437  11.424  -0.220  1.00  0.00    -0.368 N 
ATOM     14  H3  UNL     1      43.528  10.969  -0.295  1.00  0.00     0.161 HD
BRANCH  13  15
HETATM   15  C11 UNL     1      44.547  12.328   0.684  1.00  0.00     0.118 A 
HETATM   16  C12 UNL     1      45.330  12.050   1.786  1.00  0.00     0.066 A 
HETATM   17  C13 UNL     1      45.495  12.989   2.810  1.00  0.00     0.110 A 
HETATM   18  N4  UNL     1      44.886  14.177   2.725  1.00  0.00    -0.202 N 
HETATM   19  C14 UNL     1      44.121  14.442   1.645  1.00  0.00     0.677 A 
ATOM     20  H4  UNL     1      44.998  14.870   3.464  1.00  0.00     0.183 HD
HETATM   21  N6  UNL     1      43.957  13.535   0.647  1.00  0.00    -0.177 N 
ATOM     22  H6  UNL     1      43.371  13.777  -0.152  1.00  0.00     0.185 HD
BRANCH  19  23
HETATM   23  N5  UNL     1      43.555  15.602   1.609  1.00  0.00    -0.234 N 
ATOM     24  H52 UNL     1      42.574  15.728   1.859  1.00  0.00     0.174 HD
ATOM     25  H51 UNL     1      44.138  16.386   1.315  1.00  0.00     0.174 HD
ENDBRANCH  19  23
ENDBRANCH  13  15
ENDBRANCH  12  13
BRANCH   1  26
HETATM   26  C2  UNL     1      47.905  11.205  -0.760  1.00  0.00    -0.002 C 
HETATM   27  C1  UNL     1      49.049  11.857  -0.861  1.00  0.00     0.009 C 
ENDBRANCH   1  26
TORSDOF 4
ENDMDL
MODEL 5
REMARK VINA RESULT: -4.953329301      3.329      5.424
REMARK  4 active torsions:
REMARK  status: ('A' for Active; 'I' for Inactive)
REMARK    1  A    between atoms: C2_2  and  C3_3 
REMARK    2  A    between atoms: C10_14  and  N3_15 
REMARK    3  A    between atoms: N3_15  and  C11_17 
REMARK    4  A    between atoms: C14_22  and  N5_23 
ROOT
HETATM    1  C3  UNL     1      42.819  10.134  -3.045  1.00  0.00     0.231 C 
HETATM    2  N1  UNL     1      42.524  10.301  -4.454  1.00  0.00    -0.065 N 
ATOM      3  H11 UNL     1      41.643  10.780  -4.631  1.00  0.00     0.278 HD
ATOM      4  H12 UNL     1      42.288   9.428  -4.927  1.00  0.00     0.278 HD
HETATM    5  C4  UNL     1      43.691  10.985  -5.033  1.00  0.00     0.240 C 
HETATM    6  C5  UNL     1      43.563  12.430  -4.615  1.00  0.00     0.047 C 
HETATM    7  C6  UNL     1      44.862  13.088  -4.300  1.00  0.00     0.278 C 
HETATM    8  N2  UNL     1      44.581  14.122  -3.317  1.00  0.00     0.085 N 
HETATM    9  C7  UNL     1      44.718  15.438  -3.945  1.00  0.00     0.309 C 
HETATM   10  C8  UNL     1      43.256  13.902  -2.819  1.00  0.00     0.279 C 
HETATM   11  C9  UNL     1      42.804  12.557  -3.318  1.00  0.00     0.046 C 
HETATM   12  C10 UNL     1      43.103  11.444  -2.345  1.00  0.00     0.123 C 
ENDROOT
BRANCH  12  13
HETATM   13  N3  UNL     1      44.413  11.510  -1.786  1.00  0.00    -0.368 N 
ATOM     14  H3  UNL     1      45.182  11.597  -2.449  1.00  0.00     0.161 HD
BRANCH  13  15
HETATM   15  C11 UNL     1      44.734  11.473  -0.544  1.00  0.00     0.118 A 
HETATM   16  C12 UNL     1      44.168  12.408   0.299  1.00  0.00     0.066 A 
HETATM   17  C13 UNL     1      44.473  12.426   1.664  1.00  0.00     0.110 A 
HETATM   18  N4  UNL     1      45.325  11.527   2.166  1.00  0.00    -0.202 N 
HETATM   19  C14 UNL     1      45.875  10.615   1.336  1.00  0.00     0.677 A 
ATOM     20  H4  UNL     1      45.556  11.529   3.159  1.00  0.00     0.183 HD
HETATM   21  N6  UNL     1      45.584  10.592   0.009  1.00  0.00    -0.177 N 
ATOM     22  H6  UNL     1      46.021   9.885  -0.583  1.00  0.00     0.185 HD
BRANCH  19  23
HETATM   23  N5  UNL     1      46.691   9.767   1.867  1.00  0.00    -0.234 N 
ATOM     24  H52 UNL     1      46.385   9.098   2.573  1.00  0.00     0.174 HD
ATOM     25  H51 UNL     1      47.659   9.802   1.546  1.00  0.00     0.174 HD
ENDBRANCH  19  23
ENDBRANCH  13  15
ENDBRANCH  12  13
BRANCH   1  26
HETATM   26  C2  UNL     1      41.697   9.376  -2.448  1.00  0.00    -0.002 C 
HETATM   27  C1  UNL     1      40.539   9.342  -3.081  1.00  0.00     0.009 C 
ENDBRANCH   1  26
TORSDOF 4
ENDMDL
