MODEL 1
REMARK VINA RESULT: -6.139816194      0.000      0.000
REMARK  7 active torsions:
REMARK  status: ('A' for Active; 'I' for Inactive)
REMARK    1  A    between atoms: C2_2  and  C3_3 
REMARK    2  A    between atoms: C3_3  and  N1_4 
REMARK    3  A    between atoms: N1_4  and  C4_6 
REMARK    4  A    between atoms: C4_6  and  N2_8 
REMARK    5  A    between atoms: N2_8  and  N3_10 
REMARK    6  A    between atoms: C5_12  and  C6_13 
REMARK    7  A    between atoms: C7_14  and  C8_15 
ROOT
HETATM    1  N2  UNL     1      -3.527  30.766  -6.234  1.00  0.00    -0.277 N 
ATOM      2  H2  UNL     1      -4.174  31.419  -6.674  1.00  0.00     0.189 HD
ENDROOT
BRANCH   1   3
HETATM    3  C4  UNL     1      -3.298  30.808  -4.840  1.00  0.00     0.186 C 
HETATM    4  S1  UNL     1      -1.807  30.710  -4.197  1.00  0.00    -0.040 SA
BRANCH   3   5
HETATM    5  N1  UNL     1      -4.401  30.942  -3.957  1.00  0.00    -0.363 N 
ATOM      6  H1  UNL     1      -5.359  30.932  -4.307  1.00  0.00     0.162 HD
BRANCH   5   7
HETATM    7  C3  UNL     1      -4.124  31.093  -2.552  1.00  0.00     0.148 C 
BRANCH   7   8
HETATM    8  C2  UNL     1      -4.263  32.447  -2.010  1.00  0.00    -0.018 C 
HETATM    9  C1  UNL     1      -3.372  33.057  -1.288  1.00  0.00     0.008 C 
ENDBRANCH   7   8
ENDBRANCH   5   7
ENDBRANCH   3   5
ENDBRANCH   1   3
BRANCH   1  10
HETATM   10  N3  UNL     1      -2.858  29.825  -6.988  1.00  0.00    -0.310 N 
HETATM   11  C5  UNL     1      -2.472  30.015  -8.217  1.00  0.00     0.107 C 
ATOM     12  H3  UNL     1      -2.654  28.923  -6.557  1.00  0.00     0.186 HD
BRANCH  11  13
HETATM   13  C6  UNL     1      -2.715  31.250  -8.912  1.00  0.00     0.015 C 
HETATM   14  C7  UNL     1      -3.071  31.356 -10.158  1.00  0.00    -0.021 C 
BRANCH  14  15
HETATM   15  C8  UNL     1      -3.274  30.175 -11.033  1.00  0.00     0.008 A 
HETATM   16  C9  UNL     1      -2.592  30.152 -12.354  1.00  0.00     0.009 A 
HETATM   17  C10 UNL     1      -4.042  30.408 -12.319  1.00  0.00     0.009 A 
ENDBRANCH  14  15
ENDBRANCH  11  13
ENDBRANCH   1  10
TORSDOF 7
ENDMDL
MODEL 2
REMARK VINA RESULT: -6.032639624      1.395      1.933
REMARK  7 active torsions:
REMARK  status: ('A' for Active; 'I' for Inactive)
REMARK    1  A    between atoms: C2_2  and  C3_3 
REMARK    2  A    between atoms: C3_3  and  N1_4 
REMARK    3  A    between atoms: N1_4  and  C4_6 
REMARK    4  A    between atoms: C4_6  and  N2_8 
REMARK    5  A    between atoms: N2_8  and  N3_10 
REMARK    6  A    between atoms: C5_12  and  C6_13 
REMARK    7  A    between atoms: C7_14  and  C8_15 
ROOT
HETATM    1  N2  UNL     1      -3.072  31.135  -7.942  1.00  0.00    -0.277 N 
ATOM      2  H2  UNL     1      -3.985  31.379  -8.327  1.00  0.00     0.189 HD
ENDROOT
BRANCH   1   3
HETATM    3  C4  UNL     1      -2.953  30.665  -6.615  1.00  0.00     0.186 C 
HETATM    4  S1  UNL     1      -1.965  29.437  -6.210  1.00  0.00    -0.040 SA
BRANCH   3   5
HETATM    5  N1  UNL     1      -3.717  31.276  -5.588  1.00  0.00    -0.363 N 
ATOM      6  H1  UNL     1      -4.681  31.567  -5.752  1.00  0.00     0.162 HD
BRANCH   5   7
HETATM    7  C3  UNL     1      -3.089  31.473  -4.307  1.00  0.00     0.148 C 
BRANCH   7   8
HETATM    8  C2  UNL     1      -3.820  30.963  -3.146  1.00  0.00    -0.018 C 
HETATM    9  C1  UNL     1      -4.195  31.676  -2.127  1.00  0.00     0.008 C 
ENDBRANCH   7   8
ENDBRANCH   5   7
ENDBRANCH   3   5
ENDBRANCH   1   3
BRANCH   1  10
HETATM   10  N3  UNL     1      -1.933  31.259  -8.708  1.00  0.00    -0.310 N 
HETATM   11  C5  UNL     1      -1.936  31.457  -9.995  1.00  0.00     0.107 C 
ATOM     12  H3  UNL     1      -1.030  31.191  -8.237  1.00  0.00     0.186 HD
BRANCH  11  13
HETATM   13  C6  UNL     1      -3.155  31.565 -10.749  1.00  0.00     0.015 C 
HETATM   14  C7  UNL     1      -3.550  30.733 -11.666  1.00  0.00    -0.021 C 
BRANCH  14  15
HETATM   15  C8  UNL     1      -2.761  29.538 -12.053  1.00  0.00     0.008 A 
HETATM   16  C9  UNL     1      -1.786  29.668 -13.168  1.00  0.00     0.009 A 
HETATM   17  C10 UNL     1      -3.048  28.950 -13.421  1.00  0.00     0.009 A 
ENDBRANCH  14  15
ENDBRANCH  11  13
ENDBRANCH   1  10
TORSDOF 7
ENDMDL
MODEL 3
REMARK VINA RESULT: -6.007160154      1.064      1.201
REMARK  7 active torsions:
REMARK  status: ('A' for Active; 'I' for Inactive)
REMARK    1  A    between atoms: C2_2  and  C3_3 
REMARK    2  A    between atoms: C3_3  and  N1_4 
REMARK    3  A    between atoms: N1_4  and  C4_6 
REMARK    4  A    between atoms: C4_6  and  N2_8 
REMARK    5  A    between atoms: N2_8  and  N3_10 
REMARK    6  A    between atoms: C5_12  and  C6_13 
REMARK    7  A    between atoms: C7_14  and  C8_15 
ROOT
HETATM    1  N2  UNL     1      -2.809  31.233  -6.950  1.00  0.00    -0.277 N 
ATOM      2  H2  UNL     1      -3.153  32.095  -7.371  1.00  0.00     0.189 HD
ENDROOT
BRANCH   1   3
HETATM    3  C4  UNL     1      -3.173  30.880  -5.631  1.00  0.00     0.186 C 
HETATM    4  S1  UNL     1      -2.499  29.623  -4.846  1.00  0.00    -0.040 SA
BRANCH   3   5
HETATM    5  N1  UNL     1      -4.160  31.641  -4.954  1.00  0.00    -0.363 N 
ATOM      6  H1  UNL     1      -5.149  31.404  -5.029  1.00  0.00     0.162 HD
BRANCH   5   7
HETATM    7  C3  UNL     1      -3.722  32.758  -4.158  1.00  0.00     0.148 C 
BRANCH   7   8
HETATM    8  C2  UNL     1      -3.909  32.631  -2.711  1.00  0.00    -0.018 C 
HETATM    9  C1  UNL     1      -4.246  31.538  -2.095  1.00  0.00     0.008 C 
ENDBRANCH   7   8
ENDBRANCH   5   7
ENDBRANCH   3   5
ENDBRANCH   1   3
BRANCH   1  10
HETATM   10  N3  UNL     1      -1.979  30.390  -7.658  1.00  0.00    -0.310 N 
HETATM   11  C5  UNL     1      -1.680  30.546  -8.916  1.00  0.00     0.107 C 
ATOM     12  H3  UNL     1      -1.573  29.593  -7.165  1.00  0.00     0.186 HD
BRANCH  11  13
HETATM   13  C6  UNL     1      -2.202  31.635  -9.695  1.00  0.00     0.015 C 
HETATM   14  C7  UNL     1      -2.939  31.515 -10.759  1.00  0.00    -0.021 C 
BRANCH  14  15
HETATM   15  C8  UNL     1      -3.338  30.196 -11.309  1.00  0.00     0.008 A 
HETATM   16  C9  UNL     1      -2.733  29.755 -12.594  1.00  0.00     0.009 A 
HETATM   17  C10 UNL     1      -4.133  30.211 -12.599  1.00  0.00     0.009 A 
ENDBRANCH  14  15
ENDBRANCH  11  13
ENDBRANCH   1  10
TORSDOF 7
ENDMDL
MODEL 4
REMARK VINA RESULT: -5.971760244      2.836      4.246
REMARK  7 active torsions:
REMARK  status: ('A' for Active; 'I' for Inactive)
REMARK    1  A    between atoms: C2_2  and  C3_3 
REMARK    2  A    between atoms: C3_3  and  N1_4 
REMARK    3  A    between atoms: N1_4  and  C4_6 
REMARK    4  A    between atoms: C4_6  and  N2_8 
REMARK    5  A    between atoms: N2_8  and  N3_10 
REMARK    6  A    between atoms: C5_12  and  C6_13 
REMARK    7  A    between atoms: C7_14  and  C8_15 
ROOT
HETATM    1  N2  UNL     1      -3.534  29.230 -10.031  1.00  0.00    -0.277 N 
ATOM      2  H2  UNL     1      -3.839  28.277 -10.228  1.00  0.00     0.189 HD
ENDROOT
BRANCH   1   3
HETATM    3  C4  UNL     1      -2.613  29.491  -8.993  1.00  0.00     0.186 C 
HETATM    4  S1  UNL     1      -1.232  30.317  -9.238  1.00  0.00    -0.040 SA
BRANCH   3   5
HETATM    5  N1  UNL     1      -2.889  29.023  -7.682  1.00  0.00    -0.363 N 
ATOM      6  H1  UNL     1      -3.700  28.434  -7.494  1.00  0.00     0.162 HD
BRANCH   5   7
HETATM    7  C3  UNL     1      -1.987  29.405  -6.626  1.00  0.00     0.148 C 
BRANCH   7   8
HETATM    8  C2  UNL     1      -2.588  30.106  -5.488  1.00  0.00    -0.018 C 
HETATM    9  C1  UNL     1      -3.202  31.248  -5.555  1.00  0.00     0.008 C 
ENDBRANCH   7   8
ENDBRANCH   5   7
ENDBRANCH   3   5
ENDBRANCH   1   3
BRANCH   1  10
HETATM   10  N3  UNL     1      -4.015  30.287 -10.774  1.00  0.00    -0.310 N 
HETATM   11  C5  UNL     1      -4.044  30.311 -12.076  1.00  0.00     0.107 C 
ATOM     12  H3  UNL     1      -4.370  31.102 -10.273  1.00  0.00     0.186 HD
BRANCH  11  13
HETATM   13  C6  UNL     1      -3.566  29.213 -12.871  1.00  0.00     0.015 C 
HETATM   14  C7  UNL     1      -2.361  29.092 -13.343  1.00  0.00    -0.021 C 
BRANCH  14  15
HETATM   15  C8  UNL     1      -1.306  30.109 -13.107  1.00  0.00     0.008 A 
HETATM   16  C9  UNL     1      -0.210  30.232 -14.103  1.00  0.00     0.009 A 
HETATM   17  C10 UNL     1       0.086  29.586 -12.813  1.00  0.00     0.009 A 
ENDBRANCH  14  15
ENDBRANCH  11  13
ENDBRANCH   1  10
TORSDOF 7
ENDMDL
MODEL 5
REMARK VINA RESULT: -5.851935769      1.849      7.237
REMARK  7 active torsions:
REMARK  status: ('A' for Active; 'I' for Inactive)
REMARK    1  A    between atoms: C2_2  and  C3_3 
REMARK    2  A    between atoms: C3_3  and  N1_4 
REMARK    3  A    between atoms: N1_4  and  C4_6 
REMARK    4  A    between atoms: C4_6  and  N2_8 
REMARK    5  A    between atoms: N2_8  and  N3_10 
REMARK    6  A    between atoms: C5_12  and  C6_13 
REMARK    7  A    between atoms: C7_14  and  C8_15 
ROOT
HETATM    1  N2  UNL     1      -2.942  30.976  -7.337  1.00  0.00    -0.277 N 
ATOM      2  H2  UNL     1      -2.916  31.890  -6.886  1.00  0.00     0.189 HD
ENDROOT
BRANCH   1   3
HETATM    3  C4  UNL     1      -2.632  30.841  -8.708  1.00  0.00     0.186 C 
HETATM    4  S1  UNL     1      -1.209  30.243  -9.226  1.00  0.00    -0.040 SA
BRANCH   3   5
HETATM    5  N1  UNL     1      -3.586  31.236  -9.681  1.00  0.00    -0.363 N 
ATOM      6  H1  UNL     1      -4.550  31.442  -9.419  1.00  0.00     0.162 HD
BRANCH   5   7
HETATM    7  C3  UNL     1      -3.151  31.338 -11.050  1.00  0.00     0.148 C 
BRANCH   7   8
HETATM    8  C2  UNL     1      -3.885  30.524 -12.021  1.00  0.00    -0.018 C 
HETATM    9  C1  UNL     1      -3.387  29.526 -12.687  1.00  0.00     0.008 C 
ENDBRANCH   7   8
ENDBRANCH   5   7
ENDBRANCH   3   5
ENDBRANCH   1   3
BRANCH   1  10
HETATM   10  N3  UNL     1      -3.282  29.850  -6.619  1.00  0.00    -0.310 N 
HETATM   11  C5  UNL     1      -2.869  29.603  -5.408  1.00  0.00     0.107 C 
ATOM     12  H3  UNL     1      -3.895  29.166  -7.063  1.00  0.00     0.186 HD
BRANCH  11  13
HETATM   13  C6  UNL     1      -2.002  30.504  -4.698  1.00  0.00     0.015 C 
HETATM   14  C7  UNL     1      -2.388  31.404  -3.844  1.00  0.00    -0.021 C 
BRANCH  14  15
HETATM   15  C8  UNL     1      -3.814  31.614  -3.494  1.00  0.00     0.008 A 
HETATM   16  C9  UNL     1      -4.172  32.796  -2.667  1.00  0.00     0.009 A 
HETATM   17  C10 UNL     1      -4.182  31.467  -2.031  1.00  0.00     0.009 A 
ENDBRANCH  14  15
ENDBRANCH  11  13
ENDBRANCH   1  10
TORSDOF 7
ENDMDL
