MODEL 1
REMARK VINA RESULT: -6.173357720      0.000      0.000
REMARK  5 active torsions:
REMARK  status: ('A' for Active; 'I' for Inactive)
REMARK    1  A    between atoms: N1_2  and  C2_5 
REMARK    2  A    between atoms: C2_5  and  C3_6 
REMARK    3  A    between atoms: C3_6  and  C4_7 
REMARK    4  A    between atoms: C4_7  and  C5_8 
REMARK    5  A    between atoms: C10_13  and  N2_14 
ROOT
HETATM    1  C5  UNL     1      -2.684  30.212 -10.056  1.00  0.00     0.223 C 
HETATM    2  C6  UNL     1      -3.332  31.507 -10.427  1.00  0.00     0.036 C 
HETATM    3  C7  UNL     1      -3.974  31.531 -11.758  1.00  0.00     0.004 C 
HETATM    4  C8  UNL     1      -4.098  30.253 -12.475  1.00  0.00     0.038 C 
HETATM    5  C9  UNL     1      -3.215  29.145 -12.063  1.00  0.00     0.253 C 
HETATM    6  C10 UNL     1      -2.417  28.586 -13.240  1.00  0.00     0.218 C 
HETATM    7  C11 UNL     1      -1.379  29.686 -13.400  1.00  0.00     0.065 C 
HETATM    8  C12 UNL     1      -1.219  30.187 -11.972  1.00  0.00     0.275 C 
HETATM    9  N3  UNL     1      -2.156  29.488 -11.169  1.00  0.00     0.100 N 
ENDROOT
BRANCH   1  10
HETATM   10  C4  UNL     1      -1.674  30.423  -8.944  1.00  0.00     0.037 C 
BRANCH  10  11
HETATM   11  C3  UNL     1      -2.348  30.634  -7.622  1.00  0.00     0.029 C 
BRANCH  11  12
HETATM   12  C2  UNL     1      -2.390  29.279  -6.918  1.00  0.00     0.231 C 
BRANCH  12  13
HETATM   13  N1  UNL     1      -3.515  29.330  -6.005  1.00  0.00    -0.079 N 
HETATM   14  C1  UNL     1      -3.088  29.667  -4.660  1.00  0.00     0.266 C 
ATOM     15  H12 UNL     1      -4.049  28.461  -6.022  1.00  0.00     0.276 HD
ATOM     16  H11 UNL     1      -4.239  29.966  -6.339  1.00  0.00     0.276 HD
ENDBRANCH  12  13
ENDBRANCH  11  12
ENDBRANCH  10  11
ENDBRANCH   1  10
BRANCH   6  17
HETATM   17  N2  UNL     1      -3.222  28.402 -14.403  1.00  0.00    -0.073 N 
ATOM     18  H23 UNL     1      -4.179  28.716 -14.241  1.00  0.00     0.274 HD
ATOM     19  H22 UNL     1      -2.959  29.056 -15.141  1.00  0.00     0.274 HD
ATOM     20  H21 UNL     1      -3.202  27.439 -14.740  1.00  0.00     0.274 HD
ENDBRANCH   6  17
TORSDOF 5
ENDMDL
MODEL 2
REMARK VINA RESULT: -5.822387795      1.110      1.419
REMARK  5 active torsions:
REMARK  status: ('A' for Active; 'I' for Inactive)
REMARK    1  A    between atoms: N1_2  and  C2_5 
REMARK    2  A    between atoms: C2_5  and  C3_6 
REMARK    3  A    between atoms: C3_6  and  C4_7 
REMARK    4  A    between atoms: C4_7  and  C5_8 
REMARK    5  A    between atoms: C10_13  and  N2_14 
ROOT
HETATM    1  C5  UNL     1      -2.332  29.960  -8.767  1.00  0.00     0.223 C 
HETATM    2  C6  UNL     1      -2.709  31.405  -8.699  1.00  0.00     0.036 C 
HETATM    3  C7  UNL     1      -3.493  31.905  -9.847  1.00  0.00     0.004 C 
HETATM    4  C8  UNL     1      -3.994  30.913 -10.811  1.00  0.00     0.038 C 
HETATM    5  C9  UNL     1      -3.341  29.590 -10.839  1.00  0.00     0.253 C 
HETATM    6  C10 UNL     1      -2.847  29.229 -12.239  1.00  0.00     0.218 C 
HETATM    7  C11 UNL     1      -1.615  30.117 -12.320  1.00  0.00     0.065 C 
HETATM    8  C12 UNL     1      -1.166  30.177 -10.867  1.00  0.00     0.275 C 
HETATM    9  N3  UNL     1      -2.128  29.476 -10.095  1.00  0.00     0.100 N 
ENDROOT
BRANCH   1  10
HETATM   10  C4  UNL     1      -1.166  29.672  -7.838  1.00  0.00     0.037 C 
BRANCH  10  11
HETATM   11  C3  UNL     1      -1.604  29.627  -6.406  1.00  0.00     0.029 C 
BRANCH  11  12
HETATM   12  C2  UNL     1      -3.031  29.082  -6.388  1.00  0.00     0.231 C 
BRANCH  12  13
HETATM   13  N1  UNL     1      -3.513  29.247  -5.031  1.00  0.00    -0.079 N 
HETATM   14  C1  UNL     1      -3.286  30.597  -4.551  1.00  0.00     0.266 C 
ATOM     15  H12 UNL     1      -3.106  28.553  -4.403  1.00  0.00     0.276 HD
ATOM     16  H11 UNL     1      -4.493  28.979  -4.947  1.00  0.00     0.276 HD
ENDBRANCH  12  13
ENDBRANCH  11  12
ENDBRANCH  10  11
ENDBRANCH   1  10
BRANCH   6  17
HETATM   17  N2  UNL     1      -3.814  29.518 -13.247  1.00  0.00    -0.073 N 
ATOM     18  H23 UNL     1      -4.639  29.965 -12.847  1.00  0.00     0.274 HD
ATOM     19  H22 UNL     1      -3.498  30.274 -13.854  1.00  0.00     0.274 HD
ATOM     20  H21 UNL     1      -4.068  28.692 -13.788  1.00  0.00     0.274 HD
ENDBRANCH   6  17
TORSDOF 5
ENDMDL
MODEL 3
REMARK VINA RESULT: -5.585129064      1.641      5.275
REMARK  5 active torsions:
REMARK  status: ('A' for Active; 'I' for Inactive)
REMARK    1  A    between atoms: N1_2  and  C2_5 
REMARK    2  A    between atoms: C2_5  and  C3_6 
REMARK    3  A    between atoms: C3_6  and  C4_7 
REMARK    4  A    between atoms: C4_7  and  C5_8 
REMARK    5  A    between atoms: C10_13  and  N2_14 
ROOT
HETATM    1  C5  UNL     1      -2.513  30.700 -11.430  1.00  0.00     0.223 C 
HETATM    2  C6  UNL     1      -3.687  31.489 -10.947  1.00  0.00     0.036 C 
HETATM    3  C7  UNL     1      -3.656  31.851  -9.514  1.00  0.00     0.004 C 
HETATM    4  C8  UNL     1      -2.409  31.592  -8.776  1.00  0.00     0.038 C 
HETATM    5  C9  UNL     1      -1.460  30.619  -9.349  1.00  0.00     0.253 C 
HETATM    6  C10 UNL     1      -1.107  29.516  -8.353  1.00  0.00     0.218 C 
HETATM    7  C11 UNL     1      -2.381  28.688  -8.414  1.00  0.00     0.065 C 
HETATM    8  C12 UNL     1      -2.838  28.908  -9.849  1.00  0.00     0.275 C 
HETATM    9  N3  UNL     1      -1.946  29.839 -10.441  1.00  0.00     0.100 N 
ENDROOT
BRANCH   1  10
HETATM   10  C4  UNL     1      -2.851  29.985 -12.725  1.00  0.00     0.037 C 
BRANCH  10  11
HETATM   11  C3  UNL     1      -1.633  29.380 -13.354  1.00  0.00     0.029 C 
BRANCH  11  12
HETATM   12  C2  UNL     1      -2.106  28.227 -14.236  1.00  0.00     0.231 C 
BRANCH  12  13
HETATM   13  N1  UNL     1      -3.407  27.835 -13.730  1.00  0.00    -0.079 N 
HETATM   14  C1  UNL     1      -3.424  26.437 -13.343  1.00  0.00     0.266 C 
ATOM     15  H12 UNL     1      -4.148  28.048 -14.399  1.00  0.00     0.276 HD
ATOM     16  H11 UNL     1      -3.708  28.439 -12.965  1.00  0.00     0.276 HD
ENDBRANCH  12  13
ENDBRANCH  11  12
ENDBRANCH  10  11
ENDBRANCH   1  10
BRANCH   6  17
HETATM   17  N2  UNL     1      -0.835  30.028  -7.049  1.00  0.00    -0.073 N 
ATOM     18  H23 UNL     1      -1.696  30.155  -6.517  1.00  0.00     0.274 HD
ATOM     19  H22 UNL     1      -0.383  29.326  -6.464  1.00  0.00     0.274 HD
ATOM     20  H21 UNL     1      -0.289  30.890  -7.078  1.00  0.00     0.274 HD
ENDBRANCH   6  17
TORSDOF 5
ENDMDL
MODEL 4
REMARK VINA RESULT: -5.533883348      1.699      2.691
REMARK  5 active torsions:
REMARK  status: ('A' for Active; 'I' for Inactive)
REMARK    1  A    between atoms: N1_2  and  C2_5 
REMARK    2  A    between atoms: C2_5  and  C3_6 
REMARK    3  A    between atoms: C3_6  and  C4_7 
REMARK    4  A    between atoms: C4_7  and  C5_8 
REMARK    5  A    between atoms: C10_13  and  N2_14 
ROOT
HETATM    1  C5  UNL     1      -2.324  30.679  -8.431  1.00  0.00     0.223 C 
HETATM    2  C6  UNL     1      -0.921  30.575  -8.937  1.00  0.00     0.036 C 
HETATM    3  C7  UNL     1      -0.771  30.683 -10.404  1.00  0.00     0.004 C 
HETATM    4  C8  UNL     1      -1.955  31.086 -11.179  1.00  0.00     0.038 C 
HETATM    5  C9  UNL     1      -3.278  30.925 -10.547  1.00  0.00     0.253 C 
HETATM    6  C10 UNL     1      -4.226  30.098 -11.413  1.00  0.00     0.218 C 
HETATM    7  C11 UNL     1      -3.662  28.707 -11.167  1.00  0.00     0.065 C 
HETATM    8  C12 UNL     1      -3.128  28.824  -9.746  1.00  0.00     0.275 C 
HETATM    9  N3  UNL     1      -3.306  30.171  -9.335  1.00  0.00     0.100 N 
ENDROOT
BRANCH   1  10
HETATM   10  C4  UNL     1      -2.429  30.090  -7.037  1.00  0.00     0.037 C 
BRANCH  10  11
HETATM   11  C3  UNL     1      -3.185  30.997  -6.113  1.00  0.00     0.029 C 
BRANCH  11  12
HETATM   12  C2  UNL     1      -3.227  30.315  -4.748  1.00  0.00     0.231 C 
BRANCH  12  13
HETATM   13  N1  UNL     1      -4.397  30.834  -4.069  1.00  0.00    -0.079 N 
HETATM   14  C1  UNL     1      -4.084  31.238  -2.711  1.00  0.00     0.266 C 
ATOM     15  H12 UNL     1      -5.170  30.168  -4.092  1.00  0.00     0.276 HD
ATOM     16  H11 UNL     1      -4.829  31.593  -4.595  1.00  0.00     0.276 HD
ENDBRANCH  12  13
ENDBRANCH  11  12
ENDBRANCH  10  11
ENDBRANCH   1  10
BRANCH   6  17
HETATM   17  N2  UNL     1      -4.183  30.484 -12.786  1.00  0.00    -0.073 N 
ATOM     18  H23 UNL     1      -3.650  29.814 -13.340  1.00  0.00     0.274 HD
ATOM     19  H22 UNL     1      -5.095  30.373 -13.229  1.00  0.00     0.274 HD
ATOM     20  H21 UNL     1      -3.827  31.432 -12.910  1.00  0.00     0.274 HD
ENDBRANCH   6  17
TORSDOF 5
ENDMDL
MODEL 5
REMARK VINA RESULT: -5.524260200      1.108      1.979
REMARK  5 active torsions:
REMARK  status: ('A' for Active; 'I' for Inactive)
REMARK    1  A    between atoms: N1_2  and  C2_5 
REMARK    2  A    between atoms: C2_5  and  C3_6 
REMARK    3  A    between atoms: C3_6  and  C4_7 
REMARK    4  A    between atoms: C4_7  and  C5_8 
REMARK    5  A    between atoms: C10_13  and  N2_14 
ROOT
HETATM    1  C5  UNL     1      -2.503  31.336 -10.183  1.00  0.00     0.223 C 
HETATM    2  C6  UNL     1      -1.069  30.917 -10.124  1.00  0.00     0.036 C 
HETATM    3  C7  UNL     1      -0.576  30.191 -11.313  1.00  0.00     0.004 C 
HETATM    4  C8  UNL     1      -1.456  30.141 -12.491  1.00  0.00     0.038 C 
HETATM    5  C9  UNL     1      -2.893  30.406 -12.288  1.00  0.00     0.253 C 
HETATM    6  C10 UNL     1      -3.763  29.273 -12.830  1.00  0.00     0.218 C 
HETATM    7  C11 UNL     1      -3.545  28.231 -11.744  1.00  0.00     0.065 C 
HETATM    8  C12 UNL     1      -3.332  29.095 -10.509  1.00  0.00     0.275 C 
HETATM    9  N3  UNL     1      -3.336  30.449 -10.931  1.00  0.00     0.100 N 
ENDROOT
BRANCH   1  10
HETATM   10  C4  UNL     1      -3.029  31.621  -8.789  1.00  0.00     0.037 C 
BRANCH  10  11
HETATM   11  C3  UNL     1      -2.390  30.730  -7.767  1.00  0.00     0.029 C 
BRANCH  11  12
HETATM   12  C2  UNL     1      -3.098  30.987  -6.439  1.00  0.00     0.231 C 
BRANCH  12  13
HETATM   13  N1  UNL     1      -3.427  29.685  -5.894  1.00  0.00    -0.079 N 
HETATM   14  C1  UNL     1      -3.081  29.599  -4.488  1.00  0.00     0.266 C 
ATOM     15  H12 UNL     1      -2.994  28.934  -6.433  1.00  0.00     0.276 HD
ATOM     16  H11 UNL     1      -4.406  29.449  -6.054  1.00  0.00     0.276 HD
ENDBRANCH  12  13
ENDBRANCH  11  12
ENDBRANCH  10  11
ENDBRANCH   1  10
BRANCH   6  17
HETATM   17  N2  UNL     1      -3.340  28.834 -14.120  1.00  0.00    -0.073 N 
ATOM     18  H23 UNL     1      -3.024  29.619 -14.690  1.00  0.00     0.274 HD
ATOM     19  H22 UNL     1      -2.465  28.312 -14.063  1.00  0.00     0.274 HD
ATOM     20  H21 UNL     1      -4.059  28.295 -14.601  1.00  0.00     0.274 HD
ENDBRANCH   6  17
TORSDOF 5
ENDMDL
