MODEL 1
REMARK VINA RESULT: -6.336604756      0.000      0.000
REMARK  5 active torsions:
REMARK  status: ('A' for Active; 'I' for Inactive)
REMARK    1  A    between atoms: C2_2  and  N1_3 
REMARK    2  A    between atoms: N1_3  and  C3_6 
REMARK    3  A    between atoms: C3_6  and  C4_7 
REMARK    4  A    between atoms: C4_7  and  C5_8 
REMARK    5  A    between atoms: C5_8  and  C6_9 
ROOT
HETATM    1  C6  UNL     1      -2.632  30.378 -10.293  1.00  0.00     0.014 C 
HETATM    2  C7  UNL     1      -4.047  30.381 -10.732  1.00  0.00     0.008 C 
HETATM    3  C8  UNL     1      -4.259  30.166 -12.228  1.00  0.00     0.036 C 
HETATM    4  C9  UNL     1      -3.141  29.274 -12.719  1.00  0.00     0.223 C 
HETATM    5  C10 UNL     1      -3.191  28.983 -14.197  1.00  0.00     0.037 C 
HETATM    6  C11 UNL     1      -1.708  28.634 -14.441  1.00  0.00     0.032 C 
HETATM    7  C12 UNL     1      -0.959  29.280 -13.259  1.00  0.00     0.273 C 
HETATM    8  N2  UNL     1      -1.946  30.098 -12.668  1.00  0.00     0.093 N 
HETATM    9  C13 UNL     1      -1.721  30.755 -11.470  1.00  0.00     0.277 C 
ENDROOT
BRANCH   1  10
HETATM   10  C5  UNL     1      -2.369  31.386  -9.244  1.00  0.00     0.008 C 
BRANCH  10  11
HETATM   11  C4  UNL     1      -2.667  31.144  -7.840  1.00  0.00     0.028 C 
BRANCH  11  12
HETATM   12  C3  UNL     1      -2.338  29.866  -7.191  1.00  0.00     0.232 C 
BRANCH  12  13
HETATM   13  N1  UNL     1      -3.406  29.560  -6.221  1.00  0.00    -0.075 N 
ATOM     14  H12 UNL     1      -3.855  28.674  -6.451  1.00  0.00     0.277 HD
ATOM     15  H11 UNL     1      -4.196  30.193  -6.348  1.00  0.00     0.277 HD
BRANCH  13  16
HETATM   16  C2  UNL     1      -2.971  29.566  -4.863  1.00  0.00     0.228 C 
HETATM   17  C1  UNL     1      -3.645  30.783  -4.210  1.00  0.00     0.034 C 
ENDBRANCH  13  16
ENDBRANCH  12  13
ENDBRANCH  11  12
ENDBRANCH  10  11
ENDBRANCH   1  10
TORSDOF 5
ENDMDL
MODEL 2
REMARK VINA RESULT: -6.185046623      0.822      1.748
REMARK  5 active torsions:
REMARK  status: ('A' for Active; 'I' for Inactive)
REMARK    1  A    between atoms: C2_2  and  N1_3 
REMARK    2  A    between atoms: N1_3  and  C3_6 
REMARK    3  A    between atoms: C3_6  and  C4_7 
REMARK    4  A    between atoms: C4_7  and  C5_8 
REMARK    5  A    between atoms: C5_8  and  C6_9 
ROOT
HETATM    1  C6  UNL     1      -2.703  31.195 -10.168  1.00  0.00     0.014 C 
HETATM    2  C7  UNL     1      -1.228  31.220 -10.298  1.00  0.00     0.008 C 
HETATM    3  C8  UNL     1      -0.657  30.272 -11.349  1.00  0.00     0.036 C 
HETATM    4  C9  UNL     1      -1.682  30.155 -12.456  1.00  0.00     0.223 C 
HETATM    5  C10 UNL     1      -1.279  29.226 -13.572  1.00  0.00     0.037 C 
HETATM    6  C11 UNL     1      -2.673  28.877 -14.133  1.00  0.00     0.032 C 
HETATM    7  C12 UNL     1      -3.645  29.191 -12.978  1.00  0.00     0.273 C 
HETATM    8  N2  UNL     1      -2.777  29.394 -11.883  1.00  0.00     0.093 N 
HETATM    9  C13 UNL     1      -3.247  29.847 -10.661  1.00  0.00     0.277 C 
ENDROOT
BRANCH   1  10
HETATM   10  C5  UNL     1      -3.143  31.314  -8.761  1.00  0.00     0.008 C 
BRANCH  10  11
HETATM   11  C4  UNL     1      -2.372  30.764  -7.655  1.00  0.00     0.028 C 
BRANCH  11  12
HETATM   12  C3  UNL     1      -2.552  29.376  -7.205  1.00  0.00     0.232 C 
BRANCH  12  13
HETATM   13  N1  UNL     1      -3.483  29.387  -6.061  1.00  0.00    -0.075 N 
ATOM     14  H12 UNL     1      -4.040  28.532  -6.044  1.00  0.00     0.277 HD
ATOM     15  H11 UNL     1      -4.224  30.072  -6.209  1.00  0.00     0.277 HD
BRANCH  13  16
HETATM   16  C2  UNL     1      -2.849  29.597  -4.802  1.00  0.00     0.228 C 
HETATM   17  C1  UNL     1      -3.660  30.696  -4.099  1.00  0.00     0.034 C 
ENDBRANCH  13  16
ENDBRANCH  12  13
ENDBRANCH  11  12
ENDBRANCH  10  11
ENDBRANCH   1  10
TORSDOF 5
ENDMDL
MODEL 3
REMARK VINA RESULT: -6.165257402      1.047      2.222
REMARK  5 active torsions:
REMARK  status: ('A' for Active; 'I' for Inactive)
REMARK    1  A    between atoms: C2_2  and  N1_3 
REMARK    2  A    between atoms: N1_3  and  C3_6 
REMARK    3  A    between atoms: C3_6  and  C4_7 
REMARK    4  A    between atoms: C4_7  and  C5_8 
REMARK    5  A    between atoms: C5_8  and  C6_9 
ROOT
HETATM    1  C6  UNL     1      -2.505  31.001  -9.154  1.00  0.00     0.014 C 
HETATM    2  C7  UNL     1      -1.078  31.162  -9.518  1.00  0.00     0.008 C 
HETATM    3  C8  UNL     1      -0.656  30.450 -10.800  1.00  0.00     0.036 C 
HETATM    4  C9  UNL     1      -1.852  30.439 -11.726  1.00  0.00     0.223 C 
HETATM    5  C10 UNL     1      -1.606  29.743 -13.040  1.00  0.00     0.037 C 
HETATM    6  C11 UNL     1      -3.059  29.385 -13.417  1.00  0.00     0.032 C 
HETATM    7  C12 UNL     1      -3.827  29.426 -12.081  1.00  0.00     0.273 C 
HETATM    8  N2  UNL     1      -2.792  29.511 -11.125  1.00  0.00     0.093 N 
HETATM    9  C13 UNL     1      -3.061  29.716  -9.782  1.00  0.00     0.277 C 
ENDROOT
BRANCH   1  10
HETATM   10  C5  UNL     1      -2.696  30.849  -7.695  1.00  0.00     0.008 C 
BRANCH  10  11
HETATM   11  C4  UNL     1      -2.703  29.548  -7.043  1.00  0.00     0.028 C 
BRANCH  11  12
HETATM   12  C3  UNL     1      -2.331  29.393  -5.628  1.00  0.00     0.232 C 
BRANCH  12  13
HETATM   13  N1  UNL     1      -3.570  29.386  -4.830  1.00  0.00    -0.075 N 
ATOM     14  H12 UNL     1      -3.645  28.523  -4.290  1.00  0.00     0.277 HD
ATOM     15  H11 UNL     1      -4.386  29.282  -5.434  1.00  0.00     0.277 HD
BRANCH  13  16
HETATM   16  C2  UNL     1      -3.717  30.522  -3.981  1.00  0.00     0.228 C 
HETATM   17  C1  UNL     1      -2.563  30.445  -2.969  1.00  0.00     0.034 C 
ENDBRANCH  13  16
ENDBRANCH  12  13
ENDBRANCH  11  12
ENDBRANCH  10  11
ENDBRANCH   1  10
TORSDOF 5
ENDMDL
MODEL 4
REMARK VINA RESULT: -6.108190147      1.536      2.854
REMARK  5 active torsions:
REMARK  status: ('A' for Active; 'I' for Inactive)
REMARK    1  A    between atoms: C2_2  and  N1_3 
REMARK    2  A    between atoms: N1_3  and  C3_6 
REMARK    3  A    between atoms: C3_6  and  C4_7 
REMARK    4  A    between atoms: C4_7  and  C5_8 
REMARK    5  A    between atoms: C5_8  and  C6_9 
ROOT
HETATM    1  C6  UNL     1      -2.176  30.163  -8.337  1.00  0.00     0.014 C 
HETATM    2  C7  UNL     1      -0.894  30.579  -8.953  1.00  0.00     0.008 C 
HETATM    3  C8  UNL     1      -0.821  30.410 -10.468  1.00  0.00     0.036 C 
HETATM    4  C9  UNL     1      -2.218  30.612 -11.013  1.00  0.00     0.223 C 
HETATM    5  C10 UNL     1      -2.324  30.451 -12.508  1.00  0.00     0.037 C 
HETATM    6  C11 UNL     1      -3.824  30.111 -12.624  1.00  0.00     0.032 C 
HETATM    7  C12 UNL     1      -4.216  29.603 -11.222  1.00  0.00     0.273 C 
HETATM    8  N2  UNL     1      -2.967  29.444 -10.584  1.00  0.00     0.093 N 
HETATM    9  C13 UNL     1      -2.876  29.135  -9.236  1.00  0.00     0.277 C 
ENDROOT
BRANCH   1  10
HETATM   10  C5  UNL     1      -1.979  29.489  -7.036  1.00  0.00     0.008 C 
BRANCH  10  11
HETATM   11  C4  UNL     1      -3.055  29.335  -6.068  1.00  0.00     0.028 C 
BRANCH  11  12
HETATM   12  C3  UNL     1      -2.887  29.729  -4.661  1.00  0.00     0.232 C 
BRANCH  12  13
HETATM   13  N1  UNL     1      -4.123  30.407  -4.229  1.00  0.00    -0.075 N 
ATOM     14  H12 UNL     1      -4.657  29.811  -3.596  1.00  0.00     0.277 HD
ATOM     15  H11 UNL     1      -4.785  30.473  -5.003  1.00  0.00     0.277 HD
BRANCH  13  16
HETATM   16  C2  UNL     1      -3.905  31.690  -3.645  1.00  0.00     0.228 C 
HETATM   17  C1  UNL     1      -4.188  31.524  -2.144  1.00  0.00     0.034 C 
ENDBRANCH  13  16
ENDBRANCH  12  13
ENDBRANCH  11  12
ENDBRANCH  10  11
ENDBRANCH   1  10
TORSDOF 5
ENDMDL
MODEL 5
REMARK VINA RESULT: -6.041022474      1.750      2.967
REMARK  5 active torsions:
REMARK  status: ('A' for Active; 'I' for Inactive)
REMARK    1  A    between atoms: C2_2  and  N1_3 
REMARK    2  A    between atoms: N1_3  and  C3_6 
REMARK    3  A    between atoms: C3_6  and  C4_7 
REMARK    4  A    between atoms: C4_7  and  C5_8 
REMARK    5  A    between atoms: C5_8  and  C6_9 
ROOT
HETATM    1  C6  UNL     1      -2.828  29.915  -7.852  1.00  0.00     0.014 C 
HETATM    2  C7  UNL     1      -2.471  31.337  -8.063  1.00  0.00     0.008 C 
HETATM    3  C8  UNL     1      -2.359  31.765  -9.523  1.00  0.00     0.036 C 
HETATM    4  C9  UNL     1      -3.342  30.931 -10.315  1.00  0.00     0.223 C 
HETATM    5  C10 UNL     1      -3.337  31.216 -11.795  1.00  0.00     0.037 C 
HETATM    6  C11 UNL     1      -3.913  29.883 -12.315  1.00  0.00     0.032 C 
HETATM    7  C12 UNL     1      -3.655  28.878 -11.175  1.00  0.00     0.273 C 
HETATM    8  N2  UNL     1      -2.787  29.589 -10.318  1.00  0.00     0.093 N 
HETATM    9  C13 UNL     1      -2.420  29.089  -9.080  1.00  0.00     0.277 C 
ENDROOT
BRANCH   1  10
HETATM   10  C5  UNL     1      -2.103  29.319  -6.710  1.00  0.00     0.008 C 
BRANCH  10  11
HETATM   11  C4  UNL     1      -2.082  29.937  -5.392  1.00  0.00     0.028 C 
BRANCH  11  12
HETATM   12  C3  UNL     1      -3.010  29.518  -4.330  1.00  0.00     0.232 C 
BRANCH  12  13
HETATM   13  N1  UNL     1      -4.113  30.495  -4.279  1.00  0.00    -0.075 N 
ATOM     14  H12 UNL     1      -4.939  30.081  -3.846  1.00  0.00     0.277 HD
ATOM     15  H11 UNL     1      -4.479  30.671  -5.215  1.00  0.00     0.277 HD
BRANCH  13  16
HETATM   16  C2  UNL     1      -3.771  31.720  -3.635  1.00  0.00     0.228 C 
HETATM   17  C1  UNL     1      -4.221  31.568  -2.173  1.00  0.00     0.034 C 
ENDBRANCH  13  16
ENDBRANCH  12  13
ENDBRANCH  11  12
ENDBRANCH  10  11
ENDBRANCH   1  10
TORSDOF 5
ENDMDL
