MODEL 1
REMARK VINA RESULT: -5.566070271      0.000      0.000
REMARK  5 active torsions:
REMARK  status: ('A' for Active; 'I' for Inactive)
REMARK    1  A    between atoms: N1_2  and  C2_5 
REMARK    2  A    between atoms: N2_7  and  C4_8 
REMARK    3  A    between atoms: C4_8  and  C5_9 
REMARK    4  A    between atoms: C5_9  and  C6_10 
REMARK    5  A    between atoms: C6_10  and  C7_11 
ROOT
HETATM    1  C2  UNL     1      -2.575  30.731  -8.694  1.00  0.00     0.219 C 
HETATM    2  C3  UNL     1      -1.135  30.620  -9.036  1.00  0.00     0.305 C 
HETATM    3  N2  UNL     1      -0.909  31.139 -10.365  1.00  0.00     0.090 N 
HETATM    4  C11 UNL     1      -2.178  31.626 -10.854  1.00  0.00     0.279 C 
HETATM    5  C12 UNL     1      -3.262  31.273  -9.890  1.00  0.00     0.042 C 
HETATM    6  C13 UNL     1      -4.210  30.299 -10.542  1.00  0.00     0.014 C 
ENDROOT
BRANCH   3   7
HETATM    7  C4  UNL     1      -0.459  30.091 -11.270  1.00  0.00     0.272 C 
BRANCH   7   8
HETATM    8  C5  UNL     1      -1.211  30.322 -12.587  1.00  0.00     0.031 C 
BRANCH   8   9
HETATM    9  C6  UNL     1      -0.779  29.202 -13.515  1.00  0.00     0.011 C 
BRANCH   9  10
HETATM   10  C7  UNL     1      -1.927  28.635 -14.309  1.00  0.00    -0.044 A 
HETATM   11  C8  UNL     1      -1.760  28.760 -15.829  1.00  0.00     0.015 C 
HETATM   12  C9  UNL     1      -3.290  28.963 -13.748  1.00  0.00     0.010 A 
HETATM   13  C10 UNL     1      -2.738  27.505 -13.819  1.00  0.00     0.010 A 
ENDBRANCH   9  10
ENDBRANCH   8   9
ENDBRANCH   7   8
ENDBRANCH   3   7
BRANCH   1  14
HETATM   14  N1  UNL     1      -3.023  29.422  -8.261  1.00  0.00    -0.073 N 
HETATM   15  C1  UNL     1      -2.224  29.098  -7.076  1.00  0.00     0.267 C 
ATOM     16  H12 UNL     1      -2.976  28.712  -8.991  1.00  0.00     0.277 HD
ATOM     17  H11 UNL     1      -4.029  29.368  -8.102  1.00  0.00     0.277 HD
ENDBRANCH   1  14
TORSDOF 5
ENDMDL
MODEL 2
REMARK VINA RESULT: -5.533912307      2.889      5.089
REMARK  5 active torsions:
REMARK  status: ('A' for Active; 'I' for Inactive)
REMARK    1  A    between atoms: N1_2  and  C2_5 
REMARK    2  A    between atoms: N2_7  and  C4_8 
REMARK    3  A    between atoms: C4_8  and  C5_9 
REMARK    4  A    between atoms: C5_9  and  C6_10 
REMARK    5  A    between atoms: C6_10  and  C7_11 
ROOT
HETATM    1  C2  UNL     1      -3.229  31.655  -4.668  1.00  0.00     0.219 C 
HETATM    2  C3  UNL     1      -3.074  31.316  -6.104  1.00  0.00     0.305 C 
HETATM    3  N2  UNL     1      -3.018  29.881  -6.262  1.00  0.00     0.090 N 
HETATM    4  C11 UNL     1      -3.186  29.301  -4.950  1.00  0.00     0.279 C 
HETATM    5  C12 UNL     1      -3.194  30.379  -3.916  1.00  0.00     0.042 C 
HETATM    6  C13 UNL     1      -1.984  30.226  -3.030  1.00  0.00     0.014 C 
ENDROOT
BRANCH   3   7
HETATM    7  C4  UNL     1      -1.721  29.458  -6.770  1.00  0.00     0.272 C 
BRANCH   7   8
HETATM    8  C5  UNL     1      -1.967  28.988  -8.209  1.00  0.00     0.031 C 
BRANCH   8   9
HETATM    9  C6  UNL     1      -1.287  30.009  -9.102  1.00  0.00     0.011 C 
BRANCH   9  10
HETATM   10  C7  UNL     1      -2.060  30.273 -10.368  1.00  0.00    -0.044 A 
HETATM   11  C8  UNL     1      -1.180  30.496 -11.606  1.00  0.00     0.015 C 
HETATM   12  C9  UNL     1      -3.233  31.208 -10.196  1.00  0.00     0.010 A 
HETATM   13  C10 UNL     1      -3.403  29.709 -10.600  1.00  0.00     0.010 A 
ENDBRANCH   9  10
ENDBRANCH   8   9
ENDBRANCH   7   8
ENDBRANCH   3   7
BRANCH   1  14
HETATM   14  N1  UNL     1      -2.187  32.604  -4.328  1.00  0.00    -0.073 N 
HETATM   15  C1  UNL     1      -2.879  33.816  -3.880  1.00  0.00     0.267 C 
ATOM     16  H12 UNL     1      -1.523  32.770  -5.085  1.00  0.00     0.277 HD
ATOM     17  H11 UNL     1      -1.513  32.245  -3.651  1.00  0.00     0.277 HD
ENDBRANCH   1  14
TORSDOF 5
ENDMDL
MODEL 3
REMARK VINA RESULT: -5.496921244      1.879      3.078
REMARK  5 active torsions:
REMARK  status: ('A' for Active; 'I' for Inactive)
REMARK    1  A    between atoms: N1_2  and  C2_5 
REMARK    2  A    between atoms: N2_7  and  C4_8 
REMARK    3  A    between atoms: C4_8  and  C5_9 
REMARK    4  A    between atoms: C5_9  and  C6_10 
REMARK    5  A    between atoms: C6_10  and  C7_11 
ROOT
HETATM    1  C2  UNL     1      -3.248  30.882  -6.595  1.00  0.00     0.219 C 
HETATM    2  C3  UNL     1      -3.027  31.481  -7.934  1.00  0.00     0.305 C 
HETATM    3  N2  UNL     1      -2.459  30.492  -8.822  1.00  0.00     0.090 N 
HETATM    4  C11 UNL     1      -2.363  29.258  -8.079  1.00  0.00     0.279 C 
HETATM    5  C12 UNL     1      -2.727  29.496  -6.650  1.00  0.00     0.042 C 
HETATM    6  C13 UNL     1      -1.515  29.264  -5.783  1.00  0.00     0.014 C 
ENDROOT
BRANCH   3   7
HETATM    7  C4  UNL     1      -1.114  30.866  -9.235  1.00  0.00     0.272 C 
BRANCH   7   8
HETATM    8  C5  UNL     1      -0.851  30.109 -10.543  1.00  0.00     0.031 C 
BRANCH   8   9
HETATM    9  C6  UNL     1      -1.675  30.815 -11.605  1.00  0.00     0.011 C 
BRANCH   9  10
HETATM   10  C7  UNL     1      -2.560  29.868 -12.372  1.00  0.00    -0.044 A 
HETATM   11  C8  UNL     1      -1.897  29.255 -13.613  1.00  0.00     0.015 C 
HETATM   12  C9  UNL     1      -3.985  30.342 -12.531  1.00  0.00     0.010 A 
HETATM   13  C10 UNL     1      -3.609  29.067 -11.714  1.00  0.00     0.010 A 
ENDBRANCH   9  10
ENDBRANCH   8   9
ENDBRANCH   7   8
ENDBRANCH   3   7
BRANCH   1  14
HETATM   14  N1  UNL     1      -2.610  31.745  -5.620  1.00  0.00    -0.073 N 
HETATM   15  C1  UNL     1      -3.637  32.045  -4.619  1.00  0.00     0.267 C 
ATOM     16  H12 UNL     1      -2.184  32.577  -6.029  1.00  0.00     0.277 HD
ATOM     17  H11 UNL     1      -1.756  31.352  -5.224  1.00  0.00     0.277 HD
ENDBRANCH   1  14
TORSDOF 5
ENDMDL
MODEL 4
REMARK VINA RESULT: -5.485790436      3.004      5.392
REMARK  5 active torsions:
REMARK  status: ('A' for Active; 'I' for Inactive)
REMARK    1  A    between atoms: N1_2  and  C2_5 
REMARK    2  A    between atoms: N2_7  and  C4_8 
REMARK    3  A    between atoms: C4_8  and  C5_9 
REMARK    4  A    between atoms: C5_9  and  C6_10 
REMARK    5  A    between atoms: C6_10  and  C7_11 
ROOT
HETATM    1  C2  UNL     1      -3.187  31.749  -4.523  1.00  0.00     0.219 C 
HETATM    2  C3  UNL     1      -3.109  31.291  -5.933  1.00  0.00     0.305 C 
HETATM    3  N2  UNL     1      -3.044  29.847  -5.972  1.00  0.00     0.090 N 
HETATM    4  C11 UNL     1      -3.131  29.380  -4.608  1.00  0.00     0.279 C 
HETATM    5  C12 UNL     1      -3.093  30.541  -3.670  1.00  0.00     0.042 C 
HETATM    6  C13 UNL     1      -1.834  30.473  -2.845  1.00  0.00     0.014 C 
ENDROOT
BRANCH   3   7
HETATM    7  C4  UNL     1      -1.773  29.392  -6.516  1.00  0.00     0.272 C 
BRANCH   7   8
HETATM    8  C5  UNL     1      -2.057  28.996  -7.970  1.00  0.00     0.031 C 
BRANCH   8   9
HETATM    9  C6  UNL     1      -1.206  29.917  -8.826  1.00  0.00     0.011 C 
BRANCH   9  10
HETATM   10  C7  UNL     1      -1.905  30.335 -10.093  1.00  0.00    -0.044 A 
HETATM   11  C8  UNL     1      -3.215  29.584 -10.365  1.00  0.00     0.015 C 
HETATM   12  C9  UNL     1      -0.983  30.536 -11.273  1.00  0.00     0.010 A 
HETATM   13  C10 UNL     1      -1.799  31.703 -10.634  1.00  0.00     0.010 A 
ENDBRANCH   9  10
ENDBRANCH   8   9
ENDBRANCH   7   8
ENDBRANCH   3   7
BRANCH   1  14
HETATM   14  N1  UNL     1      -2.139  32.731  -4.325  1.00  0.00    -0.073 N 
HETATM   15  C1  UNL     1      -2.809  33.938  -3.835  1.00  0.00     0.267 C 
ATOM     16  H12 UNL     1      -1.567  32.891  -5.155  1.00  0.00     0.277 HD
ATOM     17  H11 UNL     1      -1.386  32.406  -3.718  1.00  0.00     0.277 HD
ENDBRANCH   1  14
TORSDOF 5
ENDMDL
MODEL 5
REMARK VINA RESULT: -5.401046776      2.079      6.272
REMARK  5 active torsions:
REMARK  status: ('A' for Active; 'I' for Inactive)
REMARK    1  A    between atoms: N1_2  and  C2_5 
REMARK    2  A    between atoms: N2_7  and  C4_8 
REMARK    3  A    between atoms: C4_8  and  C5_9 
REMARK    4  A    between atoms: C5_9  and  C6_10 
REMARK    5  A    between atoms: C6_10  and  C7_11 
ROOT
HETATM    1  C2  UNL     1      -2.949  30.897 -11.051  1.00  0.00     0.219 C 
HETATM    2  C3  UNL     1      -3.026  30.729  -9.578  1.00  0.00     0.305 C 
HETATM    3  N2  UNL     1      -1.701  30.818  -9.008  1.00  0.00     0.090 N 
HETATM    4  C11 UNL     1      -0.788  31.091 -10.093  1.00  0.00     0.279 C 
HETATM    5  C12 UNL     1      -1.513  31.021 -11.396  1.00  0.00     0.042 C 
HETATM    6  C13 UNL     1      -0.978  29.864 -12.202  1.00  0.00     0.014 C 
ENDROOT
BRANCH   3   7
HETATM    7  C4  UNL     1      -1.303  29.556  -8.401  1.00  0.00     0.272 C 
BRANCH   7   8
HETATM    8  C5  UNL     1      -2.371  29.245  -7.344  1.00  0.00     0.031 C 
BRANCH   8   9
HETATM    9  C6  UNL     1      -1.687  29.415  -6.000  1.00  0.00     0.011 C 
BRANCH   9  10
HETATM   10  C7  UNL     1      -2.457  30.316  -5.071  1.00  0.00    -0.044 A 
HETATM   11  C8  UNL     1      -3.338  31.349  -5.786  1.00  0.00     0.015 C 
HETATM   12  C9  UNL     1      -1.664  30.809  -3.884  1.00  0.00     0.010 A 
HETATM   13  C10 UNL     1      -2.903  29.871  -3.737  1.00  0.00     0.010 A 
ENDBRANCH   9  10
ENDBRANCH   8   9
ENDBRANCH   7   8
ENDBRANCH   3   7
BRANCH   1  14
HETATM   14  N1  UNL     1      -3.637  29.773 -11.654  1.00  0.00    -0.073 N 
HETATM   15  C1  UNL     1      -4.454  30.337 -12.733  1.00  0.00     0.267 C 
ATOM     16  H12 UNL     1      -4.171  29.216 -10.988  1.00  0.00     0.277 HD
ATOM     17  H11 UNL     1      -3.011  29.029 -11.963  1.00  0.00     0.277 HD
ENDBRANCH   1  14
TORSDOF 5
ENDMDL
