MODEL 1
REMARK VINA RESULT: -6.148552446      0.000      0.000
REMARK  5 active torsions:
REMARK  status: ('A' for Active; 'I' for Inactive)
REMARK    1  A    between atoms: C1_1  and  C2_2 
REMARK    2  A    between atoms: C1_1  and  C8_12 
REMARK    3  A    between atoms: C2_2  and  C3_3 
REMARK    4  A    between atoms: C3_3  and  N1_4 
REMARK    5  A    between atoms: C8_12  and  C9_13 
ROOT
HETATM    1  C2  UNL     1      -2.287  29.102  -8.010  1.00  0.00     0.030 C 
ENDROOT
BRANCH   1   2
HETATM    2  C1  UNL     1      -1.616  29.378  -6.680  1.00  0.00     0.002 C 
BRANCH   2   3
HETATM    3  C8  UNL     1      -2.737  29.420  -5.637  1.00  0.00     0.006 C 
BRANCH   3   4
HETATM    4  C9  UNL     1      -2.517  30.518  -4.638  1.00  0.00     0.013 C 
HETATM    5  C10 UNL     1      -2.720  30.098  -3.218  1.00  0.00     0.034 C 
HETATM    6  C11 UNL     1      -3.877  30.937  -2.718  1.00  0.00     0.232 C 
HETATM    7  N3  UNL     1      -4.646  31.174  -3.937  1.00  0.00    -0.075 N 
HETATM    8  C12 UNL     1      -3.574  31.566  -4.856  1.00  0.00     0.237 C 
ATOM      9  H32 UNL     1      -5.233  30.400  -4.247  1.00  0.00     0.277 HD
ATOM     10  H31 UNL     1      -5.418  31.835  -3.851  1.00  0.00     0.277 HD
ENDBRANCH   3   4
ENDBRANCH   2   3
ENDBRANCH   1   2
BRANCH   1  11
HETATM   11  C3  UNL     1      -1.570  29.777  -9.152  1.00  0.00     0.272 C 
BRANCH  11  12
HETATM   12  N1  UNL     1      -2.440  30.403 -10.092  1.00  0.00     0.091 N 
HETATM   13  C4  UNL     1      -1.615  31.102 -11.066  1.00  0.00     0.300 C 
HETATM   14  C5  UNL     1      -1.247  30.192 -12.217  1.00  0.00     0.262 C 
HETATM   15  N2  UNL     1      -2.431  29.915 -12.966  1.00  0.00    -0.072 N 
HETATM   16  C6  UNL     1      -3.601  29.790 -12.168  1.00  0.00     0.262 C 
ATOM     17  H22 UNL     1      -2.567  30.615 -13.695  1.00  0.00     0.277 HD
ATOM     18  H21 UNL     1      -2.303  29.086 -13.546  1.00  0.00     0.277 HD
HETATM   19  C7  UNL     1      -3.345  29.470 -10.723  1.00  0.00     0.300 C 
ENDBRANCH  11  12
ENDBRANCH   1  11
TORSDOF 5
ENDMDL
MODEL 2
REMARK VINA RESULT: -6.028062334      1.376      7.166
REMARK  5 active torsions:
REMARK  status: ('A' for Active; 'I' for Inactive)
REMARK    1  A    between atoms: C1_1  and  C2_2 
REMARK    2  A    between atoms: C1_1  and  C8_12 
REMARK    3  A    between atoms: C2_2  and  C3_3 
REMARK    4  A    between atoms: C3_3  and  N1_4 
REMARK    5  A    between atoms: C8_12  and  C9_13 
ROOT
HETATM    1  C2  UNL     1      -2.229  30.325  -7.810  1.00  0.00     0.030 C 
ENDROOT
BRANCH   1   2
HETATM    2  C1  UNL     1      -2.311  31.186  -9.055  1.00  0.00     0.002 C 
BRANCH   2   3
HETATM    3  C8  UNL     1      -1.713  30.352 -10.191  1.00  0.00     0.006 C 
BRANCH   3   4
HETATM    4  C9  UNL     1      -2.186  30.833 -11.532  1.00  0.00     0.013 C 
HETATM    5  C10 UNL     1      -3.636  31.194 -11.572  1.00  0.00     0.034 C 
HETATM    6  C11 UNL     1      -4.255  30.236 -12.568  1.00  0.00     0.232 C 
HETATM    7  N3  UNL     1      -3.396  29.060 -12.452  1.00  0.00    -0.075 N 
HETATM    8  C12 UNL     1      -2.074  29.690 -12.504  1.00  0.00     0.237 C 
ATOM      9  H32 UNL     1      -3.570  28.464 -11.643  1.00  0.00     0.277 HD
ATOM     10  H31 UNL     1      -3.562  28.322 -13.137  1.00  0.00     0.277 HD
ENDBRANCH   3   4
ENDBRANCH   2   3
ENDBRANCH   1   2
BRANCH   1  11
HETATM   11  C3  UNL     1      -3.062  30.884  -6.684  1.00  0.00     0.272 C 
BRANCH  11  12
HETATM   12  N1  UNL     1      -2.427  30.823  -5.410  1.00  0.00     0.091 N 
HETATM   13  C4  UNL     1      -2.938  31.922  -4.605  1.00  0.00     0.300 C 
HETATM   14  C5  UNL     1      -4.184  31.510  -3.853  1.00  0.00     0.262 C 
HETATM   15  N2  UNL     1      -3.813  30.554  -2.859  1.00  0.00    -0.072 N 
HETATM   16  C6  UNL     1      -2.777  29.671  -3.269  1.00  0.00     0.262 C 
ATOM     17  H22 UNL     1      -3.563  31.021  -1.987  1.00  0.00     0.277 HD
ATOM     18  H21 UNL     1      -4.629  30.028  -2.544  1.00  0.00     0.277 HD
HETATM   19  C7  UNL     1      -2.608  29.548  -4.756  1.00  0.00     0.300 C 
ENDBRANCH  11  12
ENDBRANCH   1  11
TORSDOF 5
ENDMDL
MODEL 3
REMARK VINA RESULT: -6.020150011      0.944      1.533
REMARK  5 active torsions:
REMARK  status: ('A' for Active; 'I' for Inactive)
REMARK    1  A    between atoms: C1_1  and  C2_2 
REMARK    2  A    between atoms: C1_1  and  C8_12 
REMARK    3  A    between atoms: C2_2  and  C3_3 
REMARK    4  A    between atoms: C3_3  and  N1_4 
REMARK    5  A    between atoms: C8_12  and  C9_13 
ROOT
HETATM    1  C2  UNL     1      -2.727  31.056  -8.470  1.00  0.00     0.030 C 
ENDROOT
BRANCH   1   2
HETATM    2  C1  UNL     1      -1.963  30.112  -7.562  1.00  0.00     0.002 C 
BRANCH   2   3
HETATM    3  C8  UNL     1      -2.879  29.837  -6.366  1.00  0.00     0.006 C 
BRANCH   3   4
HETATM    4  C9  UNL     1      -2.541  30.721  -5.201  1.00  0.00     0.013 C 
HETATM    5  C10 UNL     1      -2.442  29.997  -3.897  1.00  0.00     0.034 C 
HETATM    6  C11 UNL     1      -3.532  30.592  -3.031  1.00  0.00     0.232 C 
HETATM    7  N3  UNL     1      -4.533  30.996  -4.014  1.00  0.00    -0.075 N 
HETATM    8  C12 UNL     1      -3.683  31.678  -4.994  1.00  0.00     0.237 C 
ATOM      9  H32 UNL     1      -5.119  30.247  -4.382  1.00  0.00     0.277 HD
ATOM     10  H31 UNL     1      -5.315  31.542  -3.651  1.00  0.00     0.277 HD
ENDBRANCH   3   4
ENDBRANCH   2   3
ENDBRANCH   1   2
BRANCH   1  11
HETATM   11  C3  UNL     1      -2.040  31.235  -9.800  1.00  0.00     0.272 C 
BRANCH  11  12
HETATM   12  N1  UNL     1      -2.016  30.056 -10.602  1.00  0.00     0.091 N 
HETATM   13  C4  UNL     1      -3.367  29.516 -10.638  1.00  0.00     0.300 C 
HETATM   14  C5  UNL     1      -4.160  30.114 -11.780  1.00  0.00     0.262 C 
HETATM   15  N2  UNL     1      -3.609  29.636 -13.007  1.00  0.00    -0.072 N 
HETATM   16  C6  UNL     1      -2.195  29.487 -12.985  1.00  0.00     0.262 C 
ATOM     17  H22 UNL     1      -4.057  28.763 -13.286  1.00  0.00     0.277 HD
ATOM     18  H21 UNL     1      -3.894  30.231 -13.785  1.00  0.00     0.277 HD
HETATM   19  C7  UNL     1      -1.496  30.294 -11.928  1.00  0.00     0.300 C 
ENDBRANCH  11  12
ENDBRANCH   1  11
TORSDOF 5
ENDMDL
MODEL 4
REMARK VINA RESULT: -5.968086902      1.209      1.774
REMARK  5 active torsions:
REMARK  status: ('A' for Active; 'I' for Inactive)
REMARK    1  A    between atoms: C1_1  and  C2_2 
REMARK    2  A    between atoms: C1_1  and  C8_12 
REMARK    3  A    between atoms: C2_2  and  C3_3 
REMARK    4  A    between atoms: C3_3  and  N1_4 
REMARK    5  A    between atoms: C8_12  and  C9_13 
ROOT
HETATM    1  C2  UNL     1      -1.672  30.466  -9.034  1.00  0.00     0.030 C 
ENDROOT
BRANCH   1   2
HETATM    2  C1  UNL     1      -1.409  29.255  -8.162  1.00  0.00     0.002 C 
BRANCH   2   3
HETATM    3  C8  UNL     1      -1.464  29.753  -6.714  1.00  0.00     0.006 C 
BRANCH   3   4
HETATM    4  C9  UNL     1      -2.851  30.183  -6.334  1.00  0.00     0.013 C 
HETATM    5  C10 UNL     1      -2.890  31.316  -5.360  1.00  0.00     0.034 C 
HETATM    6  C11 UNL     1      -3.568  30.756  -4.128  1.00  0.00     0.232 C 
HETATM    7  N3  UNL     1      -3.210  29.341  -4.185  1.00  0.00    -0.075 N 
HETATM    8  C12 UNL     1      -3.504  29.050  -5.591  1.00  0.00     0.237 C 
ATOM      9  H32 UNL     1      -2.266  29.110  -3.874  1.00  0.00     0.277 HD
ATOM     10  H31 UNL     1      -3.672  28.740  -3.504  1.00  0.00     0.277 HD
ENDBRANCH   3   4
ENDBRANCH   2   3
ENDBRANCH   1   2
BRANCH   1  11
HETATM   11  C3  UNL     1      -1.151  30.272 -10.436  1.00  0.00     0.272 C 
BRANCH  11  12
HETATM   12  N1  UNL     1      -1.995  30.816 -11.447  1.00  0.00     0.091 N 
HETATM   13  C4  UNL     1      -1.568  30.267 -12.726  1.00  0.00     0.300 C 
HETATM   14  C5  UNL     1      -2.280  28.965 -13.021  1.00  0.00     0.262 C 
HETATM   15  N2  UNL     1      -3.659  29.251 -13.259  1.00  0.00    -0.072 N 
HETATM   16  C6  UNL     1      -4.177  30.299 -12.451  1.00  0.00     0.262 C 
ATOM     17  H22 UNL     1      -3.820  29.447 -14.247  1.00  0.00     0.277 HD
ATOM     18  H21 UNL     1      -4.223  28.407 -13.157  1.00  0.00     0.277 HD
HETATM   19  C7  UNL     1      -3.396  30.570 -11.196  1.00  0.00     0.300 C 
ENDBRANCH  11  12
ENDBRANCH   1  11
TORSDOF 5
ENDMDL
MODEL 5
REMARK VINA RESULT: -5.901585833      1.429      6.883
REMARK  5 active torsions:
REMARK  status: ('A' for Active; 'I' for Inactive)
REMARK    1  A    between atoms: C1_1  and  C2_2 
REMARK    2  A    between atoms: C1_1  and  C8_12 
REMARK    3  A    between atoms: C2_2  and  C3_3 
REMARK    4  A    between atoms: C3_3  and  N1_4 
REMARK    5  A    between atoms: C8_12  and  C9_13 
ROOT
HETATM    1  C2  UNL     1      -1.971  30.311  -7.904  1.00  0.00     0.030 C 
ENDROOT
BRANCH   1   2
HETATM    2  C1  UNL     1      -2.353  29.661  -9.218  1.00  0.00     0.002 C 
BRANCH   2   3
HETATM    3  C8  UNL     1      -1.341  30.161 -10.252  1.00  0.00     0.006 C 
BRANCH   3   4
HETATM    4  C9  UNL     1      -2.019  30.884 -11.380  1.00  0.00     0.013 C 
HETATM    5  C10 UNL     1      -3.511  30.888 -11.289  1.00  0.00     0.034 C 
HETATM    6  C11 UNL     1      -3.984  30.141 -12.519  1.00  0.00     0.232 C 
HETATM    7  N3  UNL     1      -2.880  29.220 -12.774  1.00  0.00    -0.075 N 
HETATM    8  C12 UNL     1      -1.739  30.132 -12.652  1.00  0.00     0.237 C 
ATOM      9  H32 UNL     1      -2.849  28.391 -12.180  1.00  0.00     0.277 HD
ATOM     10  H31 UNL     1      -2.935  28.695 -13.647  1.00  0.00     0.277 HD
ENDBRANCH   3   4
ENDBRANCH   2   3
ENDBRANCH   1   2
BRANCH   1  11
HETATM   11  C3  UNL     1      -2.207  29.393  -6.732  1.00  0.00     0.272 C 
BRANCH  11  12
HETATM   12  N1  UNL     1      -3.103  29.919  -5.756  1.00  0.00     0.091 N 
HETATM   13  C4  UNL     1      -2.545  29.637  -4.442  1.00  0.00     0.300 C 
HETATM   14  C5  UNL     1      -1.621  30.748  -3.996  1.00  0.00     0.262 C 
HETATM   15  N2  UNL     1      -2.407  31.914  -3.748  1.00  0.00    -0.072 N 
HETATM   16  C6  UNL     1      -3.501  32.071  -4.642  1.00  0.00     0.262 C 
ATOM     17  H22 UNL     1      -2.730  31.930  -2.780  1.00  0.00     0.277 HD
ATOM     18  H21 UNL     1      -1.821  32.749  -3.747  1.00  0.00     0.277 HD
HETATM   19  C7  UNL     1      -3.364  31.328  -5.940  1.00  0.00     0.300 C 
ENDBRANCH  11  12
ENDBRANCH   1  11
TORSDOF 5
ENDMDL
