MODEL 1
REMARK VINA RESULT: -6.224156096      0.000      0.000
REMARK  5 active torsions:
REMARK  status: ('A' for Active; 'I' for Inactive)
REMARK    1  A    between atoms: N1_1  and  C1_4 
REMARK    2  A    between atoms: C3_10  and  N4_11 
REMARK    3  A    between atoms: N4_11  and  C4_13 
REMARK    4  A    between atoms: C4_13  and  C5_14 
REMARK    5  A    between atoms: C5_14  and  N5_15 
ROOT
HETATM    1  C1  UNL     1       7.017  -0.602  83.880  1.00  0.00     0.691 A 
HETATM    2  N2  UNL     1       6.536   0.600  84.241  1.00  0.00    -0.187 N 
ATOM      3  H2  UNL     1       5.879   1.071  83.619  1.00  0.00     0.185 HD
HETATM    4  C2  UNL     1       6.891   1.211  85.400  1.00  0.00     0.215 A 
HETATM    5  N3  UNL     1       7.754   0.580  86.203  1.00  0.00    -0.187 N 
ATOM      6  H3  UNL     1       8.036   1.018  87.079  1.00  0.00     0.185 HD
HETATM    7  C3  UNL     1       8.256  -0.627  85.871  1.00  0.00     0.693 A 
HETATM    8  N6  UNL     1       7.881  -1.202  84.715  1.00  0.00    -0.023 N 
ATOM      9  H6  UNL     1       8.262  -2.115  84.465  1.00  0.00     0.203 HD
ENDROOT
BRANCH   7  10
HETATM   10  N4  UNL     1       9.090  -1.249  86.638  1.00  0.00    -0.224 N 
ATOM     11  H4  UNL     1       9.867  -0.717  87.031  1.00  0.00     0.177 HD
BRANCH  10  12
HETATM   12  C4  UNL     1       8.990  -2.639  86.967  1.00  0.00     0.165 C 
BRANCH  12  13
HETATM   13  C5  UNL     1      10.349  -3.124  87.422  1.00  0.00     0.249 C 
BRANCH  13  14
HETATM   14  N5  UNL     1      10.283  -4.558  87.653  1.00  0.00    -0.078 N 
ATOM     15  H53 UNL     1       9.638  -4.802  88.404  1.00  0.00     0.274 HD
ATOM     16  H52 UNL     1       9.813  -5.052  86.895  1.00  0.00     0.274 HD
ATOM     17  H51 UNL     1      11.226  -4.909  87.820  1.00  0.00     0.274 HD
ENDBRANCH  13  14
ENDBRANCH  12  13
ENDBRANCH  10  12
ENDBRANCH   7  10
BRANCH   1  18
HETATM   18  N1  UNL     1       6.673  -1.179  82.770  1.00  0.00    -0.234 N 
ATOM     19  H12 UNL     1       7.232  -1.044  81.927  1.00  0.00     0.174 HD
ATOM     20  H11 UNL     1       5.849  -1.776  82.700  1.00  0.00     0.174 HD
ENDBRANCH   1  18
TORSDOF 5
ENDMDL
MODEL 2
REMARK VINA RESULT: -5.659302008      1.234      1.234
REMARK  5 active torsions:
REMARK  status: ('A' for Active; 'I' for Inactive)
REMARK    1  A    between atoms: N1_1  and  C1_4 
REMARK    2  A    between atoms: C3_10  and  N4_11 
REMARK    3  A    between atoms: N4_11  and  C4_13 
REMARK    4  A    between atoms: C4_13  and  C5_14 
REMARK    5  A    between atoms: C5_14  and  N5_15 
ROOT
HETATM    1  C1  UNL     1       6.563  -0.466  83.553  1.00  0.00     0.691 A 
HETATM    2  N2  UNL     1       6.034   0.743  83.809  1.00  0.00    -0.187 N 
ATOM      3  H2  UNL     1       5.355   1.129  83.153  1.00  0.00     0.185 HD
HETATM    4  C2  UNL     1       6.369   1.469  84.905  1.00  0.00     0.215 A 
HETATM    5  N3  UNL     1       7.261   0.948  85.754  1.00  0.00    -0.187 N 
ATOM      6  H3  UNL     1       7.530   1.474  86.586  1.00  0.00     0.185 HD
HETATM    7  C3  UNL     1       7.811  -0.262  85.527  1.00  0.00     0.693 A 
HETATM    8  N6  UNL     1       7.455  -0.953  84.430  1.00  0.00    -0.023 N 
ATOM      9  H6  UNL     1       7.873  -1.868  84.260  1.00  0.00     0.203 HD
ENDROOT
BRANCH   7  10
HETATM   10  N4  UNL     1       8.674  -0.778  86.339  1.00  0.00    -0.224 N 
ATOM     11  H4  UNL     1       8.938  -0.239  87.164  1.00  0.00     0.177 HD
BRANCH  10  12
HETATM   12  C4  UNL     1       9.283  -2.060  86.150  1.00  0.00     0.165 C 
BRANCH  12  13
HETATM   13  C5  UNL     1      10.066  -2.410  87.397  1.00  0.00     0.249 C 
BRANCH  13  14
HETATM   14  N5  UNL     1      10.379  -1.184  88.113  1.00  0.00    -0.078 N 
ATOM     15  H53 UNL     1      10.216  -0.351  87.549  1.00  0.00     0.274 HD
ATOM     16  H52 UNL     1       9.711  -0.987  88.857  1.00  0.00     0.274 HD
ATOM     17  H51 UNL     1      11.338  -1.239  88.457  1.00  0.00     0.274 HD
ENDBRANCH  13  14
ENDBRANCH  12  13
ENDBRANCH  10  12
ENDBRANCH   7  10
BRANCH   1  18
HETATM   18  N1  UNL     1       6.238  -1.154  82.501  1.00  0.00    -0.234 N 
ATOM     19  H12 UNL     1       5.328  -1.019  82.060  1.00  0.00     0.174 HD
ATOM     20  H11 UNL     1       6.868  -1.840  82.086  1.00  0.00     0.174 HD
ENDBRANCH   1  18
TORSDOF 5
ENDMDL
MODEL 3
REMARK VINA RESULT: -4.753873050      1.122      2.173
REMARK  5 active torsions:
REMARK  status: ('A' for Active; 'I' for Inactive)
REMARK    1  A    between atoms: N1_1  and  C1_4 
REMARK    2  A    between atoms: C3_10  and  N4_11 
REMARK    3  A    between atoms: N4_11  and  C4_13 
REMARK    4  A    between atoms: C4_13  and  C5_14 
REMARK    5  A    between atoms: C5_14  and  N5_15 
ROOT
HETATM    1  C1  UNL     1       6.393   0.616  85.378  1.00  0.00     0.691 A 
HETATM    2  N2  UNL     1       5.834   0.469  84.165  1.00  0.00    -0.187 N 
ATOM      3  H2  UNL     1       5.030   1.049  83.922  1.00  0.00     0.185 HD
HETATM    4  C2  UNL     1       6.297  -0.420  83.250  1.00  0.00     0.215 A 
HETATM    5  N3  UNL     1       7.350  -1.173  83.585  1.00  0.00    -0.187 N 
ATOM      6  H3  UNL     1       7.717  -1.849  82.915  1.00  0.00     0.185 HD
HETATM    7  C3  UNL     1       7.935  -1.051  84.794  1.00  0.00     0.693 A 
HETATM    8  N6  UNL     1       7.448  -0.158  85.674  1.00  0.00    -0.023 N 
ATOM      9  H6  UNL     1       7.891  -0.068  86.589  1.00  0.00     0.203 HD
ENDROOT
BRANCH   7  10
HETATM   10  N4  UNL     1       8.954  -1.771  85.131  1.00  0.00    -0.224 N 
ATOM     11  H4  UNL     1       9.306  -2.449  84.455  1.00  0.00     0.177 HD
BRANCH  10  12
HETATM   12  C4  UNL     1       9.618  -1.673  86.395  1.00  0.00     0.165 C 
BRANCH  12  13
HETATM   13  C5  UNL     1       9.234  -2.873  87.234  1.00  0.00     0.249 C 
BRANCH  13  14
HETATM   14  N5  UNL     1      10.364  -3.784  87.297  1.00  0.00    -0.078 N 
ATOM     15  H53 UNL     1      10.991  -3.683  86.499  1.00  0.00     0.274 HD
ATOM     16  H52 UNL     1      11.026  -3.531  88.030  1.00  0.00     0.274 HD
ATOM     17  H51 UNL     1      10.015  -4.737  87.400  1.00  0.00     0.274 HD
ENDBRANCH  13  14
ENDBRANCH  12  13
ENDBRANCH  10  12
ENDBRANCH   7  10
BRANCH   1  18
HETATM   18  N1  UNL     1       5.943   1.469  86.248  1.00  0.00    -0.234 N 
ATOM     19  H12 UNL     1       5.861   2.456  86.003  1.00  0.00     0.174 HD
ATOM     20  H11 UNL     1       5.662   1.189  87.187  1.00  0.00     0.174 HD
ENDBRANCH   1  18
TORSDOF 5
ENDMDL
MODEL 4
REMARK VINA RESULT: -4.376891996      1.217      4.724
REMARK  5 active torsions:
REMARK  status: ('A' for Active; 'I' for Inactive)
REMARK    1  A    between atoms: N1_1  and  C1_4 
REMARK    2  A    between atoms: C3_10  and  N4_11 
REMARK    3  A    between atoms: N4_11  and  C4_13 
REMARK    4  A    between atoms: C4_13  and  C5_14 
REMARK    5  A    between atoms: C5_14  and  N5_15 
ROOT
HETATM    1  C1  UNL     1      10.008  -3.092  87.173  1.00  0.00     0.691 A 
HETATM    2  N2  UNL     1      10.379  -2.073  87.967  1.00  0.00    -0.187 N 
ATOM      3  H2  UNL     1      10.974  -2.271  88.772  1.00  0.00     0.185 HD
HETATM    4  C2  UNL     1       9.995  -0.792  87.739  1.00  0.00     0.215 A 
HETATM    5  N3  UNL     1       9.216  -0.550  86.679  1.00  0.00    -0.187 N 
ATOM      6  H3  UNL     1       8.913   0.405  86.486  1.00  0.00     0.185 HD
HETATM    7  C3  UNL     1       8.824  -1.549  85.863  1.00  0.00     0.693 A 
HETATM    8  N6  UNL     1       9.225  -2.806  86.120  1.00  0.00    -0.023 N 
ATOM      9  H6  UNL     1       8.928  -3.561  85.501  1.00  0.00     0.203 HD
ENDROOT
BRANCH   7  10
HETATM   10  N4  UNL     1       8.072  -1.330  84.835  1.00  0.00    -0.224 N 
ATOM     11  H4  UNL     1       7.925  -2.095  84.177  1.00  0.00     0.177 HD
BRANCH  10  12
HETATM   12  C4  UNL     1       7.432  -0.077  84.565  1.00  0.00     0.165 C 
BRANCH  12  13
HETATM   13  C5  UNL     1       6.201  -0.338  83.725  1.00  0.00     0.249 C 
BRANCH  13  14
HETATM   14  N5  UNL     1       6.570  -1.177  82.597  1.00  0.00    -0.078 N 
ATOM     15  H53 UNL     1       6.351  -2.160  82.755  1.00  0.00     0.274 HD
ATOM     16  H52 UNL     1       5.969  -1.026  81.787  1.00  0.00     0.274 HD
ATOM     17  H51 UNL     1       7.556  -1.027  82.383  1.00  0.00     0.274 HD
ENDBRANCH  13  14
ENDBRANCH  12  13
ENDBRANCH  10  12
ENDBRANCH   7  10
BRANCH   1  18
HETATM   18  N1  UNL     1      10.379  -4.315  87.398  1.00  0.00    -0.234 N 
ATOM     19  H12 UNL     1      10.288  -5.022  86.668  1.00  0.00     0.174 HD
ATOM     20  H11 UNL     1      10.767  -4.608  88.294  1.00  0.00     0.174 HD
ENDBRANCH   1  18
TORSDOF 5
ENDMDL
MODEL 5
REMARK VINA RESULT: -3.975256412      1.614      2.477
REMARK  5 active torsions:
REMARK  status: ('A' for Active; 'I' for Inactive)
REMARK    1  A    between atoms: N1_1  and  C1_4 
REMARK    2  A    between atoms: C3_10  and  N4_11 
REMARK    3  A    between atoms: N4_11  and  C4_13 
REMARK    4  A    between atoms: C4_13  and  C5_14 
REMARK    5  A    between atoms: C5_14  and  N5_15 
ROOT
HETATM    1  C1  UNL     1       5.901   0.637  84.942  1.00  0.00     0.691 A 
HETATM    2  N2  UNL     1       5.493   0.222  83.730  1.00  0.00    -0.187 N 
ATOM      3  H2  UNL     1       4.609   0.576  83.364  1.00  0.00     0.185 HD
HETATM    4  C2  UNL     1       6.211  -0.647  82.976  1.00  0.00     0.215 A 
HETATM    5  N3  UNL     1       7.367  -1.102  83.472  1.00  0.00    -0.187 N 
ATOM      6  H3  UNL     1       7.925  -1.757  82.925  1.00  0.00     0.185 HD
HETATM    7  C3  UNL     1       7.805  -0.707  84.684  1.00  0.00     0.693 A 
HETATM    8  N6  UNL     1       7.067   0.157  85.404  1.00  0.00    -0.023 N 
ATOM      9  H6  UNL     1       7.400   0.454  86.320  1.00  0.00     0.203 HD
ENDROOT
BRANCH   7  10
HETATM   10  N4  UNL     1       8.920  -1.137  85.176  1.00  0.00    -0.224 N 
ATOM     11  H4  UNL     1       9.761  -0.582  85.016  1.00  0.00     0.177 HD
BRANCH  10  12
HETATM   12  C4  UNL     1       9.047  -2.347  85.932  1.00  0.00     0.165 C 
BRANCH  12  13
HETATM   13  C5  UNL     1       9.957  -2.084  87.112  1.00  0.00     0.249 C 
BRANCH  13  14
HETATM   14  N5  UNL     1       9.782  -0.706  87.541  1.00  0.00    -0.078 N 
ATOM     15  H53 UNL     1      10.504  -0.088  87.171  1.00  0.00     0.274 HD
ATOM     16  H52 UNL     1       8.976  -0.261  87.104  1.00  0.00     0.274 HD
ATOM     17  H51 UNL     1       9.735  -0.682  88.559  1.00  0.00     0.274 HD
ENDBRANCH  13  14
ENDBRANCH  12  13
ENDBRANCH  10  12
ENDBRANCH   7  10
BRANCH   1  18
HETATM   18  N1  UNL     1       5.208   1.469  85.658  1.00  0.00    -0.234 N 
ATOM     19  H12 UNL     1       4.214   1.304  85.818  1.00  0.00     0.174 HD
ATOM     20  H11 UNL     1       5.622   2.301  86.077  1.00  0.00     0.174 HD
ENDBRANCH   1  18
TORSDOF 5
ENDMDL
