MODEL 1
REMARK VINA RESULT: -4.723843041      0.000      0.000
REMARK  4 active torsions:
REMARK  status: ('A' for Active; 'I' for Inactive)
REMARK    1  A    between atoms: N1_1  and  C1_5 
REMARK    2  A    between atoms: C1_5  and  C2_6 
REMARK    3  A    between atoms: C2_6  and  O1_7 
REMARK    4  A    between atoms: O1_7  and  C3_8 
ROOT
HETATM    1  C3  UNL     1       7.688   0.133  84.469  1.00  0.00     0.302 C 
HETATM    2  C4  UNL     1       7.013  -1.040  83.819  1.00  0.00     0.136 C 
HETATM    3  N2  UNL     1       5.819  -0.771  83.128  1.00  0.00    -0.312 N 
ATOM      4  H2  UNL     1       5.510  -1.364  82.357  1.00  0.00     0.181 HD
HETATM    5  N3  UNL     1       5.085   0.314  83.525  1.00  0.00    -0.116 NA
HETATM    6  C5  UNL     1       5.565   0.757  84.818  1.00  0.00     0.306 C 
HETATM    7  O2  UNL     1       6.861   1.242  84.583  1.00  0.00    -0.339 OA
ENDROOT
BRANCH   1   8
HETATM    8  O1  UNL     1       8.122  -0.160  85.743  1.00  0.00    -0.355 OA
BRANCH   8   9
HETATM    9  C2  UNL     1       8.545  -1.451  85.845  1.00  0.00     0.198 C 
BRANCH   9  10
HETATM   10  C1  UNL     1       9.601  -1.573  86.905  1.00  0.00     0.255 C 
BRANCH  10  11
HETATM   11  N1  UNL     1       9.760  -2.960  87.324  1.00  0.00    -0.077 N 
ATOM     12  H13 UNL     1       8.926  -3.309  87.796  1.00  0.00     0.274 HD
ATOM     13  H12 UNL     1       9.765  -3.596  86.527  1.00  0.00     0.274 HD
ATOM     14  H11 UNL     1      10.594  -3.072  87.901  1.00  0.00     0.274 HD
ENDBRANCH  10  11
ENDBRANCH   9  10
ENDBRANCH   8   9
ENDBRANCH   1   8
TORSDOF 4
ENDMDL
MODEL 2
REMARK VINA RESULT: -4.479683441      7.164      8.054
REMARK  4 active torsions:
REMARK  status: ('A' for Active; 'I' for Inactive)
REMARK    1  A    between atoms: N1_1  and  C1_5 
REMARK    2  A    between atoms: C1_5  and  C2_6 
REMARK    3  A    between atoms: C2_6  and  O1_7 
REMARK    4  A    between atoms: O1_7  and  C3_8 
ROOT
HETATM    1  C3  UNL     1       2.892  -7.079  86.045  1.00  0.00     0.302 C 
HETATM    2  C4  UNL     1       4.036  -6.113  86.150  1.00  0.00     0.136 C 
HETATM    3  N2  UNL     1       4.019  -5.241  87.252  1.00  0.00    -0.312 N 
ATOM      4  H2  UNL     1       4.884  -4.851  87.630  1.00  0.00     0.181 HD
HETATM    5  N3  UNL     1       2.804  -4.932  87.800  1.00  0.00    -0.116 NA
HETATM    6  C5  UNL     1       1.759  -5.337  86.883  1.00  0.00     0.306 C 
HETATM    7  O2  UNL     1       1.817  -6.740  86.856  1.00  0.00    -0.339 OA
ENDROOT
BRANCH   1   8
HETATM    8  O1  UNL     1       2.399  -7.161  84.762  1.00  0.00    -0.355 OA
BRANCH   8   9
HETATM    9  C2  UNL     1       3.164  -6.454  83.884  1.00  0.00     0.198 C 
BRANCH   9  10
HETATM   10  C1  UNL     1       2.324  -5.448  83.152  1.00  0.00     0.255 C 
BRANCH  10  11
HETATM   11  N1  UNL     1       3.133  -4.318  82.712  1.00  0.00    -0.077 N 
ATOM     12  H13 UNL     1       3.245  -3.624  83.451  1.00  0.00     0.274 HD
ATOM     13  H12 UNL     1       4.113  -4.578  82.594  1.00  0.00     0.274 HD
ATOM     14  H11 UNL     1       2.749  -3.904  81.861  1.00  0.00     0.274 HD
ENDBRANCH  10  11
ENDBRANCH   9  10
ENDBRANCH   8   9
ENDBRANCH   1   8
TORSDOF 4
ENDMDL
MODEL 3
REMARK VINA RESULT: -4.206295366      7.140      8.103
REMARK  4 active torsions:
REMARK  status: ('A' for Active; 'I' for Inactive)
REMARK    1  A    between atoms: N1_1  and  C1_5 
REMARK    2  A    between atoms: C1_5  and  C2_6 
REMARK    3  A    between atoms: C2_6  and  O1_7 
REMARK    4  A    between atoms: O1_7  and  C3_8 
ROOT
HETATM    1  C3  UNL     1       1.545  -6.115  85.840  1.00  0.00     0.302 C 
HETATM    2  C4  UNL     1       2.629  -7.062  85.415  1.00  0.00     0.136 C 
HETATM    3  N2  UNL     1       3.610  -7.363  86.376  1.00  0.00    -0.312 N 
ATOM      4  H2  UNL     1       4.125  -8.243  86.347  1.00  0.00     0.181 HD
HETATM    5  N3  UNL     1       3.849  -6.434  87.352  1.00  0.00    -0.116 NA
HETATM    6  C5  UNL     1       3.242  -5.178  86.963  1.00  0.00     0.306 C 
HETATM    7  O2  UNL     1       1.858  -5.413  86.996  1.00  0.00    -0.339 OA
ENDROOT
BRANCH   1   8
HETATM    8  O1  UNL     1       1.275  -5.171  84.875  1.00  0.00    -0.355 OA
BRANCH   8   9
HETATM    9  C2  UNL     1       1.606  -5.616  83.630  1.00  0.00     0.198 C 
BRANCH   9  10
HETATM   10  C1  UNL     1       2.320  -4.541  82.864  1.00  0.00     0.255 C 
BRANCH  10  11
HETATM   11  N1  UNL     1       3.765  -4.681  82.994  1.00  0.00    -0.077 N 
ATOM     12  H13 UNL     1       4.043  -5.659  83.073  1.00  0.00     0.274 HD
ATOM     13  H12 UNL     1       4.246  -4.453  82.124  1.00  0.00     0.274 HD
ATOM     14  H11 UNL     1       4.116  -4.126  83.775  1.00  0.00     0.274 HD
ENDBRANCH  10  11
ENDBRANCH   9  10
ENDBRANCH   8   9
ENDBRANCH   1   8
TORSDOF 4
ENDMDL
MODEL 4
REMARK VINA RESULT: -4.167602090      7.567      8.447
REMARK  4 active torsions:
REMARK  status: ('A' for Active; 'I' for Inactive)
REMARK    1  A    between atoms: N1_1  and  C1_5 
REMARK    2  A    between atoms: C1_5  and  C2_6 
REMARK    3  A    between atoms: C2_6  and  O1_7 
REMARK    4  A    between atoms: O1_7  and  C3_8 
ROOT
HETATM    1  C3  UNL     1       0.649  -5.450  85.476  1.00  0.00     0.302 C 
HETATM    2  C4  UNL     1       0.893  -6.931  85.515  1.00  0.00     0.136 C 
HETATM    3  N2  UNL     1       1.406  -7.450  86.716  1.00  0.00    -0.312 N 
ATOM      4  H2  UNL     1       1.237  -8.419  86.987  1.00  0.00     0.181 HD
HETATM    5  N3  UNL     1       2.139  -6.609  87.509  1.00  0.00    -0.116 NA
HETATM    6  C5  UNL     1       2.497  -5.434  86.742  1.00  0.00     0.306 C 
HETATM    7  O2  UNL     1       1.285  -4.767  86.504  1.00  0.00    -0.339 OA
ENDROOT
BRANCH   1   8
HETATM    8  O1  UNL     1       1.092  -4.883  84.302  1.00  0.00    -0.355 OA
BRANCH   8   9
HETATM    9  C2  UNL     1       1.709  -5.799  83.504  1.00  0.00     0.198 C 
BRANCH   9  10
HETATM   10  C1  UNL     1       3.067  -5.305  83.095  1.00  0.00     0.255 C 
BRANCH  10  11
HETATM   11  N1  UNL     1       2.998  -3.930  82.616  1.00  0.00    -0.077 N 
ATOM     12  H13 UNL     1       3.149  -3.260  83.370  1.00  0.00     0.274 HD
ATOM     13  H12 UNL     1       3.802  -3.693  82.035  1.00  0.00     0.274 HD
ATOM     14  H11 UNL     1       2.118  -3.758  82.129  1.00  0.00     0.274 HD
ENDBRANCH  10  11
ENDBRANCH   9  10
ENDBRANCH   8   9
ENDBRANCH   1   8
TORSDOF 4
ENDMDL
MODEL 5
REMARK VINA RESULT: -4.096455572      1.516      4.954
REMARK  4 active torsions:
REMARK  status: ('A' for Active; 'I' for Inactive)
REMARK    1  A    between atoms: N1_1  and  C1_5 
REMARK    2  A    between atoms: C1_5  and  C2_6 
REMARK    3  A    between atoms: C2_6  and  O1_7 
REMARK    4  A    between atoms: O1_7  and  C3_8 
ROOT
HETATM    1  C3  UNL     1       9.330  -1.555  85.726  1.00  0.00     0.302 C 
HETATM    2  C4  UNL     1       9.592  -0.759  86.971  1.00  0.00     0.136 C 
HETATM    3  N2  UNL     1      10.378  -1.380  87.957  1.00  0.00    -0.312 N 
ATOM      4  H2  UNL     1      10.928  -0.830  88.617  1.00  0.00     0.181 HD
HETATM    5  N3  UNL     1      10.379  -2.748  88.001  1.00  0.00    -0.116 NA
HETATM    6  C5  UNL     1       9.280  -3.243  87.198  1.00  0.00     0.306 C 
HETATM    7  O2  UNL     1       9.610  -2.907  85.875  1.00  0.00    -0.339 OA
ENDROOT
BRANCH   1   8
HETATM    8  O1  UNL     1       8.014  -1.475  85.327  1.00  0.00    -0.355 OA
BRANCH   8   9
HETATM    9  C2  UNL     1       7.709  -0.235  84.850  1.00  0.00     0.198 C 
BRANCH   9  10
HETATM   10  C1  UNL     1       6.459  -0.287  84.021  1.00  0.00     0.255 C 
BRANCH  10  11
HETATM   11  N1  UNL     1       6.639  -1.155  82.863  1.00  0.00    -0.077 N 
ATOM     12  H13 UNL     1       7.363  -0.803  82.237  1.00  0.00     0.274 HD
ATOM     13  H12 UNL     1       7.075  -2.041  83.121  1.00  0.00     0.274 HD
ATOM     14  H11 UNL     1       5.754  -1.299  82.375  1.00  0.00     0.274 HD
ENDBRANCH  10  11
ENDBRANCH   9  10
ENDBRANCH   8   9
ENDBRANCH   1   8
TORSDOF 4
ENDMDL
