MODEL 1
REMARK VINA RESULT: -5.513362788      0.000      0.000
REMARK  5 active torsions:
REMARK  status: ('A' for Active; 'I' for Inactive)
REMARK    1  A    between atoms: N1_1  and  C1_4 
REMARK    2  A    between atoms: C3_10  and  N4_11 
REMARK    3  A    between atoms: N4_11  and  C4_13 
REMARK    4  A    between atoms: C4_13  and  C5_14 
REMARK    5  A    between atoms: C5_14  and  N5_15 
ROOT
HETATM    1  C1  UNL     1       6.373  -0.486  83.540  1.00  0.00     0.691 A 
HETATM    2  N2  UNL     1       5.896   0.732  83.801  1.00  0.00    -0.187 N 
ATOM      3  H2  UNL     1       5.191   1.123  83.177  1.00  0.00     0.185 HD
HETATM    4  C2  UNL     1       6.306   1.469  84.859  1.00  0.00     0.215 A 
HETATM    5  N3  UNL     1       7.231   0.955  85.680  1.00  0.00    -0.187 N 
ATOM      6  H3  UNL     1       7.556   1.493  86.483  1.00  0.00     0.185 HD
HETATM    7  C3  UNL     1       7.736  -0.278  85.444  1.00  0.00     0.693 A 
HETATM    8  N6  UNL     1       7.297  -0.987  84.369  1.00  0.00    -0.023 N 
ATOM      9  H6  UNL     1       7.678  -1.916  84.191  1.00  0.00     0.203 HD
ENDROOT
BRANCH   7  10
HETATM   10  N4  UNL     1       8.613  -0.722  86.253  1.00  0.00    -0.224 N 
ATOM     11  H4  UNL     1       8.865  -0.120  87.037  1.00  0.00     0.177 HD
BRANCH  10  12
HETATM   12  C4  UNL     1       9.274  -1.983  86.166  1.00  0.00     0.165 C 
BRANCH  12  13
HETATM   13  C5  UNL     1      10.178  -2.229  87.382  1.00  0.00     0.249 C 
BRANCH  13  14
HETATM   14  N5  UNL     1      10.379  -0.997  88.121  1.00  0.00    -0.078 N 
ATOM     15  H53 UNL     1       9.516  -0.666  88.552  1.00  0.00     0.274 HD
ATOM     16  H52 UNL     1      10.924  -1.148  88.970  1.00  0.00     0.274 HD
ATOM     17  H51 UNL     1      10.800  -0.287  87.521  1.00  0.00     0.274 HD
ENDBRANCH  13  14
ENDBRANCH  12  13
ENDBRANCH  10  12
ENDBRANCH   7  10
BRANCH   1  18
HETATM   18  N1  UNL     1       5.951  -1.151  82.519  1.00  0.00    -0.234 N 
ATOM     19  H12 UNL     1       5.749  -2.149  82.579  1.00  0.00     0.174 HD
ATOM     20  H11 UNL     1       5.809  -0.690  81.621  1.00  0.00     0.174 HD
ENDBRANCH   1  18
TORSDOF 5
ENDMDL
MODEL 2
REMARK VINA RESULT: -4.799616940      1.422      2.337
REMARK  5 active torsions:
REMARK  status: ('A' for Active; 'I' for Inactive)
REMARK    1  A    between atoms: N1_1  and  C1_4 
REMARK    2  A    between atoms: C3_10  and  N4_11 
REMARK    3  A    between atoms: N4_11  and  C4_13 
REMARK    4  A    between atoms: C4_13  and  C5_14 
REMARK    5  A    between atoms: C5_14  and  N5_15 
ROOT
HETATM    1  C1  UNL     1       6.609   0.601  85.505  1.00  0.00     0.691 A 
HETATM    2  N2  UNL     1       6.117   0.479  84.272  1.00  0.00    -0.187 N 
ATOM      3  H2  UNL     1       5.348   1.085  83.992  1.00  0.00     0.185 HD
HETATM    4  C2  UNL     1       6.596  -0.416  83.376  1.00  0.00     0.215 A 
HETATM    5  N3  UNL     1       7.608  -1.213  83.744  1.00  0.00    -0.187 N 
ATOM      6  H3  UNL     1       7.984  -1.896  83.086  1.00  0.00     0.185 HD
HETATM    7  C3  UNL     1       8.131  -1.115  84.988  1.00  0.00     0.693 A 
HETATM    8  N6  UNL     1       7.620  -0.202  85.858  1.00  0.00    -0.023 N 
ATOM      9  H6  UNL     1       8.015  -0.128  86.796  1.00  0.00     0.203 HD
ENDROOT
BRANCH   7  10
HETATM   10  N4  UNL     1       9.091  -1.894  85.288  1.00  0.00    -0.224 N 
ATOM     11  H4  UNL     1       9.389  -2.558  84.574  1.00  0.00     0.177 HD
BRANCH  10  12
HETATM   12  C4  UNL     1       9.790  -1.925  86.531  1.00  0.00     0.165 C 
BRANCH  12  13
HETATM   13  C5  UNL     1       9.348  -3.113  87.396  1.00  0.00     0.249 C 
BRANCH  13  14
HETATM   14  N5  UNL     1      10.371  -4.143  87.402  1.00  0.00    -0.078 N 
ATOM     15  H53 UNL     1      11.147  -3.904  88.020  1.00  0.00     0.274 HD
ATOM     16  H52 UNL     1      10.055  -4.989  87.877  1.00  0.00     0.274 HD
ATOM     17  H51 UNL     1      10.687  -4.336  86.452  1.00  0.00     0.274 HD
ENDBRANCH  13  14
ENDBRANCH  12  13
ENDBRANCH  10  12
ENDBRANCH   7  10
BRANCH   1  18
HETATM   18  N1  UNL     1       6.120   1.469  86.324  1.00  0.00    -0.234 N 
ATOM     19  H12 UNL     1       5.144   1.760  86.272  1.00  0.00     0.174 HD
ATOM     20  H11 UNL     1       6.704   1.887  87.048  1.00  0.00     0.174 HD
ENDBRANCH   1  18
TORSDOF 5
ENDMDL
MODEL 3
REMARK VINA RESULT: -3.735040951      1.342      5.188
REMARK  5 active torsions:
REMARK  status: ('A' for Active; 'I' for Inactive)
REMARK    1  A    between atoms: N1_1  and  C1_4 
REMARK    2  A    between atoms: C3_10  and  N4_11 
REMARK    3  A    between atoms: N4_11  and  C4_13 
REMARK    4  A    between atoms: C4_13  and  C5_14 
REMARK    5  A    between atoms: C5_14  and  N5_15 
ROOT
HETATM    1  C1  UNL     1       9.981  -1.032  87.651  1.00  0.00     0.691 A 
HETATM    2  N2  UNL     1      10.372  -2.303  87.741  1.00  0.00    -0.187 N 
ATOM      3  H2  UNL     1      10.992  -2.569  88.505  1.00  0.00     0.185 HD
HETATM    4  C2  UNL     1       9.981  -3.255  86.862  1.00  0.00     0.215 A 
HETATM    5  N3  UNL     1       9.166  -2.906  85.858  1.00  0.00    -0.187 N 
ATOM      6  H3  UNL     1       8.860  -3.606  85.183  1.00  0.00     0.185 HD
HETATM    7  C3  UNL     1       8.749  -1.624  85.738  1.00  0.00     0.693 A 
HETATM    8  N6  UNL     1       9.166  -0.697  86.643  1.00  0.00    -0.023 N 
ATOM      9  H6  UNL     1       8.852   0.268  86.552  1.00  0.00     0.203 HD
ENDROOT
BRANCH   7  10
HETATM   10  N4  UNL     1       7.976  -1.343  84.768  1.00  0.00    -0.224 N 
ATOM     11  H4  UNL     1       7.638  -2.123  84.205  1.00  0.00     0.177 HD
BRANCH  10  12
HETATM   12  C4  UNL     1       7.536  -0.038  84.395  1.00  0.00     0.165 C 
BRANCH  12  13
HETATM   13  C5  UNL     1       6.092  -0.058  83.876  1.00  0.00     0.249 C 
BRANCH  13  14
HETATM   14  N5  UNL     1       5.948  -1.041  82.817  1.00  0.00    -0.078 N 
ATOM     15  H53 UNL     1       6.007  -0.615  81.893  1.00  0.00     0.274 HD
ATOM     16  H52 UNL     1       6.761  -1.653  82.755  1.00  0.00     0.274 HD
ATOM     17  H51 UNL     1       5.083  -1.569  82.939  1.00  0.00     0.274 HD
ENDBRANCH  13  14
ENDBRANCH  12  13
ENDBRANCH  10  12
ENDBRANCH   7  10
BRANCH   1  18
HETATM   18  N1  UNL     1      10.379  -0.159  88.514  1.00  0.00    -0.234 N 
ATOM     19  H12 UNL     1      11.145   0.483  88.308  1.00  0.00     0.174 HD
ATOM     20  H11 UNL     1       9.933  -0.092  89.428  1.00  0.00     0.174 HD
ENDBRANCH   1  18
TORSDOF 5
ENDMDL
MODEL 4
REMARK VINA RESULT: -3.498462344      6.800      8.485
REMARK  5 active torsions:
REMARK  status: ('A' for Active; 'I' for Inactive)
REMARK    1  A    between atoms: N1_1  and  C1_4 
REMARK    2  A    between atoms: C3_10  and  N4_11 
REMARK    3  A    between atoms: N4_11  and  C4_13 
REMARK    4  A    between atoms: C4_13  and  C5_14 
REMARK    5  A    between atoms: C5_14  and  N5_15 
ROOT
HETATM    1  C1  UNL     1       3.526  -5.398  87.538  1.00  0.00     0.691 A 
HETATM    2  N2  UNL     1       4.370  -6.423  87.415  1.00  0.00    -0.187 N 
ATOM      3  H2  UNL     1       5.159  -6.484  88.058  1.00  0.00     0.185 HD
HETATM    4  C2  UNL     1       4.225  -7.384  86.474  1.00  0.00     0.215 A 
HETATM    5  N3  UNL     1       3.189  -7.304  85.629  1.00  0.00    -0.187 N 
ATOM      6  H3  UNL     1       3.060  -8.017  84.911  1.00  0.00     0.185 HD
HETATM    7  C3  UNL     1       2.312  -6.278  85.727  1.00  0.00     0.693 A 
HETATM    8  N6  UNL     1       2.495  -5.331  86.688  1.00  0.00    -0.023 N 
ATOM      9  H6  UNL     1       1.834  -4.558  86.761  1.00  0.00     0.203 HD
ENDROOT
BRANCH   7  10
HETATM   10  N4  UNL     1       1.344  -6.247  84.901  1.00  0.00    -0.224 N 
ATOM     11  H4  UNL     1       0.486  -6.722  85.177  1.00  0.00     0.177 HD
BRANCH  10  12
HETATM   12  C4  UNL     1       1.349  -5.608  83.626  1.00  0.00     0.165 C 
BRANCH  12  13
HETATM   13  C5  UNL     1       2.750  -5.613  82.999  1.00  0.00     0.249 C 
BRANCH  13  14
HETATM   14  N5  UNL     1       3.236  -4.255  82.835  1.00  0.00    -0.078 N 
ATOM     15  H53 UNL     1       2.869  -3.820  81.988  1.00  0.00     0.274 HD
ATOM     16  H52 UNL     1       2.827  -3.620  83.521  1.00  0.00     0.274 HD
ATOM     17  H51 UNL     1       4.255  -4.237  82.861  1.00  0.00     0.274 HD
ENDBRANCH  13  14
ENDBRANCH  12  13
ENDBRANCH  10  12
ENDBRANCH   7  10
BRANCH   1  18
HETATM   18  N1  UNL     1       3.705  -4.505  88.452  1.00  0.00    -0.234 N 
ATOM     19  H12 UNL     1       3.521  -4.704  89.435  1.00  0.00     0.174 HD
ATOM     20  H11 UNL     1       4.038  -3.573  88.208  1.00  0.00     0.174 HD
ENDBRANCH   1  18
TORSDOF 5
ENDMDL
MODEL 5
REMARK VINA RESULT: -3.464349273      1.340      4.441
REMARK  5 active torsions:
REMARK  status: ('A' for Active; 'I' for Inactive)
REMARK    1  A    between atoms: N1_1  and  C1_4 
REMARK    2  A    between atoms: C3_10  and  N4_11 
REMARK    3  A    between atoms: N4_11  and  C4_13 
REMARK    4  A    between atoms: C4_13  and  C5_14 
REMARK    5  A    between atoms: C5_14  and  N5_15 
ROOT
HETATM    1  C1  UNL     1       9.214  -1.852  86.182  1.00  0.00     0.691 A 
HETATM    2  N2  UNL     1       9.101  -0.767  86.949  1.00  0.00    -0.187 N 
ATOM      3  H2  UNL     1       9.601  -0.745  87.837  1.00  0.00     0.185 HD
HETATM    4  C2  UNL     1       8.352   0.304  86.600  1.00  0.00     0.215 A 
HETATM    5  N3  UNL     1       7.695   0.275  85.433  1.00  0.00    -0.187 N 
ATOM      6  H3  UNL     1       7.123   1.071  85.150  1.00  0.00     0.185 HD
HETATM    7  C3  UNL     1       7.788  -0.810  84.630  1.00  0.00     0.693 A 
HETATM    8  N6  UNL     1       8.552  -1.867  85.019  1.00  0.00    -0.023 N 
ATOM      9  H6  UNL     1       8.622  -2.684  84.413  1.00  0.00     0.203 HD
ENDROOT
BRANCH   7  10
HETATM   10  N4  UNL     1       7.145  -0.789  83.531  1.00  0.00    -0.224 N 
ATOM     11  H4  UNL     1       7.661  -1.042  82.689  1.00  0.00     0.177 HD
BRANCH  10  12
HETATM   12  C4  UNL     1       5.771  -0.444  83.370  1.00  0.00     0.165 C 
BRANCH  12  13
HETATM   13  C5  UNL     1       5.501   1.007  83.789  1.00  0.00     0.249 C 
BRANCH  13  14
HETATM   14  N5  UNL     1       4.367   1.071  84.693  1.00  0.00    -0.078 N 
ATOM     15  H53 UNL     1       3.479   1.017  84.193  1.00  0.00     0.274 HD
ATOM     16  H52 UNL     1       4.278   0.222  85.251  1.00  0.00     0.274 HD
ATOM     17  H51 UNL     1       4.424   1.905  85.277  1.00  0.00     0.274 HD
ENDBRANCH  13  14
ENDBRANCH  12  13
ENDBRANCH  10  12
ENDBRANCH   7  10
BRANCH   1  18
HETATM   18  N1  UNL     1       9.940  -2.849  86.557  1.00  0.00    -0.234 N 
ATOM     19  H12 UNL     1       9.781  -3.321  87.447  1.00  0.00     0.174 HD
ATOM     20  H11 UNL     1      10.698  -3.191  85.966  1.00  0.00     0.174 HD
ENDBRANCH   1  18
TORSDOF 5
ENDMDL
