MODEL 1
REMARK VINA RESULT: -4.604620469      0.000      0.000
REMARK  5 active torsions:
REMARK  status: ('A' for Active; 'I' for Inactive)
REMARK    1  A    between atoms: N1_1  and  C1_5 
REMARK    2  A    between atoms: C1_5  and  C2_6 
REMARK    3  A    between atoms: C2_6  and  N2_7 
REMARK    4  A    between atoms: N2_7  and  C3_9 
REMARK    5  A    between atoms: C6_15  and  N4_16 
ROOT
HETATM    1  C3  UNL     1       7.647  -0.041  84.231  1.00  0.00     0.136 C 
HETATM    2  C4  UNL     1       7.500   1.179  85.164  1.00  0.00     0.056 C 
HETATM    3  C5  UNL     1       6.051   0.964  85.592  1.00  0.00     0.237 C 
HETATM    4  N3  UNL     1       5.400   0.685  84.342  1.00  0.00    -0.044 N 
ATOM      5  H31 UNL     1       4.950   1.508  83.940  1.00  0.00     0.279 HD
ATOM      6  H32 UNL     1       4.563   0.112  84.454  1.00  0.00     0.279 HD
HETATM    7  C6  UNL     1       6.370   0.089  83.454  1.00  0.00     0.402 C 
ENDROOT
BRANCH   1   8
HETATM    8  N2  UNL     1       7.703  -1.168  85.092  1.00  0.00    -0.412 N 
ATOM      9  H2  UNL     1       6.869  -1.574  85.516  1.00  0.00     0.153 HD
BRANCH   8  10
HETATM   10  C2  UNL     1       9.017  -1.693  85.324  1.00  0.00     0.141 C 
BRANCH  10  11
HETATM   11  C1  UNL     1       9.053  -2.104  86.806  1.00  0.00     0.248 C 
BRANCH  11  12
HETATM   12  N1  UNL     1       9.894  -1.053  87.421  1.00  0.00    -0.078 N 
ATOM     13  H13 UNL     1      10.898  -1.224  87.366  1.00  0.00     0.274 HD
ATOM     14  H12 UNL     1       9.911  -0.169  86.911  1.00  0.00     0.274 HD
ATOM     15  H11 UNL     1       9.524  -0.990  88.369  1.00  0.00     0.274 HD
ENDBRANCH  11  12
ENDBRANCH  10  11
ENDBRANCH   8  10
ENDBRANCH   1   8
BRANCH   7  16
HETATM   16  N4  UNL     1       5.890  -1.151  82.935  1.00  0.00    -0.048 N 
ATOM     17  H43 UNL     1       6.489  -1.481  82.179  1.00  0.00     0.276 HD
ATOM     18  H42 UNL     1       6.034  -1.904  83.607  1.00  0.00     0.276 HD
ATOM     19  H41 UNL     1       4.916  -1.117  82.634  1.00  0.00     0.276 HD
ENDBRANCH   7  16
TORSDOF 5
ENDMDL
MODEL 2
REMARK VINA RESULT: -4.024489644      7.186      8.167
REMARK  5 active torsions:
REMARK  status: ('A' for Active; 'I' for Inactive)
REMARK    1  A    between atoms: N1_1  and  C1_5 
REMARK    2  A    between atoms: C1_5  and  C2_6 
REMARK    3  A    between atoms: C2_6  and  N2_7 
REMARK    4  A    between atoms: N2_7  and  C3_9 
REMARK    5  A    between atoms: C6_15  and  N4_16 
ROOT
HETATM    1  C3  UNL     1       2.586  -6.788  85.887  1.00  0.00     0.136 C 
HETATM    2  C4  UNL     1       1.066  -6.844  85.634  1.00  0.00     0.056 C 
HETATM    3  C5  UNL     1       0.725  -5.397  85.980  1.00  0.00     0.237 C 
HETATM    4  N3  UNL     1       1.441  -5.199  87.210  1.00  0.00    -0.044 N 
ATOM      5  H31 UNL     1       0.852  -5.325  88.033  1.00  0.00     0.279 HD
ATOM      6  H32 UNL     1       1.690  -4.222  87.368  1.00  0.00     0.279 HD
HETATM    7  C6  UNL     1       2.590  -6.074  87.206  1.00  0.00     0.402 C 
ENDROOT
BRANCH   1   8
HETATM    8  N2  UNL     1       3.120  -6.039  84.807  1.00  0.00    -0.412 N 
ATOM      9  H2  UNL     1       3.694  -5.208  84.950  1.00  0.00     0.153 HD
BRANCH   8  10
HETATM   10  C2  UNL     1       2.795  -6.534  83.501  1.00  0.00     0.141 C 
BRANCH  10  11
HETATM   11  C1  UNL     1       2.497  -5.294  82.641  1.00  0.00     0.248 C 
BRANCH  11  12
HETATM   12  N1  UNL     1       3.555  -4.345  83.053  1.00  0.00    -0.078 N 
ATOM     13  H13 UNL     1       4.382  -4.779  83.463  1.00  0.00     0.274 HD
ATOM     14  H12 UNL     1       4.048  -3.894  82.281  1.00  0.00     0.274 HD
ATOM     15  H11 UNL     1       3.059  -3.705  83.673  1.00  0.00     0.274 HD
ENDBRANCH  11  12
ENDBRANCH  10  11
ENDBRANCH   8  10
ENDBRANCH   1   8
BRANCH   7  16
HETATM   16  N4  UNL     1       3.789  -5.340  87.454  1.00  0.00    -0.048 N 
ATOM     17  H43 UNL     1       3.801  -4.476  86.912  1.00  0.00     0.276 HD
ATOM     18  H42 UNL     1       3.784  -4.949  88.396  1.00  0.00     0.276 HD
ATOM     19  H41 UNL     1       4.638  -5.880  87.291  1.00  0.00     0.276 HD
ENDBRANCH   7  16
TORSDOF 5
ENDMDL
MODEL 3
REMARK VINA RESULT: -3.742671085      1.233      1.547
REMARK  5 active torsions:
REMARK  status: ('A' for Active; 'I' for Inactive)
REMARK    1  A    between atoms: N1_1  and  C1_5 
REMARK    2  A    between atoms: C1_5  and  C2_6 
REMARK    3  A    between atoms: C2_6  and  N2_7 
REMARK    4  A    between atoms: N2_7  and  C3_9 
REMARK    5  A    between atoms: C6_15  and  N4_16 
ROOT
HETATM    1  C3  UNL     1       7.617   0.510  85.333  1.00  0.00     0.136 C 
HETATM    2  C4  UNL     1       6.168   0.717  85.818  1.00  0.00     0.056 C 
HETATM    3  C5  UNL     1       5.461   0.627  84.468  1.00  0.00     0.237 C 
HETATM    4  N3  UNL     1       6.276   1.469  83.638  1.00  0.00    -0.044 N 
ATOM      5  H31 UNL     1       5.901   2.413  83.547  1.00  0.00     0.279 HD
ATOM      6  H32 UNL     1       6.235   1.209  82.653  1.00  0.00     0.279 HD
HETATM    7  C6  UNL     1       7.621   1.451  84.164  1.00  0.00     0.402 C 
ENDROOT
BRANCH   1   8
HETATM    8  N2  UNL     1       7.706  -0.863  84.987  1.00  0.00    -0.412 N 
ATOM      9  H2  UNL     1       6.932  -1.368  84.555  1.00  0.00     0.153 HD
BRANCH   8  10
HETATM   10  C2  UNL     1       8.960  -1.489  85.289  1.00  0.00     0.141 C 
BRANCH  10  11
HETATM   11  C1  UNL     1       8.842  -1.996  86.736  1.00  0.00     0.248 C 
BRANCH  11  12
HETATM   12  N1  UNL     1       9.925  -1.266  87.432  1.00  0.00    -0.078 N 
ATOM     13  H13 UNL     1      10.612  -0.833  86.815  1.00  0.00     0.274 HD
ATOM     14  H12 UNL     1       9.632  -0.399  87.884  1.00  0.00     0.274 HD
ATOM     15  H11 UNL     1      10.305  -1.969  88.064  1.00  0.00     0.274 HD
ENDBRANCH  11  12
ENDBRANCH  10  11
ENDBRANCH   8  10
ENDBRANCH   1   8
BRANCH   7  16
HETATM   16  N4  UNL     1       8.560   1.095  83.149  1.00  0.00    -0.048 N 
ATOM     17  H43 UNL     1       9.504   1.053  83.530  1.00  0.00     0.276 HD
ATOM     18  H42 UNL     1       8.443   0.120  82.875  1.00  0.00     0.276 HD
ATOM     19  H41 UNL     1       8.528   1.706  82.332  1.00  0.00     0.276 HD
ENDBRANCH   7  16
TORSDOF 5
ENDMDL
MODEL 4
REMARK VINA RESULT: -3.683114888      1.069      1.106
REMARK  5 active torsions:
REMARK  status: ('A' for Active; 'I' for Inactive)
REMARK    1  A    between atoms: N1_1  and  C1_5 
REMARK    2  A    between atoms: C1_5  and  C2_6 
REMARK    3  A    between atoms: C2_6  and  N2_7 
REMARK    4  A    between atoms: N2_7  and  C3_9 
REMARK    5  A    between atoms: C6_15  and  N4_16 
ROOT
HETATM    1  C3  UNL     1       7.474   0.122  84.158  1.00  0.00     0.136 C 
HETATM    2  C4  UNL     1       7.279   1.369  85.043  1.00  0.00     0.056 C 
HETATM    3  C5  UNL     1       5.845   1.104  85.496  1.00  0.00     0.237 C 
HETATM    4  N3  UNL     1       5.196   0.745  84.266  1.00  0.00    -0.044 N 
ATOM      5  H31 UNL     1       4.704   1.529  83.837  1.00  0.00     0.279 HD
ATOM      6  H32 UNL     1       4.389   0.138  84.410  1.00  0.00     0.279 HD
HETATM    7  C6  UNL     1       6.185   0.160  83.391  1.00  0.00     0.402 C 
ENDROOT
BRANCH   1   8
HETATM    8  N2  UNL     1       7.592  -0.966  85.062  1.00  0.00    -0.412 N 
ATOM      9  H2  UNL     1       7.044  -1.820  84.963  1.00  0.00     0.153 HD
BRANCH   8  10
HETATM   10  C2  UNL     1       8.537  -0.776  86.124  1.00  0.00     0.141 C 
BRANCH  10  11
HETATM   11  C1  UNL     1       9.442  -2.020  86.111  1.00  0.00     0.248 C 
BRANCH  11  12
HETATM   12  N1  UNL     1       9.475  -2.390  84.678  1.00  0.00    -0.078 N 
ATOM     13  H13 UNL     1       9.449  -3.393  84.496  1.00  0.00     0.274 HD
ATOM     14  H12 UNL     1       8.623  -2.170  84.162  1.00  0.00     0.274 HD
ATOM     15  H11 UNL     1      10.312  -1.917  84.339  1.00  0.00     0.274 HD
ENDBRANCH  11  12
ENDBRANCH  10  11
ENDBRANCH   8  10
ENDBRANCH   1   8
BRANCH   7  16
HETATM   16  N4  UNL     1       5.759  -1.121  82.926  1.00  0.00    -0.048 N 
ATOM     17  H43 UNL     1       4.854  -1.053  82.461  1.00  0.00     0.276 HD
ATOM     18  H42 UNL     1       6.332  -1.428  82.140  1.00  0.00     0.276 HD
ATOM     19  H41 UNL     1       5.736  -1.832  83.657  1.00  0.00     0.276 HD
ENDBRANCH   7  16
TORSDOF 5
ENDMDL
MODEL 5
REMARK VINA RESULT: -3.654880136      7.332      8.352
REMARK  5 active torsions:
REMARK  status: ('A' for Active; 'I' for Inactive)
REMARK    1  A    between atoms: N1_1  and  C1_5 
REMARK    2  A    between atoms: C1_5  and  C2_6 
REMARK    3  A    between atoms: C2_6  and  N2_7 
REMARK    4  A    between atoms: N2_7  and  C3_9 
REMARK    5  A    between atoms: C6_15  and  N4_16 
ROOT
HETATM    1  C3  UNL     1       2.117  -5.907  85.142  1.00  0.00     0.136 C 
HETATM    2  C4  UNL     1       3.202  -5.505  86.161  1.00  0.00     0.056 C 
HETATM    3  C5  UNL     1       3.270  -6.811  86.948  1.00  0.00     0.237 C 
HETATM    4  N3  UNL     1       1.882  -7.113  87.161  1.00  0.00    -0.044 N 
ATOM      5  H31 UNL     1       1.549  -6.811  88.077  1.00  0.00     0.279 HD
ATOM      6  H32 UNL     1       1.710  -8.113  87.275  1.00  0.00     0.279 HD
HETATM    7  C6  UNL     1       1.125  -6.537  86.074  1.00  0.00     0.402 C 
ENDROOT
BRANCH   1   8
HETATM    8  N2  UNL     1       2.753  -6.813  84.254  1.00  0.00    -0.412 N 
ATOM      9  H2  UNL     1       3.089  -7.728  84.555  1.00  0.00     0.153 HD
BRANCH   8  10
HETATM   10  C2  UNL     1       2.890  -6.350  82.903  1.00  0.00     0.141 C 
BRANCH  10  11
HETATM   11  C1  UNL     1       2.354  -4.908  82.895  1.00  0.00     0.248 C 
BRANCH  11  12
HETATM   12  N1  UNL     1       3.590  -4.096  82.854  1.00  0.00    -0.078 N 
ATOM     13  H13 UNL     1       4.235  -4.262  83.626  1.00  0.00     0.274 HD
ATOM     14  H12 UNL     1       4.246  -4.354  82.116  1.00  0.00     0.274 HD
ATOM     15  H11 UNL     1       3.235  -3.142  82.793  1.00  0.00     0.274 HD
ENDBRANCH  11  12
ENDBRANCH  10  11
ENDBRANCH   8  10
ENDBRANCH   1   8
BRANCH   7  16
HETATM   16  N4  UNL     1       0.301  -7.522  85.450  1.00  0.00    -0.048 N 
ATOM     17  H43 UNL     1      -0.498  -7.086  84.993  1.00  0.00     0.276 HD
ATOM     18  H42 UNL     1       0.768  -7.919  84.635  1.00  0.00     0.276 HD
ATOM     19  H41 UNL     1      -0.005  -8.259  86.085  1.00  0.00     0.276 HD
ENDBRANCH   7  16
TORSDOF 5
ENDMDL
