MODEL 1
REMARK VINA RESULT: -5.012005939      0.000      0.000
REMARK  3 active torsions:
REMARK  status: ('A' for Active; 'I' for Inactive)
REMARK    1  A    between atoms: C3_5  and  C4_6 
REMARK    2  A    between atoms: C4_6  and  C5_7 
REMARK    3  A    between atoms: C5_7  and  N2_8 
ROOT
HETATM    1  C4  UNL     1      20.585  -1.519  39.823  1.00  0.00     0.078 C 
ENDROOT
BRANCH   1   2
HETATM    2  C3  UNL     1      21.402  -2.680  40.271  1.00  0.00     0.010 A 
HETATM    3  N1  UNL     1      20.930  -3.805  40.859  1.00  0.00    -0.369 N 
HETATM    4  C2  UNL     1      21.944  -4.645  41.130  1.00  0.00     0.088 A 
ATOM      5  H1  UNL     1      19.948  -3.989  41.065  1.00  0.00     0.165 HD
HETATM    6  C1  UNL     1      23.137  -4.071  40.714  1.00  0.00     0.019 A 
HETATM    7  C8  UNL     1      22.770  -2.850  40.183  1.00  0.00     0.026 A 
ENDBRANCH   1   2
BRANCH   1   8
HETATM    8  C5  UNL     1      19.258  -1.568  40.547  1.00  0.00     0.151 C 
BRANCH   8   9
HETATM    9  N2  UNL     1      19.263  -0.588  41.626  1.00  0.00    -0.285 N 
HETATM   10  C6  UNL     1      19.501  -0.861  42.930  1.00  0.00     0.126 A 
HETATM   11  C7  UNL     1      19.424   0.308  43.664  1.00  0.00     0.123 A 
HETATM   12  N3  UNL     1      19.137   1.265  42.769  1.00  0.00    -0.294 N 
HETATM   13  N4  UNL     1      19.047   0.715  41.571  1.00  0.00    -0.021 NA
ATOM     14  H3  UNL     1      19.010   2.255  42.980  1.00  0.00     0.183 HD
ENDBRANCH   8   9
ENDBRANCH   1   8
TORSDOF 3
ENDMDL
MODEL 2
REMARK VINA RESULT: -5.009167286      0.725      1.068
REMARK  3 active torsions:
REMARK  status: ('A' for Active; 'I' for Inactive)
REMARK    1  A    between atoms: C3_5  and  C4_6 
REMARK    2  A    between atoms: C4_6  and  C5_7 
REMARK    3  A    between atoms: C5_7  and  N2_8 
ROOT
HETATM    1  C4  UNL     1      20.755  -1.611  39.873  1.00  0.00     0.078 C 
ENDROOT
BRANCH   1   2
HETATM    2  C3  UNL     1      21.439  -2.851  40.331  1.00  0.00     0.010 A 
HETATM    3  N1  UNL     1      22.779  -3.046  40.388  1.00  0.00    -0.369 N 
HETATM    4  C2  UNL     1      23.047  -4.279  40.849  1.00  0.00     0.088 A 
ATOM      5  H1  UNL     1      23.481  -2.356  40.120  1.00  0.00     0.165 HD
HETATM    6  C1  UNL     1      21.854  -4.939  41.112  1.00  0.00     0.019 A 
HETATM    7  C8  UNL     1      20.871  -4.027  40.781  1.00  0.00     0.026 A 
ENDBRANCH   1   2
BRANCH   1   8
HETATM    8  C5  UNL     1      19.370  -1.586  40.479  1.00  0.00     0.151 C 
BRANCH   8   9
HETATM    9  N2  UNL     1      19.337  -0.612  41.564  1.00  0.00    -0.285 N 
HETATM   10  C6  UNL     1      19.623  -0.876  42.860  1.00  0.00     0.126 A 
HETATM   11  C7  UNL     1      19.489   0.282  43.603  1.00  0.00     0.123 A 
HETATM   12  N3  UNL     1      19.120   1.223  42.722  1.00  0.00    -0.294 N 
HETATM   13  N4  UNL     1      19.036   0.674  41.523  1.00  0.00    -0.021 NA
ATOM     14  H3  UNL     1      18.934   2.201  42.942  1.00  0.00     0.183 HD
ENDBRANCH   8   9
ENDBRANCH   1   8
TORSDOF 3
ENDMDL
MODEL 3
REMARK VINA RESULT: -4.991035817      1.753      4.762
REMARK  3 active torsions:
REMARK  status: ('A' for Active; 'I' for Inactive)
REMARK    1  A    between atoms: C3_5  and  C4_6 
REMARK    2  A    between atoms: C4_6  and  C5_7 
REMARK    3  A    between atoms: C5_7  and  N2_8 
ROOT
HETATM    1  C4  UNL     1      22.029  -2.609  39.822  1.00  0.00     0.078 C 
ENDROOT
BRANCH   1   2
HETATM    2  C3  UNL     1      20.992  -1.802  40.523  1.00  0.00     0.010 A 
HETATM    3  N1  UNL     1      20.982  -1.493  41.841  1.00  0.00    -0.369 N 
HETATM    4  C2  UNL     1      19.900  -0.751  42.133  1.00  0.00     0.088 A 
ATOM      5  H1  UNL     1      21.692  -1.781  42.515  1.00  0.00     0.165 HD
HETATM    6  C1  UNL     1      19.157  -0.552  40.978  1.00  0.00     0.019 A 
HETATM    7  C8  UNL     1      19.859  -1.216  39.992  1.00  0.00     0.026 A 
ENDBRANCH   1   2
BRANCH   1   8
HETATM    8  C5  UNL     1      23.121  -2.938  40.815  1.00  0.00     0.151 C 
BRANCH   8   9
HETATM    9  N2  UNL     1      22.653  -3.987  41.714  1.00  0.00    -0.285 N 
HETATM   10  C6  UNL     1      22.192  -5.199  41.327  1.00  0.00     0.126 A 
HETATM   11  C7  UNL     1      21.838  -5.931  42.445  1.00  0.00     0.123 A 
HETATM   12  N3  UNL     1      22.098  -5.129  43.487  1.00  0.00    -0.294 N 
HETATM   13  N4  UNL     1      22.580  -3.985  43.033  1.00  0.00    -0.021 NA
ATOM     14  H3  UNL     1      21.949  -5.363  44.468  1.00  0.00     0.183 HD
ENDBRANCH   8   9
ENDBRANCH   1   8
TORSDOF 3
ENDMDL
MODEL 4
REMARK VINA RESULT: -4.856525855      1.424      2.152
REMARK  3 active torsions:
REMARK  status: ('A' for Active; 'I' for Inactive)
REMARK    1  A    between atoms: C3_5  and  C4_6 
REMARK    2  A    between atoms: C4_6  and  C5_7 
REMARK    3  A    between atoms: C5_7  and  N2_8 
ROOT
HETATM    1  C4  UNL     1      19.329  -0.566  41.401  1.00  0.00     0.078 C 
ENDROOT
BRANCH   1   2
HETATM    2  C3  UNL     1      20.019  -1.764  40.848  1.00  0.00     0.010 A 
HETATM    3  N1  UNL     1      19.654  -3.053  41.043  1.00  0.00    -0.369 N 
HETATM    4  C2  UNL     1      20.499  -3.876  40.398  1.00  0.00     0.088 A 
ATOM      5  H1  UNL     1      18.854  -3.356  41.599  1.00  0.00     0.165 HD
HETATM    6  C1  UNL     1      21.464  -3.120  39.747  1.00  0.00     0.019 A 
HETATM    7  C8  UNL     1      21.141  -1.811  40.044  1.00  0.00     0.026 A 
ENDBRANCH   1   2
BRANCH   1   8
HETATM    8  C5  UNL     1      19.656  -0.472  42.875  1.00  0.00     0.151 C 
BRANCH   8   9
HETATM    9  N2  UNL     1      18.961   0.674  43.449  1.00  0.00    -0.285 N 
HETATM   10  C6  UNL     1      17.978   0.608  44.375  1.00  0.00     0.126 A 
HETATM   11  C7  UNL     1      17.555   1.887  44.686  1.00  0.00     0.123 A 
HETATM   12  N3  UNL     1      18.306   2.698  43.927  1.00  0.00    -0.294 N 
HETATM   13  N4  UNL     1      19.131   1.962  43.203  1.00  0.00    -0.021 NA
ATOM     14  H3  UNL     1      18.249   3.716  43.910  1.00  0.00     0.183 HD
ENDBRANCH   8   9
ENDBRANCH   1   8
TORSDOF 3
ENDMDL
MODEL 5
REMARK VINA RESULT: -4.844373978      1.412      1.914
REMARK  3 active torsions:
REMARK  status: ('A' for Active; 'I' for Inactive)
REMARK    1  A    between atoms: C3_5  and  C4_6 
REMARK    2  A    between atoms: C4_6  and  C5_7 
REMARK    3  A    between atoms: C5_7  and  N2_8 
ROOT
HETATM    1  C4  UNL     1      19.675  -0.930  41.228  1.00  0.00     0.078 C 
ENDROOT
BRANCH   1   2
HETATM    2  C3  UNL     1      20.931  -1.649  40.882  1.00  0.00     0.010 A 
HETATM    3  N1  UNL     1      21.956  -1.912  41.728  1.00  0.00    -0.369 N 
HETATM    4  C2  UNL     1      22.928  -2.578  41.082  1.00  0.00     0.088 A 
ATOM      5  H1  UNL     1      21.985  -1.643  42.712  1.00  0.00     0.165 HD
HETATM    6  C1  UNL     1      22.550  -2.772  39.761  1.00  0.00     0.019 A 
HETATM    7  C8  UNL     1      21.304  -2.185  39.665  1.00  0.00     0.026 A 
ENDBRANCH   1   2
BRANCH   1   8
HETATM    8  C5  UNL     1      19.423  -1.106  42.709  1.00  0.00     0.151 C 
BRANCH   8   9
HETATM    9  N2  UNL     1      18.967   0.159  43.273  1.00  0.00    -0.285 N 
HETATM   10  C6  UNL     1      18.108   0.288  44.310  1.00  0.00     0.126 A 
HETATM   11  C7  UNL     1      17.904   1.630  44.571  1.00  0.00     0.123 A 
HETATM   12  N3  UNL     1      18.657   2.280  43.672  1.00  0.00    -0.294 N 
HETATM   13  N4  UNL     1      19.278   1.393  42.915  1.00  0.00    -0.021 NA
ATOM     14  H3  UNL     1      18.737   3.293  43.587  1.00  0.00     0.183 HD
ENDBRANCH   8   9
ENDBRANCH   1   8
TORSDOF 3
ENDMDL
