MODEL 1
REMARK VINA RESULT: -4.931177795      0.000      0.000
REMARK  2 active torsions:
REMARK  status: ('A' for Active; 'I' for Inactive)
REMARK    1  A    between atoms: C2_2  and  C3_3 
REMARK    2  A    between atoms: C3_3  and  N1_4 
ROOT
HETATM    1  N1  UNL     1      21.661  -2.046  40.690  1.00  0.00    -0.361 N 
HETATM    2  C4  UNL     1      20.678  -1.732  39.805  1.00  0.00     0.093 A 
HETATM    3  C5  UNL     1      19.546  -1.075  40.189  1.00  0.00     0.049 A 
HETATM    4  C6  UNL     1      19.385  -0.718  41.500  1.00  0.00     0.062 A 
HETATM    5  N2  UNL     1      18.417  -0.080  42.188  1.00  0.00    -0.350 N 
ATOM      6  H2  UNL     1      17.547   0.280  41.794  1.00  0.00     0.166 HD
HETATM    7  C7  UNL     1      18.786   0.003  43.478  1.00  0.00     0.181 A 
HETATM    8  N3  UNL     1      19.989  -0.582  43.602  1.00  0.00    -0.349 N 
ATOM      9  H3  UNL     1      20.519  -0.667  44.470  1.00  0.00     0.166 HD
HETATM   10  C8  UNL     1      20.383  -1.036  42.396  1.00  0.00     0.075 A 
HETATM   11  C9  UNL     1      21.503  -1.695  41.975  1.00  0.00     0.122 A 
ENDROOT
BRANCH   1  12
HETATM   12  C3  UNL     1      22.842  -2.739  40.235  1.00  0.00     0.154 C 
BRANCH  12  13
HETATM   13  C2  UNL     1      23.189  -3.863  41.147  1.00  0.00    -0.017 C 
HETATM   14  C1  UNL     1      22.577  -5.029  41.027  1.00  0.00     0.008 C 
ENDBRANCH  12  13
ENDBRANCH   1  12
TORSDOF 2
ENDMDL
MODEL 2
REMARK VINA RESULT: -4.868205221      1.267      1.533
REMARK  2 active torsions:
REMARK  status: ('A' for Active; 'I' for Inactive)
REMARK    1  A    between atoms: C2_2  and  C3_3 
REMARK    2  A    between atoms: C3_3  and  N1_4 
ROOT
HETATM    1  N1  UNL     1      20.254  -2.083  41.044  1.00  0.00    -0.361 N 
HETATM    2  C4  UNL     1      19.474  -1.260  40.294  1.00  0.00     0.093 A 
HETATM    3  C5  UNL     1      18.934  -0.117  40.805  1.00  0.00     0.049 A 
HETATM    4  C6  UNL     1      19.177   0.221  42.108  1.00  0.00     0.062 A 
HETATM    5  N2  UNL     1      18.806   1.250  42.897  1.00  0.00    -0.350 N 
ATOM      6  H2  UNL     1      18.216   2.032  42.614  1.00  0.00     0.166 HD
HETATM    7  C7  UNL     1      19.342   1.073  44.117  1.00  0.00     0.181 A 
HETATM    8  N3  UNL     1      20.052  -0.067  44.097  1.00  0.00    -0.349 N 
ATOM      9  H3  UNL     1      20.572  -0.455  44.884  1.00  0.00     0.166 HD
HETATM   10  C8  UNL     1      19.967  -0.614  42.868  1.00  0.00     0.075 A 
HETATM   11  C9  UNL     1      20.492  -1.752  42.323  1.00  0.00     0.122 A 
ENDROOT
BRANCH   1  12
HETATM   12  C3  UNL     1      20.805  -3.281  40.459  1.00  0.00     0.154 C 
BRANCH  12  13
HETATM   13  C2  UNL     1      21.991  -2.971  39.616  1.00  0.00    -0.017 C 
HETATM   14  C1  UNL     1      23.195  -2.908  40.160  1.00  0.00     0.008 C 
ENDBRANCH  12  13
ENDBRANCH   1  12
TORSDOF 2
ENDMDL
MODEL 3
REMARK VINA RESULT: -4.829369078      1.838      2.555
REMARK  2 active torsions:
REMARK  status: ('A' for Active; 'I' for Inactive)
REMARK    1  A    between atoms: C2_2  and  C3_3 
REMARK    2  A    between atoms: C3_3  and  N1_4 
ROOT
HETATM    1  N1  UNL     1      21.658  -4.143  41.215  1.00  0.00    -0.361 N 
HETATM    2  C4  UNL     1      22.140  -3.596  40.067  1.00  0.00     0.093 A 
HETATM    3  C5  UNL     1      21.611  -2.458  39.534  1.00  0.00     0.049 A 
HETATM    4  C6  UNL     1      20.564  -1.841  40.164  1.00  0.00     0.062 A 
HETATM    5  N2  UNL     1      19.834  -0.737  39.909  1.00  0.00    -0.350 N 
ATOM      6  H2  UNL     1      19.960  -0.112  39.113  1.00  0.00     0.166 HD
HETATM    7  C7  UNL     1      18.912  -0.595  40.878  1.00  0.00     0.181 A 
HETATM    8  N3  UNL     1      19.063  -1.611  41.744  1.00  0.00    -0.349 N 
ATOM      9  H3  UNL     1      18.502  -1.763  42.583  1.00  0.00     0.166 HD
HETATM   10  C8  UNL     1      20.077  -2.396  41.328  1.00  0.00     0.075 A 
HETATM   11  C9  UNL     1      20.632  -3.538  41.833  1.00  0.00     0.122 A 
ENDROOT
BRANCH   1  12
HETATM   12  C3  UNL     1      22.253  -5.347  41.742  1.00  0.00     0.154 C 
BRANCH  12  13
HETATM   13  C2  UNL     1      21.594  -5.762  43.010  1.00  0.00    -0.017 C 
HETATM   14  C1  UNL     1      21.539  -7.040  43.343  1.00  0.00     0.008 C 
ENDBRANCH  12  13
ENDBRANCH   1  12
TORSDOF 2
ENDMDL
MODEL 4
REMARK VINA RESULT: -4.708012529      1.738      4.550
REMARK  2 active torsions:
REMARK  status: ('A' for Active; 'I' for Inactive)
REMARK    1  A    between atoms: C2_2  and  C3_3 
REMARK    2  A    between atoms: C3_3  and  N1_4 
ROOT
HETATM    1  N1  UNL     1      20.058  -1.608  41.005  1.00  0.00    -0.361 N 
HETATM    2  C4  UNL     1      20.830  -1.670  39.887  1.00  0.00     0.093 A 
HETATM    3  C5  UNL     1      21.664  -2.721  39.645  1.00  0.00     0.049 A 
HETATM    4  C6  UNL     1      21.735  -3.748  40.547  1.00  0.00     0.062 A 
HETATM    5  N2  UNL     1      22.435  -4.898  40.608  1.00  0.00    -0.350 N 
ATOM      6  H2  UNL     1      23.102  -5.225  39.909  1.00  0.00     0.166 HD
HETATM    7  C7  UNL     1      22.110  -5.543  41.742  1.00  0.00     0.181 A 
HETATM    8  N3  UNL     1      21.202  -4.799  42.395  1.00  0.00    -0.349 N 
ATOM      9  H3  UNL     1      20.772  -5.039  43.288  1.00  0.00     0.166 HD
HETATM   10  C8  UNL     1      20.952  -3.683  41.680  1.00  0.00     0.075 A 
HETATM   11  C9  UNL     1      20.128  -2.614  41.890  1.00  0.00     0.122 A 
ENDROOT
BRANCH   1  12
HETATM   12  C3  UNL     1      19.189  -0.476  41.216  1.00  0.00     0.154 C 
BRANCH  12  13
HETATM   13  C2  UNL     1      18.841  -0.326  42.655  1.00  0.00    -0.017 C 
HETATM   14  C1  UNL     1      19.093   0.809  43.285  1.00  0.00     0.008 C 
ENDBRANCH  12  13
ENDBRANCH   1  12
TORSDOF 2
ENDMDL
MODEL 5
REMARK VINA RESULT: -4.604630070      1.074      4.493
REMARK  2 active torsions:
REMARK  status: ('A' for Active; 'I' for Inactive)
REMARK    1  A    between atoms: C2_2  and  C3_3 
REMARK    2  A    between atoms: C3_3  and  N1_4 
ROOT
HETATM    1  N1  UNL     1      19.774  -0.540  42.232  1.00  0.00    -0.361 N 
HETATM    2  C4  UNL     1      19.268  -0.616  40.972  1.00  0.00     0.093 A 
HETATM    3  C5  UNL     1      19.912  -1.292  39.978  1.00  0.00     0.049 A 
HETATM    4  C6  UNL     1      21.101  -1.914  40.245  1.00  0.00     0.062 A 
HETATM    5  N2  UNL     1      21.965  -2.644  39.511  1.00  0.00    -0.350 N 
ATOM      6  H2  UNL     1      21.858  -2.875  38.523  1.00  0.00     0.166 HD
HETATM    7  C7  UNL     1      22.992  -3.015  40.295  1.00  0.00     0.181 A 
HETATM    8  N3  UNL     1      22.773  -2.521  41.525  1.00  0.00    -0.349 N 
ATOM      9  H3  UNL     1      23.387  -2.645  42.331  1.00  0.00     0.166 HD
HETATM   10  C8  UNL     1      21.612  -1.836  41.523  1.00  0.00     0.075 A 
HETATM   11  C9  UNL     1      20.940  -1.150  42.494  1.00  0.00     0.122 A 
ENDROOT
BRANCH   1  12
HETATM   12  C3  UNL     1      19.055   0.186  43.252  1.00  0.00     0.154 C 
BRANCH  12  13
HETATM   13  C2  UNL     1      18.139  -0.713  44.005  1.00  0.00    -0.017 C 
HETATM   14  C1  UNL     1      16.900  -0.331  44.265  1.00  0.00     0.008 C 
ENDBRANCH  12  13
ENDBRANCH   1  12
TORSDOF 2
ENDMDL
