MODEL 1
REMARK VINA RESULT: -6.508576708      0.000      0.000
REMARK  2 active torsions:
REMARK  status: ('A' for Active; 'I' for Inactive)
REMARK    1  A    between atoms: N3_4  and  C2_6 
REMARK    2  A    between atoms: C2_6  and  C3_7 
ROOT
HETATM    1  C2  UNL     1      21.702  -3.049  40.851  1.00  0.00     0.251 A 
HETATM    2  C9  UNL     1      22.891  -2.711  40.174  1.00  0.00     0.302 A 
HETATM    3  N4  UNL     1      21.780  -3.322  39.424  1.00  0.00    -0.038 N 
ATOM      4  H41 UNL     1      21.232  -3.089  38.597  1.00  0.00     0.280 HD
ATOM      5  H42 UNL     1      21.654  -4.133  38.819  1.00  0.00     0.280 HD
ENDROOT
BRANCH   1   6
HETATM    6  N3  UNL     1      21.493  -4.215  41.647  1.00  0.00    -0.329 N 
HETATM    7  C1  UNL     1      22.265  -5.237  41.630  1.00  0.00     0.199 C 
HETATM    8  N1  UNL     1      23.417  -5.278  40.788  1.00  0.00    -0.067 NA
HETATM    9  N2  UNL     1      22.004  -6.375  42.450  1.00  0.00    -0.067 NA
ATOM     10  H3  UNL     1      20.682  -4.236  42.266  1.00  0.00     0.164 HD
ENDBRANCH   1   6
BRANCH   1  11
HETATM   11  C3  UNL     1      20.741  -1.925  41.131  1.00  0.00    -0.001 A 
HETATM   12  C4  UNL     1      20.618  -1.388  42.398  1.00  0.00     0.011 A 
HETATM   13  C5  UNL     1      19.736  -0.354  42.660  1.00  0.00     0.001 A 
HETATM   14  C6  UNL     1      18.953   0.158  41.632  1.00  0.00     0.000 A 
HETATM   15  C7  UNL     1      19.058  -0.365  40.357  1.00  0.00     0.001 A 
HETATM   16  C8  UNL     1      19.944  -1.386  40.143  1.00  0.00     0.011 A 
ENDBRANCH   1  11
TORSDOF 2
ENDMDL
MODEL 2
REMARK VINA RESULT: -6.504059188      0.015      1.319
REMARK  2 active torsions:
REMARK  status: ('A' for Active; 'I' for Inactive)
REMARK    1  A    between atoms: N3_4  and  C2_6 
REMARK    2  A    between atoms: C2_6  and  C3_7 
ROOT
HETATM    1  C2  UNL     1      21.703  -3.049  40.853  1.00  0.00     0.251 A 
HETATM    2  C9  UNL     1      22.895  -2.709  40.181  1.00  0.00     0.302 A 
HETATM    3  N4  UNL     1      21.787  -3.319  39.425  1.00  0.00    -0.038 N 
ATOM      4  H41 UNL     1      21.243  -3.085  38.596  1.00  0.00     0.280 HD
ATOM      5  H42 UNL     1      21.665  -4.130  38.818  1.00  0.00     0.280 HD
ENDROOT
BRANCH   1   6
HETATM    6  N3  UNL     1      21.491  -4.216  41.646  1.00  0.00    -0.329 N 
HETATM    7  C1  UNL     1      22.264  -5.237  41.631  1.00  0.00     0.199 C 
HETATM    8  N1  UNL     1      23.420  -5.276  40.795  1.00  0.00    -0.067 NA
HETATM    9  N2  UNL     1      22.000  -6.377  42.448  1.00  0.00    -0.067 NA
ATOM     10  H3  UNL     1      20.677  -4.238  42.261  1.00  0.00     0.164 HD
ENDBRANCH   1   6
BRANCH   1  11
HETATM   11  C3  UNL     1      20.740  -1.926  41.130  1.00  0.00    -0.001 A 
HETATM   12  C4  UNL     1      19.953  -1.394  40.126  1.00  0.00     0.011 A 
HETATM   13  C5  UNL     1      19.065  -0.362  40.376  1.00  0.00     0.001 A 
HETATM   14  C6  UNL     1      18.960   0.156  41.661  1.00  0.00     0.000 A 
HETATM   15  C7  UNL     1      19.738  -0.359  42.681  1.00  0.00     0.001 A 
HETATM   16  C8  UNL     1      20.601  -1.380  42.389  1.00  0.00     0.011 A 
ENDBRANCH   1  11
TORSDOF 2
ENDMDL
MODEL 3
REMARK VINA RESULT: -6.340987077      1.214      1.930
REMARK  2 active torsions:
REMARK  status: ('A' for Active; 'I' for Inactive)
REMARK    1  A    between atoms: N3_4  and  C2_6 
REMARK    2  A    between atoms: C2_6  and  C3_7 
ROOT
HETATM    1  C2  UNL     1      22.353  -2.804  41.169  1.00  0.00     0.251 A 
HETATM    2  C9  UNL     1      23.127  -2.827  39.991  1.00  0.00     0.302 A 
HETATM    3  N4  UNL     1      22.154  -3.905  40.239  1.00  0.00    -0.038 N 
ATOM      4  H41 UNL     1      21.366  -4.317  39.741  1.00  0.00     0.280 HD
ATOM      5  H42 UNL     1      22.175  -4.924  40.284  1.00  0.00     0.280 HD
ENDROOT
BRANCH   1   6
HETATM    6  N3  UNL     1      22.786  -3.218  42.464  1.00  0.00    -0.329 N 
HETATM    7  C1  UNL     1      22.237  -4.165  43.129  1.00  0.00     0.199 C 
HETATM    8  N1  UNL     1      21.123  -4.887  42.605  1.00  0.00    -0.067 NA
HETATM    9  N2  UNL     1      22.715  -4.535  44.423  1.00  0.00    -0.067 NA
ATOM     10  H3  UNL     1      23.579  -2.733  42.885  1.00  0.00     0.164 HD
ENDBRANCH   1   6
BRANCH   1  11
HETATM   11  C3  UNL     1      21.161  -1.886  41.177  1.00  0.00    -0.001 A 
HETATM   12  C4  UNL     1      20.447  -1.630  40.022  1.00  0.00     0.011 A 
HETATM   13  C5  UNL     1      19.349  -0.787  40.024  1.00  0.00     0.001 A 
HETATM   14  C6  UNL     1      18.952  -0.180  41.210  1.00  0.00     0.000 A 
HETATM   15  C7  UNL     1      19.652  -0.420  42.378  1.00  0.00     0.001 A 
HETATM   16  C8  UNL     1      20.730  -1.261  42.330  1.00  0.00     0.011 A 
ENDBRANCH   1  11
TORSDOF 2
ENDMDL
MODEL 4
REMARK VINA RESULT: -6.339038974      4.035      5.759
REMARK  2 active torsions:
REMARK  status: ('A' for Active; 'I' for Inactive)
REMARK    1  A    between atoms: N3_4  and  C2_6 
REMARK    2  A    between atoms: C2_6  and  C3_7 
ROOT
HETATM    1  C2  UNL     1      18.849   0.029  43.132  1.00  0.00     0.251 A 
HETATM    2  C9  UNL     1      18.407  -0.757  44.216  1.00  0.00     0.302 A 
HETATM    3  N4  UNL     1      17.483  -0.473  43.104  1.00  0.00    -0.038 N 
ATOM      4  H41 UNL     1      16.910  -1.019  42.462  1.00  0.00     0.280 HD
ATOM      5  H42 UNL     1      16.551  -0.072  43.002  1.00  0.00     0.280 HD
ENDROOT
BRANCH   1   6
HETATM    6  N3  UNL     1      18.938   1.453  43.111  1.00  0.00    -0.329 N 
HETATM    7  C1  UNL     1      19.726   2.128  43.862  1.00  0.00     0.199 C 
HETATM    8  N1  UNL     1      20.590   1.482  44.797  1.00  0.00    -0.067 NA
HETATM    9  N2  UNL     1      19.769   3.553  43.796  1.00  0.00    -0.067 NA
ATOM     10  H3  UNL     1      18.339   1.963  42.461  1.00  0.00     0.164 HD
ENDBRANCH   1   6
BRANCH   1  11
HETATM   11  C3  UNL     1      19.695  -0.662  42.097  1.00  0.00    -0.001 A 
HETATM   12  C4  UNL     1      19.300  -0.723  40.774  1.00  0.00     0.011 A 
HETATM   13  C5  UNL     1      20.075  -1.356  39.818  1.00  0.00     0.001 A 
HETATM   14  C6  UNL     1      21.276  -1.947  40.191  1.00  0.00     0.000 A 
HETATM   15  C7  UNL     1      21.692  -1.900  41.508  1.00  0.00     0.001 A 
HETATM   16  C8  UNL     1      20.895  -1.262  42.419  1.00  0.00     0.011 A 
ENDBRANCH   1  11
TORSDOF 2
ENDMDL
MODEL 5
REMARK VINA RESULT: -6.326631148      1.174      1.285
REMARK  2 active torsions:
REMARK  status: ('A' for Active; 'I' for Inactive)
REMARK    1  A    between atoms: N3_4  and  C2_6 
REMARK    2  A    between atoms: C2_6  and  C3_7 
ROOT
HETATM    1  C2  UNL     1      22.674  -2.812  41.913  1.00  0.00     0.251 A 
HETATM    2  C9  UNL     1      23.901  -2.118  41.929  1.00  0.00     0.302 A 
HETATM    3  N4  UNL     1      23.580  -2.994  40.789  1.00  0.00    -0.038 N 
ATOM      4  H41 UNL     1      23.528  -2.897  39.776  1.00  0.00     0.280 HD
ATOM      5  H42 UNL     1      24.021  -3.782  40.316  1.00  0.00     0.280 HD
ENDROOT
BRANCH   1   6
HETATM    6  N3  UNL     1      22.384  -4.019  42.618  1.00  0.00    -0.329 N 
HETATM    7  C1  UNL     1      22.169  -5.143  42.044  1.00  0.00     0.199 C 
HETATM    8  N1  UNL     1      22.204  -5.267  40.623  1.00  0.00    -0.067 NA
HETATM    9  N2  UNL     1      21.883  -6.318  42.804  1.00  0.00    -0.067 NA
ATOM     10  H3  UNL     1      22.347  -3.983  43.637  1.00  0.00     0.164 HD
ENDBRANCH   1   6
BRANCH   1  11
HETATM   11  C3  UNL     1      21.459  -2.026  41.501  1.00  0.00    -0.001 A 
HETATM   12  C4  UNL     1      20.686  -1.362  42.434  1.00  0.00     0.011 A 
HETATM   13  C5  UNL     1      19.567  -0.638  42.060  1.00  0.00     0.001 A 
HETATM   14  C6  UNL     1      19.207  -0.575  40.718  1.00  0.00     0.000 A 
HETATM   15  C7  UNL     1      19.965  -1.232  39.767  1.00  0.00     0.001 A 
HETATM   16  C8  UNL     1      21.063  -1.936  40.182  1.00  0.00     0.011 A 
ENDBRANCH   1  11
TORSDOF 2
ENDMDL
