MODEL 1
REMARK VINA RESULT: -4.400659053      0.000      0.000
REMARK  8 active torsions:
REMARK  status: ('A' for Active; 'I' for Inactive)
REMARK    1  A    between atoms: N1_1  and  N2_4 
REMARK    2  A    between atoms: N2_4  and  N3_5 
REMARK    3  A    between atoms: N3_5  and  C1_7 
REMARK    4  A    between atoms: C1_7  and  C2_8 
REMARK    5  A    between atoms: C2_8  and  C3_9 
REMARK    6  A    between atoms: C4_10  and  C5_11 
REMARK    7  A    between atoms: C6_12  and  C7_13 
REMARK    8  A    between atoms: C8_14  and  N4_15 
ROOT
HETATM    1  C3  UNL     1      21.022  -2.878  40.728  1.00  0.00    -0.091 C 
HETATM    2  C4  UNL     1      21.196  -3.869  41.403  1.00  0.00    -0.014 C 
ENDROOT
BRANCH   1   3
HETATM    3  C2  UNL     1      20.788  -1.677  39.925  1.00  0.00     0.117 C 
BRANCH   3   4
HETATM    4  C1  UNL     1      19.434  -1.069  40.253  1.00  0.00     0.167 C 
BRANCH   4   5
HETATM    5  N3  UNL     1      19.298  -0.960  41.679  1.00  0.00    -0.252 N 
ATOM      6  H3  UNL     1      19.162  -1.791  42.254  1.00  0.00     0.197 HD
BRANCH   5   7
HETATM    7  N2  UNL     1      19.349   0.150  42.189  1.00  0.00    -0.249 NA
BRANCH   7   8
HETATM    8  N1  UNL     1      19.093   1.290  42.562  1.00  0.00    -0.261 N 
ATOM      9  H12 UNL     1      18.379   0.988  43.224  1.00  0.00     0.193 HD
ATOM     10  H11 UNL     1      19.080   2.303  42.685  1.00  0.00     0.193 HD
ENDBRANCH   7   8
ENDBRANCH   5   7
ENDBRANCH   4   5
ENDBRANCH   3   4
ENDBRANCH   1   3
BRANCH   2  11
HETATM   11  C5  UNL     1      21.378  -5.030  42.205  1.00  0.00    -0.001 C 
HETATM   12  C6  UNL     1      21.516  -6.022  42.893  1.00  0.00     0.001 C 
BRANCH  12  13
HETATM   13  C7  UNL     1      21.656  -7.172  43.700  1.00  0.00     0.009 C 
HETATM   14  C8  UNL     1      21.764  -8.160  44.400  1.00  0.00     0.017 C 
BRANCH  14  15
HETATM   15  N4  UNL     1      21.876  -9.303  45.201  1.00  0.00    -0.359 N 
ATOM     16  H42 UNL     1      22.010  -8.804  44.321  1.00  0.00     0.166 HD
ATOM     17  H41 UNL     1      21.953 -10.131  45.794  1.00  0.00     0.166 HD
ENDBRANCH  14  15
ENDBRANCH  12  13
ENDBRANCH   2  11
TORSDOF 8
ENDMDL
MODEL 2
REMARK VINA RESULT: -4.389677422      1.312      1.519
REMARK  8 active torsions:
REMARK  status: ('A' for Active; 'I' for Inactive)
REMARK    1  A    between atoms: N1_1  and  N2_4 
REMARK    2  A    between atoms: N2_4  and  N3_5 
REMARK    3  A    between atoms: N3_5  and  C1_7 
REMARK    4  A    between atoms: C1_7  and  C2_8 
REMARK    5  A    between atoms: C2_8  and  C3_9 
REMARK    6  A    between atoms: C4_10  and  C5_11 
REMARK    7  A    between atoms: C6_12  and  C7_13 
REMARK    8  A    between atoms: C8_14  and  N4_15 
ROOT
HETATM    1  C3  UNL     1      21.721  -4.006  40.671  1.00  0.00    -0.091 C 
HETATM    2  C4  UNL     1      21.711  -4.900  41.490  1.00  0.00    -0.014 C 
ENDROOT
BRANCH   1   3
HETATM    3  C2  UNL     1      21.726  -2.911  39.701  1.00  0.00     0.117 C 
BRANCH   3   4
HETATM    4  C1  UNL     1      20.989  -1.702  40.255  1.00  0.00     0.167 C 
BRANCH   4   5
HETATM    5  N3  UNL     1      19.592  -2.015  40.376  1.00  0.00    -0.252 N 
ATOM      6  H3  UNL     1      19.280  -2.983  40.446  1.00  0.00     0.197 HD
BRANCH   5   7
HETATM    7  N2  UNL     1      18.785  -1.097  40.392  1.00  0.00    -0.249 NA
BRANCH   7   8
HETATM    8  N1  UNL     1      17.962  -0.254  40.737  1.00  0.00    -0.261 N 
ATOM      9  H12 UNL     1      18.607   0.214  41.373  1.00  0.00     0.193 HD
ATOM     10  H11 UNL     1      17.116   0.305  40.844  1.00  0.00     0.193 HD
ENDBRANCH   7   8
ENDBRANCH   5   7
ENDBRANCH   4   5
ENDBRANCH   3   4
ENDBRANCH   1   3
BRANCH   2  11
HETATM   11  C5  UNL     1      21.692  -5.932  42.467  1.00  0.00    -0.001 C 
HETATM   12  C6  UNL     1      21.681  -6.827  43.289  1.00  0.00     0.001 C 
BRANCH  12  13
HETATM   13  C7  UNL     1      21.668  -7.881  44.229  1.00  0.00     0.009 C 
HETATM   14  C8  UNL     1      21.656  -8.798  45.028  1.00  0.00     0.017 C 
BRANCH  14  15
HETATM   15  N4  UNL     1      21.654  -9.860  45.941  1.00  0.00    -0.359 N 
ATOM     16  H42 UNL     1      22.076  -9.026  45.531  1.00  0.00     0.166 HD
ATOM     17  H41 UNL     1      21.642 -10.637  46.601  1.00  0.00     0.166 HD
ENDBRANCH  14  15
ENDBRANCH  12  13
ENDBRANCH   2  11
TORSDOF 8
ENDMDL
MODEL 3
REMARK VINA RESULT: -4.140473475      4.002      6.674
REMARK  8 active torsions:
REMARK  status: ('A' for Active; 'I' for Inactive)
REMARK    1  A    between atoms: N1_1  and  N2_4 
REMARK    2  A    between atoms: N2_4  and  N3_5 
REMARK    3  A    between atoms: N3_5  and  C1_7 
REMARK    4  A    between atoms: C1_7  and  C2_8 
REMARK    5  A    between atoms: C2_8  and  C3_9 
REMARK    6  A    between atoms: C4_10  and  C5_11 
REMARK    7  A    between atoms: C6_12  and  C7_13 
REMARK    8  A    between atoms: C8_14  and  N4_15 
ROOT
HETATM    1  C3  UNL     1      21.193  -1.981  40.516  1.00  0.00    -0.091 C 
HETATM    2  C4  UNL     1      20.434  -1.432  41.285  1.00  0.00    -0.014 C 
ENDROOT
BRANCH   1   3
HETATM    3  C2  UNL     1      22.119  -2.658  39.606  1.00  0.00     0.117 C 
BRANCH   3   4
HETATM    4  C1  UNL     1      23.214  -3.366  40.388  1.00  0.00     0.167 C 
BRANCH   4   5
HETATM    5  N3  UNL     1      22.886  -4.760  40.502  1.00  0.00    -0.252 N 
ATOM      6  H3  UNL     1      22.882  -5.363  39.679  1.00  0.00     0.197 HD
BRANCH   5   7
HETATM    7  N2  UNL     1      22.613  -5.210  41.605  1.00  0.00    -0.249 NA
BRANCH   7   8
HETATM    8  N1  UNL     1      22.023  -5.586  42.614  1.00  0.00    -0.261 N 
ATOM      9  H12 UNL     1      21.981  -4.652  43.021  1.00  0.00     0.193 HD
ATOM     10  H11 UNL     1      21.555  -6.149  43.324  1.00  0.00     0.193 HD
ENDBRANCH   7   8
ENDBRANCH   5   7
ENDBRANCH   4   5
ENDBRANCH   3   4
ENDBRANCH   1   3
BRANCH   2  11
HETATM   11  C5  UNL     1      19.553  -0.802  42.206  1.00  0.00    -0.001 C 
HETATM   12  C6  UNL     1      18.807  -0.274  43.006  1.00  0.00     0.001 C 
BRANCH  12  13
HETATM   13  C7  UNL     1      17.943   0.324  43.951  1.00  0.00     0.009 C 
HETATM   14  C8  UNL     1      17.208   0.850  44.763  1.00  0.00     0.017 C 
BRANCH  14  15
HETATM   15  N4  UNL     1      16.360   1.468  45.691  1.00  0.00    -0.359 N 
ATOM     16  H42 UNL     1      16.913   1.474  44.834  1.00  0.00     0.166 HD
ATOM     17  H41 UNL     1      15.742   1.909  46.373  1.00  0.00     0.166 HD
ENDBRANCH  14  15
ENDBRANCH  12  13
ENDBRANCH   2  11
TORSDOF 8
ENDMDL
MODEL 4
REMARK VINA RESULT: -3.951721599      4.664      6.117
REMARK  8 active torsions:
REMARK  status: ('A' for Active; 'I' for Inactive)
REMARK    1  A    between atoms: N1_1  and  N2_4 
REMARK    2  A    between atoms: N2_4  and  N3_5 
REMARK    3  A    between atoms: N3_5  and  C1_7 
REMARK    4  A    between atoms: C1_7  and  C2_8 
REMARK    5  A    between atoms: C2_8  and  C3_9 
REMARK    6  A    between atoms: C4_10  and  C5_11 
REMARK    7  A    between atoms: C6_12  and  C7_13 
REMARK    8  A    between atoms: C8_14  and  N4_15 
ROOT
HETATM    1  C3  UNL     1      17.444   0.527  44.282  1.00  0.00    -0.091 C 
HETATM    2  C4  UNL     1      18.236   0.008  43.525  1.00  0.00    -0.014 C 
ENDROOT
BRANCH   1   3
HETATM    3  C2  UNL     1      16.479   1.168  45.175  1.00  0.00     0.117 C 
BRANCH   3   4
HETATM    4  C1  UNL     1      16.827   2.635  45.375  1.00  0.00     0.167 C 
BRANCH   4   5
HETATM    5  N3  UNL     1      17.138   3.224  44.102  1.00  0.00    -0.252 N 
ATOM      6  H3  UNL     1      16.561   3.030  43.284  1.00  0.00     0.197 HD
BRANCH   5   7
HETATM    7  N2  UNL     1      18.108   3.963  44.019  1.00  0.00    -0.249 NA
BRANCH   7   8
HETATM    8  N1  UNL     1      19.248   4.418  44.005  1.00  0.00    -0.261 N 
ATOM      9  H12 UNL     1      19.405   4.240  44.997  1.00  0.00     0.193 HD
ATOM     10  H11 UNL     1      20.133   4.837  43.722  1.00  0.00     0.193 HD
ENDBRANCH   7   8
ENDBRANCH   5   7
ENDBRANCH   4   5
ENDBRANCH   3   4
ENDBRANCH   1   3
BRANCH   2  11
HETATM   11  C5  UNL     1      19.156  -0.589  42.620  1.00  0.00    -0.001 C 
HETATM   12  C6  UNL     1      19.927  -1.102  41.834  1.00  0.00     0.001 C 
BRANCH  12  13
HETATM   13  C7  UNL     1      20.808  -1.707  40.910  1.00  0.00     0.009 C 
HETATM   14  C8  UNL     1      21.573  -2.217  40.115  1.00  0.00     0.017 C 
BRANCH  14  15
HETATM   15  N4  UNL     1      22.466  -2.800  39.207  1.00  0.00    -0.359 N 
ATOM     16  H42 UNL     1      22.162  -2.581  40.156  1.00  0.00     0.166 HD
ATOM     17  H41 UNL     1      23.110  -3.220  38.537  1.00  0.00     0.166 HD
ENDBRANCH  14  15
ENDBRANCH  12  13
ENDBRANCH   2  11
TORSDOF 8
ENDMDL
MODEL 5
REMARK VINA RESULT: -3.897055839      1.236      1.241
REMARK  8 active torsions:
REMARK  status: ('A' for Active; 'I' for Inactive)
REMARK    1  A    between atoms: N1_1  and  N2_4 
REMARK    2  A    between atoms: N2_4  and  N3_5 
REMARK    3  A    between atoms: N3_5  and  C1_7 
REMARK    4  A    between atoms: C1_7  and  C2_8 
REMARK    5  A    between atoms: C2_8  and  C3_9 
REMARK    6  A    between atoms: C4_10  and  C5_11 
REMARK    7  A    between atoms: C6_12  and  C7_13 
REMARK    8  A    between atoms: C8_14  and  N4_15 
ROOT
HETATM    1  C3  UNL     1      20.170  -2.469  41.111  1.00  0.00    -0.091 C 
HETATM    2  C4  UNL     1      20.235  -3.392  41.894  1.00  0.00    -0.014 C 
ENDROOT
BRANCH   1   3
HETATM    3  C2  UNL     1      20.116  -1.350  40.170  1.00  0.00     0.117 C 
BRANCH   3   4
HETATM    4  C1  UNL     1      18.864  -0.519  40.399  1.00  0.00     0.167 C 
BRANCH   4   5
HETATM    5  N3  UNL     1      18.693  -0.301  41.808  1.00  0.00    -0.252 N 
ATOM      6  H3  UNL     1      18.252  -1.009  42.394  1.00  0.00     0.197 HD
BRANCH   5   7
HETATM    7  N2  UNL     1      19.087   0.750  42.292  1.00  0.00    -0.249 NA
BRANCH   7   8
HETATM    8  N1  UNL     1      19.211   1.763  42.974  1.00  0.00    -0.261 N 
ATOM      9  H12 UNL     1      19.159   1.257  43.858  1.00  0.00     0.193 HD
ATOM     10  H11 UNL     1      19.326   2.726  43.288  1.00  0.00     0.193 HD
ENDBRANCH   7   8
ENDBRANCH   5   7
ENDBRANCH   4   5
ENDBRANCH   3   4
ENDBRANCH   1   3
BRANCH   2  11
HETATM   11  C5  UNL     1      20.335  -4.470  42.816  1.00  0.00    -0.001 C 
HETATM   12  C6  UNL     1      20.418  -5.378  43.619  1.00  0.00     0.001 C 
BRANCH  12  13
HETATM   13  C7  UNL     1      20.520  -6.421  44.567  1.00  0.00     0.009 C 
HETATM   14  C8  UNL     1      20.617  -7.311  45.388  1.00  0.00     0.017 C 
BRANCH  14  15
HETATM   15  N4  UNL     1      20.730  -8.327  46.346  1.00  0.00    -0.359 N 
ATOM     16  H42 UNL     1      20.270  -7.503  45.957  1.00  0.00     0.166 HD
ATOM     17  H41 UNL     1      20.821  -9.071  47.039  1.00  0.00     0.166 HD
ENDBRANCH  14  15
ENDBRANCH  12  13
ENDBRANCH   2  11
TORSDOF 8
ENDMDL
