MODEL 1
REMARK VINA RESULT: -6.385004694      0.000      0.000
REMARK  8 active torsions:
REMARK  status: ('A' for Active; 'I' for Inactive)
REMARK       I    between atoms: C2_2  and  N1_4 
REMARK    1  A    between atoms: N1_4  and  C3_6 
REMARK    2  A    between atoms: C3_6  and  C4_7 
REMARK    3  A    between atoms: C6_9  and  C7_10 
REMARK    4  A    between atoms: C7_10  and  C8_11 
REMARK    5  A    between atoms: C8_11  and  C9_12 
REMARK    6  A    between atoms: C9_12  and  C10_13 
REMARK    7  A    between atoms: C10_13  and  C11_14 
REMARK    8  A    between atoms: C11_14  and  C12_15 
ROOT
HETATM    1  C4  UNL     1      36.159  13.035  12.749  1.00  0.00     0.008 C 
HETATM    2  C5  UNL     1      35.562  13.540  14.030  1.00  0.00     0.011 C 
HETATM    3  C6  UNL     1      35.005  12.492  14.936  1.00  0.00    -0.010 C 
HETATM    4  C13 UNL     1      35.860  11.283  15.101  1.00  0.00    -0.010 C 
HETATM    5  C14 UNL     1      35.086  10.047  14.688  1.00  0.00     0.005 C 
HETATM    6  C15 UNL     1      35.752   9.443  13.479  1.00  0.00     0.001 C 
HETATM    7  C16 UNL     1      35.798  10.549  12.412  1.00  0.00     0.005 C 
HETATM    8  C17 UNL     1      36.707  11.646  12.852  1.00  0.00    -0.009 C 
HETATM    9  C18 UNL     1      37.147  11.451  14.307  1.00  0.00     0.010 C 
ENDROOT
BRANCH   3  10
HETATM   10  C7  UNL     1      34.781  13.081  16.308  1.00  0.00     0.005 C 
BRANCH  10  11
HETATM   11  C8  UNL     1      35.435  12.280  17.406  1.00  0.00     0.000 C 
BRANCH  11  12
HETATM   12  C9  UNL     1      35.709  13.252  18.533  1.00  0.00     0.001 C 
BRANCH  12  13
HETATM   13  C10 UNL     1      35.345  14.666  18.166  1.00  0.00     0.010 C 
BRANCH  13  14
HETATM   14  C11 UNL     1      36.608  15.507  18.323  1.00  0.00     0.113 C 
BRANCH  14  15
HETATM   15  C12 UNL     1      37.285  15.705  17.031  1.00  0.00     0.172 C 
HETATM   16  O2  UNL     1      37.314  16.875  16.529  1.00  0.00    -0.648 OA
HETATM   17  O3  UNL     1      37.874  14.629  16.383  1.00  0.00    -0.648 OA
ENDBRANCH  14  15
ENDBRANCH  13  14
ENDBRANCH  12  13
ENDBRANCH  11  12
ENDBRANCH  10  11
ENDBRANCH   3  10
BRANCH   1  18
HETATM   18  C3  UNL     1      35.255  13.248  11.562  1.00  0.00     0.127 C 
BRANCH  18  19
HETATM   19  N1  UNL     1      34.863  14.626  11.475  1.00  0.00    -0.361 N 
HETATM   20  C2  UNL     1      35.705  15.553  10.839  1.00  0.00     0.213 C 
HETATM   21  C1  UNL     1      35.317  16.974  10.735  1.00  0.00     0.117 C 
HETATM   22  O1  UNL     1      36.798  15.185  10.351  1.00  0.00    -0.274 OA
ATOM     23  H1  UNL     1      33.975  14.931  11.875  1.00  0.00     0.162 HD
ENDBRANCH  18  19
ENDBRANCH   1  18
TORSDOF 8
ENDMDL
MODEL 2
REMARK VINA RESULT: -6.372715957      1.998      5.563
REMARK  8 active torsions:
REMARK  status: ('A' for Active; 'I' for Inactive)
REMARK       I    between atoms: C2_2  and  N1_4 
REMARK    1  A    between atoms: N1_4  and  C3_6 
REMARK    2  A    between atoms: C3_6  and  C4_7 
REMARK    3  A    between atoms: C6_9  and  C7_10 
REMARK    4  A    between atoms: C7_10  and  C8_11 
REMARK    5  A    between atoms: C8_11  and  C9_12 
REMARK    6  A    between atoms: C9_12  and  C10_13 
REMARK    7  A    between atoms: C10_13  and  C11_14 
REMARK    8  A    between atoms: C11_14  and  C12_15 
ROOT
HETATM    1  C4  UNL     1      34.810  12.305  15.942  1.00  0.00     0.008 C 
HETATM    2  C5  UNL     1      35.417  13.031  14.777  1.00  0.00     0.011 C 
HETATM    3  C6  UNL     1      36.233  12.191  13.851  1.00  0.00    -0.010 C 
HETATM    4  C13 UNL     1      35.631  10.875  13.498  1.00  0.00    -0.010 C 
HETATM    5  C14 UNL     1      36.577   9.757  13.888  1.00  0.00     0.005 C 
HETATM    6  C15 UNL     1      35.927   8.929  14.966  1.00  0.00     0.001 C 
HETATM    7  C16 UNL     1      35.586   9.898  16.109  1.00  0.00     0.005 C 
HETATM    8  C17 UNL     1      34.535  10.860  15.668  1.00  0.00    -0.009 C 
HETATM    9  C18 UNL     1      34.269  10.738  14.163  1.00  0.00     0.010 C 
ENDROOT
BRANCH   3  10
HETATM   10  C7  UNL     1      36.467  12.944  12.564  1.00  0.00     0.005 C 
BRANCH  10  11
HETATM   11  C8  UNL     1      35.915  12.229  11.356  1.00  0.00     0.000 C 
BRANCH  11  12
HETATM   12  C9  UNL     1      34.819  13.114  10.804  1.00  0.00     0.001 C 
BRANCH  12  13
HETATM   13  C10 UNL     1      34.710  14.417  11.552  1.00  0.00     0.010 C 
BRANCH  13  14
HETATM   14  C11 UNL     1      34.512  15.514  10.510  1.00  0.00     0.113 C 
BRANCH  14  15
HETATM   15  C12 UNL     1      35.606  16.499  10.552  1.00  0.00     0.172 C 
HETATM   16  O2  UNL     1      36.746  16.128  10.984  1.00  0.00    -0.648 OA
HETATM   17  O3  UNL     1      35.385  17.801  10.129  1.00  0.00    -0.648 OA
ENDBRANCH  14  15
ENDBRANCH  13  14
ENDBRANCH  12  13
ENDBRANCH  11  12
ENDBRANCH  10  11
ENDBRANCH   3  10
BRANCH   1  18
HETATM   18  C3  UNL     1      35.551  12.553  17.231  1.00  0.00     0.127 C 
BRANCH  18  19
HETATM   19  N1  UNL     1      36.175  13.845  17.208  1.00  0.00    -0.361 N 
HETATM   20  C2  UNL     1      35.936  14.755  18.252  1.00  0.00     0.213 C 
HETATM   21  C1  UNL     1      36.573  16.086  18.248  1.00  0.00     0.117 C 
HETATM   22  O1  UNL     1      35.178  14.446  19.200  1.00  0.00    -0.274 OA
ATOM     23  H1  UNL     1      36.790  14.102  16.436  1.00  0.00     0.162 HD
ENDBRANCH  18  19
ENDBRANCH   1  18
TORSDOF 8
ENDMDL
MODEL 3
REMARK VINA RESULT: -6.347808976      6.301      9.245
REMARK  8 active torsions:
REMARK  status: ('A' for Active; 'I' for Inactive)
REMARK       I    between atoms: C2_2  and  N1_4 
REMARK    1  A    between atoms: N1_4  and  C3_6 
REMARK    2  A    between atoms: C3_6  and  C4_7 
REMARK    3  A    between atoms: C6_9  and  C7_10 
REMARK    4  A    between atoms: C7_10  and  C8_11 
REMARK    5  A    between atoms: C8_11  and  C9_12 
REMARK    6  A    between atoms: C9_12  and  C10_13 
REMARK    7  A    between atoms: C10_13  and  C11_14 
REMARK    8  A    between atoms: C11_14  and  C12_15 
ROOT
HETATM    1  C4  UNL     1      32.741  10.215  22.143  1.00  0.00     0.008 C 
HETATM    2  C5  UNL     1      33.947  10.667  21.374  1.00  0.00     0.011 C 
HETATM    3  C6  UNL     1      34.605   9.620  20.537  1.00  0.00    -0.010 C 
HETATM    4  C13 UNL     1      33.672   8.763  19.753  1.00  0.00    -0.010 C 
HETATM    5  C14 UNL     1      33.880   7.308  20.122  1.00  0.00     0.005 C 
HETATM    6  C15 UNL     1      32.624   6.792  20.775  1.00  0.00     0.001 C 
HETATM    7  C16 UNL     1      32.347   7.718  21.972  1.00  0.00     0.005 C 
HETATM    8  C17 UNL     1      32.005   9.087  21.491  1.00  0.00    -0.009 C 
HETATM    9  C18 UNL     1      32.239   9.219  19.982  1.00  0.00     0.010 C 
ENDROOT
BRANCH   3  10
HETATM   10  C7  UNL     1      35.550  10.277  19.560  1.00  0.00     0.005 C 
BRANCH  10  11
HETATM   11  C8  UNL     1      35.128  11.676  19.185  1.00  0.00     0.000 C 
BRANCH  11  12
HETATM   12  C9  UNL     1      35.216  11.755  17.677  1.00  0.00     0.001 C 
BRANCH  12  13
HETATM   13  C10 UNL     1      35.390  13.170  17.191  1.00  0.00     0.010 C 
BRANCH  13  14
HETATM   14  C11 UNL     1      35.563  14.048  18.426  1.00  0.00     0.113 C 
BRANCH  14  15
HETATM   15  C12 UNL     1      36.365  15.245  18.127  1.00  0.00     0.172 C 
HETATM   16  O2  UNL     1      36.198  16.287  18.840  1.00  0.00    -0.648 OA
HETATM   17  O3  UNL     1      37.279  15.226  17.084  1.00  0.00    -0.648 OA
ENDBRANCH  14  15
ENDBRANCH  13  14
ENDBRANCH  12  13
ENDBRANCH  11  12
ENDBRANCH  10  11
ENDBRANCH   3  10
BRANCH   1  18
HETATM   18  C3  UNL     1      33.032   9.991  23.605  1.00  0.00     0.127 C 
BRANCH  18  19
HETATM   19  N1  UNL     1      32.037  10.634  24.415  1.00  0.00    -0.361 N 
HETATM   20  C2  UNL     1      31.161   9.857  25.192  1.00  0.00     0.213 C 
HETATM   21  C1  UNL     1      30.135  10.501  26.037  1.00  0.00     0.117 C 
HETATM   22  O1  UNL     1      31.240   8.608  25.178  1.00  0.00    -0.274 OA
ATOM     23  H1  UNL     1      31.967  11.651  24.427  1.00  0.00     0.162 HD
ENDBRANCH  18  19
ENDBRANCH   1  18
TORSDOF 8
ENDMDL
MODEL 4
REMARK VINA RESULT: -6.329651064      1.181      1.656
REMARK  8 active torsions:
REMARK  status: ('A' for Active; 'I' for Inactive)
REMARK       I    between atoms: C2_2  and  N1_4 
REMARK    1  A    between atoms: N1_4  and  C3_6 
REMARK    2  A    between atoms: C3_6  and  C4_7 
REMARK    3  A    between atoms: C6_9  and  C7_10 
REMARK    4  A    between atoms: C7_10  and  C8_11 
REMARK    5  A    between atoms: C8_11  and  C9_12 
REMARK    6  A    between atoms: C9_12  and  C10_13 
REMARK    7  A    between atoms: C10_13  and  C11_14 
REMARK    8  A    between atoms: C11_14  and  C12_15 
ROOT
HETATM    1  C4  UNL     1      37.381  11.533  13.332  1.00  0.00     0.008 C 
HETATM    2  C5  UNL     1      36.705  12.408  14.347  1.00  0.00     0.011 C 
HETATM    3  C6  UNL     1      35.222  12.260  14.438  1.00  0.00    -0.010 C 
HETATM    4  C13 UNL     1      34.728  10.855  14.423  1.00  0.00    -0.010 C 
HETATM    5  C14 UNL     1      33.765  10.661  13.268  1.00  0.00     0.005 C 
HETATM    6  C15 UNL     1      34.366   9.676  12.300  1.00  0.00     0.001 C 
HETATM    7  C16 UNL     1      35.735  10.246  11.896  1.00  0.00     0.005 C 
HETATM    8  C17 UNL     1      36.654  10.251  13.071  1.00  0.00    -0.009 C 
HETATM    9  C18 UNL     1      35.906   9.895  14.360  1.00  0.00     0.010 C 
ENDROOT
BRANCH   3  10
HETATM   10  C7  UNL     1      34.729  12.903  15.711  1.00  0.00     0.005 C 
BRANCH  10  11
HETATM   11  C8  UNL     1      35.414  12.367  16.943  1.00  0.00     0.000 C 
BRANCH  11  12
HETATM   12  C9  UNL     1      35.038  13.298  18.076  1.00  0.00     0.001 C 
BRANCH  12  13
HETATM   13  C10 UNL     1      36.234  14.015  18.644  1.00  0.00     0.010 C 
BRANCH  13  14
HETATM   14  C11 UNL     1      36.167  15.456  18.148  1.00  0.00     0.113 C 
BRANCH  14  15
HETATM   15  C12 UNL     1      37.177  15.714  17.108  1.00  0.00     0.172 C 
HETATM   16  O2  UNL     1      37.959  14.768  16.768  1.00  0.00    -0.648 OA
HETATM   17  O3  UNL     1      37.266  16.968  16.522  1.00  0.00    -0.648 OA
ENDBRANCH  14  15
ENDBRANCH  13  14
ENDBRANCH  12  13
ENDBRANCH  11  12
ENDBRANCH  10  11
ENDBRANCH   3  10
BRANCH   1  18
HETATM   18  C3  UNL     1      37.767  12.282  12.082  1.00  0.00     0.127 C 
BRANCH  18  19
HETATM   19  N1  UNL     1      37.296  13.636  12.147  1.00  0.00    -0.361 N 
HETATM   20  C2  UNL     1      36.504  14.150  11.106  1.00  0.00     0.213 C 
HETATM   21  C1  UNL     1      36.006  15.539  11.158  1.00  0.00     0.117 C 
HETATM   22  O1  UNL     1      36.211  13.435  10.121  1.00  0.00    -0.274 OA
ATOM     23  H1  UNL     1      37.535  14.223  12.946  1.00  0.00     0.162 HD
ENDBRANCH  18  19
ENDBRANCH   1  18
TORSDOF 8
ENDMDL
MODEL 5
REMARK VINA RESULT: -6.180005333      1.702      5.428
REMARK  8 active torsions:
REMARK  status: ('A' for Active; 'I' for Inactive)
REMARK       I    between atoms: C2_2  and  N1_4 
REMARK    1  A    between atoms: N1_4  and  C3_6 
REMARK    2  A    between atoms: C3_6  and  C4_7 
REMARK    3  A    between atoms: C6_9  and  C7_10 
REMARK    4  A    between atoms: C7_10  and  C8_11 
REMARK    5  A    between atoms: C8_11  and  C9_12 
REMARK    6  A    between atoms: C9_12  and  C10_13 
REMARK    7  A    between atoms: C10_13  and  C11_14 
REMARK    8  A    between atoms: C11_14  and  C12_15 
ROOT
HETATM    1  C4  UNL     1      35.090  12.566  15.314  1.00  0.00     0.008 C 
HETATM    2  C5  UNL     1      35.501  13.021  13.944  1.00  0.00     0.011 C 
HETATM    3  C6  UNL     1      36.028  11.952  13.044  1.00  0.00    -0.010 C 
HETATM    4  C13 UNL     1      35.250  10.680  13.054  1.00  0.00    -0.010 C 
HETATM    5  C14 UNL     1      36.154   9.529  13.449  1.00  0.00     0.005 C 
HETATM    6  C15 UNL     1      35.674   8.967  14.762  1.00  0.00     0.001 C 
HETATM    7  C16 UNL     1      35.667  10.139  15.757  1.00  0.00     0.005 C 
HETATM    8  C17 UNL     1      34.637  11.141  15.361  1.00  0.00    -0.009 C 
HETATM    9  C18 UNL     1      34.052  10.818  13.981  1.00  0.00     0.010 C 
ENDROOT
BRANCH   3  10
HETATM   10  C7  UNL     1      36.053  12.458  11.623  1.00  0.00     0.005 C 
BRANCH  10  11
HETATM   11  C8  UNL     1      34.691  12.869  11.121  1.00  0.00     0.000 C 
BRANCH  11  12
HETATM   12  C9  UNL     1      34.902  13.421   9.728  1.00  0.00     0.001 C 
BRANCH  12  13
HETATM   13  C10 UNL     1      34.245  14.764   9.543  1.00  0.00     0.010 C 
BRANCH  13  14
HETATM   14  C11 UNL     1      34.491  15.560  10.821  1.00  0.00     0.113 C 
BRANCH  14  15
HETATM   15  C12 UNL     1      35.626  16.484  10.668  1.00  0.00     0.172 C 
HETATM   16  O2  UNL     1      36.789  16.084  11.002  1.00  0.00    -0.648 OA
HETATM   17  O3  UNL     1      35.420  17.763  10.173  1.00  0.00    -0.648 OA
ENDBRANCH  14  15
ENDBRANCH  13  14
ENDBRANCH  12  13
ENDBRANCH  11  12
ENDBRANCH  10  11
ENDBRANCH   3  10
BRANCH   1  18
HETATM   18  C3  UNL     1      36.103  12.920  16.373  1.00  0.00     0.127 C 
BRANCH  18  19
HETATM   19  N1  UNL     1      36.823  14.103  15.998  1.00  0.00    -0.361 N 
HETATM   20  C2  UNL     1      36.887  15.192  16.885  1.00  0.00     0.213 C 
HETATM   21  C1  UNL     1      37.627  16.416  16.520  1.00  0.00     0.117 C 
HETATM   22  O1  UNL     1      36.315  15.136  17.997  1.00  0.00    -0.274 OA
ATOM     23  H1  UNL     1      37.287  14.154  15.091  1.00  0.00     0.162 HD
ENDBRANCH  18  19
ENDBRANCH   1  18
TORSDOF 8
ENDMDL
