MODEL 1
REMARK VINA RESULT: -5.917843116      0.000      0.000
REMARK  10 active torsions:
REMARK  status: ('A' for Active; 'I' for Inactive)
REMARK    1  A    between atoms: C4_5  and  C5_6 
REMARK    2  A    between atoms: C5_6  and  N1_7 
REMARK    3  A    between atoms: N1_7  and  C6_9 
REMARK    4  A    between atoms: C6_9  and  N2_11 
REMARK       I    between atoms: N2_11  and  C7_13 
REMARK    5  A    between atoms: C7_13  and  C8_15 
REMARK    6  A    between atoms: C8_15  and  C9_16 
REMARK    7  A    between atoms: C9_16  and  C10_17 
REMARK    8  A    between atoms: C10_17  and  C11_18 
REMARK    9  A    between atoms: C11_18  and  C12_19 
REMARK   10  A    between atoms: C12_19  and  C13_20 
ROOT
HETATM    1  N2  UNL     1      36.450  13.953  13.450  1.00  0.00    -0.304 N 
ATOM      2  H2  UNL     1      37.439  14.201  13.437  1.00  0.00     0.171 HD
HETATM    3  C7  UNL     1      35.914  13.614  14.681  1.00  0.00     0.223 C 
HETATM    4  O1  UNL     1      34.737  13.280  14.934  1.00  0.00    -0.273 OA
ENDROOT
BRANCH   1   5
HETATM    5  C6  UNL     1      35.783  13.991  12.227  1.00  0.00     0.174 C 
HETATM    6  S1  UNL     1      36.440  14.843  10.944  1.00  0.00    -0.041 SA
BRANCH   5   7
HETATM    7  N1  UNL     1      34.582  13.287  11.991  1.00  0.00    -0.366 N 
ATOM      8  H1  UNL     1      33.693  13.699  12.276  1.00  0.00     0.161 HD
BRANCH   7   9
HETATM    9  C5  UNL     1      34.592  11.978  11.347  1.00  0.00     0.130 C 
BRANCH   9  10
HETATM   10  C4  UNL     1      35.269  10.898  12.098  1.00  0.00     0.046 A 
HETATM   11  C2  UNL     1      34.646  10.267  13.295  1.00  0.00     0.105 A 
HETATM   12  C1  UNL     1      35.573   9.825  14.394  1.00  0.00     0.052 C 
HETATM   13  F1  UNL     1      33.409  10.681  13.734  1.00  0.00    -0.243 F 
HETATM   14  C3  UNL     1      34.758   9.516  12.014  1.00  0.00     0.053 A 
ENDBRANCH   9  10
ENDBRANCH   7   9
ENDBRANCH   5   7
ENDBRANCH   1   5
BRANCH   3  15
HETATM   15  C8  UNL     1      36.825  13.641  15.872  1.00  0.00     0.103 C 
BRANCH  15  16
HETATM   16  C9  UNL     1      36.912  15.022  16.478  1.00  0.00     0.009 C 
BRANCH  16  17
HETATM   17  C10 UNL     1      36.732  14.778  18.007  1.00  0.00     0.000 C 
BRANCH  17  18
HETATM   18  C11 UNL     1      35.348  14.316  18.262  1.00  0.00     0.000 C 
BRANCH  18  19
HETATM   19  C12 UNL     1      35.099  13.069  18.985  1.00  0.00     0.004 C 
BRANCH  19  20
HETATM   20  C13 UNL     1      35.949  11.883  18.841  1.00  0.00    -0.014 C 
HETATM   21  C14 UNL     1      36.151  10.963  19.984  1.00  0.00     0.004 C 
HETATM   22  C15 UNL     1      34.742  10.465  20.240  1.00  0.00     0.000 C 
HETATM   23  C16 UNL     1      34.279  10.153  18.835  1.00  0.00     0.000 C 
HETATM   24  C17 UNL     1      35.206  10.904  17.884  1.00  0.00     0.004 C 
ENDBRANCH  19  20
ENDBRANCH  18  19
ENDBRANCH  17  18
ENDBRANCH  16  17
ENDBRANCH  15  16
ENDBRANCH   3  15
TORSDOF 10
ENDMDL
MODEL 2
REMARK VINA RESULT: -5.713083931      5.251      7.394
REMARK  10 active torsions:
REMARK  status: ('A' for Active; 'I' for Inactive)
REMARK    1  A    between atoms: C4_5  and  C5_6 
REMARK    2  A    between atoms: C5_6  and  N1_7 
REMARK    3  A    between atoms: N1_7  and  C6_9 
REMARK    4  A    between atoms: C6_9  and  N2_11 
REMARK       I    between atoms: N2_11  and  C7_13 
REMARK    5  A    between atoms: C7_13  and  C8_15 
REMARK    6  A    between atoms: C8_15  and  C9_16 
REMARK    7  A    between atoms: C9_16  and  C10_17 
REMARK    8  A    between atoms: C10_17  and  C11_18 
REMARK    9  A    between atoms: C11_18  and  C12_19 
REMARK   10  A    between atoms: C12_19  and  C13_20 
ROOT
HETATM    1  N2  UNL     1      34.134  11.188  20.982  1.00  0.00    -0.304 N 
ATOM      2  H2  UNL     1      34.437  12.045  21.445  1.00  0.00     0.171 HD
HETATM    3  C7  UNL     1      34.688  10.926  19.740  1.00  0.00     0.223 C 
HETATM    4  O1  UNL     1      34.467   9.945  18.998  1.00  0.00    -0.273 OA
ENDROOT
BRANCH   1   5
HETATM    5  C6  UNL     1      33.207  10.405  21.668  1.00  0.00     0.174 C 
HETATM    6  S1  UNL     1      33.126  10.480  23.338  1.00  0.00    -0.041 SA
BRANCH   5   7
HETATM    7  N1  UNL     1      32.273   9.576  21.009  1.00  0.00    -0.366 N 
ATOM      8  H1  UNL     1      31.528   9.999  20.456  1.00  0.00     0.161 HD
BRANCH   7   9
HETATM    9  C5  UNL     1      32.357   8.123  21.108  1.00  0.00     0.130 C 
BRANCH   9  10
HETATM   10  C4  UNL     1      31.724   7.367  20.005  1.00  0.00     0.046 A 
HETATM   11  C2  UNL     1      30.967   6.107  20.253  1.00  0.00     0.105 A 
HETATM   12  C1  UNL     1      31.038   5.047  19.188  1.00  0.00     0.052 C 
HETATM   13  F1  UNL     1      30.840   5.613  21.531  1.00  0.00    -0.243 F 
HETATM   14  C3  UNL     1      30.253   7.358  19.873  1.00  0.00     0.053 A 
ENDBRANCH   9  10
ENDBRANCH   7   9
ENDBRANCH   5   7
ENDBRANCH   1   5
BRANCH   3  15
HETATM   15  C8  UNL     1      35.671  11.916  19.191  1.00  0.00     0.103 C 
BRANCH  15  16
HETATM   16  C9  UNL     1      35.007  12.913  18.271  1.00  0.00     0.009 C 
BRANCH  16  17
HETATM   17  C10 UNL     1      36.141  13.923  17.921  1.00  0.00     0.000 C 
BRANCH  17  18
HETATM   18  C11 UNL     1      36.577  13.694  16.524  1.00  0.00     0.000 C 
BRANCH  18  19
HETATM   19  C12 UNL     1      35.626  13.241  15.509  1.00  0.00     0.004 C 
BRANCH  19  20
HETATM   20  C13 UNL     1      35.929  12.167  14.558  1.00  0.00    -0.014 C 
HETATM   21  C14 UNL     1      36.035  10.764  15.021  1.00  0.00     0.004 C 
HETATM   22  C15 UNL     1      34.639  10.501  15.549  1.00  0.00     0.000 C 
HETATM   23  C16 UNL     1      33.789  11.078  14.441  1.00  0.00     0.000 C 
HETATM   24  C17 UNL     1      34.684  12.014  13.634  1.00  0.00     0.004 C 
ENDBRANCH  19  20
ENDBRANCH  18  19
ENDBRANCH  17  18
ENDBRANCH  16  17
ENDBRANCH  15  16
ENDBRANCH   3  15
TORSDOF 10
ENDMDL
MODEL 3
REMARK VINA RESULT: -5.660783969      1.076      1.187
REMARK  10 active torsions:
REMARK  status: ('A' for Active; 'I' for Inactive)
REMARK    1  A    between atoms: C4_5  and  C5_6 
REMARK    2  A    between atoms: C5_6  and  N1_7 
REMARK    3  A    between atoms: N1_7  and  C6_9 
REMARK    4  A    between atoms: C6_9  and  N2_11 
REMARK       I    between atoms: N2_11  and  C7_13 
REMARK    5  A    between atoms: C7_13  and  C8_15 
REMARK    6  A    between atoms: C8_15  and  C9_16 
REMARK    7  A    between atoms: C9_16  and  C10_17 
REMARK    8  A    between atoms: C10_17  and  C11_18 
REMARK    9  A    between atoms: C11_18  and  C12_19 
REMARK   10  A    between atoms: C12_19  and  C13_20 
ROOT
HETATM    1  N2  UNL     1      37.067  13.207  13.135  1.00  0.00    -0.304 N 
ATOM      2  H2  UNL     1      38.031  13.181  13.467  1.00  0.00     0.171 HD
HETATM    3  C7  UNL     1      36.093  13.468  14.085  1.00  0.00     0.223 C 
HETATM    4  O1  UNL     1      34.859  13.547  13.909  1.00  0.00    -0.273 OA
ENDROOT
BRANCH   1   5
HETATM    5  C6  UNL     1      36.870  12.978  11.775  1.00  0.00     0.174 C 
HETATM    6  S1  UNL     1      38.185  12.928  10.739  1.00  0.00    -0.041 SA
BRANCH   5   7
HETATM    7  N1  UNL     1      35.597  12.723  11.220  1.00  0.00    -0.366 N 
ATOM      8  H1  UNL     1      35.029  13.502  10.889  1.00  0.00     0.161 HD
BRANCH   7   9
HETATM    9  C5  UNL     1      35.082  11.362  11.114  1.00  0.00     0.130 C 
BRANCH   9  10
HETATM   10  C4  UNL     1      35.584  10.405  12.125  1.00  0.00     0.046 A 
HETATM   11  C2  UNL     1      34.801  10.078  13.350  1.00  0.00     0.105 A 
HETATM   12  C1  UNL     1      35.582   9.795  14.604  1.00  0.00     0.052 C 
HETATM   13  F1  UNL     1      33.577  10.667  13.570  1.00  0.00    -0.243 F 
HETATM   14  C3  UNL     1      34.950   9.078  12.256  1.00  0.00     0.053 A 
ENDBRANCH   9  10
ENDBRANCH   7   9
ENDBRANCH   5   7
ENDBRANCH   1   5
BRANCH   3  15
HETATM   15  C8  UNL     1      36.537  13.683  15.500  1.00  0.00     0.103 C 
BRANCH  15  16
HETATM   16  C9  UNL     1      35.504  13.200  16.491  1.00  0.00     0.009 C 
BRANCH  16  17
HETATM   17  C10 UNL     1      35.626  14.194  17.685  1.00  0.00     0.000 C 
BRANCH  17  18
HETATM   18  C11 UNL     1      35.721  13.426  18.946  1.00  0.00     0.000 C 
BRANCH  18  19
HETATM   19  C12 UNL     1      35.002  12.162  19.107  1.00  0.00     0.004 C 
BRANCH  19  20
HETATM   20  C13 UNL     1      35.679  10.892  19.392  1.00  0.00    -0.014 C 
HETATM   21  C14 UNL     1      35.406  10.165  20.652  1.00  0.00     0.004 C 
HETATM   22  C15 UNL     1      33.928   9.855  20.522  1.00  0.00     0.000 C 
HETATM   23  C16 UNL     1      33.854   9.355  19.098  1.00  0.00     0.000 C 
HETATM   24  C17 UNL     1      35.115   9.841  18.389  1.00  0.00     0.004 C 
ENDBRANCH  19  20
ENDBRANCH  18  19
ENDBRANCH  17  18
ENDBRANCH  16  17
ENDBRANCH  15  16
ENDBRANCH   3  15
TORSDOF 10
ENDMDL
MODEL 4
REMARK VINA RESULT: -5.590579898      1.291      2.014
REMARK  10 active torsions:
REMARK  status: ('A' for Active; 'I' for Inactive)
REMARK    1  A    between atoms: C4_5  and  C5_6 
REMARK    2  A    between atoms: C5_6  and  N1_7 
REMARK    3  A    between atoms: N1_7  and  C6_9 
REMARK    4  A    between atoms: C6_9  and  N2_11 
REMARK       I    between atoms: N2_11  and  C7_13 
REMARK    5  A    between atoms: C7_13  and  C8_15 
REMARK    6  A    between atoms: C8_15  and  C9_16 
REMARK    7  A    between atoms: C9_16  and  C10_17 
REMARK    8  A    between atoms: C10_17  and  C11_18 
REMARK    9  A    between atoms: C11_18  and  C12_19 
REMARK   10  A    between atoms: C12_19  and  C13_20 
ROOT
HETATM    1  N2  UNL     1      36.708  13.536  14.100  1.00  0.00    -0.304 N 
ATOM      2  H2  UNL     1      37.662  13.731  14.405  1.00  0.00     0.171 HD
HETATM    3  C7  UNL     1      35.770  13.328  15.098  1.00  0.00     0.223 C 
HETATM    4  O1  UNL     1      34.554  13.076  14.961  1.00  0.00    -0.273 OA
ENDROOT
BRANCH   1   5
HETATM    5  C6  UNL     1      36.488  13.507  12.725  1.00  0.00     0.174 C 
HETATM    6  S1  UNL     1      35.743  14.804  11.972  1.00  0.00    -0.041 SA
BRANCH   5   7
HETATM    7  N1  UNL     1      36.920  12.441  11.905  1.00  0.00    -0.366 N 
ATOM      8  H1  UNL     1      37.777  12.541  11.362  1.00  0.00     0.161 HD
BRANCH   7   9
HETATM    9  C5  UNL     1      36.158  11.200  11.822  1.00  0.00     0.130 C 
BRANCH   9  10
HETATM   10  C4  UNL     1      36.381  10.235  12.920  1.00  0.00     0.046 A 
HETATM   11  C2  UNL     1      35.286   9.838  13.849  1.00  0.00     0.105 A 
HETATM   12  C1  UNL     1      35.670   9.550  15.275  1.00  0.00     0.052 C 
HETATM   13  F1  UNL     1      34.024  10.369  13.702  1.00  0.00    -0.243 F 
HETATM   14  C3  UNL     1      35.803   8.879  12.834  1.00  0.00     0.053 A 
ENDBRANCH   9  10
ENDBRANCH   7   9
ENDBRANCH   5   7
ENDBRANCH   1   5
BRANCH   3  15
HETATM   15  C8  UNL     1      36.235  13.405  16.521  1.00  0.00     0.103 C 
BRANCH  15  16
HETATM   16  C9  UNL     1      35.077  13.554  17.481  1.00  0.00     0.009 C 
BRANCH  16  17
HETATM   17  C10 UNL     1      35.550  12.811  18.766  1.00  0.00     0.000 C 
BRANCH  17  18
HETATM   18  C11 UNL     1      35.555  11.353  18.507  1.00  0.00     0.000 C 
BRANCH  18  19
HETATM   19  C12 UNL     1      34.453  10.509  18.967  1.00  0.00     0.004 C 
BRANCH  19  20
HETATM   20  C13 UNL     1      34.564   9.614  20.123  1.00  0.00    -0.014 C 
HETATM   21  C14 UNL     1      34.686  10.169  21.491  1.00  0.00     0.004 C 
HETATM   22  C15 UNL     1      33.379  10.921  21.642  1.00  0.00     0.000 C 
HETATM   23  C16 UNL     1      32.391   9.910  21.108  1.00  0.00     0.000 C 
HETATM   24  C17 UNL     1      33.187   8.904  20.283  1.00  0.00     0.004 C 
ENDBRANCH  19  20
ENDBRANCH  18  19
ENDBRANCH  17  18
ENDBRANCH  16  17
ENDBRANCH  15  16
ENDBRANCH   3  15
TORSDOF 10
ENDMDL
MODEL 5
REMARK VINA RESULT: -5.525267679      2.668      4.137
REMARK  10 active torsions:
REMARK  status: ('A' for Active; 'I' for Inactive)
REMARK    1  A    between atoms: C4_5  and  C5_6 
REMARK    2  A    between atoms: C5_6  and  N1_7 
REMARK    3  A    between atoms: N1_7  and  C6_9 
REMARK    4  A    between atoms: C6_9  and  N2_11 
REMARK       I    between atoms: N2_11  and  C7_13 
REMARK    5  A    between atoms: C7_13  and  C8_15 
REMARK    6  A    between atoms: C8_15  and  C9_16 
REMARK    7  A    between atoms: C9_16  and  C10_17 
REMARK    8  A    between atoms: C10_17  and  C11_18 
REMARK    9  A    between atoms: C11_18  and  C12_19 
REMARK   10  A    between atoms: C12_19  and  C13_20 
ROOT
HETATM    1  N2  UNL     1      36.161  13.099  17.317  1.00  0.00    -0.304 N 
ATOM      2  H2  UNL     1      36.335  12.113  17.117  1.00  0.00     0.171 HD
HETATM    3  C7  UNL     1      35.526  13.384  18.514  1.00  0.00     0.223 C 
HETATM    4  O1  UNL     1      35.216  14.508  18.963  1.00  0.00    -0.273 OA
ENDROOT
BRANCH   1   5
HETATM    5  C6  UNL     1      36.589  14.014  16.357  1.00  0.00     0.174 C 
HETATM    6  S1  UNL     1      37.412  15.394  16.829  1.00  0.00    -0.041 SA
BRANCH   5   7
HETATM    7  N1  UNL     1      36.411  13.806  14.972  1.00  0.00    -0.366 N 
ATOM      8  H1  UNL     1      37.086  14.195  14.315  1.00  0.00     0.161 HD
BRANCH   7   9
HETATM    9  C5  UNL     1      35.275  13.043  14.466  1.00  0.00     0.130 C 
BRANCH   9  10
HETATM   10  C4  UNL     1      35.540  11.619  14.166  1.00  0.00     0.046 A 
HETATM   11  C2  UNL     1      34.992  10.525  15.015  1.00  0.00     0.105 A 
HETATM   12  C1  UNL     1      35.842   9.293  15.175  1.00  0.00     0.052 C 
HETATM   13  F1  UNL     1      34.216  10.819  16.113  1.00  0.00    -0.243 F 
HETATM   14  C3  UNL     1      34.453  10.764  13.648  1.00  0.00     0.053 A 
ENDBRANCH   9  10
ENDBRANCH   7   9
ENDBRANCH   5   7
ENDBRANCH   1   5
BRANCH   3  15
HETATM   15  C8  UNL     1      35.152  12.233  19.399  1.00  0.00     0.103 C 
BRANCH  15  16
HETATM   16  C9  UNL     1      36.339  11.346  19.695  1.00  0.00     0.009 C 
BRANCH  16  17
HETATM   17  C10 UNL     1      35.710   9.950  19.982  1.00  0.00     0.000 C 
BRANCH  17  18
HETATM   18  C11 UNL     1      34.465   9.809  19.193  1.00  0.00     0.000 C 
BRANCH  18  19
HETATM   19  C12 UNL     1      33.489   8.770  19.518  1.00  0.00     0.004 C 
BRANCH  19  20
HETATM   20  C13 UNL     1      32.131   9.072  19.985  1.00  0.00    -0.014 C 
HETATM   21  C14 UNL     1      31.197   7.975  20.328  1.00  0.00     0.004 C 
HETATM   22  C15 UNL     1      31.916   7.297  21.477  1.00  0.00     0.000 C 
HETATM   23  C16 UNL     1      32.335   8.488  22.308  1.00  0.00     0.000 C 
HETATM   24  C17 UNL     1      32.269   9.711  21.399  1.00  0.00     0.004 C 
ENDBRANCH  19  20
ENDBRANCH  18  19
ENDBRANCH  17  18
ENDBRANCH  16  17
ENDBRANCH  15  16
ENDBRANCH   3  15
TORSDOF 10
ENDMDL
