MODEL 1
REMARK VINA RESULT: -5.642784252      0.000      0.000
REMARK  8 active torsions:
REMARK  status: ('A' for Active; 'I' for Inactive)
REMARK    1  A    between atoms: O1_2  and  C2_3 
REMARK    2  A    between atoms: C2_3  and  C3_4 
REMARK    3  A    between atoms: C3_4  and  O2_6 
REMARK    4  A    between atoms: O2_6  and  C4_7 
REMARK    5  A    between atoms: C4_7  and  C5_8 
REMARK    6  A    between atoms: C5_8  and  C6_9 
REMARK    7  A    between atoms: C6_9  and  N1_10 
REMARK       I    between atoms: N1_10  and  C7_12 
REMARK       I    between atoms: C7_12  and  N2_14 
REMARK    8  A    between atoms: N2_14  and  C8_16 
ROOT
HETATM    1  N1  UNL     1      35.588  10.999  15.654  1.00  0.00    -0.343 N 
ATOM      2  H1  UNL     1      36.498  10.538  15.690  1.00  0.00     0.164 HD
HETATM    3  C7  UNL     1      35.277  11.835  14.554  1.00  0.00     0.316 C 
HETATM    4  O3  UNL     1      34.149  12.385  14.548  1.00  0.00    -0.247 OA
HETATM    5  N2  UNL     1      36.214  12.037  13.500  1.00  0.00    -0.334 N 
ATOM      6  H2  UNL     1      37.114  11.561  13.555  1.00  0.00     0.165 HD
ENDROOT
BRANCH   1   7
HETATM    7  C6  UNL     1      34.658  10.788  16.708  1.00  0.00     0.126 C 
BRANCH   7   8
HETATM    8  C5  UNL     1      35.234  10.569  18.068  1.00  0.00     0.046 C 
BRANCH   8   9
HETATM    9  C4  UNL     1      35.207  11.934  18.772  1.00  0.00     0.173 C 
BRANCH   9  10
HETATM   10  O2  UNL     1      35.028  12.906  17.792  1.00  0.00    -0.355 OA
BRANCH  10  11
HETATM   11  C3  UNL     1      35.921  13.980  17.939  1.00  0.00     0.330 C 
HETATM   12  F1  UNL     1      35.253  15.085  18.392  1.00  0.00    -0.217 F 
BRANCH  11  13
HETATM   13  C2  UNL     1      36.692  14.230  16.683  1.00  0.00     0.232 C 
BRANCH  13  14
HETATM   14  O1  UNL     1      37.714  15.107  16.890  1.00  0.00    -0.391 OA
HETATM   15  C1  UNL     1      37.472  16.383  16.438  1.00  0.00     0.201 C 
ENDBRANCH  13  14
ENDBRANCH  11  13
ENDBRANCH  10  11
ENDBRANCH   9  10
ENDBRANCH   8   9
ENDBRANCH   7   8
ENDBRANCH   1   7
BRANCH   5  16
HETATM   16  C8  UNL     1      35.959  12.868  12.375  1.00  0.00     0.035 C 
HETATM   17  C9  UNL     1      35.728  14.278  12.800  1.00  0.00     0.035 C 
HETATM   18  C10 UNL     1      35.417  15.184  11.600  1.00  0.00    -0.012 C 
HETATM   19  C11 UNL     1      36.643  15.192  10.739  1.00  0.00     0.009 C 
HETATM   20  C15 UNL     1      34.198  14.654  10.920  1.00  0.00     0.009 C 
HETATM   21  C12 UNL     1      36.900  13.768  10.287  1.00  0.00    -0.012 C 
HETATM   22  C13 UNL     1      35.735  13.303   9.476  1.00  0.00     0.009 C 
HETATM   23  C17 UNL     1      37.192  12.886  11.460  1.00  0.00     0.035 C 
HETATM   24  C14 UNL     1      34.520  13.262  10.392  1.00  0.00    -0.012 C 
HETATM   25  C16 UNL     1      34.838  12.318  11.516  1.00  0.00     0.035 C 
ENDBRANCH   5  16
TORSDOF 8
ENDMDL
MODEL 2
REMARK VINA RESULT: -5.607228390      2.139      3.874
REMARK  8 active torsions:
REMARK  status: ('A' for Active; 'I' for Inactive)
REMARK    1  A    between atoms: O1_2  and  C2_3 
REMARK    2  A    between atoms: C2_3  and  C3_4 
REMARK    3  A    between atoms: C3_4  and  O2_6 
REMARK    4  A    between atoms: O2_6  and  C4_7 
REMARK    5  A    between atoms: C4_7  and  C5_8 
REMARK    6  A    between atoms: C5_8  and  C6_9 
REMARK    7  A    between atoms: C6_9  and  N1_10 
REMARK       I    between atoms: N1_10  and  C7_12 
REMARK       I    between atoms: C7_12  and  N2_14 
REMARK    8  A    between atoms: N2_14  and  C8_16 
ROOT
HETATM    1  N1  UNL     1      37.016  13.985  16.393  1.00  0.00    -0.343 N 
ATOM      2  H1  UNL     1      37.195  13.346  17.169  1.00  0.00     0.164 HD
HETATM    3  C7  UNL     1      36.587  13.463  15.149  1.00  0.00     0.316 C 
HETATM    4  O3  UNL     1      36.381  14.282  14.220  1.00  0.00    -0.247 OA
HETATM    5  N2  UNL     1      36.398  12.062  14.969  1.00  0.00    -0.334 N 
ATOM      6  H2  UNL     1      36.577  11.444  15.760  1.00  0.00     0.165 HD
ENDROOT
BRANCH   1   7
HETATM    7  C6  UNL     1      37.203  15.381  16.584  1.00  0.00     0.126 C 
BRANCH   7   8
HETATM    8  C5  UNL     1      36.819  15.927  17.920  1.00  0.00     0.046 C 
BRANCH   8   9
HETATM    9  C4  UNL     1      35.533  15.194  18.331  1.00  0.00     0.173 C 
BRANCH   9  10
HETATM   10  O2  UNL     1      35.900  14.152  19.178  1.00  0.00    -0.355 OA
BRANCH  10  11
HETATM   11  C3  UNL     1      35.006  13.072  19.109  1.00  0.00     0.330 C 
HETATM   12  F1  UNL     1      34.195  13.064  20.212  1.00  0.00    -0.217 F 
BRANCH  11  13
HETATM   13  C2  UNL     1      35.722  11.778  18.894  1.00  0.00     0.232 C 
BRANCH  13  14
HETATM   14  O1  UNL     1      35.480  11.272  17.653  1.00  0.00    -0.391 OA
HETATM   15  C1  UNL     1      34.801  10.076  17.645  1.00  0.00     0.201 C 
ENDBRANCH  13  14
ENDBRANCH  11  13
ENDBRANCH  10  11
ENDBRANCH   9  10
ENDBRANCH   8   9
ENDBRANCH   7   8
ENDBRANCH   1   7
BRANCH   5  16
HETATM   16  C8  UNL     1      35.974  11.481  13.742  1.00  0.00     0.035 C 
HETATM   17  C9  UNL     1      37.103  11.411  12.772  1.00  0.00     0.035 C 
HETATM   18  C10 UNL     1      36.655  10.817  11.429  1.00  0.00    -0.012 C 
HETATM   19  C11 UNL     1      36.236   9.405  11.702  1.00  0.00     0.009 C 
HETATM   20  C15 UNL     1      35.568  11.680  10.878  1.00  0.00     0.009 C 
HETATM   21  C12 UNL     1      35.083   9.446  12.685  1.00  0.00    -0.012 C 
HETATM   22  C13 UNL     1      33.944  10.182  12.059  1.00  0.00     0.009 C 
HETATM   23  C17 UNL     1      35.521  10.035  13.989  1.00  0.00     0.035 C 
HETATM   24  C14 UNL     1      34.387  11.622  11.840  1.00  0.00    -0.012 C 
HETATM   25  C16 UNL     1      34.755  12.187  13.182  1.00  0.00     0.035 C 
ENDBRANCH   5  16
TORSDOF 8
ENDMDL
MODEL 3
REMARK VINA RESULT: -5.530637836      0.525      1.614
REMARK  8 active torsions:
REMARK  status: ('A' for Active; 'I' for Inactive)
REMARK    1  A    between atoms: O1_2  and  C2_3 
REMARK    2  A    between atoms: C2_3  and  C3_4 
REMARK    3  A    between atoms: C3_4  and  O2_6 
REMARK    4  A    between atoms: O2_6  and  C4_7 
REMARK    5  A    between atoms: C4_7  and  C5_8 
REMARK    6  A    between atoms: C5_8  and  C6_9 
REMARK    7  A    between atoms: C6_9  and  N1_10 
REMARK       I    between atoms: N1_10  and  C7_12 
REMARK       I    between atoms: C7_12  and  N2_14 
REMARK    8  A    between atoms: N2_14  and  C8_16 
ROOT
HETATM    1  N1  UNL     1      35.611  10.780  15.549  1.00  0.00    -0.343 N 
ATOM      2  H1  UNL     1      36.546  10.377  15.609  1.00  0.00     0.164 HD
HETATM    3  C7  UNL     1      35.295  11.642  14.471  1.00  0.00     0.316 C 
HETATM    4  O3  UNL     1      34.134  12.119  14.435  1.00  0.00    -0.247 OA
HETATM    5  N2  UNL     1      36.262  11.948  13.470  1.00  0.00    -0.334 N 
ATOM      6  H2  UNL     1      37.187  11.527  13.548  1.00  0.00     0.165 HD
ENDROOT
BRANCH   1   7
HETATM    7  C6  UNL     1      34.652  10.466  16.550  1.00  0.00     0.126 C 
BRANCH   7   8
HETATM    8  C5  UNL     1      35.157  10.388  17.953  1.00  0.00     0.046 C 
BRANCH   8   9
HETATM    9  C4  UNL     1      35.105  11.819  18.509  1.00  0.00     0.173 C 
BRANCH   9  10
HETATM   10  O2  UNL     1      36.220  12.496  18.025  1.00  0.00    -0.355 OA
BRANCH  10  11
HETATM   11  C3  UNL     1      35.892  13.759  17.506  1.00  0.00     0.330 C 
HETATM   12  F1  UNL     1      34.582  13.776  17.110  1.00  0.00    -0.217 F 
BRANCH  11  13
HETATM   13  C2  UNL     1      36.839  14.175  16.428  1.00  0.00     0.232 C 
BRANCH  13  14
HETATM   14  O1  UNL     1      37.721  15.114  16.872  1.00  0.00    -0.391 OA
HETATM   15  C1  UNL     1      37.459  16.393  16.438  1.00  0.00     0.201 C 
ENDBRANCH  13  14
ENDBRANCH  11  13
ENDBRANCH  10  11
ENDBRANCH   9  10
ENDBRANCH   8   9
ENDBRANCH   7   8
ENDBRANCH   1   7
BRANCH   5  16
HETATM   16  C8  UNL     1      36.002  12.809  12.369  1.00  0.00     0.035 C 
HETATM   17  C9  UNL     1      37.165  12.842  11.437  1.00  0.00     0.035 C 
HETATM   18  C10 UNL     1      36.915  13.794  10.259  1.00  0.00    -0.012 C 
HETATM   19  C11 UNL     1      35.763  13.229   9.486  1.00  0.00     0.009 C 
HETATM   20  C15 UNL     1      36.669  15.160  10.809  1.00  0.00     0.009 C 
HETATM   21  C12 UNL     1      34.562  13.188  10.410  1.00  0.00    -0.012 C 
HETATM   22  C13 UNL     1      34.232  14.582  10.831  1.00  0.00     0.009 C 
HETATM   23  C17 UNL     1      34.813  12.267  11.563  1.00  0.00     0.035 C 
HETATM   24  C14 UNL     1      35.401  15.107  11.652  1.00  0.00    -0.012 C 
HETATM   25  C16 UNL     1      35.573  14.189  12.828  1.00  0.00     0.035 C 
ENDBRANCH   5  16
TORSDOF 8
ENDMDL
MODEL 4
REMARK VINA RESULT: -5.454227230      2.046      4.010
REMARK  8 active torsions:
REMARK  status: ('A' for Active; 'I' for Inactive)
REMARK    1  A    between atoms: O1_2  and  C2_3 
REMARK    2  A    between atoms: C2_3  and  C3_4 
REMARK    3  A    between atoms: C3_4  and  O2_6 
REMARK    4  A    between atoms: O2_6  and  C4_7 
REMARK    5  A    between atoms: C4_7  and  C5_8 
REMARK    6  A    between atoms: C5_8  and  C6_9 
REMARK    7  A    between atoms: C6_9  and  N1_10 
REMARK       I    between atoms: N1_10  and  C7_12 
REMARK       I    between atoms: C7_12  and  N2_14 
REMARK    8  A    between atoms: N2_14  and  C8_16 
ROOT
HETATM    1  N1  UNL     1      37.060  15.201  15.875  1.00  0.00    -0.343 N 
ATOM      2  H1  UNL     1      37.044  16.007  15.249  1.00  0.00     0.164 HD
HETATM    3  C7  UNL     1      36.714  13.924  15.370  1.00  0.00     0.316 C 
HETATM    4  O3  UNL     1      36.744  12.959  16.173  1.00  0.00    -0.247 OA
HETATM    5  N2  UNL     1      36.347  13.751  14.004  1.00  0.00    -0.334 N 
ATOM      6  H2  UNL     1      36.344  14.570  13.397  1.00  0.00     0.165 HD
ENDROOT
BRANCH   1   7
HETATM    7  C6  UNL     1      37.432  15.382  17.235  1.00  0.00     0.126 C 
BRANCH   7   8
HETATM    8  C5  UNL     1      36.468  16.135  18.092  1.00  0.00     0.046 C 
BRANCH   8   9
HETATM    9  C4  UNL     1      35.338  15.153  18.434  1.00  0.00     0.173 C 
BRANCH   9  10
HETATM   10  O2  UNL     1      35.903  14.096  19.142  1.00  0.00    -0.355 OA
BRANCH  10  11
HETATM   11  C3  UNL     1      35.077  12.961  19.152  1.00  0.00     0.330 C 
HETATM   12  F1  UNL     1      34.165  13.056  20.168  1.00  0.00    -0.217 F 
BRANCH  11  13
HETATM   13  C2  UNL     1      35.876  11.699  19.193  1.00  0.00     0.232 C 
BRANCH  13  14
HETATM   14  O1  UNL     1      35.101  10.608  18.939  1.00  0.00    -0.391 OA
HETATM   15  C1  UNL     1      34.857  10.379  17.605  1.00  0.00     0.201 C 
ENDBRANCH  13  14
ENDBRANCH  11  13
ENDBRANCH  10  11
ENDBRANCH   9  10
ENDBRANCH   8   9
ENDBRANCH   7   8
ENDBRANCH   1   7
BRANCH   5  16
HETATM   16  C8  UNL     1      35.984  12.495  13.445  1.00  0.00     0.035 C 
HETATM   17  C9  UNL     1      34.708  12.002  14.034  1.00  0.00     0.035 C 
HETATM   18  C10 UNL     1      34.319  10.630  13.466  1.00  0.00    -0.012 C 
HETATM   19  C11 UNL     1      34.066  10.827  12.002  1.00  0.00     0.009 C 
HETATM   20  C15 UNL     1      35.421   9.670  13.770  1.00  0.00     0.009 C 
HETATM   21  C12 UNL     1      35.352  11.326  11.374  1.00  0.00    -0.012 C 
HETATM   22  C13 UNL     1      36.409  10.286  11.552  1.00  0.00     0.009 C 
HETATM   23  C17 UNL     1      35.734  12.658  11.938  1.00  0.00     0.035 C 
HETATM   24  C14 UNL     1      36.674  10.146  13.045  1.00  0.00    -0.012 C 
HETATM   25  C16 UNL     1      37.114  11.489  13.551  1.00  0.00     0.035 C 
ENDBRANCH   5  16
TORSDOF 8
ENDMDL
MODEL 5
REMARK VINA RESULT: -5.453909348      3.397      8.023
REMARK  8 active torsions:
REMARK  status: ('A' for Active; 'I' for Inactive)
REMARK    1  A    between atoms: O1_2  and  C2_3 
REMARK    2  A    between atoms: C2_3  and  C3_4 
REMARK    3  A    between atoms: C3_4  and  O2_6 
REMARK    4  A    between atoms: O2_6  and  C4_7 
REMARK    5  A    between atoms: C4_7  and  C5_8 
REMARK    6  A    between atoms: C5_8  and  C6_9 
REMARK    7  A    between atoms: C6_9  and  N1_10 
REMARK       I    between atoms: N1_10  and  C7_12 
REMARK       I    between atoms: C7_12  and  N2_14 
REMARK    8  A    between atoms: N2_14  and  C8_16 
ROOT
HETATM    1  N1  UNL     1      36.366  13.840  19.167  1.00  0.00    -0.343 N 
ATOM      2  H1  UNL     1      37.242  13.895  19.688  1.00  0.00     0.164 HD
HETATM    3  C7  UNL     1      35.537  12.703  19.322  1.00  0.00     0.316 C 
HETATM    4  O3  UNL     1      34.469  12.673  18.662  1.00  0.00    -0.247 OA
HETATM    5  N2  UNL     1      35.908  11.640  20.196  1.00  0.00    -0.334 N 
ATOM      6  H2  UNL     1      36.784  11.720  20.711  1.00  0.00     0.165 HD
ENDROOT
BRANCH   1   7
HETATM    7  C6  UNL     1      36.002  14.907  18.301  1.00  0.00     0.126 C 
BRANCH   7   8
HETATM    8  C5  UNL     1      37.123  15.616  17.615  1.00  0.00     0.046 C 
BRANCH   8   9
HETATM    9  C4  UNL     1      37.136  15.102  16.168  1.00  0.00     0.173 C 
BRANCH   9  10
HETATM   10  O2  UNL     1      36.764  13.761  16.198  1.00  0.00    -0.355 OA
BRANCH  10  11
HETATM   11  C3  UNL     1      36.123  13.361  15.014  1.00  0.00     0.330 C 
HETATM   12  F1  UNL     1      36.158  14.375  14.097  1.00  0.00    -0.217 F 
BRANCH  11  13
HETATM   13  C2  UNL     1      34.743  12.854  15.281  1.00  0.00     0.232 C 
BRANCH  13  14
HETATM   14  O1  UNL     1      34.166  12.356  14.151  1.00  0.00    -0.391 OA
HETATM   15  C1  UNL     1      33.943  10.999  14.174  1.00  0.00     0.201 C 
ENDBRANCH  13  14
ENDBRANCH  11  13
ENDBRANCH  10  11
ENDBRANCH   9  10
ENDBRANCH   8   9
ENDBRANCH   7   8
ENDBRANCH   1   7
BRANCH   5  16
HETATM   16  C8  UNL     1      35.118  10.473  20.387  1.00  0.00     0.035 C 
HETATM   17  C9  UNL     1      34.907   9.760  19.096  1.00  0.00     0.035 C 
HETATM   18  C10 UNL     1      34.028   8.514  19.279  1.00  0.00    -0.012 C 
HETATM   19  C11 UNL     1      34.788   7.577  20.166  1.00  0.00     0.009 C 
HETATM   20  C15 UNL     1      32.713   8.950  19.836  1.00  0.00     0.009 C 
HETATM   21  C12 UNL     1      35.014   8.276  21.492  1.00  0.00    -0.012 C 
HETATM   22  C13 UNL     1      33.688   8.570  22.113  1.00  0.00     0.009 C 
HETATM   23  C17 UNL     1      35.863   9.495  21.309  1.00  0.00     0.035 C 
HETATM   24  C14 UNL     1      32.963   9.559  21.210  1.00  0.00    -0.012 C 
HETATM   25  C16 UNL     1      33.823  10.787  21.109  1.00  0.00     0.035 C 
ENDBRANCH   5  16
TORSDOF 8
ENDMDL
