MODEL 1
REMARK VINA RESULT: -10.234619390      0.000      0.000
REMARK  6 active torsions:
REMARK  status: ('A' for Active; 'I' for Inactive)
REMARK       I    between atoms: N1_2  and  C3_4 
REMARK    1  A    between atoms: C3_4  and  C4_6 
REMARK    2  A    between atoms: C5_7  and  C6_8 
REMARK    3  A    between atoms: C7_9  and  C8_10 
REMARK    4  A    between atoms: C11_13  and  N2_14 
REMARK       I    between atoms: N2_14  and  C12_16 
REMARK    5  A    between atoms: C12_16  and  C13_18 
REMARK    6  A    between atoms: C20_30  and  N6_31 
ROOT
HETATM    1  C13 UNL     1      62.385  25.198   5.600  1.00  0.00     0.175 A 
HETATM    2  N3  UNL     1      63.216  25.738   4.683  1.00  0.00    -0.328 N 
ATOM      3  H3  UNL     1      64.055  26.274   4.903  1.00  0.00     0.168 HD
HETATM    4  C14 UNL     1      62.785  25.472   3.452  1.00  0.00     0.131 A 
HETATM    5  C15 UNL     1      63.347  25.843   2.182  1.00  0.00     0.119 C 
HETATM    6  N4  UNL     1      63.794  26.135   1.155  1.00  0.00    -0.190 NA
HETATM    7  C16 UNL     1      61.637  24.736   3.570  1.00  0.00     0.131 A 
HETATM    8  N5  UNL     1      61.423  24.588   4.893  1.00  0.00    -0.345 N 
ATOM      9  H5  UNL     1      60.637  24.080   5.300  1.00  0.00     0.167 HD
ENDROOT
BRANCH   1  10
HETATM   10  C12 UNL     1      62.515  25.268   7.069  1.00  0.00     0.290 C 
HETATM   11  N2  UNL     1      61.721  24.466   7.868  1.00  0.00    -0.320 N 
ATOM     12  H2  UNL     1      61.075  23.858   7.362  1.00  0.00     0.169 HD
HETATM   13  O2  UNL     1      63.360  26.071   7.510  1.00  0.00    -0.264 OA
BRANCH  11  14
HETATM   14  C11 UNL     1      61.665  24.356   9.270  1.00  0.00     0.035 A 
HETATM   15  C10 UNL     1      60.503  23.877   9.900  1.00  0.00     0.030 A 
HETATM   16  C9  UNL     1      60.422  23.754  11.266  1.00  0.00     0.014 A 
HETATM   17  C8  UNL     1      61.460  24.089  12.089  1.00  0.00    -0.022 A 
HETATM   18  C18 UNL     1      62.608  24.560  11.507  1.00  0.00     0.014 A 
HETATM   19  C17 UNL     1      62.697  24.688  10.108  1.00  0.00     0.030 A 
BRANCH  17  20
HETATM   20  C7  UNL     1      61.409  23.971  13.539  1.00  0.00     0.028 A 
HETATM   21  C6  UNL     1      60.411  24.521  14.314  1.00  0.00     0.103 A 
HETATM   22  N9  UNL     1      60.720  24.193  15.594  1.00  0.00    -0.329 N 
HETATM   23  C22 UNL     1      61.855  23.471  15.628  1.00  0.00     0.124 A 
HETATM   24  C23 UNL     1      59.929  24.571  16.761  1.00  0.00     0.159 C 
HETATM   25  C19 UNL     1      62.324  23.309  14.330  1.00  0.00     0.066 A 
HETATM   26  N8  UNL     1      62.603  22.896  16.600  1.00  0.00    -0.338 N 
HETATM   27  C20 UNL     1      63.479  22.608  14.055  1.00  0.00     0.114 A 
HETATM   28  N7  UNL     1      64.195  22.048  15.072  1.00  0.00    -0.338 N 
HETATM   29  C21 UNL     1      63.733  22.209  16.326  1.00  0.00     0.183 A 
ATOM     30  H7  UNL     1      65.051  21.525  14.889  1.00  0.00     0.168 HD
ATOM     31  H8  UNL     1      62.303  22.986  17.572  1.00  0.00     0.168 HD
BRANCH  21  32
HETATM   32  C5  UNL     1      59.293  25.281  13.831  1.00  0.00    -0.037 C 
HETATM   33  C4  UNL     1      58.336  25.915  13.439  1.00  0.00     0.002 C 
BRANCH  33  34
HETATM   34  C3  UNL     1      57.185  26.664  12.993  1.00  0.00     0.298 C 
HETATM   35  N1  UNL     1      56.397  26.249  11.907  1.00  0.00    -0.350 N 
HETATM   36  C1  UNL     1      55.261  27.023  11.496  1.00  0.00     0.153 C 
HETATM   37  C2  UNL     1      56.730  25.041  11.203  1.00  0.00     0.153 C 
HETATM   38  O1  UNL     1      56.897  27.719  13.612  1.00  0.00    -0.258 OA
ENDBRANCH  33  34
ENDBRANCH  21  32
BRANCH  27  39
HETATM   39  N6  UNL     1      63.881  22.481  12.843  1.00  0.00    -0.385 N 
ATOM     40  H62 UNL     1      63.353  21.903  12.190  1.00  0.00     0.157 HD
ATOM     41  H61 UNL     1      64.728  22.956  12.532  1.00  0.00     0.157 HD
ENDBRANCH  27  39
ENDBRANCH  17  20
ENDBRANCH  11  14
ENDBRANCH   1  10
TORSDOF 6
ENDMDL
MODEL 2
REMARK VINA RESULT: -10.163260105      0.760      1.019
REMARK  6 active torsions:
REMARK  status: ('A' for Active; 'I' for Inactive)
REMARK       I    between atoms: N1_2  and  C3_4 
REMARK    1  A    between atoms: C3_4  and  C4_6 
REMARK    2  A    between atoms: C5_7  and  C6_8 
REMARK    3  A    between atoms: C7_9  and  C8_10 
REMARK    4  A    between atoms: C11_13  and  N2_14 
REMARK       I    between atoms: N2_14  and  C12_16 
REMARK    5  A    between atoms: C12_16  and  C13_18 
REMARK    6  A    between atoms: C20_30  and  N6_31 
ROOT
HETATM    1  C13 UNL     1      62.388  25.207   5.526  1.00  0.00     0.175 A 
HETATM    2  N3  UNL     1      63.232  25.735   4.614  1.00  0.00    -0.328 N 
ATOM      3  H3  UNL     1      64.073  26.266   4.839  1.00  0.00     0.168 HD
HETATM    4  C14 UNL     1      62.809  25.466   3.380  1.00  0.00     0.131 A 
HETATM    5  C15 UNL     1      63.386  25.826   2.114  1.00  0.00     0.119 C 
HETATM    6  N4  UNL     1      63.845  26.110   1.089  1.00  0.00    -0.190 NA
HETATM    7  C16 UNL     1      61.655  24.740   3.492  1.00  0.00     0.131 A 
HETATM    8  N5  UNL     1      61.427  24.600   4.813  1.00  0.00    -0.345 N 
ATOM      9  H5  UNL     1      60.634  24.101   5.216  1.00  0.00     0.167 HD
ENDROOT
BRANCH   1  10
HETATM   10  C12 UNL     1      62.505  25.284   6.996  1.00  0.00     0.290 C 
HETATM   11  N2  UNL     1      61.714  24.475   7.791  1.00  0.00    -0.320 N 
ATOM     12  H2  UNL     1      61.080  23.858   7.283  1.00  0.00     0.169 HD
HETATM   13  O2  UNL     1      63.337  26.097   7.441  1.00  0.00    -0.264 OA
BRANCH  11  14
HETATM   14  C11 UNL     1      61.648  24.369   9.193  1.00  0.00     0.035 A 
HETATM   15  C10 UNL     1      60.490  23.870   9.815  1.00  0.00     0.030 A 
HETATM   16  C9  UNL     1      60.399  23.751  11.181  1.00  0.00     0.014 A 
HETATM   17  C8  UNL     1      61.424  24.109  12.011  1.00  0.00    -0.022 A 
HETATM   18  C18 UNL     1      62.567  24.600  11.438  1.00  0.00     0.014 A 
HETATM   19  C17 UNL     1      62.666  24.724  10.039  1.00  0.00     0.030 A 
BRANCH  17  20
HETATM   20  C7  UNL     1      61.362  23.996  13.461  1.00  0.00     0.028 A 
HETATM   21  C6  UNL     1      60.340  24.517  14.224  1.00  0.00     0.103 A 
HETATM   22  N9  UNL     1      60.646  24.204  15.509  1.00  0.00    -0.329 N 
HETATM   23  C22 UNL     1      61.804  23.520  15.557  1.00  0.00     0.124 A 
HETATM   24  C23 UNL     1      59.832  24.562  16.666  1.00  0.00     0.159 C 
HETATM   25  C19 UNL     1      62.290  23.367  14.264  1.00  0.00     0.066 A 
HETATM   26  N8  UNL     1      62.560  22.973  16.539  1.00  0.00    -0.338 N 
HETATM   27  C20 UNL     1      63.469  22.702  14.003  1.00  0.00     0.114 A 
HETATM   28  N7  UNL     1      64.193  22.170  15.030  1.00  0.00    -0.338 N 
HETATM   29  C21 UNL     1      63.714  22.321  16.279  1.00  0.00     0.183 A 
ATOM     30  H7  UNL     1      65.067  21.673  14.857  1.00  0.00     0.168 HD
ATOM     31  H8  UNL     1      62.248  23.057  17.507  1.00  0.00     0.168 HD
BRANCH  21  32
HETATM   32  C5  UNL     1      59.202  25.239  13.727  1.00  0.00    -0.037 C 
HETATM   33  C4  UNL     1      58.229  25.837  13.320  1.00  0.00     0.002 C 
BRANCH  33  34
HETATM   34  C3  UNL     1      57.057  26.538  12.853  1.00  0.00     0.298 C 
HETATM   35  N1  UNL     1      56.273  27.335  13.704  1.00  0.00    -0.350 N 
HETATM   36  C1  UNL     1      55.114  28.015  13.200  1.00  0.00     0.153 C 
HETATM   37  C2  UNL     1      56.634  27.471  15.088  1.00  0.00     0.153 C 
HETATM   38  O1  UNL     1      56.744  26.416  11.642  1.00  0.00    -0.258 OA
ENDBRANCH  33  34
ENDBRANCH  21  32
BRANCH  27  39
HETATM   39  N6  UNL     1      63.888  22.582  12.796  1.00  0.00    -0.385 N 
ATOM     40  H62 UNL     1      63.464  21.891  12.178  1.00  0.00     0.157 HD
ATOM     41  H61 UNL     1      64.642  23.178  12.454  1.00  0.00     0.157 HD
ENDBRANCH  27  39
ENDBRANCH  17  20
ENDBRANCH  11  14
ENDBRANCH   1  10
TORSDOF 6
ENDMDL
MODEL 3
REMARK VINA RESULT: -9.797262793      1.174      1.600
REMARK  6 active torsions:
REMARK  status: ('A' for Active; 'I' for Inactive)
REMARK       I    between atoms: N1_2  and  C3_4 
REMARK    1  A    between atoms: C3_4  and  C4_6 
REMARK    2  A    between atoms: C5_7  and  C6_8 
REMARK    3  A    between atoms: C7_9  and  C8_10 
REMARK    4  A    between atoms: C11_13  and  N2_14 
REMARK       I    between atoms: N2_14  and  C12_16 
REMARK    5  A    between atoms: C12_16  and  C13_18 
REMARK    6  A    between atoms: C20_30  and  N6_31 
ROOT
HETATM    1  C13 UNL     1      62.058  24.929   6.558  1.00  0.00     0.175 A 
HETATM    2  N3  UNL     1      61.339  25.060   5.423  1.00  0.00    -0.328 N 
ATOM      3  H3  UNL     1      60.320  25.088   5.379  1.00  0.00     0.168 HD
HETATM    4  C14 UNL     1      62.147  25.148   4.369  1.00  0.00     0.131 A 
HETATM    5  C15 UNL     1      61.827  25.295   2.976  1.00  0.00     0.119 C 
HETATM    6  N4  UNL     1      61.578  25.417   1.851  1.00  0.00    -0.190 NA
HETATM    7  C16 UNL     1      63.433  25.071   4.832  1.00  0.00     0.131 A 
HETATM    8  N5  UNL     1      63.341  24.939   6.170  1.00  0.00    -0.345 N 
ATOM      9  H5  UNL     1      64.139  24.857   6.801  1.00  0.00     0.167 HD
ENDROOT
BRANCH   1  10
HETATM   10  C12 UNL     1      61.534  24.803   7.933  1.00  0.00     0.290 C 
HETATM   11  N2  UNL     1      62.393  24.483   8.968  1.00  0.00    -0.320 N 
ATOM     12  H2  UNL     1      63.367  24.351   8.695  1.00  0.00     0.169 HD
HETATM   13  O2  UNL     1      60.313  25.001   8.078  1.00  0.00    -0.264 OA
BRANCH  11  14
HETATM   14  C11 UNL     1      62.133  24.312  10.341  1.00  0.00     0.035 A 
HETATM   15  C10 UNL     1      62.995  24.868  11.303  1.00  0.00     0.030 A 
HETATM   16  C9  UNL     1      62.763  24.721  12.649  1.00  0.00     0.014 A 
HETATM   17  C8  UNL     1      61.688  24.029  13.131  1.00  0.00    -0.022 A 
HETATM   18  C18 UNL     1      60.828  23.473  12.220  1.00  0.00     0.014 A 
HETATM   19  C17 UNL     1      61.061  23.620  10.840  1.00  0.00     0.030 A 
BRANCH  17  20
HETATM   20  C7  UNL     1      61.412  23.854  14.549  1.00  0.00     0.028 A 
HETATM   21  C6  UNL     1      60.313  24.388  15.185  1.00  0.00     0.103 A 
HETATM   22  N9  UNL     1      60.417  24.004  16.482  1.00  0.00    -0.329 N 
HETATM   23  C22 UNL     1      61.527  23.264  16.660  1.00  0.00     0.124 A 
HETATM   24  C23 UNL     1      59.459  24.347  17.527  1.00  0.00     0.159 C 
HETATM   25  C19 UNL     1      62.189  23.147  15.443  1.00  0.00     0.066 A 
HETATM   26  N8  UNL     1      62.110  22.639  17.710  1.00  0.00    -0.338 N 
HETATM   27  C20 UNL     1      63.365  22.439  15.319  1.00  0.00     0.114 A 
HETATM   28  N7  UNL     1      63.911  21.827  16.410  1.00  0.00    -0.338 N 
HETATM   29  C21 UNL     1      63.262  21.945  17.584  1.00  0.00     0.183 A 
ATOM     30  H7  UNL     1      64.780  21.298  16.339  1.00  0.00     0.168 HD
ATOM     31  H8  UNL     1      61.665  22.694  18.626  1.00  0.00     0.168 HD
BRANCH  21  32
HETATM   32  C5  UNL     1      59.289  25.184  14.568  1.00  0.00    -0.037 C 
HETATM   33  C4  UNL     1      58.411  25.840  14.049  1.00  0.00     0.002 C 
BRANCH  33  34
HETATM   34  C3  UNL     1      57.349  26.604  13.438  1.00  0.00     0.298 C 
HETATM   35  N1  UNL     1      56.744  26.212  12.232  1.00  0.00    -0.350 N 
HETATM   36  C1  UNL     1      55.691  27.000  11.658  1.00  0.00     0.153 C 
HETATM   37  C2  UNL     1      57.182  25.015  11.569  1.00  0.00     0.153 C 
HETATM   38  O1  UNL     1      56.969  27.649  14.021  1.00  0.00    -0.258 OA
ENDBRANCH  33  34
ENDBRANCH  21  32
BRANCH  27  39
HETATM   39  N6  UNL     1      63.949  22.353  14.180  1.00  0.00    -0.385 N 
ATOM     40  H62 UNL     1      63.523  22.781  13.358  1.00  0.00     0.157 HD
ATOM     41  H61 UNL     1      64.837  21.860  14.096  1.00  0.00     0.157 HD
ENDBRANCH  27  39
ENDBRANCH  17  20
ENDBRANCH  11  14
ENDBRANCH   1  10
TORSDOF 6
ENDMDL
MODEL 4
REMARK VINA RESULT: -9.725752308      0.819      1.072
REMARK  6 active torsions:
REMARK  status: ('A' for Active; 'I' for Inactive)
REMARK       I    between atoms: N1_2  and  C3_4 
REMARK    1  A    between atoms: C3_4  and  C4_6 
REMARK    2  A    between atoms: C5_7  and  C6_8 
REMARK    3  A    between atoms: C7_9  and  C8_10 
REMARK    4  A    between atoms: C11_13  and  N2_14 
REMARK       I    between atoms: N2_14  and  C12_16 
REMARK    5  A    between atoms: C12_16  and  C13_18 
REMARK    6  A    between atoms: C20_30  and  N6_31 
ROOT
HETATM    1  C13 UNL     1      62.492  24.995   5.850  1.00  0.00     0.175 A 
HETATM    2  N3  UNL     1      61.361  24.910   5.118  1.00  0.00    -0.328 N 
ATOM      3  H3  UNL     1      60.417  24.909   5.504  1.00  0.00     0.168 HD
HETATM    4  C14 UNL     1      61.652  24.828   3.822  1.00  0.00     0.131 A 
HETATM    5  C15 UNL     1      60.775  24.722   2.688  1.00  0.00     0.119 C 
HETATM    6  N4  UNL     1      60.075  24.639   1.769  1.00  0.00    -0.190 NA
HETATM    7  C16 UNL     1      63.015  24.860   3.706  1.00  0.00     0.131 A 
HETATM    8  N5  UNL     1      63.496  24.962   4.961  1.00  0.00    -0.345 N 
ATOM      9  H5  UNL     1      64.486  25.009   5.202  1.00  0.00     0.167 HD
ENDROOT
BRANCH   1  10
HETATM   10  C12 UNL     1      62.594  25.101   7.319  1.00  0.00     0.290 C 
HETATM   11  N2  UNL     1      61.797  24.305   8.123  1.00  0.00    -0.320 N 
ATOM     12  H2  UNL     1      61.170  23.677   7.620  1.00  0.00     0.169 HD
HETATM   13  O2  UNL     1      63.419  25.926   7.756  1.00  0.00    -0.264 OA
BRANCH  11  14
HETATM   14  C11 UNL     1      61.718  24.226   9.525  1.00  0.00     0.035 A 
HETATM   15  C10 UNL     1      60.562  23.720  10.145  1.00  0.00     0.030 A 
HETATM   16  C9  UNL     1      60.458  23.627  11.512  1.00  0.00     0.014 A 
HETATM   17  C8  UNL     1      61.467  24.020  12.346  1.00  0.00    -0.022 A 
HETATM   18  C18 UNL     1      62.609  24.518  11.774  1.00  0.00     0.014 A 
HETATM   19  C17 UNL     1      62.720  24.615  10.375  1.00  0.00     0.030 A 
BRANCH  17  20
HETATM   20  C7  UNL     1      61.391  23.935  13.797  1.00  0.00     0.028 A 
HETATM   21  C6  UNL     1      60.388  24.513  14.544  1.00  0.00     0.103 A 
HETATM   22  N9  UNL     1      60.672  24.209  15.836  1.00  0.00    -0.329 N 
HETATM   23  C22 UNL     1      61.798  23.476  15.904  1.00  0.00     0.124 A 
HETATM   24  C23 UNL     1      59.867  24.622  16.980  1.00  0.00     0.159 C 
HETATM   25  C19 UNL     1      62.286  23.280  14.617  1.00  0.00     0.066 A 
HETATM   26  N8  UNL     1      62.524  22.914  16.900  1.00  0.00    -0.338 N 
HETATM   27  C20 UNL     1      63.437  22.561  14.376  1.00  0.00     0.114 A 
HETATM   28  N7  UNL     1      64.130  22.015  15.417  1.00  0.00    -0.338 N 
HETATM   29  C21 UNL     1      63.650  22.209  16.660  1.00  0.00     0.183 A 
ATOM     30  H7  UNL     1      64.983  21.478  15.259  1.00  0.00     0.168 HD
ATOM     31  H8  UNL     1      62.210  23.028  17.864  1.00  0.00     0.168 HD
BRANCH  21  32
HETATM   32  C5  UNL     1      59.285  25.273  14.026  1.00  0.00    -0.037 C 
HETATM   33  C4  UNL     1      58.346  25.899  13.583  1.00  0.00     0.002 C 
BRANCH  33  34
HETATM   34  C3  UNL     1      57.215  26.621  13.050  1.00  0.00     0.298 C 
HETATM   35  N1  UNL     1      56.487  26.159  11.940  1.00  0.00    -0.350 N 
HETATM   36  C1  UNL     1      55.369  26.908  11.442  1.00  0.00     0.153 C 
HETATM   37  C2  UNL     1      56.865  24.929  11.300  1.00  0.00     0.153 C 
HETATM   38  O1  UNL     1      56.888  27.695  13.613  1.00  0.00    -0.258 OA
ENDBRANCH  33  34
ENDBRANCH  21  32
BRANCH  27  39
HETATM   39  N6  UNL     1      63.857  22.402  13.174  1.00  0.00    -0.385 N 
ATOM     40  H62 UNL     1      63.905  21.465  12.772  1.00  0.00     0.157 HD
ATOM     41  H61 UNL     1      64.143  23.209  12.621  1.00  0.00     0.157 HD
ENDBRANCH  27  39
ENDBRANCH  17  20
ENDBRANCH  11  14
ENDBRANCH   1  10
TORSDOF 6
ENDMDL
MODEL 5
REMARK VINA RESULT: -9.579166801      1.134      1.515
REMARK  6 active torsions:
REMARK  status: ('A' for Active; 'I' for Inactive)
REMARK       I    between atoms: N1_2  and  C3_4 
REMARK    1  A    between atoms: C3_4  and  C4_6 
REMARK    2  A    between atoms: C5_7  and  C6_8 
REMARK    3  A    between atoms: C7_9  and  C8_10 
REMARK    4  A    between atoms: C11_13  and  N2_14 
REMARK       I    between atoms: N2_14  and  C12_16 
REMARK    5  A    between atoms: C12_16  and  C13_18 
REMARK    6  A    between atoms: C20_30  and  N6_31 
ROOT
HETATM    1  C13 UNL     1      62.613  25.256   4.771  1.00  0.00     0.175 A 
HETATM    2  N3  UNL     1      63.508  25.772   3.902  1.00  0.00    -0.328 N 
ATOM      3  H3  UNL     1      64.332  26.311   4.167  1.00  0.00     0.168 HD
HETATM    4  C14 UNL     1      63.162  25.479   2.650  1.00  0.00     0.131 A 
HETATM    5  C15 UNL     1      63.813  25.819   1.414  1.00  0.00     0.119 C 
HETATM    6  N4  UNL     1      64.332  26.086   0.414  1.00  0.00    -0.190 NA
HETATM    7  C16 UNL     1      62.006  24.749   2.706  1.00  0.00     0.131 A 
HETATM    8  N5  UNL     1      61.700  24.631   4.013  1.00  0.00    -0.345 N 
ATOM      9  H5  UNL     1      60.885  24.135   4.376  1.00  0.00     0.167 HD
ENDROOT
BRANCH   1  10
HETATM   10  C12 UNL     1      62.641  25.360   6.244  1.00  0.00     0.290 C 
HETATM   11  N2  UNL     1      62.042  24.379   7.013  1.00  0.00    -0.320 N 
ATOM     12  H2  UNL     1      61.606  23.623   6.484  1.00  0.00     0.169 HD
HETATM   13  O2  UNL     1      63.221  26.356   6.715  1.00  0.00    -0.264 OA
BRANCH  11  14
HETATM   14  C11 UNL     1      61.942  24.260   8.412  1.00  0.00     0.035 A 
HETATM   15  C10 UNL     1      62.996  24.687   9.239  1.00  0.00     0.030 A 
HETATM   16  C9  UNL     1      62.924  24.588  10.608  1.00  0.00     0.014 A 
HETATM   17  C8  UNL     1      61.830  24.071  11.242  1.00  0.00    -0.022 A 
HETATM   18  C18 UNL     1      60.784  23.645  10.465  1.00  0.00     0.014 A 
HETATM   19  C17 UNL     1      60.853  23.744   9.063  1.00  0.00     0.030 A 
BRANCH  17  20
HETATM   20  C7  UNL     1      61.720  23.952  12.689  1.00  0.00     0.028 A 
HETATM   21  C6  UNL     1      60.572  24.242  13.393  1.00  0.00     0.103 A 
HETATM   22  N9  UNL     1      60.873  24.006  14.696  1.00  0.00    -0.329 N 
HETATM   23  C22 UNL     1      62.146  23.589  14.810  1.00  0.00     0.124 A 
HETATM   24  C23 UNL     1      59.942  24.183  15.806  1.00  0.00     0.159 C 
HETATM   25  C19 UNL     1      62.720  23.541  13.545  1.00  0.00     0.066 A 
HETATM   26  N8  UNL     1      62.952  23.222  15.836  1.00  0.00    -0.338 N 
HETATM   27  C20 UNL     1      64.026  23.146  13.352  1.00  0.00     0.114 A 
HETATM   28  N7  UNL     1      64.794  22.785  14.421  1.00  0.00    -0.338 N 
HETATM   29  C21 UNL     1      64.231  22.834  15.642  1.00  0.00     0.183 A 
ATOM     30  H7  UNL     1      65.763  22.489  14.298  1.00  0.00     0.168 HD
ATOM     31  H8  UNL     1      62.580  23.239  16.786  1.00  0.00     0.168 HD
BRANCH  21  32
HETATM   32  C5  UNL     1      59.332  24.698  12.831  1.00  0.00    -0.037 C 
HETATM   33  C4  UNL     1      58.282  25.065  12.348  1.00  0.00     0.002 C 
BRANCH  33  34
HETATM   34  C3  UNL     1      57.025  25.477  11.769  1.00  0.00     0.298 C 
HETATM   35  N1  UNL     1      56.024  26.109  12.524  1.00  0.00    -0.350 N 
HETATM   36  C1  UNL     1      54.788  26.502  11.910  1.00  0.00     0.153 C 
HETATM   37  C2  UNL     1      56.238  26.364  13.922  1.00  0.00     0.153 C 
HETATM   38  O1  UNL     1      56.842  25.252  10.546  1.00  0.00    -0.258 OA
ENDBRANCH  33  34
ENDBRANCH  21  32
BRANCH  27  39
HETATM   39  N6  UNL     1      64.522  23.115  12.169  1.00  0.00    -0.385 N 
ATOM     40  H62 UNL     1      65.158  23.852  11.865  1.00  0.00     0.157 HD
ATOM     41  H61 UNL     1      64.281  22.355  11.533  1.00  0.00     0.157 HD
ENDBRANCH  27  39
ENDBRANCH  17  20
ENDBRANCH  11  14
ENDBRANCH   1  10
TORSDOF 6
ENDMDL
