MODEL 1
REMARK VINA RESULT: -7.332776953      0.000      0.000
REMARK  20 active torsions:
REMARK  status: ('A' for Active; 'I' for Inactive)
REMARK    1  A    between atoms: C2_2  and  N1_3 
REMARK    2  A    between atoms: N1_3  and  C5_6 
REMARK    3  A    between atoms: C5_6  and  C6_7 
REMARK    4  A    between atoms: C6_7  and  C7_8 
REMARK    5  A    between atoms: C7_8  and  C8_9 
REMARK    6  A    between atoms: C8_9  and  N2_10 
REMARK    7  A    between atoms: C8_9  and  C18_27 
REMARK       I    between atoms: N2_10  and  C9_11 
REMARK    8  A    between atoms: C9_11  and  C10_13 
REMARK    9  A    between atoms: C10_13  and  C11_14 
REMARK   10  A    between atoms: C11_14  and  C12_15 
REMARK   11  A    between atoms: C12_15  and  C13_16 
REMARK   12  A    between atoms: C13_16  and  C14_17 
REMARK   13  A    between atoms: C14_17  and  N3_18 
REMARK   14  A    between atoms: C18_27  and  C19_29 
REMARK   15  A    between atoms: C19_29  and  C20_30 
REMARK   16  A    between atoms: C20_30  and  C21_31 
REMARK   17  A    between atoms: C21_31  and  C22_32 
REMARK       I    between atoms: C22_32  and  N6_34 
REMARK   18  A    between atoms: C26_38  and  O4_39 
REMARK   19  A    between atoms: C27_41  and  O5_42 
REMARK   20  A    between atoms: C29_45  and  N7_46 
ROOT
HETATM    1  C8  UNL     1      27.802  40.425  -2.129  1.00  0.00     0.134 C 
ENDROOT
BRANCH   1   2
HETATM    2  C7  UNL     1      27.536  39.498  -0.958  1.00  0.00     0.078 C 
BRANCH   2   3
HETATM    3  C6  UNL     1      28.749  38.508  -1.005  1.00  0.00     0.035 C 
BRANCH   3   4
HETATM    4  C5  UNL     1      28.530  37.494  -2.049  1.00  0.00     0.237 C 
BRANCH   4   5
HETATM    5  N1  UNL     1      29.796  36.886  -2.496  1.00  0.00    -0.075 N 
HETATM    6  C3  UNL     1      30.865  37.472  -1.747  1.00  0.00     0.272 C 
HETATM    7  C4  UNL     1      30.004  37.182  -3.910  1.00  0.00     0.272 C 
BRANCH   5   8
HETATM    8  C2  UNL     1      29.685  35.461  -2.342  1.00  0.00     0.232 C 
HETATM    9  C1  UNL     1      30.788  34.682  -2.993  1.00  0.00     0.034 C 
ENDBRANCH   5   8
ENDBRANCH   4   5
ENDBRANCH   3   4
ENDBRANCH   2   3
ENDBRANCH   1   2
BRANCH   1  10
HETATM   10  N2  UNL     1      29.109  40.678  -2.453  1.00  0.00    -0.371 NA
HETATM   11  C9  UNL     1      30.415  40.929  -2.784  1.00  0.00     0.291 C 
HETATM   12  O1  UNL     1      30.882  40.769  -3.936  1.00  0.00    -0.257 OA
BRANCH  11  13
HETATM   13  C10 UNL     1      31.430  41.409  -1.748  1.00  0.00     0.119 C 
BRANCH  13  14
HETATM   14  C11 UNL     1      31.377  42.946  -2.006  1.00  0.00     0.010 C 
BRANCH  14  15
HETATM   15  C12 UNL     1      32.682  43.480  -1.427  1.00  0.00     0.002 C 
BRANCH  15  16
HETATM   16  C13 UNL     1      33.444  44.428  -2.273  1.00  0.00     0.020 C 
BRANCH  16  17
HETATM   17  C14 UNL     1      34.587  45.127  -1.540  1.00  0.00     0.141 C 
BRANCH  17  18
HETATM   18  N3  UNL     1      35.495  45.673  -2.521  1.00  0.00    -0.217 N 
HETATM   19  C15 UNL     1      35.086  46.232  -3.811  1.00  0.00     0.161 C 
HETATM   20  C16 UNL     1      36.302  46.137  -4.689  1.00  0.00     0.158 C 
HETATM   21  N4  UNL     1      37.366  46.277  -3.691  1.00  0.00    -0.225 N 
HETATM   22  C17 UNL     1      36.892  45.785  -2.414  1.00  0.00     0.669 C 
ATOM     23  H4  UNL     1      38.295  46.661  -3.868  1.00  0.00     0.177 HD
HETATM   24  N5  UNL     1      37.648  45.527  -1.370  1.00  0.00    -0.235 N 
ATOM     25  H52 UNL     1      37.314  45.181  -0.470  1.00  0.00     0.174 HD
ATOM     26  H51 UNL     1      38.662  45.608  -1.292  1.00  0.00     0.174 HD
ENDBRANCH  17  18
ENDBRANCH  16  17
ENDBRANCH  15  16
ENDBRANCH  14  15
ENDBRANCH  13  14
ENDBRANCH  11  13
ENDBRANCH   1  10
BRANCH   1  27
HETATM   27  C18 UNL     1      26.843  41.569  -2.306  1.00  0.00     0.185 C 
HETATM   28  O2  UNL     1      25.709  41.401  -2.551  1.00  0.00    -0.290 OA
BRANCH  27  29
HETATM   29  C19 UNL     1      27.431  42.919  -2.171  1.00  0.00     0.086 C 
BRANCH  29  30
HETATM   30  C20 UNL     1      26.949  43.519  -0.918  1.00  0.00     0.017 C 
BRANCH  30  31
HETATM   31  C21 UNL     1      26.338  44.901  -1.024  1.00  0.00     0.103 C 
BRANCH  31  32
HETATM   32  C22 UNL     1      26.832  45.732   0.143  1.00  0.00     0.221 C 
HETATM   33  O3  UNL     1      26.013  45.757   1.087  1.00  0.00    -0.273 OA
HETATM   34  N6  UNL     1      28.027  46.385   0.154  1.00  0.00    -0.323 N 
HETATM   35  C23 UNL     1      28.956  46.264  -0.994  1.00  0.00     0.133 C 
HETATM   36  C29 UNL     1      28.772  47.285   1.017  1.00  0.00     0.299 C 
HETATM   37  C24 UNL     1      30.242  46.025  -0.263  1.00  0.00     0.017 C 
HETATM   38  C25 UNL     1      31.239  47.030  -0.733  1.00  0.00     0.041 C 
HETATM   39  C28 UNL     1      29.931  46.424   1.241  1.00  0.00     0.073 C 
HETATM   40  C26 UNL     1      31.783  47.737   0.482  1.00  0.00     0.147 C 
HETATM   41  C27 UNL     1      31.286  46.861   1.588  1.00  0.00     0.155 C 
BRANCH  40  42
HETATM   42  O4  UNL     1      31.519  49.059   0.526  1.00  0.00    -0.393 OA
ATOM     43  H4  UNL     1      30.596  49.277   0.502  1.00  0.00     0.210 HD
ENDBRANCH  40  42
BRANCH  41  44
HETATM   44  O5  UNL     1      31.632  47.167   2.848  1.00  0.00    -0.392 OA
ATOM     45  H5  UNL     1      32.482  46.884   3.163  1.00  0.00     0.210 HD
ENDBRANCH  41  44
BRANCH  36  46
HETATM   46  N7  UNL     1      28.083  47.889   2.061  1.00  0.00    -0.057 N 
HETATM   47  C30 UNL     1      28.800  49.103   2.503  1.00  0.00     0.274 C 
HETATM   48  C31 UNL     1      26.704  48.259   1.835  1.00  0.00     0.274 C 
HETATM   49  C32 UNL     1      28.055  47.121   3.331  1.00  0.00     0.274 C 
ENDBRANCH  36  46
ENDBRANCH  31  32
ENDBRANCH  30  31
ENDBRANCH  29  30
ENDBRANCH  27  29
ENDBRANCH   1  27
TORSDOF 20
ENDMDL
MODEL 2
REMARK VINA RESULT: -7.287229584      4.677      9.209
REMARK  20 active torsions:
REMARK  status: ('A' for Active; 'I' for Inactive)
REMARK    1  A    between atoms: C2_2  and  N1_3 
REMARK    2  A    between atoms: N1_3  and  C5_6 
REMARK    3  A    between atoms: C5_6  and  C6_7 
REMARK    4  A    between atoms: C6_7  and  C7_8 
REMARK    5  A    between atoms: C7_8  and  C8_9 
REMARK    6  A    between atoms: C8_9  and  N2_10 
REMARK    7  A    between atoms: C8_9  and  C18_27 
REMARK       I    between atoms: N2_10  and  C9_11 
REMARK    8  A    between atoms: C9_11  and  C10_13 
REMARK    9  A    between atoms: C10_13  and  C11_14 
REMARK   10  A    between atoms: C11_14  and  C12_15 
REMARK   11  A    between atoms: C12_15  and  C13_16 
REMARK   12  A    between atoms: C13_16  and  C14_17 
REMARK   13  A    between atoms: C14_17  and  N3_18 
REMARK   14  A    between atoms: C18_27  and  C19_29 
REMARK   15  A    between atoms: C19_29  and  C20_30 
REMARK   16  A    between atoms: C20_30  and  C21_31 
REMARK   17  A    between atoms: C21_31  and  C22_32 
REMARK       I    between atoms: C22_32  and  N6_34 
REMARK   18  A    between atoms: C26_38  and  O4_39 
REMARK   19  A    between atoms: C27_41  and  O5_42 
REMARK   20  A    between atoms: C29_45  and  N7_46 
ROOT
HETATM    1  C8  UNL     1      29.102  39.850  -1.288  1.00  0.00     0.134 C 
ENDROOT
BRANCH   1   2
HETATM    2  C7  UNL     1      29.353  39.082  -0.004  1.00  0.00     0.078 C 
BRANCH   2   3
HETATM    3  C6  UNL     1      29.626  37.625  -0.509  1.00  0.00     0.035 C 
BRANCH   3   4
HETATM    4  C5  UNL     1      30.588  37.651  -1.623  1.00  0.00     0.237 C 
BRANCH   4   5
HETATM    5  N1  UNL     1      30.212  36.709  -2.693  1.00  0.00    -0.075 N 
HETATM    6  C3  UNL     1      30.174  37.426  -3.930  1.00  0.00     0.272 C 
HETATM    7  C4  UNL     1      28.880  36.177  -2.424  1.00  0.00     0.272 C 
BRANCH   5   8
HETATM    8  C2  UNL     1      31.148  35.618  -2.676  1.00  0.00     0.232 C 
HETATM    9  C1  UNL     1      30.572  34.304  -3.106  1.00  0.00     0.034 C 
ENDBRANCH   5   8
ENDBRANCH   4   5
ENDBRANCH   3   4
ENDBRANCH   2   3
ENDBRANCH   1   2
BRANCH   1  10
HETATM   10  N2  UNL     1      30.035  40.782  -1.662  1.00  0.00    -0.371 NA
HETATM   11  C9  UNL     1      30.966  41.713  -2.043  1.00  0.00     0.291 C 
HETATM   12  O1  UNL     1      31.241  41.971  -3.238  1.00  0.00    -0.257 OA
BRANCH  11  13
HETATM   13  C10 UNL     1      31.776  42.507  -1.019  1.00  0.00     0.119 C 
BRANCH  13  14
HETATM   14  C11 UNL     1      31.317  43.955  -1.373  1.00  0.00     0.010 C 
BRANCH  14  15
HETATM   15  C12 UNL     1      32.318  44.860  -0.663  1.00  0.00     0.002 C 
BRANCH  15  16
HETATM   16  C13 UNL     1      33.320  45.539  -1.518  1.00  0.00     0.020 C 
BRANCH  16  17
HETATM   17  C14 UNL     1      34.649  44.795  -1.618  1.00  0.00     0.141 C 
BRANCH  17  18
HETATM   18  N3  UNL     1      35.502  45.502  -2.546  1.00  0.00    -0.217 N 
HETATM   19  C15 UNL     1      35.045  46.101  -3.802  1.00  0.00     0.161 C 
HETATM   20  C16 UNL     1      36.273  46.200  -4.664  1.00  0.00     0.158 C 
HETATM   21  N4  UNL     1      37.306  46.385  -3.641  1.00  0.00    -0.225 N 
HETATM   22  C17 UNL     1      36.877  45.757  -2.408  1.00  0.00     0.669 C 
ATOM     23  H4  UNL     1      38.188  46.879  -3.776  1.00  0.00     0.177 HD
HETATM   24  N5  UNL     1      37.648  45.511  -1.371  1.00  0.00    -0.235 N 
ATOM     25  H52 UNL     1      37.345  45.070  -0.503  1.00  0.00     0.174 HD
ATOM     26  H51 UNL     1      38.646  45.697  -1.271  1.00  0.00     0.174 HD
ENDBRANCH  17  18
ENDBRANCH  16  17
ENDBRANCH  15  16
ENDBRANCH  14  15
ENDBRANCH  13  14
ENDBRANCH  11  13
ENDBRANCH   1  10
BRANCH   1  27
HETATM   27  C18 UNL     1      27.669  40.187  -1.595  1.00  0.00     0.185 C 
HETATM   28  O2  UNL     1      27.080  41.011  -1.004  1.00  0.00    -0.290 OA
BRANCH  27  29
HETATM   29  C19 UNL     1      27.048  39.395  -2.678  1.00  0.00     0.086 C 
BRANCH  29  30
HETATM   30  C20 UNL     1      25.796  38.810  -2.174  1.00  0.00     0.017 C 
BRANCH  30  31
HETATM   31  C21 UNL     1      25.404  37.463  -2.745  1.00  0.00     0.103 C 
BRANCH  31  32
HETATM   32  C22 UNL     1      23.894  37.418  -2.866  1.00  0.00     0.221 C 
HETATM   33  O3  UNL     1      23.389  38.560  -2.937  1.00  0.00    -0.273 OA
HETATM   34  N6  UNL     1      23.170  36.264  -2.883  1.00  0.00    -0.323 N 
HETATM   35  C23 UNL     1      23.856  34.952  -2.838  1.00  0.00     0.133 C 
HETATM   36  C29 UNL     1      21.779  35.848  -2.916  1.00  0.00     0.299 C 
HETATM   37  C24 UNL     1      23.110  34.232  -3.920  1.00  0.00     0.017 C 
HETATM   38  C25 UNL     1      22.587  32.955  -3.354  1.00  0.00     0.041 C 
HETATM   39  C28 UNL     1      21.824  35.124  -4.184  1.00  0.00     0.073 C 
HETATM   40  C26 UNL     1      21.102  32.913  -3.615  1.00  0.00     0.147 C 
HETATM   41  C27 UNL     1      20.938  34.031  -4.595  1.00  0.00     0.155 C 
BRANCH  40  42
HETATM   42  O4  UNL     1      20.339  32.900  -2.504  1.00  0.00    -0.393 OA
ATOM     43  H4  UNL     1      19.637  32.260  -2.515  1.00  0.00     0.210 HD
ENDBRANCH  40  42
BRANCH  41  44
HETATM   44  O5  UNL     1      19.716  34.260  -5.100  1.00  0.00    -0.392 OA
ATOM     45  H5  UNL     1      19.267  35.058  -4.849  1.00  0.00     0.210 HD
ENDBRANCH  41  44
BRANCH  36  46
HETATM   46  N7  UNL     1      20.815  36.809  -2.644  1.00  0.00    -0.057 N 
HETATM   47  C30 UNL     1      21.162  37.536  -1.405  1.00  0.00     0.274 C 
HETATM   48  C31 UNL     1      20.542  37.798  -3.663  1.00  0.00     0.274 C 
HETATM   49  C32 UNL     1      19.477  36.281  -2.276  1.00  0.00     0.274 C 
ENDBRANCH  36  46
ENDBRANCH  31  32
ENDBRANCH  30  31
ENDBRANCH  29  30
ENDBRANCH  27  29
ENDBRANCH   1  27
TORSDOF 20
ENDMDL
MODEL 3
REMARK VINA RESULT: -7.248618531      3.618      7.378
REMARK  20 active torsions:
REMARK  status: ('A' for Active; 'I' for Inactive)
REMARK    1  A    between atoms: C2_2  and  N1_3 
REMARK    2  A    between atoms: N1_3  and  C5_6 
REMARK    3  A    between atoms: C5_6  and  C6_7 
REMARK    4  A    between atoms: C6_7  and  C7_8 
REMARK    5  A    between atoms: C7_8  and  C8_9 
REMARK    6  A    between atoms: C8_9  and  N2_10 
REMARK    7  A    between atoms: C8_9  and  C18_27 
REMARK       I    between atoms: N2_10  and  C9_11 
REMARK    8  A    between atoms: C9_11  and  C10_13 
REMARK    9  A    between atoms: C10_13  and  C11_14 
REMARK   10  A    between atoms: C11_14  and  C12_15 
REMARK   11  A    between atoms: C12_15  and  C13_16 
REMARK   12  A    between atoms: C13_16  and  C14_17 
REMARK   13  A    between atoms: C14_17  and  N3_18 
REMARK   14  A    between atoms: C18_27  and  C19_29 
REMARK   15  A    between atoms: C19_29  and  C20_30 
REMARK   16  A    between atoms: C20_30  and  C21_31 
REMARK   17  A    between atoms: C21_31  and  C22_32 
REMARK       I    between atoms: C22_32  and  N6_34 
REMARK   18  A    between atoms: C26_38  and  O4_39 
REMARK   19  A    between atoms: C27_41  and  O5_42 
REMARK   20  A    between atoms: C29_45  and  N7_46 
ROOT
HETATM    1  C8  UNL     1      28.416  40.978  -2.374  1.00  0.00     0.134 C 
ENDROOT
BRANCH   1   2
HETATM    2  C7  UNL     1      27.622  40.279  -1.285  1.00  0.00     0.078 C 
BRANCH   2   3
HETATM    3  C6  UNL     1      28.492  39.016  -0.967  1.00  0.00     0.035 C 
BRANCH   3   4
HETATM    4  C5  UNL     1      28.325  38.010  -2.029  1.00  0.00     0.237 C 
BRANCH   4   5
HETATM    5  N1  UNL     1      29.588  37.308  -2.321  1.00  0.00    -0.075 N 
HETATM    6  C3  UNL     1      30.555  37.695  -1.340  1.00  0.00     0.272 C 
HETATM    7  C4  UNL     1      30.074  37.712  -3.636  1.00  0.00     0.272 C 
BRANCH   5   8
HETATM    8  C2  UNL     1      29.317  35.897  -2.352  1.00  0.00     0.232 C 
HETATM    9  C1  UNL     1      30.462  35.059  -2.834  1.00  0.00     0.034 C 
ENDBRANCH   5   8
ENDBRANCH   4   5
ENDBRANCH   3   4
ENDBRANCH   2   3
ENDBRANCH   1   2
BRANCH   1  10
HETATM   10  N2  UNL     1      29.753  41.180  -2.154  1.00  0.00    -0.371 NA
HETATM   11  C9  UNL     1      31.092  41.376  -1.938  1.00  0.00     0.291 C 
HETATM   12  O1  UNL     1      31.989  40.669  -2.454  1.00  0.00    -0.257 OA
BRANCH  11  13
HETATM   13  C10 UNL     1      31.605  42.479  -1.013  1.00  0.00     0.119 C 
BRANCH  13  14
HETATM   14  C11 UNL     1      32.278  43.420  -2.059  1.00  0.00     0.010 C 
BRANCH  14  15
HETATM   15  C12 UNL     1      32.152  44.816  -1.459  1.00  0.00     0.002 C 
BRANCH  15  16
HETATM   16  C13 UNL     1      33.407  45.590  -1.310  1.00  0.00     0.020 C 
BRANCH  16  17
HETATM   17  C14 UNL     1      34.670  44.770  -1.563  1.00  0.00     0.141 C 
BRANCH  17  18
HETATM   18  N3  UNL     1      35.505  45.492  -2.496  1.00  0.00    -0.217 N 
HETATM   19  C15 UNL     1      35.025  46.107  -3.735  1.00  0.00     0.161 C 
HETATM   20  C16 UNL     1      36.238  46.219  -4.617  1.00  0.00     0.158 C 
HETATM   21  N4  UNL     1      37.288  46.393  -3.609  1.00  0.00    -0.225 N 
HETATM   22  C17 UNL     1      36.882  45.748  -2.378  1.00  0.00     0.669 C 
ATOM     23  H4  UNL     1      38.167  46.890  -3.753  1.00  0.00     0.177 HD
HETATM   24  N5  UNL     1      37.670  45.489  -1.358  1.00  0.00    -0.235 N 
ATOM     25  H52 UNL     1      37.384  45.035  -0.491  1.00  0.00     0.174 HD
ATOM     26  H51 UNL     1      38.670  45.675  -1.273  1.00  0.00     0.174 HD
ENDBRANCH  17  18
ENDBRANCH  16  17
ENDBRANCH  15  16
ENDBRANCH  14  15
ENDBRANCH  13  14
ENDBRANCH  11  13
ENDBRANCH   1  10
BRANCH   1  27
HETATM   27  C18 UNL     1      27.698  42.061  -3.132  1.00  0.00     0.185 C 
HETATM   28  O2  UNL     1      28.265  42.824  -3.817  1.00  0.00    -0.290 OA
BRANCH  27  29
HETATM   29  C19 UNL     1      26.234  42.110  -2.936  1.00  0.00     0.086 C 
BRANCH  29  30
HETATM   30  C20 UNL     1      25.597  42.417  -4.226  1.00  0.00     0.017 C 
BRANCH  30  31
HETATM   31  C21 UNL     1      25.242  41.232  -5.100  1.00  0.00     0.103 C 
BRANCH  31  32
HETATM   32  C22 UNL     1      23.918  40.668  -4.625  1.00  0.00     0.221 C 
HETATM   33  O3  UNL     1      22.941  41.281  -5.109  1.00  0.00    -0.273 OA
HETATM   34  N6  UNL     1      23.808  39.622  -3.760  1.00  0.00    -0.323 N 
HETATM   35  C23 UNL     1      25.021  38.928  -3.270  1.00  0.00     0.133 C 
HETATM   36  C29 UNL     1      22.767  38.887  -3.062  1.00  0.00     0.299 C 
HETATM   37  C24 UNL     1      24.591  37.502  -3.443  1.00  0.00     0.017 C 
HETATM   38  C25 UNL     1      24.770  36.800  -2.139  1.00  0.00     0.041 C 
HETATM   39  C28 UNL     1      23.021  37.578  -3.660  1.00  0.00     0.073 C 
HETATM   40  C26 UNL     1      23.453  36.158  -1.782  1.00  0.00     0.147 C 
HETATM   41  C27 UNL     1      22.702  36.275  -3.070  1.00  0.00     0.155 C 
BRANCH  40  42
HETATM   42  O4  UNL     1      22.889  36.628  -0.651  1.00  0.00    -0.393 OA
ATOM     43  H4  UNL     1      23.439  36.563   0.120  1.00  0.00     0.210 HD
ENDBRANCH  40  42
BRANCH  41  44
HETATM   44  O5  UNL     1      21.470  35.748  -3.139  1.00  0.00    -0.392 OA
ATOM     45  H5  UNL     1      20.783  36.138  -2.613  1.00  0.00     0.210 HD
ENDBRANCH  41  44
BRANCH  36  46
HETATM   46  N7  UNL     1      21.500  39.452  -3.022  1.00  0.00    -0.057 N 
HETATM   47  C30 UNL     1      21.580  40.837  -2.514  1.00  0.00     0.274 C 
HETATM   48  C31 UNL     1      20.737  39.485  -4.250  1.00  0.00     0.274 C 
HETATM   49  C32 UNL     1      20.571  38.858  -2.027  1.00  0.00     0.274 C 
ENDBRANCH  36  46
ENDBRANCH  31  32
ENDBRANCH  30  31
ENDBRANCH  29  30
ENDBRANCH  27  29
ENDBRANCH   1  27
TORSDOF 20
ENDMDL
MODEL 4
REMARK VINA RESULT: -7.147302241      1.456      2.621
REMARK  20 active torsions:
REMARK  status: ('A' for Active; 'I' for Inactive)
REMARK    1  A    between atoms: C2_2  and  N1_3 
REMARK    2  A    between atoms: N1_3  and  C5_6 
REMARK    3  A    between atoms: C5_6  and  C6_7 
REMARK    4  A    between atoms: C6_7  and  C7_8 
REMARK    5  A    between atoms: C7_8  and  C8_9 
REMARK    6  A    between atoms: C8_9  and  N2_10 
REMARK    7  A    between atoms: C8_9  and  C18_27 
REMARK       I    between atoms: N2_10  and  C9_11 
REMARK    8  A    between atoms: C9_11  and  C10_13 
REMARK    9  A    between atoms: C10_13  and  C11_14 
REMARK   10  A    between atoms: C11_14  and  C12_15 
REMARK   11  A    between atoms: C12_15  and  C13_16 
REMARK   12  A    between atoms: C13_16  and  C14_17 
REMARK   13  A    between atoms: C14_17  and  N3_18 
REMARK   14  A    between atoms: C18_27  and  C19_29 
REMARK   15  A    between atoms: C19_29  and  C20_30 
REMARK   16  A    between atoms: C20_30  and  C21_31 
REMARK   17  A    between atoms: C21_31  and  C22_32 
REMARK       I    between atoms: C22_32  and  N6_34 
REMARK   18  A    between atoms: C26_38  and  O4_39 
REMARK   19  A    between atoms: C27_41  and  O5_42 
REMARK   20  A    between atoms: C29_45  and  N7_46 
ROOT
HETATM    1  C8  UNL     1      27.784  41.014  -2.149  1.00  0.00     0.134 C 
ENDROOT
BRANCH   1   2
HETATM    2  C7  UNL     1      27.526  39.638  -1.563  1.00  0.00     0.078 C 
BRANCH   2   3
HETATM    3  C6  UNL     1      27.889  38.675  -2.744  1.00  0.00     0.035 C 
BRANCH   3   4
HETATM    4  C5  UNL     1      28.230  37.343  -2.219  1.00  0.00     0.237 C 
BRANCH   4   5
HETATM    5  N1  UNL     1      29.631  36.984  -2.503  1.00  0.00    -0.075 N 
HETATM    6  C3  UNL     1      29.810  35.597  -2.203  1.00  0.00     0.272 C 
HETATM    7  C4  UNL     1      30.514  37.763  -1.641  1.00  0.00     0.272 C 
BRANCH   5   8
HETATM    8  C2  UNL     1      29.911  37.330  -3.870  1.00  0.00     0.232 C 
HETATM    9  C1  UNL     1      30.520  36.221  -4.674  1.00  0.00     0.034 C 
ENDBRANCH   5   8
ENDBRANCH   4   5
ENDBRANCH   3   4
ENDBRANCH   2   3
ENDBRANCH   1   2
BRANCH   1  10
HETATM   10  N2  UNL     1      29.043  41.275  -2.623  1.00  0.00    -0.371 NA
HETATM   11  C9  UNL     1      30.302  41.531  -3.101  1.00  0.00     0.291 C 
HETATM   12  O1  UNL     1      30.911  40.773  -3.891  1.00  0.00    -0.257 OA
BRANCH  11  13
HETATM   13  C10 UNL     1      31.086  42.773  -2.679  1.00  0.00     0.119 C 
BRANCH  13  14
HETATM   14  C11 UNL     1      31.951  42.172  -1.528  1.00  0.00     0.010 C 
BRANCH  14  15
HETATM   15  C12 UNL     1      32.666  43.371  -0.917  1.00  0.00     0.002 C 
BRANCH  15  16
HETATM   16  C13 UNL     1      33.464  44.210  -1.842  1.00  0.00     0.020 C 
BRANCH  16  17
HETATM   17  C14 UNL     1      34.747  44.760  -1.222  1.00  0.00     0.141 C 
BRANCH  17  18
HETATM   18  N3  UNL     1      35.487  45.459  -2.247  1.00  0.00    -0.217 N 
HETATM   19  C15 UNL     1      34.887  46.064  -3.438  1.00  0.00     0.161 C 
HETATM   20  C16 UNL     1      36.001  46.149  -4.444  1.00  0.00     0.158 C 
HETATM   21  N4  UNL     1      37.153  46.323  -3.555  1.00  0.00    -0.225 N 
HETATM   22  C17 UNL     1      36.871  45.699  -2.278  1.00  0.00     0.669 C 
ATOM     23  H4  UNL     1      38.018  46.807  -3.797  1.00  0.00     0.177 HD
HETATM   24  N5  UNL     1      37.760  45.445  -1.343  1.00  0.00    -0.235 N 
ATOM     25  H52 UNL     1      37.561  45.006  -0.444  1.00  0.00     0.174 HD
ATOM     26  H51 UNL     1      38.765  45.619  -1.366  1.00  0.00     0.174 HD
ENDBRANCH  17  18
ENDBRANCH  16  17
ENDBRANCH  15  16
ENDBRANCH  14  15
ENDBRANCH  13  14
ENDBRANCH  11  13
ENDBRANCH   1  10
BRANCH   1  27
HETATM   27  C18 UNL     1      27.072  42.164  -1.492  1.00  0.00     0.185 C 
HETATM   28  O2  UNL     1      25.952  42.094  -1.154  1.00  0.00    -0.290 OA
BRANCH  27  29
HETATM   29  C19 UNL     1      27.875  43.393  -1.320  1.00  0.00     0.086 C 
BRANCH  29  30
HETATM   30  C20 UNL     1      27.540  44.328  -2.405  1.00  0.00     0.017 C 
BRANCH  30  31
HETATM   31  C21 UNL     1      26.961  45.665  -1.989  1.00  0.00     0.103 C 
BRANCH  31  32
HETATM   32  C22 UNL     1      27.946  46.341  -1.056  1.00  0.00     0.221 C 
HETATM   33  O3  UNL     1      28.991  46.694  -1.644  1.00  0.00    -0.273 OA
HETATM   34  N6  UNL     1      27.720  46.529   0.274  1.00  0.00    -0.323 N 
HETATM   35  C23 UNL     1      26.432  46.116   0.879  1.00  0.00     0.133 C 
HETATM   36  C29 UNL     1      28.418  47.047   1.437  1.00  0.00     0.299 C 
HETATM   37  C24 UNL     1      26.130  47.334   1.700  1.00  0.00     0.017 C 
HETATM   38  C25 UNL     1      25.886  46.898   3.105  1.00  0.00     0.041 C 
HETATM   39  C28 UNL     1      27.497  48.138   1.747  1.00  0.00     0.073 C 
HETATM   40  C26 UNL     1      26.807  47.694   3.996  1.00  0.00     0.147 C 
HETATM   41  C27 UNL     1      27.288  48.756   3.059  1.00  0.00     0.155 C 
BRANCH  40  42
HETATM   42  O4  UNL     1      27.714  46.955   4.667  1.00  0.00    -0.393 OA
ATOM     43  H4  UNL     1      28.617  47.201   4.510  1.00  0.00     0.210 HD
ENDBRANCH  40  42
BRANCH  41  44
HETATM   44  O5  UNL     1      28.112  49.701   3.537  1.00  0.00    -0.392 OA
ATOM     45  H5  UNL     1      28.392  50.393   2.950  1.00  0.00     0.210 HD
ENDBRANCH  41  44
BRANCH  36  46
HETATM   46  N7  UNL     1      29.788  47.242   1.329  1.00  0.00    -0.057 N 
HETATM   47  C30 UNL     1      30.437  46.006   0.844  1.00  0.00     0.274 C 
HETATM   48  C31 UNL     1      30.252  48.329   0.496  1.00  0.00     0.274 C 
HETATM   49  C32 UNL     1      30.507  47.431   2.615  1.00  0.00     0.274 C 
ENDBRANCH  36  46
ENDBRANCH  31  32
ENDBRANCH  30  31
ENDBRANCH  29  30
ENDBRANCH  27  29
ENDBRANCH   1  27
TORSDOF 20
ENDMDL
MODEL 5
REMARK VINA RESULT: -7.021956790      4.009      8.293
REMARK  20 active torsions:
REMARK  status: ('A' for Active; 'I' for Inactive)
REMARK    1  A    between atoms: C2_2  and  N1_3 
REMARK    2  A    between atoms: N1_3  and  C5_6 
REMARK    3  A    between atoms: C5_6  and  C6_7 
REMARK    4  A    between atoms: C6_7  and  C7_8 
REMARK    5  A    between atoms: C7_8  and  C8_9 
REMARK    6  A    between atoms: C8_9  and  N2_10 
REMARK    7  A    between atoms: C8_9  and  C18_27 
REMARK       I    between atoms: N2_10  and  C9_11 
REMARK    8  A    between atoms: C9_11  and  C10_13 
REMARK    9  A    between atoms: C10_13  and  C11_14 
REMARK   10  A    between atoms: C11_14  and  C12_15 
REMARK   11  A    between atoms: C12_15  and  C13_16 
REMARK   12  A    between atoms: C13_16  and  C14_17 
REMARK   13  A    between atoms: C14_17  and  N3_18 
REMARK   14  A    between atoms: C18_27  and  C19_29 
REMARK   15  A    between atoms: C19_29  and  C20_30 
REMARK   16  A    between atoms: C20_30  and  C21_31 
REMARK   17  A    between atoms: C21_31  and  C22_32 
REMARK       I    between atoms: C22_32  and  N6_34 
REMARK   18  A    between atoms: C26_38  and  O4_39 
REMARK   19  A    between atoms: C27_41  and  O5_42 
REMARK   20  A    between atoms: C29_45  and  N7_46 
ROOT
HETATM    1  C8  UNL     1      27.598  40.895  -2.500  1.00  0.00     0.134 C 
ENDROOT
BRANCH   1   2
HETATM    2  C7  UNL     1      27.283  39.590  -1.792  1.00  0.00     0.078 C 
BRANCH   2   3
HETATM    3  C6  UNL     1      27.742  38.506  -2.825  1.00  0.00     0.035 C 
BRANCH   3   4
HETATM    4  C5  UNL     1      28.231  37.312  -2.117  1.00  0.00     0.237 C 
BRANCH   4   5
HETATM    5  N1  UNL     1      29.632  37.009  -2.458  1.00  0.00    -0.075 N 
HETATM    6  C3  UNL     1      30.479  37.853  -1.673  1.00  0.00     0.272 C 
HETATM    7  C4  UNL     1      29.863  37.304  -3.868  1.00  0.00     0.272 C 
BRANCH   5   8
HETATM    8  C2  UNL     1      29.848  35.603  -2.248  1.00  0.00     0.232 C 
HETATM    9  C1  UNL     1      30.864  34.991  -3.166  1.00  0.00     0.034 C 
ENDBRANCH   5   8
ENDBRANCH   4   5
ENDBRANCH   3   4
ENDBRANCH   2   3
ENDBRANCH   1   2
BRANCH   1  10
HETATM   10  N2  UNL     1      28.906  41.141  -2.824  1.00  0.00    -0.371 NA
HETATM   11  C9  UNL     1      30.215  41.382  -3.153  1.00  0.00     0.291 C 
HETATM   12  O1  UNL     1      30.865  40.686  -3.966  1.00  0.00    -0.257 OA
BRANCH  11  13
HETATM   13  C10 UNL     1      31.006  42.527  -2.521  1.00  0.00     0.119 C 
BRANCH  13  14
HETATM   14  C11 UNL     1      30.076  43.728  -2.875  1.00  0.00     0.010 C 
BRANCH  14  15
HETATM   15  C12 UNL     1      30.057  44.585  -1.615  1.00  0.00     0.002 C 
BRANCH  15  16
HETATM   16  C13 UNL     1      31.065  45.669  -1.534  1.00  0.00     0.020 C 
BRANCH  16  17
HETATM   17  C14 UNL     1      31.938  45.606  -0.283  1.00  0.00     0.141 C 
BRANCH  17  18
HETATM   18  N3  UNL     1      33.322  45.554  -0.693  1.00  0.00    -0.217 N 
HETATM   19  C15 UNL     1      34.158  46.728  -0.949  1.00  0.00     0.161 C 
HETATM   20  C16 UNL     1      35.254  46.245  -1.857  1.00  0.00     0.158 C 
HETATM   21  N4  UNL     1      35.377  44.854  -1.413  1.00  0.00    -0.225 N 
HETATM   22  C17 UNL     1      34.103  44.403  -0.893  1.00  0.00     0.669 C 
ATOM     23  H4  UNL     1      36.227  44.292  -1.463  1.00  0.00     0.177 HD
HETATM   24  N5  UNL     1      33.783  43.152  -0.646  1.00  0.00    -0.235 N 
ATOM     25  H52 UNL     1      32.886  42.834  -0.279  1.00  0.00     0.174 HD
ATOM     26  H51 UNL     1      34.350  42.316  -0.791  1.00  0.00     0.174 HD
ENDBRANCH  17  18
ENDBRANCH  16  17
ENDBRANCH  15  16
ENDBRANCH  14  15
ENDBRANCH  13  14
ENDBRANCH  11  13
ENDBRANCH   1  10
BRANCH   1  27
HETATM   27  C18 UNL     1      26.781  42.090  -2.091  1.00  0.00     0.185 C 
HETATM   28  O2  UNL     1      26.770  42.492  -0.990  1.00  0.00    -0.290 OA
BRANCH  27  29
HETATM   29  C19 UNL     1      25.978  42.709  -3.167  1.00  0.00     0.086 C 
BRANCH  29  30
HETATM   30  C20 UNL     1      25.152  41.666  -3.795  1.00  0.00     0.017 C 
BRANCH  30  31
HETATM   31  C21 UNL     1      24.006  41.123  -2.967  1.00  0.00     0.103 C 
BRANCH  31  32
HETATM   32  C22 UNL     1      23.229  40.138  -3.816  1.00  0.00     0.221 C 
HETATM   33  O3  UNL     1      22.704  40.681  -4.812  1.00  0.00    -0.273 OA
HETATM   34  N6  UNL     1      23.108  38.814  -3.519  1.00  0.00    -0.323 N 
HETATM   35  C23 UNL     1      23.801  38.247  -2.339  1.00  0.00     0.133 C 
HETATM   36  C29 UNL     1      22.424  37.638  -4.029  1.00  0.00     0.299 C 
HETATM   37  C24 UNL     1      24.381  37.007  -2.951  1.00  0.00     0.017 C 
HETATM   38  C25 UNL     1      23.958  35.839  -2.125  1.00  0.00     0.041 C 
HETATM   39  C28 UNL     1      23.611  36.839  -4.328  1.00  0.00     0.073 C 
HETATM   40  C26 UNL     1      23.302  34.841  -3.046  1.00  0.00     0.147 C 
HETATM   41  C27 UNL     1      23.684  35.377  -4.389  1.00  0.00     0.155 C 
BRANCH  40  42
HETATM   42  O4  UNL     1      22.001  34.605  -2.781  1.00  0.00    -0.393 OA
ATOM     43  H4  UNL     1      21.462  34.466  -3.550  1.00  0.00     0.210 HD
ENDBRANCH  40  42
BRANCH  41  44
HETATM   44  O5  UNL     1      23.302  34.693  -5.479  1.00  0.00    -0.392 OA
ATOM     45  H5  UNL     1      22.426  34.835  -5.817  1.00  0.00     0.210 HD
ENDBRANCH  41  44
BRANCH  36  46
HETATM   46  N7  UNL     1      21.411  37.837  -4.957  1.00  0.00    -0.057 N 
HETATM   47  C30 UNL     1      20.460  38.851  -4.456  1.00  0.00     0.274 C 
HETATM   48  C31 UNL     1      21.790  38.226  -6.298  1.00  0.00     0.274 C 
HETATM   49  C32 UNL     1      20.494  36.686  -5.153  1.00  0.00     0.274 C 
ENDBRANCH  36  46
ENDBRANCH  31  32
ENDBRANCH  30  31
ENDBRANCH  29  30
ENDBRANCH  27  29
ENDBRANCH   1  27
TORSDOF 20
ENDMDL
