MODEL 1
REMARK VINA RESULT: -8.173671289      0.000      0.000
REMARK  21 active torsions:
REMARK  status: ('A' for Active; 'I' for Inactive)
REMARK    1  A    between atoms: C4_4  and  C5_5 
REMARK    2  A    between atoms: C5_5  and  N1_6 
REMARK    3  A    between atoms: N3_11  and  C9_12 
REMARK    4  A    between atoms: C9_12  and  C10_13 
REMARK    5  A    between atoms: C10_13  and  N4_14 
REMARK       I    between atoms: N4_14  and  C11_16 
REMARK    6  A    between atoms: C11_16  and  C12_18 
REMARK    7  A    between atoms: C12_18  and  C13_19 
REMARK    8  A    between atoms: C12_18  and  N6_24 
REMARK    9  A    between atoms: C13_19  and  C14_20 
REMARK   10  A    between atoms: C14_20  and  C15_21 
REMARK   11  A    between atoms: N6_24  and  C16_26 
REMARK   12  A    between atoms: C16_26  and  C17_27 
REMARK   13  A    between atoms: C17_27  and  O3_28 
REMARK   14  A    between atoms: C17_27  and  C18_30 
REMARK   15  A    between atoms: C18_30  and  N7_31 
REMARK   16  A    between atoms: N7_31  and  C19_32 
REMARK   17  A    between atoms: C19_32  and  C20_33 
REMARK   18  A    between atoms: C20_33  and  C21_34 
REMARK   19  A    between atoms: C21_34  and  C22_35 
REMARK   20  A    between atoms: C22_35  and  N8_36 
REMARK   21  A    between atoms: C25_39  and  O4_40 
ROOT
HETATM    1  C12 UNL     1      29.061  38.122  -1.371  1.00  0.00     0.169 C 
ENDROOT
BRANCH   1   2
HETATM    2  C11 UNL     1      27.806  38.882  -1.322  1.00  0.00     0.240 C 
HETATM    3  N4  UNL     1      26.882  38.864  -2.380  1.00  0.00    -0.358 N 
ATOM      4  H4  UNL     1      27.086  38.295  -3.202  1.00  0.00     0.162 HD
HETATM    5  O1  UNL     1      27.552  39.566  -0.296  1.00  0.00    -0.271 OA
BRANCH   3   6
HETATM    6  C10 UNL     1      25.642  39.629  -2.343  1.00  0.00     0.153 C 
BRANCH   6   7
HETATM    7  C9  UNL     1      24.929  39.516  -3.632  1.00  0.00     0.287 C 
BRANCH   7   8
HETATM    8  N3  UNL     1      23.805  38.604  -3.662  1.00  0.00     0.041 N 
HETATM    9  N2  UNL     1      23.093  38.903  -4.807  1.00  0.00    -0.225 N 
HETATM   10  C7  UNL     1      22.260  37.912  -5.354  1.00  0.00     0.117 C 
HETATM   11  C8  UNL     1      22.621  40.249  -4.916  1.00  0.00     0.184 C 
HETATM   12  C6  UNL     1      22.068  36.670  -4.565  1.00  0.00     0.286 C 
HETATM   13  N1  UNL     1      22.856  36.595  -3.373  1.00  0.00    -0.032 N 
HETATM   14  C32 UNL     1      22.269  37.405  -2.328  1.00  0.00     0.270 C 
HETATM   15  C33 UNL     1      24.152  37.209  -3.687  1.00  0.00     0.501 C 
HETATM   16  C31 UNL     1      22.994  38.718  -2.461  1.00  0.00     0.295 C 
BRANCH  13  17
HETATM   17  C5  UNL     1      23.048  35.275  -2.849  1.00  0.00     0.267 C 
BRANCH  17  18
HETATM   18  C4  UNL     1      23.273  34.226  -3.871  1.00  0.00     0.003 C 
HETATM   19  C2  UNL     1      22.441  33.226  -4.041  1.00  0.00    -0.090 C 
HETATM   20  C1  UNL     1      22.716  32.203  -5.080  1.00  0.00     0.042 C 
HETATM   21  C3  UNL     1      21.230  33.117  -3.204  1.00  0.00     0.042 C 
ENDBRANCH  17  18
ENDBRANCH  13  17
ENDBRANCH   7   8
ENDBRANCH   6   7
ENDBRANCH   3   6
ENDBRANCH   1   2
BRANCH   1  22
HETATM   22  C13 UNL     1      29.119  37.094  -2.479  1.00  0.00     0.043 C 
BRANCH  22  23
HETATM   23  C14 UNL     1      29.901  35.893  -2.110  1.00  0.00     0.102 C 
BRANCH  23  24
HETATM   24  C15 UNL     1      30.528  35.172  -3.238  1.00  0.00     0.231 C 
HETATM   25  N5  UNL     1      30.779  35.813  -4.490  1.00  0.00    -0.062 NA
HETATM   26  O2  UNL     1      30.858  33.972  -3.122  1.00  0.00    -0.277 OA
ENDBRANCH  23  24
ENDBRANCH  22  23
ENDBRANCH   1  22
BRANCH   1  27
HETATM   27  N6  UNL     1      30.180  39.034  -1.498  1.00  0.00    -0.407 N 
ATOM     28  H6  UNL     1      30.747  39.274  -0.685  1.00  0.00     0.154 HD
BRANCH  27  29
HETATM   29  C16 UNL     1      30.476  39.583  -2.754  1.00  0.00     0.148 C 
BRANCH  29  30
HETATM   30  C17 UNL     1      31.108  40.980  -2.450  1.00  0.00     0.161 C 
BRANCH  30  31
HETATM   31  O3  UNL     1      32.436  40.745  -2.131  1.00  0.00    -0.392 OA
ATOM     32  H3  UNL     1      32.598  41.199  -1.313  1.00  0.00     0.210 HD
ENDBRANCH  30  31
BRANCH  30  33
HETATM   33  C18 UNL     1      30.279  41.580  -1.395  1.00  0.00     0.270 C 
BRANCH  33  34
HETATM   34  N7  UNL     1      29.635  42.847  -1.683  1.00  0.00    -0.065 N 
HETATM   35  C27 UNL     1      29.149  43.508  -0.527  1.00  0.00     0.237 C 
HETATM   36  C28 UNL     1      27.779  44.066  -0.845  1.00  0.00     0.029 C 
HETATM   37  C29 UNL     1      27.269  43.145  -1.930  1.00  0.00     0.029 C 
HETATM   38  C30 UNL     1      28.485  42.531  -2.522  1.00  0.00     0.237 C 
BRANCH  34  39
HETATM   39  C19 UNL     1      30.566  43.615  -2.473  1.00  0.00     0.237 C 
BRANCH  39  40
HETATM   40  C20 UNL     1      31.466  44.547  -1.738  1.00  0.00     0.030 C 
BRANCH  40  41
HETATM   41  C21 UNL     1      32.905  44.407  -2.138  1.00  0.00     0.032 C 
BRANCH  41  42
HETATM   42  C22 UNL     1      33.395  45.256  -3.241  1.00  0.00     0.272 C 
BRANCH  42  43
HETATM   43  N8  UNL     1      34.594  45.990  -3.079  1.00  0.00     0.091 N 
HETATM   44  C23 UNL     1      35.402  45.192  -2.109  1.00  0.00     0.275 C 
HETATM   45  C24 UNL     1      36.764  45.824  -2.148  1.00  0.00     0.064 C 
HETATM   46  C25 UNL     1      36.899  46.313  -3.554  1.00  0.00     0.148 C 
HETATM   47  C26 UNL     1      35.516  46.026  -4.171  1.00  0.00     0.303 C 
BRANCH  46  48
HETATM   48  O4  UNL     1      37.863  45.598  -4.282  1.00  0.00    -0.394 OA
ATOM     49  H4  UNL     1      37.582  45.407  -5.169  1.00  0.00     0.210 HD
ENDBRANCH  46  48
ENDBRANCH  42  43
ENDBRANCH  41  42
ENDBRANCH  40  41
ENDBRANCH  39  40
ENDBRANCH  34  39
ENDBRANCH  33  34
ENDBRANCH  30  33
ENDBRANCH  29  30
ENDBRANCH  27  29
ENDBRANCH   1  27
TORSDOF 21
ENDMDL
MODEL 2
REMARK VINA RESULT: -8.096584139      2.304     10.525
REMARK  21 active torsions:
REMARK  status: ('A' for Active; 'I' for Inactive)
REMARK    1  A    between atoms: C4_4  and  C5_5 
REMARK    2  A    between atoms: C5_5  and  N1_6 
REMARK    3  A    between atoms: N3_11  and  C9_12 
REMARK    4  A    between atoms: C9_12  and  C10_13 
REMARK    5  A    between atoms: C10_13  and  N4_14 
REMARK       I    between atoms: N4_14  and  C11_16 
REMARK    6  A    between atoms: C11_16  and  C12_18 
REMARK    7  A    between atoms: C12_18  and  C13_19 
REMARK    8  A    between atoms: C12_18  and  N6_24 
REMARK    9  A    between atoms: C13_19  and  C14_20 
REMARK   10  A    between atoms: C14_20  and  C15_21 
REMARK   11  A    between atoms: N6_24  and  C16_26 
REMARK   12  A    between atoms: C16_26  and  C17_27 
REMARK   13  A    between atoms: C17_27  and  O3_28 
REMARK   14  A    between atoms: C17_27  and  C18_30 
REMARK   15  A    between atoms: C18_30  and  N7_31 
REMARK   16  A    between atoms: N7_31  and  C19_32 
REMARK   17  A    between atoms: C19_32  and  C20_33 
REMARK   18  A    between atoms: C20_33  and  C21_34 
REMARK   19  A    between atoms: C21_34  and  C22_35 
REMARK   20  A    between atoms: C22_35  and  N8_36 
REMARK   21  A    between atoms: C25_39  and  O4_40 
ROOT
HETATM    1  C12 UNL     1      29.870  38.755  -2.902  1.00  0.00     0.169 C 
ENDROOT
BRANCH   1   2
HETATM    2  C11 UNL     1      30.674  39.983  -2.889  1.00  0.00     0.240 C 
HETATM    3  N4  UNL     1      31.175  40.533  -1.697  1.00  0.00    -0.358 N 
ATOM      4  H4  UNL     1      30.983  40.057  -0.815  1.00  0.00     0.162 HD
HETATM    5  O1  UNL     1      30.925  40.554  -3.982  1.00  0.00    -0.271 OA
BRANCH   3   6
HETATM    6  C10 UNL     1      31.961  41.760  -1.677  1.00  0.00     0.153 C 
BRANCH   6   7
HETATM    7  C9  UNL     1      31.159  42.877  -1.136  1.00  0.00     0.287 C 
BRANCH   7   8
HETATM    8  N3  UNL     1      31.669  44.209  -1.385  1.00  0.00     0.041 N 
HETATM    9  N2  UNL     1      31.366  44.956  -0.263  1.00  0.00    -0.225 N 
HETATM   10  C7  UNL     1      32.129  46.107  -0.001  1.00  0.00     0.117 C 
HETATM   11  C8  UNL     1      29.980  45.031   0.083  1.00  0.00     0.184 C 
HETATM   12  C6  UNL     1      33.095  46.537  -1.042  1.00  0.00     0.286 C 
HETATM   13  N1  UNL     1      33.203  45.647  -2.158  1.00  0.00    -0.032 N 
HETATM   14  C32 UNL     1      32.084  45.825  -3.056  1.00  0.00     0.270 C 
HETATM   15  C33 UNL     1      33.085  44.286  -1.622  1.00  0.00     0.501 C 
HETATM   16  C31 UNL     1      31.104  44.778  -2.598  1.00  0.00     0.295 C 
BRANCH  13  17
HETATM   17  C5  UNL     1      34.407  45.773  -2.926  1.00  0.00     0.267 C 
BRANCH  17  18
HETATM   18  C4  UNL     1      34.216  45.739  -4.394  1.00  0.00     0.003 C 
HETATM   19  C2  UNL     1      35.200  45.966  -5.232  1.00  0.00    -0.090 C 
HETATM   20  C1  UNL     1      34.952  45.918  -6.694  1.00  0.00     0.042 C 
HETATM   21  C3  UNL     1      36.554  46.263  -4.725  1.00  0.00     0.042 C 
ENDBRANCH  17  18
ENDBRANCH  13  17
ENDBRANCH   7   8
ENDBRANCH   6   7
ENDBRANCH   3   6
ENDBRANCH   1   2
BRANCH   1  22
HETATM   22  C13 UNL     1      30.180  37.800  -1.770  1.00  0.00     0.043 C 
BRANCH  22  23
HETATM   23  C14 UNL     1      31.147  36.747  -2.154  1.00  0.00     0.102 C 
BRANCH  23  24
HETATM   24  C15 UNL     1      30.639  35.732  -3.100  1.00  0.00     0.231 C 
HETATM   25  N5  UNL     1      30.848  35.849  -4.508  1.00  0.00    -0.062 NA
HETATM   26  O2  UNL     1      30.009  34.734  -2.686  1.00  0.00    -0.277 OA
ENDBRANCH  23  24
ENDBRANCH  22  23
ENDBRANCH   1  22
BRANCH   1  27
HETATM   27  N6  UNL     1      28.460  39.094  -2.875  1.00  0.00    -0.407 N 
ATOM     28  H6  UNL     1      27.991  39.416  -3.721  1.00  0.00     0.154 HD
BRANCH  27  29
HETATM   29  C16 UNL     1      27.750  38.973  -1.673  1.00  0.00     0.148 C 
BRANCH  29  30
HETATM   30  C17 UNL     1      27.879  40.369  -0.981  1.00  0.00     0.161 C 
BRANCH  30  31
HETATM   31  O3  UNL     1      28.472  40.140   0.250  1.00  0.00    -0.392 OA
ATOM     32  H3  UNL     1      28.686  40.994   0.605  1.00  0.00     0.210 HD
ENDBRANCH  30  31
BRANCH  30  33
HETATM   33  C18 UNL     1      26.524  40.938  -0.959  1.00  0.00     0.270 C 
BRANCH  33  34
HETATM   34  N7  UNL     1      26.262  42.086  -1.806  1.00  0.00    -0.065 N 
HETATM   35  C27 UNL     1      27.417  42.572  -2.470  1.00  0.00     0.237 C 
HETATM   36  C28 UNL     1      27.398  44.083  -2.400  1.00  0.00     0.029 C 
HETATM   37  C29 UNL     1      26.601  44.367  -1.147  1.00  0.00     0.029 C 
HETATM   38  C30 UNL     1      25.793  43.141  -0.916  1.00  0.00     0.237 C 
BRANCH  34  39
HETATM   39  C19 UNL     1      25.173  41.719  -2.677  1.00  0.00     0.237 C 
BRANCH  39  40
HETATM   40  C20 UNL     1      25.532  41.095  -3.981  1.00  0.00     0.030 C 
BRANCH  40  41
HETATM   41  C21 UNL     1      24.995  39.703  -4.130  1.00  0.00     0.032 C 
BRANCH  41  42
HETATM   42  C22 UNL     1      23.611  39.451  -3.685  1.00  0.00     0.272 C 
BRANCH  42  43
HETATM   43  N8  UNL     1      23.247  38.163  -3.226  1.00  0.00     0.091 N 
HETATM   44  C23 UNL     1      24.452  37.663  -2.500  1.00  0.00     0.275 C 
HETATM   45  C24 UNL     1      23.976  36.427  -1.792  1.00  0.00     0.064 C 
HETATM   46  C25 UNL     1      22.542  36.715  -1.479  1.00  0.00     0.148 C 
HETATM   47  C26 UNL     1      22.288  38.069  -2.169  1.00  0.00     0.303 C 
BRANCH  46  48
HETATM   48  O4  UNL     1      22.313  36.872  -0.103  1.00  0.00    -0.394 OA
ATOM     49  H4  UNL     1      21.442  37.202   0.085  1.00  0.00     0.210 HD
ENDBRANCH  46  48
ENDBRANCH  42  43
ENDBRANCH  41  42
ENDBRANCH  40  41
ENDBRANCH  39  40
ENDBRANCH  34  39
ENDBRANCH  33  34
ENDBRANCH  30  33
ENDBRANCH  29  30
ENDBRANCH  27  29
ENDBRANCH   1  27
TORSDOF 21
ENDMDL
MODEL 3
REMARK VINA RESULT: -8.036914917      1.099      1.555
REMARK  21 active torsions:
REMARK  status: ('A' for Active; 'I' for Inactive)
REMARK    1  A    between atoms: C4_4  and  C5_5 
REMARK    2  A    between atoms: C5_5  and  N1_6 
REMARK    3  A    between atoms: N3_11  and  C9_12 
REMARK    4  A    between atoms: C9_12  and  C10_13 
REMARK    5  A    between atoms: C10_13  and  N4_14 
REMARK       I    between atoms: N4_14  and  C11_16 
REMARK    6  A    between atoms: C11_16  and  C12_18 
REMARK    7  A    between atoms: C12_18  and  C13_19 
REMARK    8  A    between atoms: C12_18  and  N6_24 
REMARK    9  A    between atoms: C13_19  and  C14_20 
REMARK   10  A    between atoms: C14_20  and  C15_21 
REMARK   11  A    between atoms: N6_24  and  C16_26 
REMARK   12  A    between atoms: C16_26  and  C17_27 
REMARK   13  A    between atoms: C17_27  and  O3_28 
REMARK   14  A    between atoms: C17_27  and  C18_30 
REMARK   15  A    between atoms: C18_30  and  N7_31 
REMARK   16  A    between atoms: N7_31  and  C19_32 
REMARK   17  A    between atoms: C19_32  and  C20_33 
REMARK   18  A    between atoms: C20_33  and  C21_34 
REMARK   19  A    between atoms: C21_34  and  C22_35 
REMARK   20  A    between atoms: C22_35  and  N8_36 
REMARK   21  A    between atoms: C25_39  and  O4_40 
ROOT
HETATM    1  C12 UNL     1      29.801  38.259  -1.495  1.00  0.00     0.169 C 
ENDROOT
BRANCH   1   2
HETATM    2  C11 UNL     1      28.603  38.955  -1.008  1.00  0.00     0.240 C 
HETATM    3  N4  UNL     1      27.469  39.141  -1.817  1.00  0.00    -0.358 N 
ATOM      4  H4  UNL     1      27.475  38.770  -2.767  1.00  0.00     0.162 HD
HETATM    5  O1  UNL     1      28.595  39.393   0.172  1.00  0.00    -0.271 OA
BRANCH   3   6
HETATM    6  C10 UNL     1      26.284  39.845  -1.343  1.00  0.00     0.153 C 
BRANCH   6   7
HETATM    7  C9  UNL     1      25.733  40.703  -2.413  1.00  0.00     0.287 C 
BRANCH   7   8
HETATM    8  N3  UNL     1      24.421  40.342  -2.908  1.00  0.00     0.041 N 
HETATM    9  N2  UNL     1      24.411  40.667  -4.250  1.00  0.00    -0.225 N 
HETATM   10  C7  UNL     1      23.492  40.014  -5.090  1.00  0.00     0.117 C 
HETATM   11  C8  UNL     1      24.681  42.037  -4.564  1.00  0.00     0.184 C 
HETATM   12  C6  UNL     1      22.477  39.144  -4.444  1.00  0.00     0.286 C 
HETATM   13  N1  UNL     1      22.634  38.997  -3.029  1.00  0.00    -0.032 N 
HETATM   14  C32 UNL     1      22.136  40.168  -2.342  1.00  0.00     0.270 C 
HETATM   15  C33 UNL     1      24.077  38.953  -2.768  1.00  0.00     0.501 C 
HETATM   16  C31 UNL     1      23.368  41.016  -2.167  1.00  0.00     0.295 C 
BRANCH  13  17
HETATM   17  C5  UNL     1      21.993  37.848  -2.460  1.00  0.00     0.267 C 
BRANCH  17  18
HETATM   18  C4  UNL     1      22.786  36.599  -2.520  1.00  0.00     0.003 C 
HETATM   19  C2  UNL     1      22.395  35.556  -3.216  1.00  0.00    -0.090 C 
HETATM   20  C1  UNL     1      23.229  34.330  -3.241  1.00  0.00     0.042 C 
HETATM   21  C3  UNL     1      21.130  35.602  -3.975  1.00  0.00     0.042 C 
ENDBRANCH  17  18
ENDBRANCH  13  17
ENDBRANCH   7   8
ENDBRANCH   6   7
ENDBRANCH   3   6
ENDBRANCH   1   2
BRANCH   1  22
HETATM   22  C13 UNL     1      29.543  37.324  -2.656  1.00  0.00     0.043 C 
BRANCH  22  23
HETATM   23  C14 UNL     1      29.789  35.904  -2.318  1.00  0.00     0.102 C 
BRANCH  23  24
HETATM   24  C15 UNL     1      30.514  35.124  -3.342  1.00  0.00     0.231 C 
HETATM   25  N5  UNL     1      30.845  35.683  -4.615  1.00  0.00    -0.062 NA
HETATM   26  O2  UNL     1      30.859  33.944  -3.118  1.00  0.00    -0.277 OA
ENDBRANCH  23  24
ENDBRANCH  22  23
ENDBRANCH   1  22
BRANCH   1  27
HETATM   27  N6  UNL     1      30.812  39.228  -1.869  1.00  0.00    -0.407 N 
ATOM     28  H6  UNL     1      31.743  39.187  -1.456  1.00  0.00     0.154 HD
BRANCH  27  29
HETATM   29  C16 UNL     1      30.493  40.222  -2.804  1.00  0.00     0.148 C 
BRANCH  29  30
HETATM   30  C17 UNL     1      31.277  41.490  -2.333  1.00  0.00     0.161 C 
BRANCH  30  31
HETATM   31  O3  UNL     1      32.564  41.067  -2.045  1.00  0.00    -0.392 OA
ATOM     32  H3  UNL     1      32.529  40.675  -1.180  1.00  0.00     0.210 HD
ENDBRANCH  30  31
BRANCH  30  33
HETATM   33  C18 UNL     1      30.507  42.052  -1.215  1.00  0.00     0.270 C 
BRANCH  33  34
HETATM   34  N7  UNL     1      29.878  43.343  -1.411  1.00  0.00    -0.065 N 
HETATM   35  C27 UNL     1      29.800  44.118  -0.225  1.00  0.00     0.237 C 
HETATM   36  C28 UNL     1      28.430  44.760  -0.174  1.00  0.00     0.029 C 
HETATM   37  C29 UNL     1      27.567  43.811  -0.973  1.00  0.00     0.029 C 
HETATM   38  C30 UNL     1      28.513  43.064  -1.842  1.00  0.00     0.237 C 
BRANCH  34  39
HETATM   39  C19 UNL     1      30.570  43.980  -2.505  1.00  0.00     0.237 C 
BRANCH  39  40
HETATM   40  C20 UNL     1      31.092  45.354  -2.264  1.00  0.00     0.030 C 
BRANCH  40  41
HETATM   41  C21 UNL     1      32.171  45.746  -3.229  1.00  0.00     0.032 C 
BRANCH  41  42
HETATM   42  C22 UNL     1      33.491  45.104  -3.078  1.00  0.00     0.272 C 
BRANCH  42  43
HETATM   43  N8  UNL     1      34.657  45.905  -3.018  1.00  0.00     0.091 N 
HETATM   44  C23 UNL     1      35.545  45.210  -2.039  1.00  0.00     0.275 C 
HETATM   45  C24 UNL     1      36.870  45.904  -2.179  1.00  0.00     0.064 C 
HETATM   46  C25 UNL     1      36.920  46.309  -3.617  1.00  0.00     0.148 C 
HETATM   47  C26 UNL     1      35.528  45.915  -4.151  1.00  0.00     0.303 C 
BRANCH  46  48
HETATM   48  O4  UNL     1      37.887  45.596  -4.344  1.00  0.00    -0.394 OA
ATOM     49  H4  UNL     1      37.955  45.890  -5.245  1.00  0.00     0.210 HD
ENDBRANCH  46  48
ENDBRANCH  42  43
ENDBRANCH  41  42
ENDBRANCH  40  41
ENDBRANCH  39  40
ENDBRANCH  34  39
ENDBRANCH  33  34
ENDBRANCH  30  33
ENDBRANCH  29  30
ENDBRANCH  27  29
ENDBRANCH   1  27
TORSDOF 21
ENDMDL
MODEL 4
REMARK VINA RESULT: -8.020634799      3.191     12.359
REMARK  21 active torsions:
REMARK  status: ('A' for Active; 'I' for Inactive)
REMARK    1  A    between atoms: C4_4  and  C5_5 
REMARK    2  A    between atoms: C5_5  and  N1_6 
REMARK    3  A    between atoms: N3_11  and  C9_12 
REMARK    4  A    between atoms: C9_12  and  C10_13 
REMARK    5  A    between atoms: C10_13  and  N4_14 
REMARK       I    between atoms: N4_14  and  C11_16 
REMARK    6  A    between atoms: C11_16  and  C12_18 
REMARK    7  A    between atoms: C12_18  and  C13_19 
REMARK    8  A    between atoms: C12_18  and  N6_24 
REMARK    9  A    between atoms: C13_19  and  C14_20 
REMARK   10  A    between atoms: C14_20  and  C15_21 
REMARK   11  A    between atoms: N6_24  and  C16_26 
REMARK   12  A    between atoms: C16_26  and  C17_27 
REMARK   13  A    between atoms: C17_27  and  O3_28 
REMARK   14  A    between atoms: C17_27  and  C18_30 
REMARK   15  A    between atoms: C18_30  and  N7_31 
REMARK   16  A    between atoms: N7_31  and  C19_32 
REMARK   17  A    between atoms: C19_32  and  C20_33 
REMARK   18  A    between atoms: C20_33  and  C21_34 
REMARK   19  A    between atoms: C21_34  and  C22_35 
REMARK   20  A    between atoms: C22_35  and  N8_36 
REMARK   21  A    between atoms: C25_39  and  O4_40 
ROOT
HETATM    1  C12 UNL     1      31.307  43.264  -0.714  1.00  0.00     0.169 C 
ENDROOT
BRANCH   1   2
HETATM    2  C11 UNL     1      32.534  43.544  -1.470  1.00  0.00     0.240 C 
HETATM    3  N4  UNL     1      33.541  44.387  -0.969  1.00  0.00    -0.358 N 
ATOM      4  H4  UNL     1      33.419  44.807  -0.047  1.00  0.00     0.162 HD
HETATM    5  O1  UNL     1      32.687  43.007  -2.598  1.00  0.00    -0.271 OA
BRANCH   3   6
HETATM    6  C10 UNL     1      34.754  44.681  -1.722  1.00  0.00     0.153 C 
BRANCH   6   7
HETATM    7  C9  UNL     1      34.624  45.975  -2.423  1.00  0.00     0.287 C 
BRANCH   7   8
HETATM    8  N3  UNL     1      35.375  47.081  -1.866  1.00  0.00     0.041 N 
HETATM    9  N2  UNL     1      35.225  48.134  -2.747  1.00  0.00    -0.225 N 
HETATM   10  C7  UNL     1      35.418  49.440  -2.266  1.00  0.00     0.117 C 
HETATM   11  C8  UNL     1      35.654  47.891  -4.090  1.00  0.00     0.184 C 
HETATM   12  C6  UNL     1      35.940  49.589  -0.885  1.00  0.00     0.286 C 
HETATM   13  N1  UNL     1      36.083  48.359  -0.168  1.00  0.00    -0.032 N 
HETATM   14  C32 UNL     1      37.277  47.663  -0.594  1.00  0.00     0.270 C 
HETATM   15  C33 UNL     1      34.953  47.509  -0.560  1.00  0.00     0.501 C 
HETATM   16  C31 UNL     1      36.770  46.727  -1.659  1.00  0.00     0.295 C 
BRANCH  13  17
HETATM   17  C5  UNL     1      36.135  48.486   1.259  1.00  0.00     0.267 C 
BRANCH  17  18
HETATM   18  C4  UNL     1      35.059  47.774   1.987  1.00  0.00     0.003 C 
HETATM   19  C2  UNL     1      34.268  48.386   2.837  1.00  0.00    -0.090 C 
HETATM   20  C1  UNL     1      33.206  47.624   3.539  1.00  0.00     0.042 C 
HETATM   21  C3  UNL     1      34.429  49.831   3.094  1.00  0.00     0.042 C 
ENDBRANCH  17  18
ENDBRANCH  13  17
ENDBRANCH   7   8
ENDBRANCH   6   7
ENDBRANCH   3   6
ENDBRANCH   1   2
BRANCH   1  22
HETATM   22  C13 UNL     1      30.064  43.902  -1.295  1.00  0.00     0.043 C 
BRANCH  22  23
HETATM   23  C14 UNL     1      29.853  45.288  -0.821  1.00  0.00     0.102 C 
BRANCH  23  24
HETATM   24  C15 UNL     1      29.111  45.420   0.450  1.00  0.00     0.231 C 
HETATM   25  N5  UNL     1      29.786  45.607   1.695  1.00  0.00    -0.062 NA
HETATM   26  O2  UNL     1      27.862  45.371   0.467  1.00  0.00    -0.277 OA
ENDBRANCH  23  24
ENDBRANCH  22  23
ENDBRANCH   1  22
BRANCH   1  27
HETATM   27  N6  UNL     1      31.112  41.832  -0.612  1.00  0.00    -0.407 N 
ATOM     28  H6  UNL     1      31.796  41.251  -0.127  1.00  0.00     0.154 HD
BRANCH  27  29
HETATM   29  C16 UNL     1      29.972  41.254  -1.188  1.00  0.00     0.148 C 
BRANCH  29  30
HETATM   30  C17 UNL     1      30.485  39.957  -1.894  1.00  0.00     0.161 C 
BRANCH  30  31
HETATM   31  O3  UNL     1      31.694  40.289  -2.486  1.00  0.00    -0.392 OA
ATOM     32  H3  UNL     1      31.795  39.707  -3.229  1.00  0.00     0.210 HD
ENDBRANCH  30  31
BRANCH  30  33
HETATM   33  C18 UNL     1      29.408  39.534  -2.800  1.00  0.00     0.270 C 
BRANCH  33  34
HETATM   34  N7  UNL     1      28.994  38.146  -2.751  1.00  0.00    -0.065 N 
HETATM   35  C27 UNL     1      29.275  37.516  -1.512  1.00  0.00     0.237 C 
HETATM   36  C28 UNL     1      29.819  36.134  -1.800  1.00  0.00     0.029 C 
HETATM   37  C29 UNL     1      30.440  36.279  -3.170  1.00  0.00     0.029 C 
HETATM   38  C30 UNL     1      29.771  37.459  -3.776  1.00  0.00     0.237 C 
BRANCH  34  39
HETATM   39  C19 UNL     1      27.607  38.112  -3.145  1.00  0.00     0.237 C 
BRANCH  39  40
HETATM   40  C20 UNL     1      26.595  38.086  -2.052  1.00  0.00     0.030 C 
BRANCH  40  41
HETATM   41  C21 UNL     1      25.285  38.693  -2.454  1.00  0.00     0.032 C 
BRANCH  41  42
HETATM   42  C22 UNL     1      25.300  39.711  -3.522  1.00  0.00     0.272 C 
BRANCH  42  43
HETATM   43  N8  UNL     1      25.262  41.084  -3.182  1.00  0.00     0.091 N 
HETATM   44  C23 UNL     1      24.351  41.159  -2.001  1.00  0.00     0.275 C 
HETATM   45  C24 UNL     1      24.524  42.558  -1.483  1.00  0.00     0.064 C 
HETATM   46  C25 UNL     1      25.947  42.891  -1.800  1.00  0.00     0.148 C 
HETATM   47  C26 UNL     1      26.432  41.671  -2.607  1.00  0.00     0.303 C 
BRANCH  46  48
HETATM   48  O4  UNL     1      26.743  43.002  -0.649  1.00  0.00    -0.394 OA
ATOM     49  H4  UNL     1      26.842  43.901  -0.360  1.00  0.00     0.210 HD
ENDBRANCH  46  48
ENDBRANCH  42  43
ENDBRANCH  41  42
ENDBRANCH  40  41
ENDBRANCH  39  40
ENDBRANCH  34  39
ENDBRANCH  33  34
ENDBRANCH  30  33
ENDBRANCH  29  30
ENDBRANCH  27  29
ENDBRANCH   1  27
TORSDOF 21
ENDMDL
MODEL 5
REMARK VINA RESULT: -7.835704563      1.601      3.543
REMARK  21 active torsions:
REMARK  status: ('A' for Active; 'I' for Inactive)
REMARK    1  A    between atoms: C4_4  and  C5_5 
REMARK    2  A    between atoms: C5_5  and  N1_6 
REMARK    3  A    between atoms: N3_11  and  C9_12 
REMARK    4  A    between atoms: C9_12  and  C10_13 
REMARK    5  A    between atoms: C10_13  and  N4_14 
REMARK       I    between atoms: N4_14  and  C11_16 
REMARK    6  A    between atoms: C11_16  and  C12_18 
REMARK    7  A    between atoms: C12_18  and  C13_19 
REMARK    8  A    between atoms: C12_18  and  N6_24 
REMARK    9  A    between atoms: C13_19  and  C14_20 
REMARK   10  A    between atoms: C14_20  and  C15_21 
REMARK   11  A    between atoms: N6_24  and  C16_26 
REMARK   12  A    between atoms: C16_26  and  C17_27 
REMARK   13  A    between atoms: C17_27  and  O3_28 
REMARK   14  A    between atoms: C17_27  and  C18_30 
REMARK   15  A    between atoms: C18_30  and  N7_31 
REMARK   16  A    between atoms: N7_31  and  C19_32 
REMARK   17  A    between atoms: C19_32  and  C20_33 
REMARK   18  A    between atoms: C20_33  and  C21_34 
REMARK   19  A    between atoms: C21_34  and  C22_35 
REMARK   20  A    between atoms: C22_35  and  N8_36 
REMARK   21  A    between atoms: C25_39  and  O4_40 
ROOT
HETATM    1  C12 UNL     1      29.466  37.993  -1.226  1.00  0.00     0.169 C 
ENDROOT
BRANCH   1   2
HETATM    2  C11 UNL     1      28.112  38.446  -1.568  1.00  0.00     0.240 C 
HETATM    3  N4  UNL     1      27.563  38.256  -2.847  1.00  0.00    -0.358 N 
ATOM      4  H4  UNL     1      28.120  37.777  -3.556  1.00  0.00     0.162 HD
HETATM    5  O1  UNL     1      27.423  39.018  -0.683  1.00  0.00    -0.271 OA
BRANCH   3   6
HETATM    6  C10 UNL     1      26.226  38.718  -3.196  1.00  0.00     0.153 C 
BRANCH   6   7
HETATM    7  C9  UNL     1      25.260  37.602  -3.121  1.00  0.00     0.287 C 
BRANCH   7   8
HETATM    8  N3  UNL     1      23.866  37.971  -2.997  1.00  0.00     0.041 N 
HETATM    9  N2  UNL     1      23.267  36.979  -2.246  1.00  0.00    -0.225 N 
HETATM   10  C7  UNL     1      22.077  37.283  -1.563  1.00  0.00     0.117 C 
HETATM   11  C8  UNL     1      23.365  35.652  -2.772  1.00  0.00     0.184 C 
HETATM   12  C6  UNL     1      21.452  38.601  -1.834  1.00  0.00     0.286 C 
HETATM   13  N1  UNL     1      22.212  39.454  -2.696  1.00  0.00    -0.032 N 
HETATM   14  C32 UNL     1      22.059  39.044  -4.075  1.00  0.00     0.270 C 
HETATM   15  C33 UNL     1      23.625  39.238  -2.360  1.00  0.00     0.501 C 
HETATM   16  C31 UNL     1      23.239  38.135  -4.298  1.00  0.00     0.295 C 
BRANCH  13  17
HETATM   17  C5  UNL     1      21.891  40.848  -2.614  1.00  0.00     0.267 C 
BRANCH  17  18
HETATM   18  C4  UNL     1      22.993  41.714  -2.134  1.00  0.00     0.003 C 
HETATM   19  C2  UNL     1      22.789  42.704  -1.297  1.00  0.00    -0.090 C 
HETATM   20  C1  UNL     1      23.929  43.540  -0.848  1.00  0.00     0.042 C 
HETATM   21  C3  UNL     1      21.429  42.987  -0.799  1.00  0.00     0.042 C 
ENDBRANCH  17  18
ENDBRANCH  13  17
ENDBRANCH   7   8
ENDBRANCH   6   7
ENDBRANCH   3   6
ENDBRANCH   1   2
BRANCH   1  22
HETATM   22  C13 UNL     1      29.713  36.524  -1.494  1.00  0.00     0.043 C 
BRANCH  22  23
HETATM   23  C14 UNL     1      30.862  36.288  -2.395  1.00  0.00     0.102 C 
BRANCH  23  24
HETATM   24  C15 UNL     1      30.522  36.084  -3.819  1.00  0.00     0.231 C 
HETATM   25  N5  UNL     1      30.085  37.164  -4.646  1.00  0.00    -0.062 NA
HETATM   26  O2  UNL     1      30.611  34.951  -4.339  1.00  0.00    -0.277 OA
ENDBRANCH  23  24
ENDBRANCH  22  23
ENDBRANCH   1  22
BRANCH   1  27
HETATM   27  N6  UNL     1      30.443  38.786  -1.944  1.00  0.00    -0.407 N 
ATOM     28  H6  UNL     1      31.024  38.360  -2.666  1.00  0.00     0.154 HD
BRANCH  27  29
HETATM   29  C16 UNL     1      30.580  40.147  -1.636  1.00  0.00     0.148 C 
BRANCH  29  30
HETATM   30  C17 UNL     1      30.214  40.902  -2.955  1.00  0.00     0.161 C 
BRANCH  30  31
HETATM   31  O3  UNL     1      30.733  40.145  -3.993  1.00  0.00    -0.392 OA
ATOM     32  H3  UNL     1      30.770  39.250  -3.677  1.00  0.00     0.210 HD
ENDBRANCH  30  31
BRANCH  30  33
HETATM   33  C18 UNL     1      30.750  42.263  -2.806  1.00  0.00     0.270 C 
BRANCH  33  34
HETATM   34  N7  UNL     1      29.804  43.338  -2.580  1.00  0.00    -0.065 N 
HETATM   35  C27 UNL     1      29.268  43.351  -1.266  1.00  0.00     0.237 C 
HETATM   36  C28 UNL     1      27.784  43.629  -1.367  1.00  0.00     0.029 C 
HETATM   37  C29 UNL     1      27.423  43.110  -2.740  1.00  0.00     0.029 C 
HETATM   38  C30 UNL     1      28.699  43.100  -3.501  1.00  0.00     0.237 C 
BRANCH  34  39
HETATM   39  C19 UNL     1      30.461  44.559  -2.977  1.00  0.00     0.237 C 
BRANCH  39  40
HETATM   40  C20 UNL     1      31.097  45.365  -1.897  1.00  0.00     0.030 C 
BRANCH  40  41
HETATM   41  C21 UNL     1      32.568  45.107  -1.764  1.00  0.00     0.032 C 
BRANCH  41  42
HETATM   42  C22 UNL     1      33.395  45.214  -2.982  1.00  0.00     0.272 C 
BRANCH  42  43
HETATM   43  N8  UNL     1      34.598  45.959  -2.948  1.00  0.00     0.091 N 
HETATM   44  C23 UNL     1      35.485  45.206  -2.013  1.00  0.00     0.275 C 
HETATM   45  C24 UNL     1      36.836  45.839  -2.187  1.00  0.00     0.064 C 
HETATM   46  C25 UNL     1      36.856  46.268  -3.619  1.00  0.00     0.148 C 
HETATM   47  C26 UNL     1      35.430  45.950  -4.111  1.00  0.00     0.303 C 
BRANCH  46  48
HETATM   48  O4  UNL     1      37.763  45.525  -4.391  1.00  0.00    -0.394 OA
ATOM     49  H4  UNL     1      37.887  45.890  -5.259  1.00  0.00     0.210 HD
ENDBRANCH  46  48
ENDBRANCH  42  43
ENDBRANCH  41  42
ENDBRANCH  40  41
ENDBRANCH  39  40
ENDBRANCH  34  39
ENDBRANCH  33  34
ENDBRANCH  30  33
ENDBRANCH  29  30
ENDBRANCH  27  29
ENDBRANCH   1  27
TORSDOF 21
ENDMDL
