MODEL 1
REMARK VINA RESULT: -6.952568149      0.000      0.000
REMARK  22 active torsions:
REMARK  status: ('A' for Active; 'I' for Inactive)
REMARK    1  A    between atoms: C2_2  and  C3_3 
REMARK    2  A    between atoms: C3_3  and  C4_4 
REMARK    3  A    between atoms: C4_4  and  O1_5 
REMARK    4  A    between atoms: C4_4  and  N1_7 
REMARK    5  A    between atoms: N1_7  and  C5_9 
REMARK    6  A    between atoms: C5_9  and  C6_10 
REMARK    7  A    between atoms: C6_10  and  N2_11 
REMARK    8  A    between atoms: C10_17  and  C11_18 
REMARK       I    between atoms: C11_18  and  N4_20 
REMARK    9  A    between atoms: N4_20  and  C12_22 
REMARK   10  A    between atoms: C12_22  and  C13_23 
REMARK   11  A    between atoms: C12_22  and  C14_26 
REMARK   12  A    between atoms: C13_23  and  O3_24 
REMARK   13  A    between atoms: C17_35  and  C18_36 
REMARK   14  A    between atoms: C18_36  and  C19_37 
REMARK   15  A    between atoms: C19_37  and  C20_38 
REMARK   16  A    between atoms: C21_39  and  C22_40 
REMARK   17  A    between atoms: C23_41  and  C24_42 
REMARK   18  A    between atoms: C25_43  and  C26_44 
REMARK   19  A    between atoms: C26_44  and  C27_45 
REMARK   20  A    between atoms: C27_45  and  C28_46 
REMARK   21  A    between atoms: C28_46  and  C29_47 
REMARK   22  A    between atoms: C29_47  and  N7_48 
ROOT
HETATM    1  C3  UNL     1      28.127  42.454  -2.630  1.00  0.00     0.108 C 
HETATM    2  N3  UNL     1      29.003  41.807  -3.603  1.00  0.00    -0.363 N 
ATOM      3  H3  UNL     1      28.777  41.811  -4.598  1.00  0.00     0.161 HD
HETATM    4  C10 UNL     1      30.180  41.173  -3.121  1.00  0.00     0.166 C 
HETATM    5  C15 UNL     1      31.193  42.108  -2.604  1.00  0.00     0.280 C 
HETATM    6  O5  UNL     1      32.184  41.705  -2.001  1.00  0.00    -0.265 OA
HETATM    7  N6  UNL     1      31.039  43.545  -2.804  1.00  0.00    -0.292 N 
ATOM      8  H6  UNL     1      31.891  44.105  -2.747  1.00  0.00     0.172 HD
HETATM    9  C16 UNL     1      29.844  44.247  -3.068  1.00  0.00     0.232 C 
HETATM   10  O6  UNL     1      29.904  45.229  -3.852  1.00  0.00    -0.273 OA
HETATM   11  C17 UNL     1      28.489  43.912  -2.463  1.00  0.00     0.125 C 
ENDROOT
BRANCH  11  12
HETATM   12  C18 UNL     1      28.482  44.555  -1.199  1.00  0.00     0.102 C 
BRANCH  12  13
HETATM   13  C19 UNL     1      29.102  44.843  -0.216  1.00  0.00    -0.155 C 
BRANCH  13  14
HETATM   14  C20 UNL     1      29.916  45.246   0.912  1.00  0.00     0.050 C 
HETATM   15  C21 UNL     1      29.809  46.564   1.284  1.00  0.00     0.008 C 
BRANCH  15  16
HETATM   16  C22 UNL     1      30.528  47.180   2.362  1.00  0.00     0.001 C 
HETATM   17  C23 UNL     1      31.644  47.906   2.145  1.00  0.00    -0.000 C 
BRANCH  17  18
HETATM   18  C24 UNL     1      32.142  48.073   0.793  1.00  0.00    -0.004 C 
HETATM   19  C25 UNL     1      32.985  47.409   0.163  1.00  0.00    -0.027 C 
BRANCH  19  20
HETATM   20  C26 UNL     1      33.827  46.241   0.430  1.00  0.00     0.027 C 
BRANCH  20  21
HETATM   21  C27 UNL     1      33.430  45.147  -0.530  1.00  0.00     0.005 C 
BRANCH  21  22
HETATM   22  C28 UNL     1      34.458  44.671  -1.475  1.00  0.00     0.028 C 
BRANCH  22  23
HETATM   23  C29 UNL     1      34.427  45.427  -2.785  1.00  0.00     0.236 C 
BRANCH  23  24
HETATM   24  N7  UNL     1      35.630  46.204  -2.992  1.00  0.00    -0.079 N 
HETATM   25  C30 UNL     1      36.038  46.150  -4.380  1.00  0.00     0.271 C 
HETATM   26  C31 UNL     1      36.718  45.725  -2.189  1.00  0.00     0.271 C 
HETATM   27  C32 UNL     1      35.435  47.629  -2.665  1.00  0.00     0.271 C 
ENDBRANCH  23  24
ENDBRANCH  22  23
ENDBRANCH  21  22
ENDBRANCH  20  21
ENDBRANCH  19  20
ENDBRANCH  17  18
ENDBRANCH  15  16
ENDBRANCH  13  14
ENDBRANCH  12  13
ENDBRANCH  11  12
BRANCH   1  28
HETATM   28  C2  UNL     1      28.025  41.733  -1.368  1.00  0.00     0.036 C 
HETATM   29  C1  UNL     1      27.041  40.648  -1.161  1.00  0.00     0.008 C 
ENDBRANCH   1  28
BRANCH   1  30
HETATM   30  C4  UNL     1      26.838  42.449  -3.340  1.00  0.00     0.141 C 
BRANCH  30  31
HETATM   31  O1  UNL     1      25.848  43.126  -2.837  1.00  0.00    -0.348 OA
ATOM     32  H1  UNL     1      25.063  42.658  -2.579  1.00  0.00     0.219 HD
ENDBRANCH  30  31
BRANCH  30  33
HETATM   33  N1  UNL     1      26.524  41.785  -4.541  1.00  0.00    -0.371 N 
ATOM     34  H1  UNL     1      27.217  41.671  -5.282  1.00  0.00     0.161 HD
BRANCH  33  35
HETATM   35  C5  UNL     1      25.132  41.254  -4.688  1.00  0.00     0.149 C 
BRANCH  35  36
HETATM   36  C6  UNL     1      25.026  39.877  -4.168  1.00  0.00     0.255 C 
BRANCH  36  37
HETATM   37  N2  UNL     1      23.914  39.526  -3.362  1.00  0.00    -0.077 N 
HETATM   38  C7  UNL     1      24.247  38.335  -2.586  1.00  0.00     0.271 C 
HETATM   39  C8  UNL     1      22.825  39.116  -4.310  1.00  0.00     0.271 C 
HETATM   40  C9  UNL     1      23.394  40.516  -2.481  1.00  0.00     0.271 C 
ENDBRANCH  36  37
ENDBRANCH  35  36
ENDBRANCH  33  35
ENDBRANCH  30  33
ENDBRANCH   1  30
BRANCH   4  41
HETATM   41  C11 UNL     1      30.224  39.832  -2.655  1.00  0.00     0.274 C 
HETATM   42  O2  UNL     1      30.425  39.512  -1.427  1.00  0.00    -0.266 OA
HETATM   43  N4  UNL     1      30.054  38.661  -3.447  1.00  0.00    -0.341 N 
ATOM     44  H4  UNL     1      29.920  38.755  -4.454  1.00  0.00     0.163 HD
BRANCH  43  45
HETATM   45  C12 UNL     1      30.068  37.332  -2.853  1.00  0.00     0.197 C 
BRANCH  45  46
HETATM   46  C13 UNL     1      28.714  36.866  -2.416  1.00  0.00     0.198 C 
BRANCH  46  47
HETATM   47  O3  UNL     1      27.623  37.433  -3.011  1.00  0.00    -0.398 OA
ATOM     48  H3  UNL     1      26.857  36.887  -3.142  1.00  0.00     0.209 HD
ENDBRANCH  46  47
ENDBRANCH  45  46
BRANCH  45  49
HETATM   49  C14 UNL     1      30.521  36.315  -3.864  1.00  0.00     0.256 C 
HETATM   50  N5  UNL     1      30.904  35.038  -3.401  1.00  0.00    -0.060 NA
HETATM   51  O4  UNL     1      30.584  36.562  -5.106  1.00  0.00    -0.274 OA
ENDBRANCH  45  49
ENDBRANCH  43  45
ENDBRANCH   4  41
TORSDOF 22
ENDMDL
MODEL 2
REMARK VINA RESULT: -6.897922328      1.187      1.989
REMARK  22 active torsions:
REMARK  status: ('A' for Active; 'I' for Inactive)
REMARK    1  A    between atoms: C2_2  and  C3_3 
REMARK    2  A    between atoms: C3_3  and  C4_4 
REMARK    3  A    between atoms: C4_4  and  O1_5 
REMARK    4  A    between atoms: C4_4  and  N1_7 
REMARK    5  A    between atoms: N1_7  and  C5_9 
REMARK    6  A    between atoms: C5_9  and  C6_10 
REMARK    7  A    between atoms: C6_10  and  N2_11 
REMARK    8  A    between atoms: C10_17  and  C11_18 
REMARK       I    between atoms: C11_18  and  N4_20 
REMARK    9  A    between atoms: N4_20  and  C12_22 
REMARK   10  A    between atoms: C12_22  and  C13_23 
REMARK   11  A    between atoms: C12_22  and  C14_26 
REMARK   12  A    between atoms: C13_23  and  O3_24 
REMARK   13  A    between atoms: C17_35  and  C18_36 
REMARK   14  A    between atoms: C18_36  and  C19_37 
REMARK   15  A    between atoms: C19_37  and  C20_38 
REMARK   16  A    between atoms: C21_39  and  C22_40 
REMARK   17  A    between atoms: C23_41  and  C24_42 
REMARK   18  A    between atoms: C25_43  and  C26_44 
REMARK   19  A    between atoms: C26_44  and  C27_45 
REMARK   20  A    between atoms: C27_45  and  C28_46 
REMARK   21  A    between atoms: C28_46  and  C29_47 
REMARK   22  A    between atoms: C29_47  and  N7_48 
ROOT
HETATM    1  C3  UNL     1      28.080  41.702  -2.366  1.00  0.00     0.108 C 
HETATM    2  N3  UNL     1      28.855  41.078  -3.436  1.00  0.00    -0.363 N 
ATOM      3  H3  UNL     1      28.501  41.049  -4.393  1.00  0.00     0.161 HD
HETATM    4  C10 UNL     1      30.116  40.514  -3.103  1.00  0.00     0.166 C 
HETATM    5  C15 UNL     1      31.137  41.509  -2.739  1.00  0.00     0.280 C 
HETATM    6  O5  UNL     1      32.218  41.169  -2.265  1.00  0.00    -0.265 OA
HETATM    7  N6  UNL     1      30.885  42.932  -2.939  1.00  0.00    -0.292 N 
ATOM      8  H6  UNL     1      31.706  43.535  -3.003  1.00  0.00     0.172 HD
HETATM    9  C16 UNL     1      29.630  43.568  -3.055  1.00  0.00     0.232 C 
HETATM   10  O6  UNL     1      29.536  44.534  -3.855  1.00  0.00    -0.273 OA
HETATM   11  C17 UNL     1      28.384  43.180  -2.272  1.00  0.00     0.125 C 
ENDROOT
BRANCH  11  12
HETATM   12  C18 UNL     1      28.509  43.850  -1.028  1.00  0.00     0.102 C 
BRANCH  12  13
HETATM   13  C19 UNL     1      29.192  44.532  -0.319  1.00  0.00    -0.155 C 
BRANCH  13  14
HETATM   14  C20 UNL     1      30.095  45.345   0.468  1.00  0.00     0.050 C 
HETATM   15  C21 UNL     1      31.176  45.860  -0.205  1.00  0.00     0.008 C 
BRANCH  15  16
HETATM   16  C22 UNL     1      32.200  46.680   0.376  1.00  0.00     0.001 C 
HETATM   17  C23 UNL     1      33.479  46.261   0.464  1.00  0.00    -0.000 C 
BRANCH  17  18
HETATM   18  C24 UNL     1      33.841  44.949  -0.036  1.00  0.00    -0.004 C 
HETATM   19  C25 UNL     1      34.347  44.619  -1.124  1.00  0.00    -0.027 C 
BRANCH  19  20
HETATM   20  C26 UNL     1      34.791  45.308  -2.337  1.00  0.00     0.027 C 
BRANCH  20  21
HETATM   21  C27 UNL     1      33.616  45.407  -3.278  1.00  0.00     0.005 C 
BRANCH  21  22
HETATM   22  C28 UNL     1      33.804  46.186  -4.516  1.00  0.00     0.028 C 
BRANCH  22  23
HETATM   23  C29 UNL     1      35.089  46.986  -4.500  1.00  0.00     0.236 C 
BRANCH  23  24
HETATM   24  N7  UNL     1      35.924  46.696  -5.645  1.00  0.00    -0.079 N 
HETATM   25  C30 UNL     1      36.170  47.898  -6.413  1.00  0.00     0.271 C 
HETATM   26  C31 UNL     1      35.318  45.729  -6.514  1.00  0.00     0.271 C 
HETATM   27  C32 UNL     1      37.244  46.169  -5.252  1.00  0.00     0.271 C 
ENDBRANCH  23  24
ENDBRANCH  22  23
ENDBRANCH  21  22
ENDBRANCH  20  21
ENDBRANCH  19  20
ENDBRANCH  17  18
ENDBRANCH  15  16
ENDBRANCH  13  14
ENDBRANCH  12  13
ENDBRANCH  11  12
BRANCH   1  28
HETATM   28  C2  UNL     1      28.182  41.006  -1.091  1.00  0.00     0.036 C 
HETATM   29  C1  UNL     1      27.285  39.883  -0.737  1.00  0.00     0.008 C 
ENDBRANCH   1  28
BRANCH   1  30
HETATM   30  C4  UNL     1      26.712  41.618  -2.901  1.00  0.00     0.141 C 
BRANCH  30  31
HETATM   31  O1  UNL     1      25.791  42.371  -2.375  1.00  0.00    -0.348 OA
ATOM     32  H1  UNL     1      24.919  42.011  -2.264  1.00  0.00     0.219 HD
ENDBRANCH  30  31
BRANCH  30  33
HETATM   33  N1  UNL     1      26.250  40.801  -3.950  1.00  0.00    -0.371 N 
ATOM     34  H1  UNL     1      26.788  40.686  -4.810  1.00  0.00     0.161 HD
BRANCH  33  35
HETATM   35  C5  UNL     1      24.939  40.106  -3.753  1.00  0.00     0.149 C 
BRANCH  35  36
HETATM   36  C6  UNL     1      25.131  38.682  -3.415  1.00  0.00     0.255 C 
BRANCH  36  37
HETATM   37  N2  UNL     1      24.002  37.889  -3.093  1.00  0.00    -0.077 N 
HETATM   38  C7  UNL     1      22.953  38.752  -2.558  1.00  0.00     0.271 C 
HETATM   39  C8  UNL     1      24.427  36.997  -1.963  1.00  0.00     0.271 C 
HETATM   40  C9  UNL     1      23.446  37.077  -4.122  1.00  0.00     0.271 C 
ENDBRANCH  36  37
ENDBRANCH  35  36
ENDBRANCH  33  35
ENDBRANCH  30  33
ENDBRANCH   1  30
BRANCH   4  41
HETATM   41  C11 UNL     1      30.289  39.188  -2.626  1.00  0.00     0.274 C 
HETATM   42  O2  UNL     1      30.529  38.900  -1.397  1.00  0.00    -0.266 OA
HETATM   43  N4  UNL     1      30.224  37.998  -3.407  1.00  0.00    -0.341 N 
ATOM     44  H4  UNL     1      30.074  38.070  -4.413  1.00  0.00     0.163 HD
BRANCH  43  45
HETATM   45  C12 UNL     1      30.368  36.682  -2.801  1.00  0.00     0.197 C 
BRANCH  45  46
HETATM   46  C13 UNL     1      29.123  36.206  -2.121  1.00  0.00     0.198 C 
BRANCH  46  47
HETATM   47  O3  UNL     1      27.935  36.752  -2.513  1.00  0.00    -0.398 OA
ATOM     48  H3  UNL     1      27.361  37.097  -1.838  1.00  0.00     0.209 HD
ENDBRANCH  46  47
ENDBRANCH  45  46
BRANCH  45  49
HETATM   49  C14 UNL     1      30.651  35.652  -3.859  1.00  0.00     0.256 C 
HETATM   50  N5  UNL     1      30.692  34.294  -3.474  1.00  0.00    -0.060 NA
HETATM   51  O4  UNL     1      30.866  35.952  -5.072  1.00  0.00    -0.274 OA
ENDBRANCH  45  49
ENDBRANCH  43  45
ENDBRANCH   4  41
TORSDOF 22
ENDMDL
MODEL 3
REMARK VINA RESULT: -6.760163751      1.148      1.564
REMARK  22 active torsions:
REMARK  status: ('A' for Active; 'I' for Inactive)
REMARK    1  A    between atoms: C2_2  and  C3_3 
REMARK    2  A    between atoms: C3_3  and  C4_4 
REMARK    3  A    between atoms: C4_4  and  O1_5 
REMARK    4  A    between atoms: C4_4  and  N1_7 
REMARK    5  A    between atoms: N1_7  and  C5_9 
REMARK    6  A    between atoms: C5_9  and  C6_10 
REMARK    7  A    between atoms: C6_10  and  N2_11 
REMARK    8  A    between atoms: C10_17  and  C11_18 
REMARK       I    between atoms: C11_18  and  N4_20 
REMARK    9  A    between atoms: N4_20  and  C12_22 
REMARK   10  A    between atoms: C12_22  and  C13_23 
REMARK   11  A    between atoms: C12_22  and  C14_26 
REMARK   12  A    between atoms: C13_23  and  O3_24 
REMARK   13  A    between atoms: C17_35  and  C18_36 
REMARK   14  A    between atoms: C18_36  and  C19_37 
REMARK   15  A    between atoms: C19_37  and  C20_38 
REMARK   16  A    between atoms: C21_39  and  C22_40 
REMARK   17  A    between atoms: C23_41  and  C24_42 
REMARK   18  A    between atoms: C25_43  and  C26_44 
REMARK   19  A    between atoms: C26_44  and  C27_45 
REMARK   20  A    between atoms: C27_45  and  C28_46 
REMARK   21  A    between atoms: C28_46  and  C29_47 
REMARK   22  A    between atoms: C29_47  and  N7_48 
ROOT
HETATM    1  C3  UNL     1      28.073  41.718  -2.306  1.00  0.00     0.108 C 
HETATM    2  N3  UNL     1      28.872  41.150  -3.388  1.00  0.00    -0.363 N 
ATOM      3  H3  UNL     1      28.529  41.147  -4.349  1.00  0.00     0.161 HD
HETATM    4  C10 UNL     1      30.142  40.602  -3.062  1.00  0.00     0.166 C 
HETATM    5  C15 UNL     1      31.137  41.606  -2.650  1.00  0.00     0.280 C 
HETATM    6  O5  UNL     1      32.220  41.273  -2.176  1.00  0.00    -0.265 OA
HETATM    7  N6  UNL     1      30.855  43.029  -2.803  1.00  0.00    -0.292 N 
ATOM      8  H6  UNL     1      31.663  43.651  -2.835  1.00  0.00     0.172 HD
HETATM    9  C16 UNL     1      29.587  43.640  -2.910  1.00  0.00     0.232 C 
HETATM   10  O6  UNL     1      29.480  44.632  -3.676  1.00  0.00    -0.273 OA
HETATM   11  C17 UNL     1      28.343  43.197  -2.155  1.00  0.00     0.125 C 
ENDROOT
BRANCH  11  12
HETATM   12  C18 UNL     1      28.439  43.825  -0.887  1.00  0.00     0.102 C 
BRANCH  12  13
HETATM   13  C19 UNL     1      28.343  44.839  -0.259  1.00  0.00    -0.155 C 
BRANCH  13  14
HETATM   14  C20 UNL     1      28.188  46.113   0.414  1.00  0.00     0.050 C 
HETATM   15  C21 UNL     1      29.281  46.944   0.378  1.00  0.00     0.008 C 
BRANCH  15  16
HETATM   16  C22 UNL     1      29.354  48.242   0.985  1.00  0.00     0.001 C 
HETATM   17  C23 UNL     1      30.205  48.504   1.997  1.00  0.00    -0.000 C 
BRANCH  17  18
HETATM   18  C24 UNL     1      31.073  47.454   2.496  1.00  0.00    -0.004 C 
HETATM   19  C25 UNL     1      32.315  47.386   2.517  1.00  0.00    -0.027 C 
BRANCH  19  20
HETATM   20  C26 UNL     1      33.429  48.236   2.094  1.00  0.00     0.027 C 
BRANCH  20  21
HETATM   21  C27 UNL     1      34.367  47.399   1.259  1.00  0.00     0.005 C 
BRANCH  21  22
HETATM   22  C28 UNL     1      33.779  46.283   0.495  1.00  0.00     0.028 C 
BRANCH  22  23
HETATM   23  C29 UNL     1      33.879  46.496  -1.000  1.00  0.00     0.236 C 
BRANCH  23  24
HETATM   24  N7  UNL     1      34.307  45.299  -1.691  1.00  0.00    -0.079 N 
HETATM   25  C30 UNL     1      33.636  45.182  -2.968  1.00  0.00     0.271 C 
HETATM   26  C31 UNL     1      34.027  44.116  -0.930  1.00  0.00     0.271 C 
HETATM   27  C32 UNL     1      35.754  45.308  -1.975  1.00  0.00     0.271 C 
ENDBRANCH  23  24
ENDBRANCH  22  23
ENDBRANCH  21  22
ENDBRANCH  20  21
ENDBRANCH  19  20
ENDBRANCH  17  18
ENDBRANCH  15  16
ENDBRANCH  13  14
ENDBRANCH  12  13
ENDBRANCH  11  12
BRANCH   1  28
HETATM   28  C2  UNL     1      28.176  40.979  -1.055  1.00  0.00     0.036 C 
HETATM   29  C1  UNL     1      27.305  39.821  -0.754  1.00  0.00     0.008 C 
ENDBRANCH   1  28
BRANCH   1  30
HETATM   30  C4  UNL     1      26.712  41.623  -2.859  1.00  0.00     0.141 C 
BRANCH  30  31
HETATM   31  O1  UNL     1      25.766  42.325  -2.308  1.00  0.00    -0.348 OA
ATOM     32  H1  UNL     1      24.866  42.147  -2.554  1.00  0.00     0.219 HD
ENDBRANCH  30  31
BRANCH  30  33
HETATM   33  N1  UNL     1      26.283  40.845  -3.951  1.00  0.00    -0.371 N 
ATOM     34  H1  UNL     1      26.855  40.747  -4.790  1.00  0.00     0.161 HD
BRANCH  33  35
HETATM   35  C5  UNL     1      24.954  40.167  -3.831  1.00  0.00     0.149 C 
BRANCH  35  36
HETATM   36  C6  UNL     1      25.108  38.742  -3.477  1.00  0.00     0.255 C 
BRANCH  36  37
HETATM   37  N2  UNL     1      23.986  38.025  -2.993  1.00  0.00    -0.077 N 
HETATM   38  C7  UNL     1      24.428  37.089  -1.963  1.00  0.00     0.271 C 
HETATM   39  C8  UNL     1      23.500  37.187  -4.139  1.00  0.00     0.271 C 
HETATM   40  C9  UNL     1      22.886  38.775  -2.488  1.00  0.00     0.271 C 
ENDBRANCH  36  37
ENDBRANCH  35  36
ENDBRANCH  33  35
ENDBRANCH  30  33
ENDBRANCH   1  30
BRANCH   4  41
HETATM   41  C11 UNL     1      30.340  39.264  -2.630  1.00  0.00     0.274 C 
HETATM   42  O2  UNL     1      30.678  38.945  -1.433  1.00  0.00    -0.266 OA
HETATM   43  N4  UNL     1      30.198  38.093  -3.430  1.00  0.00    -0.341 N 
ATOM     44  H4  UNL     1      29.966  38.190  -4.418  1.00  0.00     0.163 HD
BRANCH  43  45
HETATM   45  C12 UNL     1      30.377  36.762  -2.867  1.00  0.00     0.197 C 
BRANCH  45  46
HETATM   46  C13 UNL     1      29.169  36.260  -2.141  1.00  0.00     0.198 C 
BRANCH  46  47
HETATM   47  O3  UNL     1      27.959  36.802  -2.467  1.00  0.00    -0.398 OA
ATOM     48  H3  UNL     1      27.318  36.906  -1.773  1.00  0.00     0.209 HD
ENDBRANCH  46  47
ENDBRANCH  45  46
BRANCH  45  49
HETATM   49  C14 UNL     1      30.613  35.762  -3.965  1.00  0.00     0.256 C 
HETATM   50  N5  UNL     1      30.589  34.390  -3.634  1.00  0.00    -0.060 NA
HETATM   51  O4  UNL     1      30.845  36.100  -5.165  1.00  0.00    -0.274 OA
ENDBRANCH  45  49
ENDBRANCH  43  45
ENDBRANCH   4  41
TORSDOF 22
ENDMDL
MODEL 4
REMARK VINA RESULT: -6.677632924      0.682      1.288
REMARK  22 active torsions:
REMARK  status: ('A' for Active; 'I' for Inactive)
REMARK    1  A    between atoms: C2_2  and  C3_3 
REMARK    2  A    between atoms: C3_3  and  C4_4 
REMARK    3  A    between atoms: C4_4  and  O1_5 
REMARK    4  A    between atoms: C4_4  and  N1_7 
REMARK    5  A    between atoms: N1_7  and  C5_9 
REMARK    6  A    between atoms: C5_9  and  C6_10 
REMARK    7  A    between atoms: C6_10  and  N2_11 
REMARK    8  A    between atoms: C10_17  and  C11_18 
REMARK       I    between atoms: C11_18  and  N4_20 
REMARK    9  A    between atoms: N4_20  and  C12_22 
REMARK   10  A    between atoms: C12_22  and  C13_23 
REMARK   11  A    between atoms: C12_22  and  C14_26 
REMARK   12  A    between atoms: C13_23  and  O3_24 
REMARK   13  A    between atoms: C17_35  and  C18_36 
REMARK   14  A    between atoms: C18_36  and  C19_37 
REMARK   15  A    between atoms: C19_37  and  C20_38 
REMARK   16  A    between atoms: C21_39  and  C22_40 
REMARK   17  A    between atoms: C23_41  and  C24_42 
REMARK   18  A    between atoms: C25_43  and  C26_44 
REMARK   19  A    between atoms: C26_44  and  C27_45 
REMARK   20  A    between atoms: C27_45  and  C28_46 
REMARK   21  A    between atoms: C28_46  and  C29_47 
REMARK   22  A    between atoms: C29_47  and  N7_48 
ROOT
HETATM    1  C3  UNL     1      28.311  42.379  -2.456  1.00  0.00     0.108 C 
HETATM    2  N3  UNL     1      29.140  41.740  -3.475  1.00  0.00    -0.363 N 
ATOM      3  H3  UNL     1      28.891  41.792  -4.463  1.00  0.00     0.161 HD
HETATM    4  C10 UNL     1      30.302  41.043  -3.048  1.00  0.00     0.166 C 
HETATM    5  C15 UNL     1      31.362  41.917  -2.520  1.00  0.00     0.280 C 
HETATM    6  O5  UNL     1      32.350  41.453  -1.957  1.00  0.00    -0.265 OA
HETATM    7  N6  UNL     1      31.259  43.366  -2.659  1.00  0.00    -0.292 N 
ATOM      8  H6  UNL     1      32.132  43.891  -2.600  1.00  0.00     0.172 HD
HETATM    9  C16 UNL     1      30.086  44.122  -2.865  1.00  0.00     0.232 C 
HETATM   10  O6  UNL     1      30.165  45.132  -3.611  1.00  0.00    -0.273 OA
HETATM   11  C17 UNL     1      28.733  43.814  -2.241  1.00  0.00     0.125 C 
ENDROOT
BRANCH  11  12
HETATM   12  C18 UNL     1      28.780  44.405  -0.953  1.00  0.00     0.102 C 
BRANCH  12  13
HETATM   13  C19 UNL     1      29.049  45.373  -0.302  1.00  0.00    -0.155 C 
BRANCH  13  14
HETATM   14  C20 UNL     1      29.275  46.576   0.473  1.00  0.00     0.050 C 
HETATM   15  C21 UNL     1      30.090  46.436   1.570  1.00  0.00     0.008 C 
BRANCH  15  16
HETATM   16  C22 UNL     1      30.439  47.488   2.481  1.00  0.00     0.001 C 
HETATM   17  C23 UNL     1      31.725  47.791   2.753  1.00  0.00    -0.000 C 
BRANCH  17  18
HETATM   18  C24 UNL     1      32.791  47.041   2.116  1.00  0.00    -0.004 C 
HETATM   19  C25 UNL     1      33.430  47.285   1.078  1.00  0.00    -0.027 C 
BRANCH  19  20
HETATM   20  C26 UNL     1      33.440  48.341   0.063  1.00  0.00     0.027 C 
BRANCH  20  21
HETATM   21  C27 UNL     1      32.369  48.027  -0.951  1.00  0.00     0.005 C 
BRANCH  21  22
HETATM   22  C28 UNL     1      32.733  47.129  -2.063  1.00  0.00     0.028 C 
BRANCH  22  23
HETATM   23  C29 UNL     1      34.194  47.248  -2.441  1.00  0.00     0.236 C 
BRANCH  23  24
HETATM   24  N7  UNL     1      34.739  45.989  -2.899  1.00  0.00    -0.079 N 
HETATM   25  C30 UNL     1      36.167  46.100  -3.114  1.00  0.00     0.271 C 
HETATM   26  C31 UNL     1      34.136  45.563  -4.129  1.00  0.00     0.271 C 
HETATM   27  C32 UNL     1      34.544  44.907  -1.916  1.00  0.00     0.271 C 
ENDBRANCH  23  24
ENDBRANCH  22  23
ENDBRANCH  21  22
ENDBRANCH  20  21
ENDBRANCH  19  20
ENDBRANCH  17  18
ENDBRANCH  15  16
ENDBRANCH  13  14
ENDBRANCH  12  13
ENDBRANCH  11  12
BRANCH   1  28
HETATM   28  C2  UNL     1      28.212  41.612  -1.221  1.00  0.00     0.036 C 
HETATM   29  C1  UNL     1      27.187  40.561  -1.032  1.00  0.00     0.008 C 
ENDBRANCH   1  28
BRANCH   1  30
HETATM   30  C4  UNL     1      27.007  42.451  -3.134  1.00  0.00     0.141 C 
BRANCH  30  31
HETATM   31  O1  UNL     1      26.046  43.116  -2.564  1.00  0.00    -0.348 OA
ATOM     32  H1  UNL     1      25.257  42.650  -2.313  1.00  0.00     0.219 HD
ENDBRANCH  30  31
BRANCH  30  33
HETATM   33  N1  UNL     1      26.650  41.876  -4.368  1.00  0.00    -0.371 N 
ATOM     34  H1  UNL     1      27.319  41.808  -5.136  1.00  0.00     0.161 HD
BRANCH  33  35
HETATM   35  C5  UNL     1      25.249  41.367  -4.508  1.00  0.00     0.149 C 
BRANCH  35  36
HETATM   36  C6  UNL     1      25.140  39.965  -4.060  1.00  0.00     0.255 C 
BRANCH  36  37
HETATM   37  N2  UNL     1      23.932  39.520  -3.467  1.00  0.00    -0.077 N 
HETATM   38  C7  UNL     1      23.462  40.536  -2.529  1.00  0.00     0.271 C 
HETATM   39  C8  UNL     1      24.290  38.320  -2.640  1.00  0.00     0.271 C 
HETATM   40  C9  UNL     1      22.859  39.165  -4.333  1.00  0.00     0.271 C 
ENDBRANCH  36  37
ENDBRANCH  35  36
ENDBRANCH  33  35
ENDBRANCH  30  33
ENDBRANCH   1  30
BRANCH   4  41
HETATM   41  C11 UNL     1      30.305  39.684  -2.636  1.00  0.00     0.274 C 
HETATM   42  O2  UNL     1      30.476  39.309  -1.420  1.00  0.00    -0.266 OA
HETATM   43  N4  UNL     1      30.121  38.550  -3.479  1.00  0.00    -0.341 N 
ATOM     44  H4  UNL     1      30.008  38.688  -4.483  1.00  0.00     0.163 HD
BRANCH  43  45
HETATM   45  C12 UNL     1      30.093  37.198  -2.940  1.00  0.00     0.197 C 
BRANCH  45  46
HETATM   46  C13 UNL     1      28.727  36.764  -2.508  1.00  0.00     0.198 C 
BRANCH  46  47
HETATM   47  O3  UNL     1      27.652  37.387  -3.074  1.00  0.00    -0.398 OA
ATOM     48  H3  UNL     1      26.805  37.277  -2.656  1.00  0.00     0.209 HD
ENDBRANCH  46  47
ENDBRANCH  45  46
BRANCH  45  49
HETATM   49  C14 UNL     1      30.499  36.208  -3.997  1.00  0.00     0.256 C 
HETATM   50  N5  UNL     1      30.815  34.893  -3.592  1.00  0.00    -0.060 NA
HETATM   51  O4  UNL     1      30.580  36.509  -5.225  1.00  0.00    -0.274 OA
ENDBRANCH  45  49
ENDBRANCH  43  45
ENDBRANCH   4  41
TORSDOF 22
ENDMDL
MODEL 5
REMARK VINA RESULT: -6.586151573      1.516      2.446
REMARK  22 active torsions:
REMARK  status: ('A' for Active; 'I' for Inactive)
REMARK    1  A    between atoms: C2_2  and  C3_3 
REMARK    2  A    between atoms: C3_3  and  C4_4 
REMARK    3  A    between atoms: C4_4  and  O1_5 
REMARK    4  A    between atoms: C4_4  and  N1_7 
REMARK    5  A    between atoms: N1_7  and  C5_9 
REMARK    6  A    between atoms: C5_9  and  C6_10 
REMARK    7  A    between atoms: C6_10  and  N2_11 
REMARK    8  A    between atoms: C10_17  and  C11_18 
REMARK       I    between atoms: C11_18  and  N4_20 
REMARK    9  A    between atoms: N4_20  and  C12_22 
REMARK   10  A    between atoms: C12_22  and  C13_23 
REMARK   11  A    between atoms: C12_22  and  C14_26 
REMARK   12  A    between atoms: C13_23  and  O3_24 
REMARK   13  A    between atoms: C17_35  and  C18_36 
REMARK   14  A    between atoms: C18_36  and  C19_37 
REMARK   15  A    between atoms: C19_37  and  C20_38 
REMARK   16  A    between atoms: C21_39  and  C22_40 
REMARK   17  A    between atoms: C23_41  and  C24_42 
REMARK   18  A    between atoms: C25_43  and  C26_44 
REMARK   19  A    between atoms: C26_44  and  C27_45 
REMARK   20  A    between atoms: C27_45  and  C28_46 
REMARK   21  A    between atoms: C28_46  and  C29_47 
REMARK   22  A    between atoms: C29_47  and  N7_48 
ROOT
HETATM    1  C3  UNL     1      28.035  42.385  -2.635  1.00  0.00     0.108 C 
HETATM    2  N3  UNL     1      28.928  41.749  -3.600  1.00  0.00    -0.363 N 
ATOM      3  H3  UNL     1      28.712  41.753  -4.598  1.00  0.00     0.161 HD
HETATM    4  C10 UNL     1      30.106  41.127  -3.108  1.00  0.00     0.166 C 
HETATM    5  C15 UNL     1      31.104  42.071  -2.579  1.00  0.00     0.280 C 
HETATM    6  O5  UNL     1      32.093  41.677  -1.966  1.00  0.00    -0.265 OA
HETATM    7  N6  UNL     1      30.938  43.507  -2.777  1.00  0.00    -0.292 N 
ATOM      8  H6  UNL     1      31.782  44.076  -2.710  1.00  0.00     0.172 HD
HETATM    9  C16 UNL     1      29.738  44.196  -3.052  1.00  0.00     0.232 C 
HETATM   10  O6  UNL     1      29.795  45.181  -3.833  1.00  0.00    -0.273 OA
HETATM   11  C17 UNL     1      28.380  43.846  -2.462  1.00  0.00     0.125 C 
ENDROOT
BRANCH  11  12
HETATM   12  C18 UNL     1      28.353  44.486  -1.197  1.00  0.00     0.102 C 
BRANCH  12  13
HETATM   13  C19 UNL     1      28.981  44.869  -0.252  1.00  0.00    -0.155 C 
BRANCH  13  14
HETATM   14  C20 UNL     1      29.793  45.241   0.888  1.00  0.00     0.050 C 
HETATM   15  C21 UNL     1      29.732  46.562   1.260  1.00  0.00     0.008 C 
BRANCH  15  16
HETATM   16  C22 UNL     1      30.458  47.150   2.349  1.00  0.00     0.001 C 
HETATM   17  C23 UNL     1      31.616  47.813   2.152  1.00  0.00    -0.000 C 
BRANCH  17  18
HETATM   18  C24 UNL     1      32.153  47.939   0.810  1.00  0.00    -0.004 C 
HETATM   19  C25 UNL     1      32.982  47.232   0.211  1.00  0.00    -0.027 C 
BRANCH  19  20
HETATM   20  C26 UNL     1      33.768  46.034   0.514  1.00  0.00     0.027 C 
BRANCH  20  21
HETATM   21  C27 UNL     1      33.459  44.993  -0.533  1.00  0.00     0.005 C 
BRANCH  21  22
HETATM   22  C28 UNL     1      33.887  45.276  -1.916  1.00  0.00     0.028 C 
BRANCH  22  23
HETATM   23  C29 UNL     1      35.390  45.209  -2.076  1.00  0.00     0.236 C 
BRANCH  23  24
HETATM   24  N7  UNL     1      35.936  46.441  -2.601  1.00  0.00    -0.079 N 
HETATM   25  C30 UNL     1      36.705  47.130  -1.586  1.00  0.00     0.271 C 
HETATM   26  C31 UNL     1      34.906  47.328  -3.058  1.00  0.00     0.271 C 
HETATM   27  C32 UNL     1      36.850  46.206  -3.734  1.00  0.00     0.271 C 
ENDBRANCH  23  24
ENDBRANCH  22  23
ENDBRANCH  21  22
ENDBRANCH  20  21
ENDBRANCH  19  20
ENDBRANCH  17  18
ENDBRANCH  15  16
ENDBRANCH  13  14
ENDBRANCH  12  13
ENDBRANCH  11  12
BRANCH   1  28
HETATM   28  C2  UNL     1      27.928  41.661  -1.376  1.00  0.00     0.036 C 
HETATM   29  C1  UNL     1      26.873  40.649  -1.140  1.00  0.00     0.008 C 
ENDBRANCH   1  28
BRANCH   1  30
HETATM   30  C4  UNL     1      26.754  42.368  -3.359  1.00  0.00     0.141 C 
BRANCH  30  31
HETATM   31  O1  UNL     1      26.599  41.516  -4.329  1.00  0.00    -0.348 OA
ATOM     32  H1  UNL     1      25.843  41.607  -4.898  1.00  0.00     0.219 HD
ENDBRANCH  30  31
BRANCH  30  33
HETATM   33  N1  UNL     1      25.628  43.182  -3.129  1.00  0.00    -0.371 N 
ATOM     34  H1  UNL     1      25.265  43.331  -2.187  1.00  0.00     0.161 HD
BRANCH  33  35
HETATM   35  C5  UNL     1      24.987  43.819  -4.322  1.00  0.00     0.149 C 
BRANCH  35  36
HETATM   36  C6  UNL     1      25.863  44.847  -4.918  1.00  0.00     0.255 C 
BRANCH  36  37
HETATM   37  N2  UNL     1      26.162  44.783  -6.301  1.00  0.00    -0.077 N 
HETATM   38  C7  UNL     1      25.378  43.711  -6.908  1.00  0.00     0.271 C 
HETATM   39  C8  UNL     1      27.598  44.358  -6.398  1.00  0.00     0.271 C 
HETATM   40  C9  UNL     1      25.991  45.968  -7.072  1.00  0.00     0.271 C 
ENDBRANCH  36  37
ENDBRANCH  35  36
ENDBRANCH  33  35
ENDBRANCH  30  33
ENDBRANCH   1  30
BRANCH   4  41
HETATM   41  C11 UNL     1      30.159  39.785  -2.644  1.00  0.00     0.274 C 
HETATM   42  O2  UNL     1      30.306  39.465  -1.409  1.00  0.00    -0.266 OA
HETATM   43  N4  UNL     1      30.058  38.613  -3.448  1.00  0.00    -0.341 N 
ATOM     44  H4  UNL     1      29.973  38.709  -4.459  1.00  0.00     0.163 HD
BRANCH  43  45
HETATM   45  C12 UNL     1      30.075  37.283  -2.857  1.00  0.00     0.197 C 
BRANCH  45  46
HETATM   46  C13 UNL     1      28.729  36.831  -2.382  1.00  0.00     0.198 C 
BRANCH  46  47
HETATM   47  O3  UNL     1      27.630  37.311  -3.034  1.00  0.00    -0.398 OA
ATOM     48  H3  UNL     1      27.763  37.738  -3.872  1.00  0.00     0.209 HD
ENDBRANCH  46  47
ENDBRANCH  45  46
BRANCH  45  49
HETATM   49  C14 UNL     1      30.486  36.264  -3.884  1.00  0.00     0.256 C 
HETATM   50  N5  UNL     1      30.755  34.949  -3.448  1.00  0.00    -0.060 NA
HETATM   51  O4  UNL     1      30.612  36.541  -5.115  1.00  0.00    -0.274 OA
ENDBRANCH  45  49
ENDBRANCH  43  45
ENDBRANCH   4  41
TORSDOF 22
ENDMDL
