MODEL 1
REMARK VINA RESULT: -6.876234646      0.000      0.000
REMARK  19 active torsions:
REMARK  status: ('A' for Active; 'I' for Inactive)
REMARK       I    between atoms: C2_2  and  N1_4 
REMARK    1  A    between atoms: N1_4  and  C3_5 
REMARK    2  A    between atoms: N1_4  and  C19_31 
REMARK    3  A    between atoms: C3_5  and  C4_6 
REMARK    4  A    between atoms: C4_6  and  N2_7 
REMARK    5  A    between atoms: N2_7  and  C5_8 
REMARK    6  A    between atoms: N2_7  and  C7_12 
REMARK    7  A    between atoms: C5_8  and  C6_9 
REMARK    8  A    between atoms: C10_17  and  N5_18 
REMARK    9  A    between atoms: N5_18  and  C11_20 
REMARK   10  A    between atoms: C19_31  and  C20_32 
REMARK       I    between atoms: C20_32  and  N8_34 
REMARK   11  A    between atoms: N8_34  and  C21_36 
REMARK   12  A    between atoms: C21_36  and  C22_37 
REMARK   13  A    between atoms: C22_37  and  C23_38 
REMARK   14  A    between atoms: C23_38  and  C24_39 
REMARK   15  A    between atoms: C24_39  and  N9_40 
REMARK   16  A    between atoms: N9_40  and  C25_41 
REMARK       I    between atoms: N9_40  and  C30_47 
REMARK   17  A    between atoms: C25_41  and  C26_42 
REMARK   18  A    between atoms: C26_42  and  C27_43 
REMARK   19  A    between atoms: C27_43  and  N10_44 
ROOT
HETATM    1  C3  UNL     1      28.334  38.235  -2.826  1.00  0.00     0.146 C 
ENDROOT
BRANCH   1   2
HETATM    2  N1  UNL     1      29.680  38.280  -2.303  1.00  0.00    -0.342 N 
HETATM    3  C2  UNL     1      30.372  37.065  -2.069  1.00  0.00     0.216 C 
HETATM    4  C1  UNL     1      29.716  35.779  -2.346  1.00  0.00     0.117 C 
HETATM    5  O1  UNL     1      31.533  37.085  -1.627  1.00  0.00    -0.274 OA
BRANCH   2   6
HETATM    6  C19 UNL     1      30.398  39.505  -2.052  1.00  0.00     0.228 C 
BRANCH   6   7
HETATM    7  C20 UNL     1      30.266  40.562  -3.038  1.00  0.00     0.235 C 
HETATM    8  O3  UNL     1      30.944  40.409  -4.121  1.00  0.00    -0.272 OA
HETATM    9  N8  UNL     1      29.507  41.738  -2.986  1.00  0.00    -0.360 N 
ATOM     10  H8  UNL     1      28.954  41.893  -2.143  1.00  0.00     0.162 HD
BRANCH   9  11
HETATM   11  C21 UNL     1      29.432  42.737  -3.996  1.00  0.00     0.122 C 
BRANCH  11  12
HETATM   12  C22 UNL     1      28.955  44.090  -3.530  1.00  0.00     0.021 C 
BRANCH  12  13
HETATM   13  C23 UNL     1      30.071  45.112  -3.557  1.00  0.00     0.021 C 
BRANCH  13  14
HETATM   14  C24 UNL     1      30.256  45.737  -2.197  1.00  0.00     0.125 C 
BRANCH  14  15
HETATM   15  N9  UNL     1      30.671  44.712  -1.258  1.00  0.00    -0.356 N 
HETATM   16  C30 UNL     1      29.847  44.309  -0.176  1.00  0.00     0.183 C 
HETATM   17  N11 UNL     1      29.791  43.062   0.207  1.00  0.00    -0.374 N 
HETATM   18  N12 UNL     1      29.042  45.222   0.553  1.00  0.00    -0.064 NA
ATOM     19 2H11 UNL     1      30.369  42.406  -0.317  1.00  0.00     0.158 HD
ATOM     20 1H11 UNL     1      29.198  42.772   0.984  1.00  0.00     0.158 HD
BRANCH  15  21
HETATM   21  C25 UNL     1      31.988  44.096  -1.450  1.00  0.00     0.127 C 
BRANCH  21  22
HETATM   22  C26 UNL     1      33.077  44.852  -0.710  1.00  0.00     0.050 C 
BRANCH  22  23
HETATM   23  C27 UNL     1      34.415  44.508  -1.329  1.00  0.00     0.273 C 
BRANCH  23  24
HETATM   24  N10 UNL     1      34.961  45.718  -1.921  1.00  0.00     0.080 N 
HETATM   25  C28 UNL     1      34.683  46.862  -1.067  1.00  0.00     0.309 C 
HETATM   26  C29 UNL     1      36.395  45.616  -2.159  1.00  0.00     0.309 C 
ENDBRANCH  23  24
ENDBRANCH  22  23
ENDBRANCH  21  22
ENDBRANCH  15  21
ENDBRANCH  14  15
ENDBRANCH  13  14
ENDBRANCH  12  13
ENDBRANCH  11  12
ENDBRANCH   9  11
ENDBRANCH   6   7
ENDBRANCH   2   6
ENDBRANCH   1   2
BRANCH   1  27
HETATM   27  C4  UNL     1      27.262  38.781  -1.954  1.00  0.00     0.143 C 
BRANCH  27  28
HETATM   28  N2  UNL     1      26.163  39.347  -2.689  1.00  0.00    -0.370 N 
BRANCH  28  29
HETATM   29  C5  UNL     1      26.255  40.737  -3.058  1.00  0.00     0.222 C 
BRANCH  29  30
HETATM   30  C6  UNL     1      25.933  41.572  -1.870  1.00  0.00     0.248 C 
HETATM   31  N3  UNL     1      26.986  42.245  -1.164  1.00  0.00    -0.061 NA
HETATM   32  O2  UNL     1      24.786  41.754  -1.404  1.00  0.00    -0.275 OA
ENDBRANCH  29  30
ENDBRANCH  28  29
BRANCH  28  33
HETATM   33  C7  UNL     1      25.008  38.601  -3.018  1.00  0.00     0.048 A 
HETATM   34  C8  UNL     1      24.714  37.413  -2.384  1.00  0.00     0.064 A 
HETATM   35  C9  UNL     1      23.572  36.699  -2.744  1.00  0.00     0.096 A 
HETATM   36  N4  UNL     1      23.043  35.539  -2.299  1.00  0.00    -0.188 N 
HETATM   37  C16 UNL     1      22.748  37.186  -3.728  1.00  0.00     0.150 A 
HETATM   38  C10 UNL     1      21.897  35.267  -2.973  1.00  0.00     0.680 A 
ATOM     39  H4  UNL     1      23.446  34.954  -1.566  1.00  0.00     0.184 HD
HETATM   40  N6  UNL     1      21.740  36.282  -3.836  1.00  0.00    -0.174 N 
ATOM     41  H6  UNL     1      20.963  36.364  -4.490  1.00  0.00     0.186 HD
HETATM   42  N7  UNL     1      23.016  38.342  -4.359  1.00  0.00    -0.343 N 
HETATM   43  C17 UNL     1      22.116  38.816  -5.393  1.00  0.00     0.157 C 
HETATM   44  C18 UNL     1      24.119  39.012  -3.997  1.00  0.00     0.121 A 
BRANCH  38  45
HETATM   45  N5  UNL     1      21.120  34.257  -2.819  1.00  0.00    -0.221 N 
ATOM     46  H5  UNL     1      20.383  34.339  -2.119  1.00  0.00     0.178 HD
BRANCH  45  47
HETATM   47  C11 UNL     1      21.198  33.019  -3.547  1.00  0.00     0.099 C 
HETATM   48  C12 UNL     1      22.572  32.481  -3.751  1.00  0.00     0.026 C 
HETATM   49  C13 UNL     1      22.589  31.800  -5.100  1.00  0.00     0.002 C 
HETATM   50  C14 UNL     1      21.333  32.220  -5.829  1.00  0.00     0.002 C 
HETATM   51  C15 UNL     1      20.530  33.074  -4.905  1.00  0.00     0.026 C 
ENDBRANCH  45  47
ENDBRANCH  38  45
ENDBRANCH  28  33
ENDBRANCH  27  28
ENDBRANCH   1  27
TORSDOF 19
ENDMDL
MODEL 2
REMARK VINA RESULT: -6.786748898      5.429      9.087
REMARK  19 active torsions:
REMARK  status: ('A' for Active; 'I' for Inactive)
REMARK       I    between atoms: C2_2  and  N1_4 
REMARK    1  A    between atoms: N1_4  and  C3_5 
REMARK    2  A    between atoms: N1_4  and  C19_31 
REMARK    3  A    between atoms: C3_5  and  C4_6 
REMARK    4  A    between atoms: C4_6  and  N2_7 
REMARK    5  A    between atoms: N2_7  and  C5_8 
REMARK    6  A    between atoms: N2_7  and  C7_12 
REMARK    7  A    between atoms: C5_8  and  C6_9 
REMARK    8  A    between atoms: C10_17  and  N5_18 
REMARK    9  A    between atoms: N5_18  and  C11_20 
REMARK   10  A    between atoms: C19_31  and  C20_32 
REMARK       I    between atoms: C20_32  and  N8_34 
REMARK   11  A    between atoms: N8_34  and  C21_36 
REMARK   12  A    between atoms: C21_36  and  C22_37 
REMARK   13  A    between atoms: C22_37  and  C23_38 
REMARK   14  A    between atoms: C23_38  and  C24_39 
REMARK   15  A    between atoms: C24_39  and  N9_40 
REMARK   16  A    between atoms: N9_40  and  C25_41 
REMARK       I    between atoms: N9_40  and  C30_47 
REMARK   17  A    between atoms: C25_41  and  C26_42 
REMARK   18  A    between atoms: C26_42  and  C27_43 
REMARK   19  A    between atoms: C27_43  and  N10_44 
ROOT
HETATM    1  C3  UNL     1      32.990  46.815  -1.694  1.00  0.00     0.146 C 
ENDROOT
BRANCH   1   2
HETATM    2  N1  UNL     1      33.988  46.697  -2.732  1.00  0.00    -0.342 N 
HETATM    3  C2  UNL     1      34.978  45.687  -2.628  1.00  0.00     0.216 C 
HETATM    4  C1  UNL     1      34.989  44.784  -1.469  1.00  0.00     0.117 C 
HETATM    5  O1  UNL     1      35.838  45.567  -3.516  1.00  0.00    -0.274 OA
BRANCH   2   6
HETATM    6  C19 UNL     1      34.008  47.519  -3.916  1.00  0.00     0.228 C 
BRANCH   6   7
HETATM    7  C20 UNL     1      34.875  48.683  -3.897  1.00  0.00     0.235 C 
HETATM    8  O3  UNL     1      34.303  49.816  -4.110  1.00  0.00    -0.272 OA
HETATM    9  N8  UNL     1      36.258  48.760  -3.683  1.00  0.00    -0.360 N 
ATOM     10  H8  UNL     1      36.746  47.881  -3.508  1.00  0.00     0.162 HD
BRANCH   9  11
HETATM   11  C21 UNL     1      37.046  49.944  -3.685  1.00  0.00     0.122 C 
BRANCH  11  12
HETATM   12  C22 UNL     1      37.939  50.121  -4.888  1.00  0.00     0.021 C 
BRANCH  12  13
HETATM   13  C23 UNL     1      37.159  50.007  -6.180  1.00  0.00     0.021 C 
BRANCH  13  14
HETATM   14  C24 UNL     1      37.832  49.046  -7.127  1.00  0.00     0.125 C 
BRANCH  14  15
HETATM   15  N9  UNL     1      37.553  47.688  -6.701  1.00  0.00    -0.356 N 
HETATM   16  C30 UNL     1      38.552  46.864  -6.122  1.00  0.00     0.183 C 
HETATM   17  N11 UNL     1      38.273  46.039  -5.150  1.00  0.00    -0.374 N 
HETATM   18  N12 UNL     1      39.903  46.881  -6.557  1.00  0.00    -0.064 NA
ATOM     19 2H11 UNL     1      37.302  46.027  -4.837  1.00  0.00     0.158 HD
ATOM     20 1H11 UNL     1      38.991  45.447  -4.734  1.00  0.00     0.158 HD
BRANCH  15  21
HETATM   21  C25 UNL     1      36.193  47.173  -6.890  1.00  0.00     0.127 C 
BRANCH  21  22
HETATM   22  C26 UNL     1      35.765  47.235  -8.345  1.00  0.00     0.050 C 
BRANCH  22  23
HETATM   23  C27 UNL     1      34.281  47.526  -8.404  1.00  0.00     0.273 C 
BRANCH  23  24
HETATM   24  N10 UNL     1      34.036  48.764  -7.683  1.00  0.00     0.080 N 
HETATM   25  C28 UNL     1      34.296  49.905  -8.546  1.00  0.00     0.309 C 
HETATM   26  C29 UNL     1      32.678  48.838  -7.161  1.00  0.00     0.309 C 
ENDBRANCH  23  24
ENDBRANCH  22  23
ENDBRANCH  21  22
ENDBRANCH  15  21
ENDBRANCH  14  15
ENDBRANCH  13  14
ENDBRANCH  12  13
ENDBRANCH  11  12
ENDBRANCH   9  11
ENDBRANCH   6   7
ENDBRANCH   2   6
ENDBRANCH   1   2
BRANCH   1  27
HETATM   27  C4  UNL     1      31.678  46.166  -1.954  1.00  0.00     0.143 C 
BRANCH  27  28
HETATM   28  N2  UNL     1      31.196  45.391  -0.843  1.00  0.00    -0.370 N 
BRANCH  28  29
HETATM   29  C5  UNL     1      31.512  45.859   0.482  1.00  0.00     0.222 C 
BRANCH  29  30
HETATM   30  C6  UNL     1      30.307  46.509   1.062  1.00  0.00     0.248 C 
HETATM   31  N3  UNL     1      29.732  45.995   2.274  1.00  0.00    -0.061 NA
HETATM   32  O2  UNL     1      29.717  47.501   0.579  1.00  0.00    -0.275 OA
ENDBRANCH  29  30
ENDBRANCH  28  29
BRANCH  28  33
HETATM   33  C7  UNL     1      30.468  44.190  -1.017  1.00  0.00     0.048 A 
HETATM   34  C8  UNL     1      31.104  42.973  -1.128  1.00  0.00     0.064 A 
HETATM   35  C9  UNL     1      30.353  41.813  -1.311  1.00  0.00     0.096 A 
HETATM   36  N4  UNL     1      30.698  40.514  -1.440  1.00  0.00    -0.188 N 
HETATM   37  C16 UNL     1      28.984  41.892  -1.379  1.00  0.00     0.150 A 
HETATM   38  C10 UNL     1      29.583  39.754  -1.589  1.00  0.00     0.680 A 
ATOM     39  H4  UNL     1      31.654  40.157  -1.428  1.00  0.00     0.184 HD
HETATM   40  N6  UNL     1      28.555  40.615  -1.549  1.00  0.00    -0.174 N 
ATOM     41  H6  UNL     1      27.576  40.345  -1.636  1.00  0.00     0.186 HD
HETATM   42  N7  UNL     1      28.343  43.070  -1.273  1.00  0.00    -0.343 N 
HETATM   43  C17 UNL     1      26.896  43.104  -1.351  1.00  0.00     0.157 C 
HETATM   44  C18 UNL     1      29.086  44.172  -1.098  1.00  0.00     0.121 A 
BRANCH  38  45
HETATM   45  N5  UNL     1      29.518  38.480  -1.733  1.00  0.00    -0.221 N 
ATOM     46  H5  UNL     1      28.761  37.995  -1.250  1.00  0.00     0.178 HD
BRANCH  45  47
HETATM   47  C11 UNL     1      30.419  37.677  -2.514  1.00  0.00     0.099 C 
HETATM   48  C12 UNL     1      30.022  37.464  -3.934  1.00  0.00     0.026 C 
HETATM   49  C13 UNL     1      30.474  36.076  -4.321  1.00  0.00     0.002 C 
HETATM   50  C14 UNL     1      30.838  35.351  -3.045  1.00  0.00     0.002 C 
HETATM   51  C15 UNL     1      30.688  36.313  -1.913  1.00  0.00     0.026 C 
ENDBRANCH  45  47
ENDBRANCH  38  45
ENDBRANCH  28  33
ENDBRANCH  27  28
ENDBRANCH   1  27
TORSDOF 19
ENDMDL
MODEL 3
REMARK VINA RESULT: -6.685493841      4.765      7.527
REMARK  19 active torsions:
REMARK  status: ('A' for Active; 'I' for Inactive)
REMARK       I    between atoms: C2_2  and  N1_4 
REMARK    1  A    between atoms: N1_4  and  C3_5 
REMARK    2  A    between atoms: N1_4  and  C19_31 
REMARK    3  A    between atoms: C3_5  and  C4_6 
REMARK    4  A    between atoms: C4_6  and  N2_7 
REMARK    5  A    between atoms: N2_7  and  C5_8 
REMARK    6  A    between atoms: N2_7  and  C7_12 
REMARK    7  A    between atoms: C5_8  and  C6_9 
REMARK    8  A    between atoms: C10_17  and  N5_18 
REMARK    9  A    between atoms: N5_18  and  C11_20 
REMARK   10  A    between atoms: C19_31  and  C20_32 
REMARK       I    between atoms: C20_32  and  N8_34 
REMARK   11  A    between atoms: N8_34  and  C21_36 
REMARK   12  A    between atoms: C21_36  and  C22_37 
REMARK   13  A    between atoms: C22_37  and  C23_38 
REMARK   14  A    between atoms: C23_38  and  C24_39 
REMARK   15  A    between atoms: C24_39  and  N9_40 
REMARK   16  A    between atoms: N9_40  and  C25_41 
REMARK       I    between atoms: N9_40  and  C30_47 
REMARK   17  A    between atoms: C25_41  and  C26_42 
REMARK   18  A    between atoms: C26_42  and  C27_43 
REMARK   19  A    between atoms: C27_43  and  N10_44 
ROOT
HETATM    1  C3  UNL     1      27.770  46.927   0.237  1.00  0.00     0.146 C 
ENDROOT
BRANCH   1   2
HETATM    2  N1  UNL     1      27.140  47.124   1.522  1.00  0.00    -0.342 N 
HETATM    3  C2  UNL     1      25.855  46.570   1.755  1.00  0.00     0.216 C 
HETATM    4  C1  UNL     1      25.175  45.818   0.691  1.00  0.00     0.117 C 
HETATM    5  O1  UNL     1      25.303  46.723   2.857  1.00  0.00    -0.274 OA
BRANCH   2   6
HETATM    6  C19 UNL     1      27.769  47.812   2.622  1.00  0.00     0.228 C 
BRANCH   6   7
HETATM    7  C20 UNL     1      29.211  47.689   2.739  1.00  0.00     0.235 C 
HETATM    8  O3  UNL     1      29.642  46.601   3.274  1.00  0.00    -0.272 OA
HETATM    9  N8  UNL     1      30.215  48.588   2.357  1.00  0.00    -0.360 N 
ATOM     10  H8  UNL     1      29.911  49.462   1.927  1.00  0.00     0.162 HD
BRANCH   9  11
HETATM   11  C21 UNL     1      31.617  48.401   2.511  1.00  0.00     0.122 C 
BRANCH  11  12
HETATM   12  C22 UNL     1      32.391  48.241   1.227  1.00  0.00     0.021 C 
BRANCH  12  13
HETATM   13  C23 UNL     1      32.376  46.806   0.744  1.00  0.00     0.021 C 
BRANCH  13  14
HETATM   14  C24 UNL     1      33.759  46.365   0.338  1.00  0.00     0.125 C 
BRANCH  14  15
HETATM   15  N9  UNL     1      33.713  45.852  -1.018  1.00  0.00    -0.356 N 
HETATM   16  C30 UNL     1      33.529  44.472  -1.291  1.00  0.00     0.183 C 
HETATM   17  N11 UNL     1      32.812  44.070  -2.305  1.00  0.00    -0.374 N 
HETATM   18  N12 UNL     1      34.108  43.452  -0.493  1.00  0.00    -0.064 NA
ATOM     19 2H11 UNL     1      32.396  44.804  -2.879  1.00  0.00     0.158 HD
ATOM     20 1H11 UNL     1      32.679  43.078  -2.501  1.00  0.00     0.158 HD
BRANCH  15  21
HETATM   21  C25 UNL     1      33.871  46.806  -2.121  1.00  0.00     0.127 C 
BRANCH  21  22
HETATM   22  C26 UNL     1      35.332  47.051  -2.449  1.00  0.00     0.050 C 
BRANCH  22  23
HETATM   23  C27 UNL     1      35.700  46.238  -3.672  1.00  0.00     0.273 C 
BRANCH  23  24
HETATM   24  N10 UNL     1      36.881  46.837  -4.271  1.00  0.00     0.080 N 
HETATM   25  C28 UNL     1      37.162  46.213  -5.554  1.00  0.00     0.309 C 
HETATM   26  C29 UNL     1      36.742  48.277  -4.442  1.00  0.00     0.309 C 
ENDBRANCH  23  24
ENDBRANCH  22  23
ENDBRANCH  21  22
ENDBRANCH  15  21
ENDBRANCH  14  15
ENDBRANCH  13  14
ENDBRANCH  12  13
ENDBRANCH  11  12
ENDBRANCH   9  11
ENDBRANCH   6   7
ENDBRANCH   2   6
ENDBRANCH   1   2
BRANCH   1  27
HETATM   27  C4  UNL     1      28.623  45.718   0.091  1.00  0.00     0.143 C 
BRANCH  27  28
HETATM   28  N2  UNL     1      28.434  45.034  -1.159  1.00  0.00    -0.370 N 
BRANCH  28  29
HETATM   29  C5  UNL     1      28.387  45.835  -2.356  1.00  0.00     0.222 C 
BRANCH  29  30
HETATM   30  C6  UNL     1      29.778  46.157  -2.773  1.00  0.00     0.248 C 
HETATM   31  N3  UNL     1      30.333  47.446  -2.470  1.00  0.00    -0.061 NA
HETATM   32  O2  UNL     1      30.545  45.384  -3.389  1.00  0.00    -0.275 OA
ENDBRANCH  29  30
ENDBRANCH  28  29
BRANCH  28  33
HETATM   33  C7  UNL     1      28.260  43.632  -1.236  1.00  0.00     0.048 A 
HETATM   34  C8  UNL     1      29.334  42.771  -1.193  1.00  0.00     0.064 A 
HETATM   35  C9  UNL     1      29.124  41.396  -1.284  1.00  0.00     0.096 A 
HETATM   36  N4  UNL     1      29.966  40.341  -1.262  1.00  0.00    -0.188 N 
HETATM   37  C16 UNL     1      27.846  40.910  -1.415  1.00  0.00     0.150 A 
HETATM   38  C10 UNL     1      29.261  39.186  -1.376  1.00  0.00     0.680 A 
ATOM     39  H4  UNL     1      30.981  40.402  -1.174  1.00  0.00     0.184 HD
HETATM   40  N6  UNL     1      27.977  39.560  -1.469  1.00  0.00    -0.174 N 
ATOM     41  H6  UNL     1      27.196  38.911  -1.567  1.00  0.00     0.186 HD
HETATM   42  N7  UNL     1      26.784  41.733  -1.460  1.00  0.00    -0.343 N 
HETATM   43  C17 UNL     1      25.454  41.174  -1.600  1.00  0.00     0.157 C 
HETATM   44  C18 UNL     1      27.010  43.051  -1.371  1.00  0.00     0.121 A 
BRANCH  38  45
HETATM   45  N5  UNL     1      29.721  37.988  -1.389  1.00  0.00    -0.221 N 
ATOM     46  H5  UNL     1      30.298  37.703  -0.598  1.00  0.00     0.178 HD
BRANCH  45  47
HETATM   47  C11 UNL     1      29.493  37.012  -2.420  1.00  0.00     0.099 C 
HETATM   48  C12 UNL     1      30.007  35.644  -2.133  1.00  0.00     0.026 C 
HETATM   49  C13 UNL     1      30.465  35.054  -3.446  1.00  0.00     0.002 C 
HETATM   50  C14 UNL     1      30.528  36.185  -4.447  1.00  0.00     0.002 C 
HETATM   51  C15 UNL     1      30.038  37.423  -3.772  1.00  0.00     0.026 C 
ENDBRANCH  45  47
ENDBRANCH  38  45
ENDBRANCH  28  33
ENDBRANCH  27  28
ENDBRANCH   1  27
TORSDOF 19
ENDMDL
MODEL 4
REMARK VINA RESULT: -6.647602346      2.836      7.268
REMARK  19 active torsions:
REMARK  status: ('A' for Active; 'I' for Inactive)
REMARK       I    between atoms: C2_2  and  N1_4 
REMARK    1  A    between atoms: N1_4  and  C3_5 
REMARK    2  A    between atoms: N1_4  and  C19_31 
REMARK    3  A    between atoms: C3_5  and  C4_6 
REMARK    4  A    between atoms: C4_6  and  N2_7 
REMARK    5  A    between atoms: N2_7  and  C5_8 
REMARK    6  A    between atoms: N2_7  and  C7_12 
REMARK    7  A    between atoms: C5_8  and  C6_9 
REMARK    8  A    between atoms: C10_17  and  N5_18 
REMARK    9  A    between atoms: N5_18  and  C11_20 
REMARK   10  A    between atoms: C19_31  and  C20_32 
REMARK       I    between atoms: C20_32  and  N8_34 
REMARK   11  A    between atoms: N8_34  and  C21_36 
REMARK   12  A    between atoms: C21_36  and  C22_37 
REMARK   13  A    between atoms: C22_37  and  C23_38 
REMARK   14  A    between atoms: C23_38  and  C24_39 
REMARK   15  A    between atoms: C24_39  and  N9_40 
REMARK   16  A    between atoms: N9_40  and  C25_41 
REMARK       I    between atoms: N9_40  and  C30_47 
REMARK   17  A    between atoms: C25_41  and  C26_42 
REMARK   18  A    between atoms: C26_42  and  C27_43 
REMARK   19  A    between atoms: C27_43  and  N10_44 
ROOT
HETATM    1  C3  UNL     1      28.124  38.051  -2.607  1.00  0.00     0.146 C 
ENDROOT
BRANCH   1   2
HETATM    2  N1  UNL     1      29.468  38.142  -2.085  1.00  0.00    -0.342 N 
HETATM    3  C2  UNL     1      30.276  36.977  -2.051  1.00  0.00     0.216 C 
HETATM    4  C1  UNL     1      29.740  35.695  -2.532  1.00  0.00     0.117 C 
HETATM    5  O1  UNL     1      31.436  37.038  -1.613  1.00  0.00    -0.274 OA
BRANCH   2   6
HETATM    6  C19 UNL     1      30.070  39.374  -1.641  1.00  0.00     0.228 C 
BRANCH   6   7
HETATM    7  C20 UNL     1      30.228  40.426  -2.628  1.00  0.00     0.235 C 
HETATM    8  O3  UNL     1      30.824  40.090  -3.718  1.00  0.00    -0.272 OA
HETATM    9  N8  UNL     1      29.827  41.767  -2.571  1.00  0.00    -0.360 N 
ATOM     10  H8  UNL     1      29.349  42.070  -1.722  1.00  0.00     0.162 HD
BRANCH   9  11
HETATM   11  C21 UNL     1      30.024  42.748  -3.583  1.00  0.00     0.122 C 
BRANCH  11  12
HETATM   12  C22 UNL     1      29.443  44.108  -3.284  1.00  0.00     0.021 C 
BRANCH  12  13
HETATM   13  C23 UNL     1      30.266  44.849  -2.253  1.00  0.00     0.021 C 
BRANCH  13  14
HETATM   14  C24 UNL     1      31.680  45.043  -2.737  1.00  0.00     0.125 C 
BRANCH  14  15
HETATM   15  N9  UNL     1      32.567  45.126  -1.592  1.00  0.00    -0.356 N 
HETATM   16  C30 UNL     1      33.241  43.987  -1.083  1.00  0.00     0.183 C 
HETATM   17  N11 UNL     1      34.460  44.069  -0.623  1.00  0.00    -0.374 N 
HETATM   18  N12 UNL     1      32.642  42.701  -1.036  1.00  0.00    -0.064 NA
ATOM     19 2H11 UNL     1      34.891  44.993  -0.656  1.00  0.00     0.158 HD
ATOM     20 1H11 UNL     1      34.945  43.250  -0.257  1.00  0.00     0.158 HD
BRANCH  15  21
HETATM   21  C25 UNL     1      32.749  46.435  -0.957  1.00  0.00     0.127 C 
BRANCH  21  22
HETATM   22  C26 UNL     1      32.121  46.483   0.424  1.00  0.00     0.050 C 
BRANCH  22  23
HETATM   23  C27 UNL     1      33.186  46.860   1.431  1.00  0.00     0.273 C 
BRANCH  23  24
HETATM   24  N10 UNL     1      32.580  47.734   2.422  1.00  0.00     0.080 N 
HETATM   25  C28 UNL     1      31.148  47.490   2.494  1.00  0.00     0.309 C 
HETATM   26  C29 UNL     1      33.176  47.569   3.741  1.00  0.00     0.309 C 
ENDBRANCH  23  24
ENDBRANCH  22  23
ENDBRANCH  21  22
ENDBRANCH  15  21
ENDBRANCH  14  15
ENDBRANCH  13  14
ENDBRANCH  12  13
ENDBRANCH  11  12
ENDBRANCH   9  11
ENDBRANCH   6   7
ENDBRANCH   2   6
ENDBRANCH   1   2
BRANCH   1  27
HETATM   27  C4  UNL     1      27.031  38.531  -1.721  1.00  0.00     0.143 C 
BRANCH  27  28
HETATM   28  N2  UNL     1      26.103  39.407  -2.383  1.00  0.00    -0.370 N 
BRANCH  28  29
HETATM   29  C5  UNL     1      25.483  38.929  -3.592  1.00  0.00     0.222 C 
BRANCH  29  30
HETATM   30  C6  UNL     1      24.612  37.770  -3.260  1.00  0.00     0.248 C 
HETATM   31  N3  UNL     1      23.426  37.969  -2.475  1.00  0.00    -0.061 NA
HETATM   32  O2  UNL     1      24.820  36.586  -3.610  1.00  0.00    -0.275 OA
ENDBRANCH  29  30
ENDBRANCH  28  29
BRANCH  28  33
HETATM   33  C7  UNL     1      25.820  40.709  -1.907  1.00  0.00     0.048 A 
HETATM   34  C8  UNL     1      26.822  41.548  -1.468  1.00  0.00     0.064 A 
HETATM   35  C9  UNL     1      26.503  42.819  -0.995  1.00  0.00     0.096 A 
HETATM   36  N4  UNL     1      27.258  43.833  -0.521  1.00  0.00    -0.188 N 
HETATM   37  C16 UNL     1      25.191  43.227  -0.970  1.00  0.00     0.150 A 
HETATM   38  C10 UNL     1      26.465  44.884  -0.192  1.00  0.00     0.680 A 
ATOM     39  H4  UNL     1      28.274  43.811  -0.425  1.00  0.00     0.184 HD
HETATM   40  N6  UNL     1      25.215  44.490  -0.472  1.00  0.00    -0.174 N 
ATOM     41  H6  UNL     1      24.386  45.066  -0.331  1.00  0.00     0.186 HD
HETATM   42  N7  UNL     1      24.199  42.423  -1.392  1.00  0.00    -0.343 N 
HETATM   43  C17 UNL     1      22.829  42.897  -1.346  1.00  0.00     0.157 C 
HETATM   44  C18 UNL     1      24.529  41.205  -1.844  1.00  0.00     0.121 A 
BRANCH  38  45
HETATM   45  N5  UNL     1      26.829  46.019   0.284  1.00  0.00    -0.221 N 
ATOM     46  H5  UNL     1      26.883  46.103   1.299  1.00  0.00     0.178 HD
BRANCH  45  47
HETATM   47  C11 UNL     1      27.169  47.183  -0.489  1.00  0.00     0.099 C 
HETATM   48  C12 UNL     1      27.053  47.028  -1.966  1.00  0.00     0.026 C 
HETATM   49  C13 UNL     1      28.146  47.863  -2.590  1.00  0.00     0.002 C 
HETATM   50  C14 UNL     1      29.105  48.243  -1.485  1.00  0.00     0.002 C 
HETATM   51  C15 UNL     1      28.557  47.716  -0.200  1.00  0.00     0.026 C 
ENDBRANCH  45  47
ENDBRANCH  38  45
ENDBRANCH  28  33
ENDBRANCH  27  28
ENDBRANCH   1  27
TORSDOF 19
ENDMDL
MODEL 5
REMARK VINA RESULT: -6.611733428      5.059      9.442
REMARK  19 active torsions:
REMARK  status: ('A' for Active; 'I' for Inactive)
REMARK       I    between atoms: C2_2  and  N1_4 
REMARK    1  A    between atoms: N1_4  and  C3_5 
REMARK    2  A    between atoms: N1_4  and  C19_31 
REMARK    3  A    between atoms: C3_5  and  C4_6 
REMARK    4  A    between atoms: C4_6  and  N2_7 
REMARK    5  A    between atoms: N2_7  and  C5_8 
REMARK    6  A    between atoms: N2_7  and  C7_12 
REMARK    7  A    between atoms: C5_8  and  C6_9 
REMARK    8  A    between atoms: C10_17  and  N5_18 
REMARK    9  A    between atoms: N5_18  and  C11_20 
REMARK   10  A    between atoms: C19_31  and  C20_32 
REMARK       I    between atoms: C20_32  and  N8_34 
REMARK   11  A    between atoms: N8_34  and  C21_36 
REMARK   12  A    between atoms: C21_36  and  C22_37 
REMARK   13  A    between atoms: C22_37  and  C23_38 
REMARK   14  A    between atoms: C23_38  and  C24_39 
REMARK   15  A    between atoms: C24_39  and  N9_40 
REMARK   16  A    between atoms: N9_40  and  C25_41 
REMARK       I    between atoms: N9_40  and  C30_47 
REMARK   17  A    between atoms: C25_41  and  C26_42 
REMARK   18  A    between atoms: C26_42  and  C27_43 
REMARK   19  A    between atoms: C27_43  and  N10_44 
ROOT
HETATM    1  C3  UNL     1      32.106  46.018   0.093  1.00  0.00     0.146 C 
ENDROOT
BRANCH   1   2
HETATM    2  N1  UNL     1      31.349  46.987   0.853  1.00  0.00    -0.342 N 
HETATM    3  C2  UNL     1      31.929  47.561   2.013  1.00  0.00     0.216 C 
HETATM    4  C1  UNL     1      33.279  47.162   2.436  1.00  0.00     0.117 C 
HETATM    5  O1  UNL     1      31.296  48.401   2.673  1.00  0.00    -0.274 OA
BRANCH   2   6
HETATM    6  C19 UNL     1      30.041  47.455   0.470  1.00  0.00     0.228 C 
BRANCH   6   7
HETATM    7  C20 UNL     1      28.955  46.494   0.517  1.00  0.00     0.235 C 
HETATM    8  O3  UNL     1      28.930  45.722   1.546  1.00  0.00    -0.272 OA
HETATM    9  N8  UNL     1      27.920  46.274  -0.402  1.00  0.00    -0.360 N 
ATOM     10  H8  UNL     1      27.906  46.869  -1.231  1.00  0.00     0.162 HD
BRANCH   9  11
HETATM   11  C21 UNL     1      26.888  45.301  -0.291  1.00  0.00     0.122 C 
BRANCH  11  12
HETATM   12  C22 UNL     1      25.522  45.847   0.043  1.00  0.00     0.021 C 
BRANCH  12  13
HETATM   13  C23 UNL     1      25.316  45.950   1.539  1.00  0.00     0.021 C 
BRANCH  13  14
HETATM   14  C24 UNL     1      25.477  47.375   2.004  1.00  0.00     0.125 C 
BRANCH  14  15
HETATM   15  N9  UNL     1      25.532  47.398   3.453  1.00  0.00    -0.356 N 
HETATM   16  C30 UNL     1      26.574  48.058   4.153  1.00  0.00     0.183 C 
HETATM   17  N11 UNL     1      26.344  48.702   5.265  1.00  0.00    -0.374 N 
HETATM   18  N12 UNL     1      27.919  48.059   3.699  1.00  0.00    -0.064 NA
ATOM     19 2H11 UNL     1      25.377  48.702   5.591  1.00  0.00     0.158 HD
ATOM     20 1H11 UNL     1      27.093  49.177   5.768  1.00  0.00     0.158 HD
BRANCH  15  21
HETATM   21  C25 UNL     1      24.471  46.706   4.193  1.00  0.00     0.127 C 
BRANCH  21  22
HETATM   22  C26 UNL     1      23.136  47.416   4.058  1.00  0.00     0.050 C 
BRANCH  22  23
HETATM   23  C27 UNL     1      22.386  47.296   5.367  1.00  0.00     0.273 C 
BRANCH  23  24
HETATM   24  N10 UNL     1      23.171  47.957   6.397  1.00  0.00     0.080 N 
HETATM   25  C28 UNL     1      22.893  49.384   6.399  1.00  0.00     0.309 C 
HETATM   26  C29 UNL     1      22.920  47.403   7.721  1.00  0.00     0.309 C 
ENDBRANCH  23  24
ENDBRANCH  22  23
ENDBRANCH  21  22
ENDBRANCH  15  21
ENDBRANCH  14  15
ENDBRANCH  13  14
ENDBRANCH  12  13
ENDBRANCH  11  12
ENDBRANCH   9  11
ENDBRANCH   6   7
ENDBRANCH   2   6
ENDBRANCH   1   2
BRANCH   1  27
HETATM   27  C4  UNL     1      32.069  46.157  -1.387  1.00  0.00     0.143 C 
BRANCH  27  28
HETATM   28  N2  UNL     1      32.330  44.925  -2.081  1.00  0.00    -0.370 N 
BRANCH  28  29
HETATM   29  C5  UNL     1      33.588  44.804  -2.772  1.00  0.00     0.222 C 
BRANCH  29  30
HETATM   30  C6  UNL     1      34.682  44.718  -1.768  1.00  0.00     0.248 C 
HETATM   31  N3  UNL     1      35.855  45.532  -1.920  1.00  0.00    -0.061 NA
HETATM   32  O2  UNL     1      34.683  43.975  -0.761  1.00  0.00    -0.275 OA
ENDBRANCH  29  30
ENDBRANCH  28  29
BRANCH  28  33
HETATM   33  C7  UNL     1      31.389  43.870  -2.130  1.00  0.00     0.048 A 
HETATM   34  C8  UNL     1      31.693  42.612  -1.656  1.00  0.00     0.064 A 
HETATM   35  C9  UNL     1      30.744  41.595  -1.732  1.00  0.00     0.096 A 
HETATM   36  N4  UNL     1      30.761  40.300  -1.350  1.00  0.00    -0.188 N 
HETATM   37  C16 UNL     1      29.511  41.854  -2.279  1.00  0.00     0.150 A 
HETATM   38  C10 UNL     1      29.568  39.719  -1.637  1.00  0.00     0.680 A 
ATOM     39  H4  UNL     1      31.553  39.829  -0.911  1.00  0.00     0.184 HD
HETATM   40  N6  UNL     1      28.827  40.684  -2.201  1.00  0.00    -0.174 N 
ATOM     41  H6  UNL     1      27.871  40.555  -2.530  1.00  0.00     0.186 HD
HETATM   42  N7  UNL     1      29.194  43.074  -2.747  1.00  0.00    -0.343 N 
HETATM   43  C17 UNL     1      27.879  43.301  -3.316  1.00  0.00     0.157 C 
HETATM   44  C18 UNL     1      30.122  44.037  -2.663  1.00  0.00     0.121 A 
BRANCH  38  45
HETATM   45  N5  UNL     1      29.216  38.505  -1.413  1.00  0.00    -0.221 N 
ATOM     46  H5  UNL     1      28.975  38.260  -0.453  1.00  0.00     0.178 HD
BRANCH  45  47
HETATM   47  C11 UNL     1      29.132  37.460  -2.397  1.00  0.00     0.099 C 
HETATM   48  C12 UNL     1      29.538  36.106  -1.931  1.00  0.00     0.026 C 
HETATM   49  C13 UNL     1      30.192  35.407  -3.100  1.00  0.00     0.002 C 
HETATM   50  C14 UNL     1      30.468  36.458  -4.151  1.00  0.00     0.002 C 
HETATM   51  C15 UNL     1      29.915  37.755  -3.659  1.00  0.00     0.026 C 
ENDBRANCH  45  47
ENDBRANCH  38  45
ENDBRANCH  28  33
ENDBRANCH  27  28
ENDBRANCH   1  27
TORSDOF 19
ENDMDL
