MODEL 1
REMARK VINA RESULT: -7.081442675      0.000      0.000
REMARK  21 active torsions:
REMARK  status: ('A' for Active; 'I' for Inactive)
REMARK    1  A    between atoms: C2_2  and  C3_3 
REMARK    2  A    between atoms: C3_3  and  N1_4 
REMARK       I    between atoms: N1_4  and  C4_6 
REMARK    3  A    between atoms: C4_6  and  C5_8 
REMARK    4  A    between atoms: C5_8  and  C6_9 
REMARK    5  A    between atoms: C5_8  and  N5_17 
REMARK    6  A    between atoms: C6_9  and  C7_10 
REMARK    7  A    between atoms: C7_10  and  C8_11 
REMARK    8  A    between atoms: C8_11  and  N2_12 
REMARK       I    between atoms: N5_17  and  C11_19 
REMARK    9  A    between atoms: C11_19  and  C12_21 
REMARK   10  A    between atoms: C12_21  and  C13_22 
REMARK   11  A    between atoms: C13_22  and  C14_23 
REMARK   12  A    between atoms: C14_23  and  C15_24 
REMARK   13  A    between atoms: C14_23  and  N6_28 
REMARK   14  A    between atoms: C16_25  and  C17_26 
REMARK   15  A    between atoms: N6_28  and  S1_30 
REMARK   16  A    between atoms: S1_30  and  N7_33 
REMARK   17  A    between atoms: N7_33  and  C20_35 
REMARK   18  A    between atoms: C25_40  and  C26_41 
REMARK   19  A    between atoms: C26_41  and  C27_42 
REMARK   20  A    between atoms: C27_42  and  C28_43 
REMARK   21  A    between atoms: C28_43  and  N8_44 
ROOT
HETATM    1  C14 UNL     1      29.839  42.768  -1.000  1.00  0.00     0.177 C 
ENDROOT
BRANCH   1   2
HETATM    2  C13 UNL     1      31.119  42.126  -1.165  1.00  0.00     0.012 C 
BRANCH   2   3
HETATM    3  C12 UNL     1      32.312  42.619  -1.826  1.00  0.00     0.073 C 
BRANCH   3   4
HETATM    4  C11 UNL     1      33.266  43.529  -1.205  1.00  0.00     0.243 C 
HETATM    5  N5  UNL     1      33.235  44.934  -1.542  1.00  0.00    -0.340 N 
HETATM    6  C10 UNL     1      32.298  45.372  -2.544  1.00  0.00     0.154 C 
HETATM    7  O2  UNL     1      34.145  43.218  -0.365  1.00  0.00    -0.268 OA
BRANCH   5   8
HETATM    8  C5  UNL     1      34.152  45.857  -0.917  1.00  0.00     0.179 C 
BRANCH   8   9
HETATM    9  C4  UNL     1      35.041  46.497  -1.884  1.00  0.00     0.240 C 
HETATM   10  N1  UNL     1      35.811  45.698  -2.780  1.00  0.00    -0.356 N 
ATOM     11  H1  UNL     1      35.728  44.683  -2.732  1.00  0.00     0.162 HD
HETATM   12  O1  UNL     1      35.138  47.742  -1.937  1.00  0.00    -0.271 OA
BRANCH  10  13
HETATM   13  C3  UNL     1      36.700  46.277  -3.747  1.00  0.00     0.149 C 
BRANCH  13  14
HETATM   14  C2  UNL     1      36.081  46.435  -5.054  1.00  0.00    -0.018 C 
HETATM   15  C1  UNL     1      34.952  45.915  -5.454  1.00  0.00     0.008 C 
ENDBRANCH  13  14
ENDBRANCH  10  13
ENDBRANCH   8   9
BRANCH   8  16
HETATM   16  C6  UNL     1      33.533  46.811   0.048  1.00  0.00     0.037 C 
BRANCH  16  17
HETATM   17  C7  UNL     1      33.911  46.655   1.480  1.00  0.00     0.022 C 
BRANCH  17  18
HETATM   18  C8  UNL     1      34.860  47.817   1.836  1.00  0.00     0.122 C 
BRANCH  18  19
HETATM   19  N2  UNL     1      36.151  47.613   1.257  1.00  0.00    -0.367 N 
HETATM   20  C9  UNL     1      36.820  48.609   0.813  1.00  0.00     0.196 C 
HETATM   21  N3  UNL     1      38.117  48.379   0.235  1.00  0.00    -0.067 NA
HETATM   22  N4  UNL     1      36.280  49.917   0.896  1.00  0.00    -0.067 NA
ATOM     23  H2  UNL     1      36.540  46.672   1.197  1.00  0.00     0.161 HD
ENDBRANCH  18  19
ENDBRANCH  17  18
ENDBRANCH  16  17
ENDBRANCH   8  16
ENDBRANCH   5   8
ENDBRANCH   3   4
ENDBRANCH   2   3
ENDBRANCH   1   2
BRANCH   1  24
HETATM   24  C15 UNL     1      29.825  43.961  -0.149  1.00  0.00    -0.082 C 
HETATM   25  C16 UNL     1      29.878  44.970   0.557  1.00  0.00    -0.105 C 
BRANCH  25  26
HETATM   26  C17 UNL     1      29.935  46.154   1.412  1.00  0.00     0.089 C 
HETATM   27  C18 UNL     1      29.854  47.428   0.603  1.00  0.00     0.018 C 
ENDBRANCH  25  26
ENDBRANCH   1  24
BRANCH   1  28
HETATM   28  N6  UNL     1      29.024  43.004  -2.168  1.00  0.00    -0.178 NA
HETATM   29  C19 UNL     1      29.687  42.885  -3.425  1.00  0.00     0.133 C 
BRANCH  28  30
HETATM   30  S1  UNL     1      27.745  41.820  -2.178  1.00  0.00     0.300 S 
HETATM   31  O3  UNL     1      26.861  42.012  -0.973  1.00  0.00    -0.188 OA
HETATM   32  O4  UNL     1      26.923  42.052  -3.408  1.00  0.00    -0.188 OA
BRANCH  30  33
HETATM   33  N7  UNL     1      28.410  40.256  -2.250  1.00  0.00    -0.302 N 
ATOM     34  H7  UNL     1      29.166  40.008  -2.887  1.00  0.00     0.173 HD
BRANCH  33  35
HETATM   35  C20 UNL     1      27.823  39.320  -1.346  1.00  0.00     0.098 C 
HETATM   36  C21 UNL     1      28.890  38.943  -0.310  1.00  0.00     0.026 C 
HETATM   37  C22 UNL     1      29.963  38.072  -0.859  1.00  0.00     0.002 C 
HETATM   38  C23 UNL     1      29.919  37.818  -2.325  1.00  0.00     0.001 C 
HETATM   39  C24 UNL     1      28.572  37.534  -2.897  1.00  0.00     0.007 C 
HETATM   40  C25 UNL     1      27.435  38.070  -2.048  1.00  0.00     0.009 C 
BRANCH  40  41
HETATM   41  C26 UNL     1      26.201  38.102  -2.865  1.00  0.00     0.008 C 
BRANCH  41  42
HETATM   42  C27 UNL     1      25.122  39.029  -2.431  1.00  0.00     0.020 C 
BRANCH  42  43
HETATM   43  C28 UNL     1      23.813  38.453  -2.997  1.00  0.00     0.122 C 
BRANCH  43  44
HETATM   44  N8  UNL     1      22.920  38.074  -1.937  1.00  0.00    -0.367 N 
HETATM   45  C29 UNL     1      22.775  36.921  -1.433  1.00  0.00     0.196 C 
HETATM   46  N9  UNL     1      21.824  36.772  -0.378  1.00  0.00    -0.067 NA
HETATM   47  N10 UNL     1      23.507  35.785  -1.867  1.00  0.00    -0.067 NA
ATOM     48  H8  UNL     1      22.339  38.815  -1.546  1.00  0.00     0.161 HD
ENDBRANCH  43  44
ENDBRANCH  42  43
ENDBRANCH  41  42
ENDBRANCH  40  41
ENDBRANCH  33  35
ENDBRANCH  30  33
ENDBRANCH  28  30
ENDBRANCH   1  28
TORSDOF 21
ENDMDL
MODEL 2
REMARK VINA RESULT: -7.013538410      2.521      3.458
REMARK  21 active torsions:
REMARK  status: ('A' for Active; 'I' for Inactive)
REMARK    1  A    between atoms: C2_2  and  C3_3 
REMARK    2  A    between atoms: C3_3  and  N1_4 
REMARK       I    between atoms: N1_4  and  C4_6 
REMARK    3  A    between atoms: C4_6  and  C5_8 
REMARK    4  A    between atoms: C5_8  and  C6_9 
REMARK    5  A    between atoms: C5_8  and  N5_17 
REMARK    6  A    between atoms: C6_9  and  C7_10 
REMARK    7  A    between atoms: C7_10  and  C8_11 
REMARK    8  A    between atoms: C8_11  and  N2_12 
REMARK       I    between atoms: N5_17  and  C11_19 
REMARK    9  A    between atoms: C11_19  and  C12_21 
REMARK   10  A    between atoms: C12_21  and  C13_22 
REMARK   11  A    between atoms: C13_22  and  C14_23 
REMARK   12  A    between atoms: C14_23  and  C15_24 
REMARK   13  A    between atoms: C14_23  and  N6_28 
REMARK   14  A    between atoms: C16_25  and  C17_26 
REMARK   15  A    between atoms: N6_28  and  S1_30 
REMARK   16  A    between atoms: S1_30  and  N7_33 
REMARK   17  A    between atoms: N7_33  and  C20_35 
REMARK   18  A    between atoms: C25_40  and  C26_41 
REMARK   19  A    between atoms: C26_41  and  C27_42 
REMARK   20  A    between atoms: C27_42  and  C28_43 
REMARK   21  A    between atoms: C28_43  and  N8_44 
ROOT
HETATM    1  C14 UNL     1      28.436  43.628  -2.063  1.00  0.00     0.177 C 
ENDROOT
BRANCH   1   2
HETATM    2  C13 UNL     1      28.981  44.907  -2.446  1.00  0.00     0.012 C 
BRANCH   2   3
HETATM    3  C12 UNL     1      29.630  45.909  -1.623  1.00  0.00     0.073 C 
BRANCH   3   4
HETATM    4  C11 UNL     1      30.801  45.645  -0.798  1.00  0.00     0.243 C 
HETATM    5  N5  UNL     1      32.058  46.285  -1.119  1.00  0.00    -0.340 N 
HETATM    6  C10 UNL     1      32.119  47.111  -2.297  1.00  0.00     0.154 C 
HETATM    7  O2  UNL     1      30.844  44.900   0.211  1.00  0.00    -0.268 OA
BRANCH   5   8
HETATM    8  C5  UNL     1      33.224  46.059  -0.299  1.00  0.00     0.179 C 
BRANCH   8   9
HETATM    9  C4  UNL     1      34.322  45.455  -1.048  1.00  0.00     0.240 C 
HETATM   10  N1  UNL     1      35.518  46.197  -1.280  1.00  0.00    -0.356 N 
ATOM     11  H1  UNL     1      35.588  47.146  -0.915  1.00  0.00     0.162 HD
HETATM   12  O1  UNL     1      34.230  44.290  -1.492  1.00  0.00    -0.271 OA
BRANCH  10  13
HETATM   13  C3  UNL     1      36.626  45.651  -2.011  1.00  0.00     0.149 C 
BRANCH  13  14
HETATM   14  C2  UNL     1      36.830  46.307  -3.294  1.00  0.00    -0.018 C 
HETATM   15  C1  UNL     1      36.094  46.178  -4.366  1.00  0.00     0.008 C 
ENDBRANCH  13  14
ENDBRANCH  10  13
ENDBRANCH   8   9
BRANCH   8  16
HETATM   16  C6  UNL     1      33.642  47.219   0.542  1.00  0.00     0.037 C 
BRANCH  16  17
HETATM   17  C7  UNL     1      33.573  47.037   2.018  1.00  0.00     0.022 C 
BRANCH  17  18
HETATM   18  C8  UNL     1      32.361  47.842   2.528  1.00  0.00     0.122 C 
BRANCH  18  19
HETATM   19  N2  UNL     1      31.164  47.065   2.445  1.00  0.00    -0.367 N 
HETATM   20  C9  UNL     1      30.025  47.645   2.378  1.00  0.00     0.196 C 
HETATM   21  N3  UNL     1      28.836  46.841   2.295  1.00  0.00    -0.067 NA
HETATM   22  N4  UNL     1      29.951  49.059   2.387  1.00  0.00    -0.067 NA
ATOM     23  H2  UNL     1      31.218  46.046   2.439  1.00  0.00     0.161 HD
ENDBRANCH  18  19
ENDBRANCH  17  18
ENDBRANCH  16  17
ENDBRANCH   8  16
ENDBRANCH   5   8
ENDBRANCH   3   4
ENDBRANCH   2   3
ENDBRANCH   1   2
BRANCH   1  24
HETATM   24  C15 UNL     1      27.065  43.644  -1.547  1.00  0.00    -0.082 C 
HETATM   25  C16 UNL     1      25.925  43.605  -1.079  1.00  0.00    -0.105 C 
BRANCH  25  26
HETATM   26  C17 UNL     1      24.565  43.553  -0.545  1.00  0.00     0.089 C 
HETATM   27  C18 UNL     1      23.696  42.600  -1.332  1.00  0.00     0.018 C 
ENDBRANCH  25  26
ENDBRANCH   1  24
BRANCH   1  28
HETATM   28  N6  UNL     1      28.596  42.508  -2.960  1.00  0.00    -0.178 NA
HETATM   29  C19 UNL     1      28.914  42.832  -4.312  1.00  0.00     0.133 C 
BRANCH  28  30
HETATM   30  S1  UNL     1      29.917  41.533  -2.371  1.00  0.00     0.300 S 
HETATM   31  O3  UNL     1      31.125  41.726  -3.250  1.00  0.00    -0.188 OA
HETATM   32  O4  UNL     1      30.254  42.014  -0.993  1.00  0.00    -0.188 OA
BRANCH  30  33
HETATM   33  N7  UNL     1      29.434  39.905  -2.281  1.00  0.00    -0.302 N 
ATOM     34  H7  UNL     1      29.622  39.233  -3.025  1.00  0.00     0.173 HD
BRANCH  33  35
HETATM   35  C20 UNL     1      28.746  39.555  -1.080  1.00  0.00     0.098 C 
HETATM   36  C21 UNL     1      29.606  38.526  -0.335  1.00  0.00     0.026 C 
HETATM   37  C22 UNL     1      29.613  37.186  -0.980  1.00  0.00     0.002 C 
HETATM   38  C23 UNL     1      28.918  37.083  -2.292  1.00  0.00     0.001 C 
HETATM   39  C24 UNL     1      27.607  37.784  -2.391  1.00  0.00     0.007 C 
HETATM   40  C25 UNL     1      27.445  38.903  -1.381  1.00  0.00     0.009 C 
BRANCH  40  41
HETATM   41  C26 UNL     1      26.328  39.775  -1.805  1.00  0.00     0.008 C 
BRANCH  41  42
HETATM   42  C27 UNL     1      25.831  39.616  -3.198  1.00  0.00     0.020 C 
BRANCH  42  43
HETATM   43  C28 UNL     1      24.318  39.365  -3.085  1.00  0.00     0.122 C 
BRANCH  43  44
HETATM   44  N8  UNL     1      24.047  38.260  -2.208  1.00  0.00    -0.367 N 
HETATM   45  C29 UNL     1      24.038  37.029  -2.507  1.00  0.00     0.196 C 
HETATM   46  N9  UNL     1      23.742  36.095  -1.467  1.00  0.00    -0.067 NA
HETATM   47  N10 UNL     1      24.305  36.544  -3.814  1.00  0.00    -0.067 NA
ATOM     48  H8  UNL     1      23.839  38.492  -1.237  1.00  0.00     0.161 HD
ENDBRANCH  43  44
ENDBRANCH  42  43
ENDBRANCH  41  42
ENDBRANCH  40  41
ENDBRANCH  33  35
ENDBRANCH  30  33
ENDBRANCH  28  30
ENDBRANCH   1  28
TORSDOF 21
ENDMDL
MODEL 3
REMARK VINA RESULT: -6.962502517      1.231      1.581
REMARK  21 active torsions:
REMARK  status: ('A' for Active; 'I' for Inactive)
REMARK    1  A    between atoms: C2_2  and  C3_3 
REMARK    2  A    between atoms: C3_3  and  N1_4 
REMARK       I    between atoms: N1_4  and  C4_6 
REMARK    3  A    between atoms: C4_6  and  C5_8 
REMARK    4  A    between atoms: C5_8  and  C6_9 
REMARK    5  A    between atoms: C5_8  and  N5_17 
REMARK    6  A    between atoms: C6_9  and  C7_10 
REMARK    7  A    between atoms: C7_10  and  C8_11 
REMARK    8  A    between atoms: C8_11  and  N2_12 
REMARK       I    between atoms: N5_17  and  C11_19 
REMARK    9  A    between atoms: C11_19  and  C12_21 
REMARK   10  A    between atoms: C12_21  and  C13_22 
REMARK   11  A    between atoms: C13_22  and  C14_23 
REMARK   12  A    between atoms: C14_23  and  C15_24 
REMARK   13  A    between atoms: C14_23  and  N6_28 
REMARK   14  A    between atoms: C16_25  and  C17_26 
REMARK   15  A    between atoms: N6_28  and  S1_30 
REMARK   16  A    between atoms: S1_30  and  N7_33 
REMARK   17  A    between atoms: N7_33  and  C20_35 
REMARK   18  A    between atoms: C25_40  and  C26_41 
REMARK   19  A    between atoms: C26_41  and  C27_42 
REMARK   20  A    between atoms: C27_42  and  C28_43 
REMARK   21  A    between atoms: C28_43  and  N8_44 
ROOT
HETATM    1  C14 UNL     1      29.892  42.682  -0.990  1.00  0.00     0.177 C 
ENDROOT
BRANCH   1   2
HETATM    2  C13 UNL     1      31.205  42.098  -1.106  1.00  0.00     0.012 C 
BRANCH   2   3
HETATM    3  C12 UNL     1      32.374  42.603  -1.801  1.00  0.00     0.073 C 
BRANCH   3   4
HETATM    4  C11 UNL     1      33.307  43.563  -1.225  1.00  0.00     0.243 C 
HETATM    5  N5  UNL     1      33.241  44.950  -1.627  1.00  0.00    -0.340 N 
HETATM    6  C10 UNL     1      32.292  45.318  -2.645  1.00  0.00     0.154 C 
HETATM    7  O2  UNL     1      34.195  43.313  -0.374  1.00  0.00    -0.268 OA
BRANCH   5   8
HETATM    8  C5  UNL     1      34.137  45.922  -1.048  1.00  0.00     0.179 C 
BRANCH   8   9
HETATM    9  C4  UNL     1      34.928  46.620  -2.058  1.00  0.00     0.240 C 
HETATM   10  N1  UNL     1      35.836  45.889  -2.881  1.00  0.00    -0.356 N 
ATOM     11  H1  UNL     1      35.918  44.881  -2.750  1.00  0.00     0.162 HD
HETATM   12  O1  UNL     1      34.823  47.856  -2.213  1.00  0.00    -0.271 OA
BRANCH  10  13
HETATM   13  C3  UNL     1      36.637  46.525  -3.886  1.00  0.00     0.149 C 
BRANCH  13  14
HETATM   14  C2  UNL     1      36.217  46.186  -5.237  1.00  0.00    -0.018 C 
HETATM   15  C1  UNL     1      34.998  45.943  -5.641  1.00  0.00     0.008 C 
ENDBRANCH  13  14
ENDBRANCH  10  13
ENDBRANCH   8   9
BRANCH   8  16
HETATM   16  C6  UNL     1      33.520  46.832  -0.039  1.00  0.00     0.037 C 
BRANCH  16  17
HETATM   17  C7  UNL     1      33.937  46.645   1.378  1.00  0.00     0.022 C 
BRANCH  17  18
HETATM   18  C8  UNL     1      34.854  47.826   1.750  1.00  0.00     0.122 C 
BRANCH  18  19
HETATM   19  N2  UNL     1      36.180  47.614   1.258  1.00  0.00    -0.367 N 
HETATM   20  C9  UNL     1      36.788  48.548   0.628  1.00  0.00     0.196 C 
HETATM   21  N3  UNL     1      38.120  48.310   0.142  1.00  0.00    -0.067 NA
HETATM   22  N4  UNL     1      36.146  49.793   0.419  1.00  0.00    -0.067 NA
ATOM     23  H2  UNL     1      36.642  46.717   1.408  1.00  0.00     0.161 HD
ENDBRANCH  18  19
ENDBRANCH  17  18
ENDBRANCH  16  17
ENDBRANCH   8  16
ENDBRANCH   5   8
ENDBRANCH   3   4
ENDBRANCH   2   3
ENDBRANCH   1   2
BRANCH   1  24
HETATM   24  C15 UNL     1      29.805  43.906  -0.189  1.00  0.00    -0.082 C 
HETATM   25  C16 UNL     1      29.795  44.932   0.495  1.00  0.00    -0.105 C 
BRANCH  25  26
HETATM   26  C17 UNL     1      29.772  46.138   1.321  1.00  0.00     0.089 C 
HETATM   27  C18 UNL     1      29.852  47.390   0.479  1.00  0.00     0.018 C 
ENDBRANCH  25  26
ENDBRANCH   1  24
BRANCH   1  28
HETATM   28  N6  UNL     1      29.090  42.833  -2.181  1.00  0.00    -0.178 NA
HETATM   29  C19 UNL     1      29.777  42.667  -3.420  1.00  0.00     0.133 C 
BRANCH  28  30
HETATM   30  S1  UNL     1      27.846  41.612  -2.148  1.00  0.00     0.300 S 
HETATM   31  O3  UNL     1      26.994  41.785  -0.917  1.00  0.00    -0.188 OA
HETATM   32  O4  UNL     1      26.982  41.814  -3.353  1.00  0.00    -0.188 OA
BRANCH  30  33
HETATM   33  N7  UNL     1      28.554  40.068  -2.233  1.00  0.00    -0.302 N 
ATOM     34  H7  UNL     1      29.330  39.851  -2.858  1.00  0.00     0.173 HD
BRANCH  33  35
HETATM   35  C20 UNL     1      27.973  39.100  -1.359  1.00  0.00     0.098 C 
HETATM   36  C21 UNL     1      29.036  38.711  -0.323  1.00  0.00     0.026 C 
HETATM   37  C22 UNL     1      30.126  37.871  -0.885  1.00  0.00     0.002 C 
HETATM   38  C23 UNL     1      30.099  37.654  -2.358  1.00  0.00     0.001 C 
HETATM   39  C24 UNL     1      28.761  37.366  -2.949  1.00  0.00     0.007 C 
HETATM   40  C25 UNL     1      27.608  37.863  -2.097  1.00  0.00     0.009 C 
BRANCH  40  41
HETATM   41  C26 UNL     1      26.382  37.900  -2.924  1.00  0.00     0.008 C 
BRANCH  41  42
HETATM   42  C27 UNL     1      25.101  38.202  -2.230  1.00  0.00     0.020 C 
BRANCH  42  43
HETATM   43  C28 UNL     1      24.531  39.455  -2.915  1.00  0.00     0.122 C 
BRANCH  43  44
HETATM   44  N8  UNL     1      24.394  40.534  -1.976  1.00  0.00    -0.367 N 
HETATM   45  C29 UNL     1      23.650  41.553  -2.084  1.00  0.00     0.196 C 
HETATM   46  N9  UNL     1      23.672  42.506  -1.019  1.00  0.00    -0.067 NA
HETATM   47  N10 UNL     1      22.807  41.787  -3.201  1.00  0.00    -0.067 NA
ATOM     48  H8  UNL     1      24.959  40.472  -1.129  1.00  0.00     0.161 HD
ENDBRANCH  43  44
ENDBRANCH  42  43
ENDBRANCH  41  42
ENDBRANCH  40  41
ENDBRANCH  33  35
ENDBRANCH  30  33
ENDBRANCH  28  30
ENDBRANCH   1  28
TORSDOF 21
ENDMDL
MODEL 4
REMARK VINA RESULT: -6.957692302      2.365     10.780
REMARK  21 active torsions:
REMARK  status: ('A' for Active; 'I' for Inactive)
REMARK    1  A    between atoms: C2_2  and  C3_3 
REMARK    2  A    between atoms: C3_3  and  N1_4 
REMARK       I    between atoms: N1_4  and  C4_6 
REMARK    3  A    between atoms: C4_6  and  C5_8 
REMARK    4  A    between atoms: C5_8  and  C6_9 
REMARK    5  A    between atoms: C5_8  and  N5_17 
REMARK    6  A    between atoms: C6_9  and  C7_10 
REMARK    7  A    between atoms: C7_10  and  C8_11 
REMARK    8  A    between atoms: C8_11  and  N2_12 
REMARK       I    between atoms: N5_17  and  C11_19 
REMARK    9  A    between atoms: C11_19  and  C12_21 
REMARK   10  A    between atoms: C12_21  and  C13_22 
REMARK   11  A    between atoms: C13_22  and  C14_23 
REMARK   12  A    between atoms: C14_23  and  C15_24 
REMARK   13  A    between atoms: C14_23  and  N6_28 
REMARK   14  A    between atoms: C16_25  and  C17_26 
REMARK   15  A    between atoms: N6_28  and  S1_30 
REMARK   16  A    between atoms: S1_30  and  N7_33 
REMARK   17  A    between atoms: N7_33  and  C20_35 
REMARK   18  A    between atoms: C25_40  and  C26_41 
REMARK   19  A    between atoms: C26_41  and  C27_42 
REMARK   20  A    between atoms: C27_42  and  C28_43 
REMARK   21  A    between atoms: C28_43  and  N8_44 
ROOT
HETATM    1  C14 UNL     1      30.375  40.350  -1.864  1.00  0.00     0.177 C 
ENDROOT
BRANCH   1   2
HETATM    2  C13 UNL     1      29.300  40.717  -0.976  1.00  0.00     0.012 C 
BRANCH   2   3
HETATM    3  C12 UNL     1      27.926  40.254  -0.960  1.00  0.00     0.073 C 
BRANCH   3   4
HETATM    4  C11 UNL     1      26.838  40.924  -1.659  1.00  0.00     0.243 C 
HETATM    5  N5  UNL     1      26.137  40.231  -2.719  1.00  0.00    -0.340 N 
HETATM    6  C10 UNL     1      26.596  38.919  -3.092  1.00  0.00     0.154 C 
HETATM    7  O2  UNL     1      26.413  42.082  -1.430  1.00  0.00    -0.268 OA
BRANCH   5   8
HETATM    8  C5  UNL     1      25.038  40.866  -3.405  1.00  0.00     0.179 C 
BRANCH   8   9
HETATM    9  C4  UNL     1      25.454  41.499  -4.654  1.00  0.00     0.240 C 
HETATM   10  N1  UNL     1      26.336  42.620  -4.625  1.00  0.00    -0.356 N 
ATOM     11  H1  UNL     1      26.666  42.964  -3.723  1.00  0.00     0.162 HD
HETATM   12  O1  UNL     1      25.046  41.071  -5.756  1.00  0.00    -0.271 OA
BRANCH  10  13
HETATM   13  C3  UNL     1      26.773  43.279  -5.822  1.00  0.00     0.149 C 
BRANCH  13  14
HETATM   14  C2  UNL     1      27.601  44.445  -5.550  1.00  0.00    -0.018 C 
HETATM   15  C1  UNL     1      28.679  44.807  -6.193  1.00  0.00     0.008 C 
ENDBRANCH  13  14
ENDBRANCH  10  13
ENDBRANCH   8   9
BRANCH   8  16
HETATM   16  C6  UNL     1      23.808  40.033  -3.538  1.00  0.00     0.037 C 
BRANCH  16  17
HETATM   17  C7  UNL     1      22.661  40.383  -2.654  1.00  0.00     0.022 C 
BRANCH  17  18
HETATM   18  C8  UNL     1      22.071  39.064  -2.119  1.00  0.00     0.122 C 
BRANCH  18  19
HETATM   19  N2  UNL     1      23.041  38.016  -2.169  1.00  0.00    -0.367 N 
HETATM   20  C9  UNL     1      22.891  36.967  -1.451  1.00  0.00     0.196 C 
HETATM   21  N3  UNL     1      23.882  35.927  -1.519  1.00  0.00    -0.067 NA
HETATM   22  N4  UNL     1      21.761  36.845  -0.605  1.00  0.00    -0.067 NA
ATOM     23  H2  UNL     1      23.855  38.104  -2.777  1.00  0.00     0.161 HD
ENDBRANCH  18  19
ENDBRANCH  17  18
ENDBRANCH  16  17
ENDBRANCH   8  16
ENDBRANCH   5   8
ENDBRANCH   3   4
ENDBRANCH   2   3
ENDBRANCH   1   2
BRANCH   1  24
HETATM   24  C15 UNL     1      30.284  39.015  -2.461  1.00  0.00    -0.082 C 
HETATM   25  C16 UNL     1      30.234  37.916  -3.018  1.00  0.00    -0.105 C 
BRANCH  25  26
HETATM   26  C17 UNL     1      30.152  36.614  -3.678  1.00  0.00     0.089 C 
HETATM   27  C18 UNL     1      30.630  35.502  -2.773  1.00  0.00     0.018 C 
ENDBRANCH  25  26
ENDBRANCH   1  24
BRANCH   1  28
HETATM   28  N6  UNL     1      30.800  41.295  -2.869  1.00  0.00    -0.178 NA
HETATM   29  C19 UNL     1      29.768  41.834  -3.694  1.00  0.00     0.133 C 
BRANCH  28  30
HETATM   30  S1  UNL     1      31.529  42.653  -2.054  1.00  0.00     0.300 S 
HETATM   31  O3  UNL     1      31.990  42.236  -0.681  1.00  0.00    -0.188 OA
HETATM   32  O4  UNL     1      32.728  43.067  -2.849  1.00  0.00    -0.188 OA
BRANCH  30  33
HETATM   33  N7  UNL     1      30.430  43.949  -2.001  1.00  0.00    -0.302 N 
ATOM     34  H7  UNL     1      29.886  44.244  -2.812  1.00  0.00     0.173 HD
BRANCH  33  35
HETATM   35  C20 UNL     1      30.332  44.593  -0.730  1.00  0.00     0.098 C 
HETATM   36  C21 UNL     1      28.883  44.451  -0.248  1.00  0.00     0.026 C 
HETATM   37  C22 UNL     1      27.925  45.305  -1.000  1.00  0.00     0.002 C 
HETATM   38  C23 UNL     1      28.479  46.045  -2.167  1.00  0.00     0.001 C 
HETATM   39  C24 UNL     1      29.810  46.682  -1.962  1.00  0.00     0.007 C 
HETATM   40  C25 UNL     1      30.615  46.047  -0.844  1.00  0.00     0.009 C 
BRANCH  40  41
HETATM   41  C26 UNL     1      32.030  46.457  -0.978  1.00  0.00     0.008 C 
BRANCH  41  42
HETATM   42  C27 UNL     1      32.977  45.991   0.070  1.00  0.00     0.020 C 
BRANCH  42  43
HETATM   43  C28 UNL     1      34.136  45.309  -0.676  1.00  0.00     0.122 C 
BRANCH  43  44
HETATM   44  N8  UNL     1      34.073  45.587  -2.084  1.00  0.00    -0.367 N 
HETATM   45  C29 UNL     1      35.043  45.658  -2.895  1.00  0.00     0.196 C 
HETATM   46  N9  UNL     1      34.745  45.948  -4.262  1.00  0.00    -0.067 NA
HETATM   47  N10 UNL     1      36.395  45.466  -2.509  1.00  0.00    -0.067 NA
ATOM     48  H8  UNL     1      33.144  45.745  -2.474  1.00  0.00     0.161 HD
ENDBRANCH  43  44
ENDBRANCH  42  43
ENDBRANCH  41  42
ENDBRANCH  40  41
ENDBRANCH  33  35
ENDBRANCH  30  33
ENDBRANCH  28  30
ENDBRANCH   1  28
TORSDOF 21
ENDMDL
MODEL 5
REMARK VINA RESULT: -6.897103869      1.910      2.560
REMARK  21 active torsions:
REMARK  status: ('A' for Active; 'I' for Inactive)
REMARK    1  A    between atoms: C2_2  and  C3_3 
REMARK    2  A    between atoms: C3_3  and  N1_4 
REMARK       I    between atoms: N1_4  and  C4_6 
REMARK    3  A    between atoms: C4_6  and  C5_8 
REMARK    4  A    between atoms: C5_8  and  C6_9 
REMARK    5  A    between atoms: C5_8  and  N5_17 
REMARK    6  A    between atoms: C6_9  and  C7_10 
REMARK    7  A    between atoms: C7_10  and  C8_11 
REMARK    8  A    between atoms: C8_11  and  N2_12 
REMARK       I    between atoms: N5_17  and  C11_19 
REMARK    9  A    between atoms: C11_19  and  C12_21 
REMARK   10  A    between atoms: C12_21  and  C13_22 
REMARK   11  A    between atoms: C13_22  and  C14_23 
REMARK   12  A    between atoms: C14_23  and  C15_24 
REMARK   13  A    between atoms: C14_23  and  N6_28 
REMARK   14  A    between atoms: C16_25  and  C17_26 
REMARK   15  A    between atoms: N6_28  and  S1_30 
REMARK   16  A    between atoms: S1_30  and  N7_33 
REMARK   17  A    between atoms: N7_33  and  C20_35 
REMARK   18  A    between atoms: C25_40  and  C26_41 
REMARK   19  A    between atoms: C26_41  and  C27_42 
REMARK   20  A    between atoms: C27_42  and  C28_43 
REMARK   21  A    between atoms: C28_43  and  N8_44 
ROOT
HETATM    1  C14 UNL     1      30.785  43.033  -1.803  1.00  0.00     0.177 C 
ENDROOT
BRANCH   1   2
HETATM    2  C13 UNL     1      31.888  43.523  -2.592  1.00  0.00     0.012 C 
BRANCH   2   3
HETATM    3  C12 UNL     1      32.503  44.837  -2.590  1.00  0.00     0.073 C 
BRANCH   3   4
HETATM    4  C11 UNL     1      33.941  45.058  -2.526  1.00  0.00     0.243 C 
HETATM    5  N5  UNL     1      34.543  46.084  -3.349  1.00  0.00    -0.340 N 
HETATM    6  C10 UNL     1      33.695  46.806  -4.262  1.00  0.00     0.154 C 
HETATM    7  O2  UNL     1      34.754  44.437  -1.798  1.00  0.00    -0.268 OA
BRANCH   5   8
HETATM    8  C5  UNL     1      35.962  46.338  -3.280  1.00  0.00     0.179 C 
BRANCH   8   9
HETATM    9  C4  UNL     1      36.603  46.268  -4.590  1.00  0.00     0.240 C 
HETATM   10  N1  UNL     1      37.622  47.205  -4.934  1.00  0.00    -0.356 N 
ATOM     11  H1  UNL     1      37.889  47.916  -4.253  1.00  0.00     0.162 HD
HETATM   12  O1  UNL     1      36.271  45.394  -5.421  1.00  0.00    -0.271 OA
BRANCH  10  13
HETATM   13  C3  UNL     1      38.283  47.182  -6.208  1.00  0.00     0.149 C 
BRANCH  13  14
HETATM   14  C2  UNL     1      37.749  48.169  -7.135  1.00  0.00    -0.018 C 
HETATM   15  C1  UNL     1      36.649  48.074  -7.833  1.00  0.00     0.008 C 
ENDBRANCH  13  14
ENDBRANCH  10  13
ENDBRANCH   8   9
BRANCH   8  16
HETATM   16  C6  UNL     1      36.353  47.540  -2.487  1.00  0.00     0.037 C 
BRANCH  16  17
HETATM   17  C7  UNL     1      37.075  47.294  -1.208  1.00  0.00     0.022 C 
BRANCH  17  18
HETATM   18  C8  UNL     1      36.218  47.887  -0.072  1.00  0.00     0.122 C 
BRANCH  18  19
HETATM   19  N2  UNL     1      35.199  46.969   0.328  1.00  0.00    -0.367 N 
HETATM   20  C9  UNL     1      33.966  47.307   0.258  1.00  0.00     0.196 C 
HETATM   21  N3  UNL     1      32.959  46.365   0.667  1.00  0.00    -0.067 NA
HETATM   22  N4  UNL     1      33.612  48.594  -0.217  1.00  0.00    -0.067 NA
ATOM     23  H2  UNL     1      35.453  46.043   0.670  1.00  0.00     0.161 HD
ENDBRANCH  18  19
ENDBRANCH  17  18
ENDBRANCH  16  17
ENDBRANCH   8  16
ENDBRANCH   5   8
ENDBRANCH   3   4
ENDBRANCH   2   3
ENDBRANCH   1   2
BRANCH   1  24
HETATM   24  C15 UNL     1      30.136  44.015  -0.931  1.00  0.00    -0.082 C 
HETATM   25  C16 UNL     1      29.543  44.849  -0.242  1.00  0.00    -0.105 C 
BRANCH  25  26
HETATM   26  C17 UNL     1      28.859  45.852   0.571  1.00  0.00     0.089 C 
HETATM   27  C18 UNL     1      29.706  46.286   1.745  1.00  0.00     0.018 C 
ENDBRANCH  25  26
ENDBRANCH   1  24
BRANCH   1  28
HETATM   28  N6  UNL     1      29.778  42.223  -2.444  1.00  0.00    -0.178 NA
HETATM   29  C19 UNL     1      29.103  42.825  -3.548  1.00  0.00     0.133 C 
BRANCH  28  30
HETATM   30  S1  UNL     1      30.556  40.795  -3.072  1.00  0.00     0.300 S 
HETATM   31  O3  UNL     1      30.930  41.010  -4.516  1.00  0.00    -0.188 OA
HETATM   32  O4  UNL     1      31.813  40.582  -2.286  1.00  0.00    -0.188 OA
BRANCH  30  33
HETATM   33  N7  UNL     1      29.542  39.446  -2.860  1.00  0.00    -0.302 N 
ATOM     34  H7  UNL     1      29.606  38.612  -3.443  1.00  0.00     0.173 HD
BRANCH  33  35
HETATM   35  C20 UNL     1      28.594  39.577  -1.800  1.00  0.00     0.098 C 
HETATM   36  C21 UNL     1      29.326  39.288  -0.484  1.00  0.00     0.026 C 
HETATM   37  C22 UNL     1      29.661  37.850  -0.300  1.00  0.00     0.002 C 
HETATM   38  C23 UNL     1      29.369  36.953  -1.451  1.00  0.00     0.001 C 
HETATM   39  C24 UNL     1      28.065  37.177  -2.137  1.00  0.00     0.007 C 
HETATM   40  C25 UNL     1      27.508  38.572  -1.928  1.00  0.00     0.009 C 
BRANCH  40  41
HETATM   41  C26 UNL     1      26.459  38.827  -2.940  1.00  0.00     0.008 C 
BRANCH  41  42
HETATM   42  C27 UNL     1      25.160  39.366  -2.456  1.00  0.00     0.020 C 
BRANCH  42  43
HETATM   43  C28 UNL     1      24.075  38.435  -3.021  1.00  0.00     0.122 C 
BRANCH  43  44
HETATM   44  N8  UNL     1      23.140  38.058  -1.997  1.00  0.00    -0.367 N 
HETATM   45  C29 UNL     1      23.028  36.925  -1.443  1.00  0.00     0.196 C 
HETATM   46  N9  UNL     1      22.022  36.773  -0.439  1.00  0.00    -0.067 NA
HETATM   47  N10 UNL     1      23.848  35.813  -1.771  1.00  0.00    -0.067 NA
ATOM     48  H8  UNL     1      22.495  38.782  -1.682  1.00  0.00     0.161 HD
ENDBRANCH  43  44
ENDBRANCH  42  43
ENDBRANCH  41  42
ENDBRANCH  40  41
ENDBRANCH  33  35
ENDBRANCH  30  33
ENDBRANCH  28  30
ENDBRANCH   1  28
TORSDOF 21
ENDMDL
