MODEL 1
REMARK VINA RESULT: -5.312922682      0.000      0.000
REMARK  2 active torsions:
REMARK  status: ('A' for Active; 'I' for Inactive)
REMARK    1  A    between atoms: O1_2  and  N1_3 
REMARK    2  A    between atoms: C2_5  and  C3_6 
ROOT
HETATM    1  C3  UNL     1      28.493  55.695  43.787  1.00  0.00     0.106 A 
HETATM    2  C4  UNL     1      29.687  56.264  43.823  1.00  0.00     0.139 A 
HETATM    3  N2  UNL     1      29.941  56.857  45.090  1.00  0.00    -0.291 N 
ATOM      4  H2  UNL     1      30.784  57.357  45.374  1.00  0.00     0.183 HD
HETATM    5  N3  UNL     1      28.808  56.620  45.864  1.00  0.00     0.000 NA
HETATM    6  N4  UNL     1      27.918  55.907  45.068  1.00  0.00    -0.184 N 
HETATM    7  N5  UNL     1      26.775  55.518  45.447  1.00  0.00    -0.325 N 
ATOM      8  H51 UNL     1      26.362  55.671  46.367  1.00  0.00     0.178 HD
ATOM      9  H52 UNL     1      26.123  54.996  44.863  1.00  0.00     0.178 HD
ENDROOT
BRANCH   1  10
HETATM   10  C2  UNL     1      27.906  54.990  42.638  1.00  0.00     0.148 C 
HETATM   11  N1  UNL     1      28.661  54.592  41.690  1.00  0.00    -0.276 N 
ATOM     12  H1  UNL     1      29.657  54.789  41.781  1.00  0.00     0.193 HD
BRANCH  11  13
HETATM   13  O1  UNL     1      28.268  53.936  40.578  1.00  0.00    -0.286 OA
HETATM   14  C1  UNL     1      28.504  52.543  40.483  1.00  0.00     0.237 C 
ENDBRANCH  11  13
ENDBRANCH   1  10
TORSDOF 2
ENDMDL
MODEL 2
REMARK VINA RESULT: -4.948973205      0.837      1.862
REMARK  2 active torsions:
REMARK  status: ('A' for Active; 'I' for Inactive)
REMARK    1  A    between atoms: O1_2  and  N1_3 
REMARK    2  A    between atoms: C2_5  and  C3_6 
ROOT
HETATM    1  C3  UNL     1      28.034  55.803  43.885  1.00  0.00     0.106 A 
HETATM    2  C4  UNL     1      26.859  55.761  44.493  1.00  0.00     0.139 A 
HETATM    3  N2  UNL     1      26.965  56.148  45.857  1.00  0.00    -0.291 N 
ATOM      4  H2  UNL     1      26.209  56.199  46.539  1.00  0.00     0.183 HD
HETATM    5  N3  UNL     1      28.309  56.445  46.073  1.00  0.00     0.000 NA
HETATM    6  N4  UNL     1      28.967  56.234  44.865  1.00  0.00    -0.184 N 
HETATM    7  N5  UNL     1      30.208  56.406  44.691  1.00  0.00    -0.325 N 
ATOM      8  H51 UNL     1      30.879  56.715  45.395  1.00  0.00     0.178 HD
ATOM      9  H52 UNL     1      30.691  56.251  43.807  1.00  0.00     0.178 HD
ENDROOT
BRANCH   1  10
HETATM   10  C2  UNL     1      28.292  55.469  42.478  1.00  0.00     0.148 C 
HETATM   11  N1  UNL     1      28.399  54.246  42.130  1.00  0.00    -0.276 N 
ATOM     12  H1  UNL     1      28.296  53.547  42.866  1.00  0.00     0.193 HD
BRANCH  11  13
HETATM   13  O1  UNL     1      28.633  53.787  40.883  1.00  0.00    -0.286 OA
HETATM   14  C1  UNL     1      28.518  52.399  40.628  1.00  0.00     0.237 C 
ENDBRANCH  11  13
ENDBRANCH   1  10
TORSDOF 2
ENDMDL
MODEL 3
REMARK VINA RESULT: -4.386982807      1.434      1.678
REMARK  2 active torsions:
REMARK  status: ('A' for Active; 'I' for Inactive)
REMARK    1  A    between atoms: O1_2  and  N1_3 
REMARK    2  A    between atoms: C2_5  and  C3_6 
ROOT
HETATM    1  C3  UNL     1      28.280  56.010  44.992  1.00  0.00     0.106 A 
HETATM    2  C4  UNL     1      28.929  56.831  45.801  1.00  0.00     0.139 A 
HETATM    3  N2  UNL     1      28.065  57.383  46.785  1.00  0.00    -0.291 N 
ATOM      4  H2  UNL     1      28.318  58.041  47.522  1.00  0.00     0.183 HD
HETATM    5  N3  UNL     1      26.804  56.845  46.540  1.00  0.00     0.000 NA
HETATM    6  N4  UNL     1      26.932  56.002  45.441  1.00  0.00    -0.184 N 
HETATM    7  N5  UNL     1      25.980  55.341  44.935  1.00  0.00    -0.325 N 
ATOM      8  H51 UNL     1      25.012  55.335  45.257  1.00  0.00     0.178 HD
ATOM      9  H52 UNL     1      26.074  54.723  44.129  1.00  0.00     0.178 HD
ENDROOT
BRANCH   1  10
HETATM   10  C2  UNL     1      28.861  55.267  43.866  1.00  0.00     0.148 C 
HETATM   11  N1  UNL     1      28.488  55.534  42.675  1.00  0.00    -0.276 N 
ATOM     12  H1  UNL     1      27.788  56.268  42.565  1.00  0.00     0.193 HD
BRANCH  11  13
HETATM   13  O1  UNL     1      28.929  54.939  41.547  1.00  0.00    -0.286 OA
HETATM   14  C1  UNL     1      28.499  53.623  41.250  1.00  0.00     0.237 C 
ENDBRANCH  11  13
ENDBRANCH   1  10
TORSDOF 2
ENDMDL
MODEL 4
REMARK VINA RESULT: -4.137430927      2.949      4.692
REMARK  2 active torsions:
REMARK  status: ('A' for Active; 'I' for Inactive)
REMARK    1  A    between atoms: O1_2  and  N1_3 
REMARK    2  A    between atoms: C2_5  and  C3_6 
ROOT
HETATM    1  C3  UNL     1      28.287  55.777  44.234  1.00  0.00     0.106 A 
HETATM    2  C4  UNL     1      27.617  55.340  43.181  1.00  0.00     0.139 A 
HETATM    3  N2  UNL     1      28.473  55.148  42.062  1.00  0.00    -0.291 N 
ATOM      4  H2  UNL     1      28.204  54.820  41.135  1.00  0.00     0.183 HD
HETATM    5  N3  UNL     1      29.752  55.498  42.488  1.00  0.00     0.000 NA
HETATM    6  N4  UNL     1      29.642  55.885  43.820  1.00  0.00    -0.184 N 
HETATM    7  N5  UNL     1      30.613  56.271  44.533  1.00  0.00    -0.325 N 
ATOM      8  H51 UNL     1      31.585  56.348  44.236  1.00  0.00     0.178 HD
ATOM      9  H52 UNL     1      30.532  56.555  45.509  1.00  0.00     0.178 HD
ENDROOT
BRANCH   1  10
HETATM   10  C2  UNL     1      27.720  56.081  45.555  1.00  0.00     0.148 C 
HETATM   11  N1  UNL     1      26.456  56.185  45.690  1.00  0.00    -0.276 N 
ATOM     12  H1  UNL     1      25.891  56.047  44.852  1.00  0.00     0.193 HD
BRANCH  11  13
HETATM   13  O1  UNL     1      25.794  56.458  46.833  1.00  0.00    -0.286 OA
HETATM   14  C1  UNL     1      26.284  57.477  47.685  1.00  0.00     0.237 C 
ENDBRANCH  11  13
ENDBRANCH   1  10
TORSDOF 2
ENDMDL
MODEL 5
REMARK VINA RESULT: -3.983014433      1.919      2.829
REMARK  2 active torsions:
REMARK  status: ('A' for Active; 'I' for Inactive)
REMARK    1  A    between atoms: O1_2  and  N1_3 
REMARK    2  A    between atoms: C2_5  and  C3_6 
ROOT
HETATM    1  C3  UNL     1      27.664  56.287  45.558  1.00  0.00     0.106 A 
HETATM    2  C4  UNL     1      26.392  56.042  45.827  1.00  0.00     0.139 A 
HETATM    3  N2  UNL     1      25.939  56.809  46.935  1.00  0.00    -0.291 N 
ATOM      4  H2  UNL     1      25.003  56.804  47.341  1.00  0.00     0.183 HD
HETATM    5  N3  UNL     1      27.029  57.568  47.353  1.00  0.00     0.000 NA
HETATM    6  N4  UNL     1      28.089  57.250  46.511  1.00  0.00    -0.184 N 
HETATM    7  N5  UNL     1      29.246  57.754  46.600  1.00  0.00    -0.325 N 
ATOM      8  H51 UNL     1      29.551  58.445  47.285  1.00  0.00     0.178 HD
ATOM      9  H52 UNL     1      30.023  57.520  45.983  1.00  0.00     0.178 HD
ENDROOT
BRANCH   1  10
HETATM   10  C2  UNL     1      28.454  55.672  44.482  1.00  0.00     0.148 C 
HETATM   11  N1  UNL     1      27.858  55.076  43.524  1.00  0.00    -0.276 N 
ATOM     12  H1  UNL     1      26.839  55.058  43.556  1.00  0.00     0.193 HD
BRANCH  11  13
HETATM   13  O1  UNL     1      28.446  54.469  42.472  1.00  0.00    -0.286 OA
HETATM   14  C1  UNL     1      28.257  55.005  41.174  1.00  0.00     0.237 C 
ENDBRANCH  11  13
ENDBRANCH   1  10
TORSDOF 2
ENDMDL
