MODEL 1
REMARK VINA RESULT: -8.259111664      0.000      0.000
REMARK  12 active torsions:
REMARK  status: ('A' for Active; 'I' for Inactive)
REMARK    1  A    between atoms: C10_10  and  O1_11 
REMARK    2  A    between atoms: C10_10  and  C11_13 
REMARK    3  A    between atoms: C11_13  and  O2_14 
REMARK    4  A    between atoms: C11_13  and  N1_16 
REMARK    5  A    between atoms: N1_16  and  C12_17 
REMARK    6  A    between atoms: N1_16  and  C14_19 
REMARK    7  A    between atoms: C14_19  and  C15_20 
REMARK    8  A    between atoms: C15_20  and  O3_21 
REMARK    9  A    between atoms: C25_32  and  C26_33 
REMARK   10  A    between atoms: C26_33  and  C28_35 
REMARK   11  A    between atoms: C28_35  and  C29_36 
REMARK   12  A    between atoms: C29_36  and  C30_37 
ROOT
HETATM    1  C1  UNL     1      29.900  38.716   4.378  1.00  0.00     0.015 C 
HETATM    2  C2  UNL     1      29.453  39.222   3.311  1.00  0.00    -0.084 C 
HETATM    3  C3  UNL     1      28.535  40.448   3.304  1.00  0.00     0.039 C 
HETATM    4  C4  UNL     1      29.499  41.264   2.509  1.00  0.00     0.003 C 
HETATM    5  C5  UNL     1      29.303  42.678   2.337  1.00  0.00    -0.005 C 
HETATM    6  C6  UNL     1      27.957  43.290   2.313  1.00  0.00     0.006 C 
HETATM    7  C7  UNL     1      28.010  44.448   1.347  1.00  0.00     0.006 C 
HETATM    8  C8  UNL     1      29.244  45.337   1.551  1.00  0.00    -0.003 C 
HETATM    9  C9  UNL     1      29.045  46.436   0.552  1.00  0.00     0.052 C 
HETATM   10  C10 UNL     1      30.205  47.378   0.378  1.00  0.00     0.122 C 
HETATM   11  C16 UNL     1      31.527  46.627   0.533  1.00  0.00     0.047 C 
HETATM   12  C17 UNL     1      31.220  45.182   0.160  1.00  0.00     0.013 C 
HETATM   13  C18 UNL     1      30.541  44.570   1.398  1.00  0.00    -0.036 C 
HETATM   14  C19 UNL     1      31.502  44.757   2.523  1.00  0.00     0.016 C 
HETATM   15  C20 UNL     1      30.160  43.134   1.152  1.00  0.00    -0.002 C 
HETATM   16  C21 UNL     1      31.383  42.270   1.039  1.00  0.00     0.006 C 
HETATM   17  C22 UNL     1      31.044  40.810   0.756  1.00  0.00     0.010 C 
HETATM   18  C23 UNL     1      29.737  40.385   1.289  1.00  0.00    -0.032 C 
HETATM   19  C24 UNL     1      28.704  40.570   0.205  1.00  0.00     0.016 C 
HETATM   20  C25 UNL     1      29.574  39.013   1.861  1.00  0.00     0.026 C 
ENDROOT
BRANCH  10  21
HETATM   21  O1  UNL     1      30.184  47.797  -0.931  1.00  0.00    -0.381 OA
ATOM     22  H1  UNL     1      30.727  47.191  -1.422  1.00  0.00     0.211 HD
ENDBRANCH  10  21
BRANCH  10  23
HETATM   23  C11 UNL     1      30.139  48.522   1.305  1.00  0.00     0.149 C 
BRANCH  23  24
HETATM   24  O2  UNL     1      30.683  48.344   2.490  1.00  0.00    -0.347 OA
ATOM     25  H2  UNL     1      30.647  49.084   3.085  1.00  0.00     0.219 HD
ENDBRANCH  23  24
BRANCH  23  26
HETATM   26  N1  UNL     1      29.589  49.796   1.144  1.00  0.00    -0.361 N 
BRANCH  26  27
HETATM   27  C12 UNL     1      30.527  50.955   1.293  1.00  0.00     0.120 C 
HETATM   28  C13 UNL     1      31.204  51.105  -0.035  1.00  0.00     0.026 C 
ENDBRANCH  26  27
BRANCH  26  29
HETATM   29  C14 UNL     1      28.224  50.124   0.894  1.00  0.00     0.150 C 
BRANCH  29  30
HETATM   30  C15 UNL     1      27.311  49.974   2.077  1.00  0.00     0.183 C 
BRANCH  30  31
HETATM   31  O3  UNL     1      27.515  48.847   2.841  1.00  0.00    -0.399 OA
ATOM     32  H3  UNL     1      27.224  48.908   3.743  1.00  0.00     0.209 HD
ENDBRANCH  30  31
ENDBRANCH  29  30
ENDBRANCH  26  29
ENDBRANCH  23  26
ENDBRANCH  10  23
BRANCH  20  33
HETATM   33  C26 UNL     1      30.412  37.892   1.398  1.00  0.00    -0.006 C 
HETATM   34  C27 UNL     1      31.786  38.054   2.104  1.00  0.00     0.011 C 
BRANCH  33  35
HETATM   35  C28 UNL     1      29.875  36.576   1.899  1.00  0.00     0.037 C 
BRANCH  35  36
HETATM   36  C29 UNL     1      28.528  36.169   1.437  1.00  0.00     0.044 C 
BRANCH  36  37
HETATM   37  C30 UNL     1      27.324  36.373   2.155  1.00  0.00     0.250 C 
HETATM   38  N2  UNL     1      26.893  35.350   3.092  1.00  0.00    -0.058 NA
HETATM   39  O4  UNL     1      26.562  37.349   2.073  1.00  0.00    -0.272 OA
ENDBRANCH  36  37
ENDBRANCH  35  36
ENDBRANCH  33  35
ENDBRANCH  20  33
TORSDOF 12
ENDMDL
MODEL 2
REMARK VINA RESULT: -8.144681061      2.271      9.522
REMARK  12 active torsions:
REMARK  status: ('A' for Active; 'I' for Inactive)
REMARK    1  A    between atoms: C10_10  and  O1_11 
REMARK    2  A    between atoms: C10_10  and  C11_13 
REMARK    3  A    between atoms: C11_13  and  O2_14 
REMARK    4  A    between atoms: C11_13  and  N1_16 
REMARK    5  A    between atoms: N1_16  and  C12_17 
REMARK    6  A    between atoms: N1_16  and  C14_19 
REMARK    7  A    between atoms: C14_19  and  C15_20 
REMARK    8  A    between atoms: C15_20  and  O3_21 
REMARK    9  A    between atoms: C25_32  and  C26_33 
REMARK   10  A    between atoms: C26_33  and  C28_35 
REMARK   11  A    between atoms: C28_35  and  C29_36 
REMARK   12  A    between atoms: C29_36  and  C30_37 
ROOT
HETATM    1  C1  UNL     1      32.736  49.340   1.725  1.00  0.00     0.015 C 
HETATM    2  C2  UNL     1      31.972  48.736   0.920  1.00  0.00    -0.084 C 
HETATM    3  C3  UNL     1      32.332  47.379   0.308  1.00  0.00     0.039 C 
HETATM    4  C4  UNL     1      31.144  46.703   0.909  1.00  0.00     0.003 C 
HETATM    5  C5  UNL     1      31.015  45.272   0.881  1.00  0.00    -0.005 C 
HETATM    6  C6  UNL     1      31.586  44.451  -0.210  1.00  0.00     0.006 C 
HETATM    7  C7  UNL     1      30.652  43.288  -0.429  1.00  0.00     0.006 C 
HETATM    8  C8  UNL     1      30.221  42.614   0.881  1.00  0.00    -0.003 C 
HETATM    9  C9  UNL     1      29.375  41.468   0.418  1.00  0.00     0.052 C 
HETATM   10  C10 UNL     1      28.642  40.719   1.497  1.00  0.00     0.122 C 
HETATM   11  C16 UNL     1      28.205  41.677   2.605  1.00  0.00     0.047 C 
HETATM   12  C17 UNL     1      28.085  43.042   1.939  1.00  0.00     0.013 C 
HETATM   13  C18 UNL     1      29.523  43.575   1.823  1.00  0.00    -0.036 C 
HETATM   14  C19 UNL     1      30.068  43.580   3.211  1.00  0.00     0.016 C 
HETATM   15  C20 UNL     1      29.549  44.923   1.152  1.00  0.00    -0.002 C 
HETATM   16  C21 UNL     1      28.925  45.968   2.031  1.00  0.00     0.006 C 
HETATM   17  C22 UNL     1      28.900  47.345   1.375  1.00  0.00     0.010 C 
HETATM   18  C23 UNL     1      29.995  47.571   0.415  1.00  0.00    -0.032 C 
HETATM   19  C24 UNL     1      29.502  47.189  -0.959  1.00  0.00     0.016 C 
HETATM   20  C25 UNL     1      30.641  48.916   0.322  1.00  0.00     0.026 C 
ENDROOT
BRANCH  10  21
HETATM   21  O1  UNL     1      27.473  40.261   0.940  1.00  0.00    -0.381 OA
ATOM     22  H1  UNL     1      26.793  40.879   1.182  1.00  0.00     0.211 HD
ENDBRANCH  10  21
BRANCH  10  23
HETATM   23  C11 UNL     1      29.440  39.609   2.048  1.00  0.00     0.149 C 
BRANCH  23  24
HETATM   24  O2  UNL     1      30.385  39.127   1.268  1.00  0.00    -0.347 OA
ATOM     25  H2  UNL     1      31.170  38.813   1.702  1.00  0.00     0.219 HD
ENDBRANCH  23  24
BRANCH  23  26
HETATM   26  N1  UNL     1      29.371  38.960   3.283  1.00  0.00    -0.361 N 
BRANCH  26  27
HETATM   27  C12 UNL     1      30.448  39.285   4.272  1.00  0.00     0.120 C 
HETATM   28  C13 UNL     1      29.805  40.163   5.301  1.00  0.00     0.026 C 
ENDBRANCH  26  27
BRANCH  26  29
HETATM   29  C14 UNL     1      28.413  37.989   3.698  1.00  0.00     0.150 C 
BRANCH  29  30
HETATM   30  C15 UNL     1      27.794  37.194   2.584  1.00  0.00     0.183 C 
BRANCH  30  31
HETATM   31  O3  UNL     1      26.576  37.653   2.137  1.00  0.00    -0.399 OA
ATOM     32  H3  UNL     1      26.367  37.441   1.235  1.00  0.00     0.209 HD
ENDBRANCH  30  31
ENDBRANCH  29  30
ENDBRANCH  26  29
ENDBRANCH  23  26
ENDBRANCH  10  23
BRANCH  20  33
HETATM   33  C26 UNL     1      29.898  50.142   0.664  1.00  0.00    -0.006 C 
HETATM   34  C27 UNL     1      30.852  51.330   0.360  1.00  0.00     0.011 C 
BRANCH  33  35
HETATM   35  C28 UNL     1      28.729  50.340  -0.266  1.00  0.00     0.037 C 
BRANCH  35  36
HETATM   36  C29 UNL     1      27.400  50.563   0.348  1.00  0.00     0.044 C 
BRANCH  36  37
HETATM   37  C30 UNL     1      26.160  50.450  -0.329  1.00  0.00     0.250 C 
HETATM   38  N2  UNL     1      26.166  50.384  -1.780  1.00  0.00    -0.058 NA
HETATM   39  O4  UNL     1      25.030  50.408   0.183  1.00  0.00    -0.272 OA
ENDBRANCH  36  37
ENDBRANCH  35  36
ENDBRANCH  33  35
ENDBRANCH  20  33
TORSDOF 12
ENDMDL
MODEL 3
REMARK VINA RESULT: -8.127668795      1.777      9.448
REMARK  12 active torsions:
REMARK  status: ('A' for Active; 'I' for Inactive)
REMARK    1  A    between atoms: C10_10  and  O1_11 
REMARK    2  A    between atoms: C10_10  and  C11_13 
REMARK    3  A    between atoms: C11_13  and  O2_14 
REMARK    4  A    between atoms: C11_13  and  N1_16 
REMARK    5  A    between atoms: N1_16  and  C12_17 
REMARK    6  A    between atoms: N1_16  and  C14_19 
REMARK    7  A    between atoms: C14_19  and  C15_20 
REMARK    8  A    between atoms: C15_20  and  O3_21 
REMARK    9  A    between atoms: C25_32  and  C26_33 
REMARK   10  A    between atoms: C26_33  and  C28_35 
REMARK   11  A    between atoms: C28_35  and  C29_36 
REMARK   12  A    between atoms: C29_36  and  C30_37 
ROOT
HETATM    1  C1  UNL     1      33.329  46.819   0.351  1.00  0.00     0.015 C 
HETATM    2  C2  UNL     1      32.139  46.417   0.489  1.00  0.00    -0.084 C 
HETATM    3  C3  UNL     1      31.612  45.157  -0.203  1.00  0.00     0.039 C 
HETATM    4  C4  UNL     1      31.290  44.484   1.090  1.00  0.00     0.003 C 
HETATM    5  C5  UNL     1      30.936  43.091   1.131  1.00  0.00    -0.005 C 
HETATM    6  C6  UNL     1      30.244  42.421   0.009  1.00  0.00     0.006 C 
HETATM    7  C7  UNL     1      29.324  41.386   0.605  1.00  0.00     0.006 C 
HETATM    8  C8  UNL     1      30.004  40.540   1.690  1.00  0.00    -0.003 C 
HETATM    9  C9  UNL     1      28.942  39.555   2.074  1.00  0.00     0.052 C 
HETATM   10  C10 UNL     1      29.250  38.697   3.271  1.00  0.00     0.122 C 
HETATM   11  C16 UNL     1      30.057  39.488   4.300  1.00  0.00     0.047 C 
HETATM   12  C17 UNL     1      29.701  40.950   4.058  1.00  0.00     0.013 C 
HETATM   13  C18 UNL     1      30.529  41.382   2.836  1.00  0.00    -0.036 C 
HETATM   14  C19 UNL     1      31.952  41.115   3.193  1.00  0.00     0.016 C 
HETATM   15  C20 UNL     1      30.250  42.817   2.472  1.00  0.00    -0.002 C 
HETATM   16  C21 UNL     1      30.782  43.746   3.523  1.00  0.00     0.006 C 
HETATM   17  C22 UNL     1      30.492  45.211   3.211  1.00  0.00     0.010 C 
HETATM   18  C23 UNL     1      30.392  45.508   1.771  1.00  0.00    -0.032 C 
HETATM   19  C24 UNL     1      28.943  45.399   1.367  1.00  0.00     0.016 C 
HETATM   20  C25 UNL     1      30.931  46.796   1.235  1.00  0.00     0.026 C 
ENDROOT
BRANCH  10  21
HETATM   21  O1  UNL     1      28.051  38.429   3.887  1.00  0.00    -0.381 OA
ATOM     22  H1  UNL     1      27.493  38.021   3.236  1.00  0.00     0.211 HD
ENDBRANCH  10  21
BRANCH  10  23
HETATM   23  C11 UNL     1      29.947  37.452   2.901  1.00  0.00     0.149 C 
BRANCH  23  24
HETATM   24  O2  UNL     1      30.619  36.852   3.861  1.00  0.00    -0.347 OA
ATOM     25  H2  UNL     1      31.429  37.268   4.132  1.00  0.00     0.219 HD
ENDBRANCH  23  24
BRANCH  23  26
HETATM   26  N1  UNL     1      30.024  36.777   1.680  1.00  0.00    -0.361 N 
BRANCH  26  27
HETATM   27  C12 UNL     1      31.210  37.081   0.818  1.00  0.00     0.120 C 
HETATM   28  C13 UNL     1      30.653  37.532  -0.498  1.00  0.00     0.026 C 
ENDBRANCH  26  27
BRANCH  26  29
HETATM   29  C14 UNL     1      29.076  35.859   1.139  1.00  0.00     0.150 C 
BRANCH  29  30
HETATM   30  C15 UNL     1      27.909  35.553   2.033  1.00  0.00     0.183 C 
BRANCH  30  31
HETATM   31  O3  UNL     1      26.875  36.460   1.985  1.00  0.00    -0.399 OA
ATOM     32  H3  UNL     1      26.956  37.202   2.572  1.00  0.00     0.209 HD
ENDBRANCH  30  31
ENDBRANCH  29  30
ENDBRANCH  26  29
ENDBRANCH  23  26
ENDBRANCH  10  23
BRANCH  20  33
HETATM   33  C26 UNL     1      30.998  48.002   2.080  1.00  0.00    -0.006 C 
HETATM   34  C27 UNL     1      31.604  49.123   1.192  1.00  0.00     0.011 C 
BRANCH  33  35
HETATM   35  C28 UNL     1      29.617  48.492   2.430  1.00  0.00     0.037 C 
BRANCH  35  36
HETATM   36  C29 UNL     1      28.959  49.416   1.478  1.00  0.00     0.044 C 
BRANCH  36  37
HETATM   37  C30 UNL     1      27.825  49.102   0.689  1.00  0.00     0.250 C 
HETATM   38  N2  UNL     1      28.020  48.353  -0.540  1.00  0.00    -0.058 NA
HETATM   39  O4  UNL     1      26.645  49.406   0.925  1.00  0.00    -0.272 OA
ENDBRANCH  36  37
ENDBRANCH  35  36
ENDBRANCH  33  35
ENDBRANCH  20  33
TORSDOF 12
ENDMDL
MODEL 4
REMARK VINA RESULT: -8.103992716      2.016      2.233
REMARK  12 active torsions:
REMARK  status: ('A' for Active; 'I' for Inactive)
REMARK    1  A    between atoms: C10_10  and  O1_11 
REMARK    2  A    between atoms: C10_10  and  C11_13 
REMARK    3  A    between atoms: C11_13  and  O2_14 
REMARK    4  A    between atoms: C11_13  and  N1_16 
REMARK    5  A    between atoms: N1_16  and  C12_17 
REMARK    6  A    between atoms: N1_16  and  C14_19 
REMARK    7  A    between atoms: C14_19  and  C15_20 
REMARK    8  A    between atoms: C15_20  and  O3_21 
REMARK    9  A    between atoms: C25_32  and  C26_33 
REMARK   10  A    between atoms: C26_33  and  C28_35 
REMARK   11  A    between atoms: C28_35  and  C29_36 
REMARK   12  A    between atoms: C29_36  and  C30_37 
ROOT
HETATM    1  C1  UNL     1      30.245  38.547   3.986  1.00  0.00     0.015 C 
HETATM    2  C2  UNL     1      29.773  39.095   2.951  1.00  0.00    -0.084 C 
HETATM    3  C3  UNL     1      28.770  40.251   3.018  1.00  0.00     0.039 C 
HETATM    4  C4  UNL     1      29.681  41.189   2.297  1.00  0.00     0.003 C 
HETATM    5  C5  UNL     1      29.387  42.594   2.223  1.00  0.00    -0.005 C 
HETATM    6  C6  UNL     1      28.001  43.110   2.223  1.00  0.00     0.006 C 
HETATM    7  C7  UNL     1      27.980  44.334   1.343  1.00  0.00     0.006 C 
HETATM    8  C8  UNL     1      29.146  45.292   1.627  1.00  0.00    -0.003 C 
HETATM    9  C9  UNL     1      28.878  46.443   0.705  1.00  0.00     0.052 C 
HETATM   10  C10 UNL     1      29.970  47.474   0.615  1.00  0.00     0.122 C 
HETATM   11  C16 UNL     1      31.341  46.809   0.735  1.00  0.00     0.047 C 
HETATM   12  C17 UNL     1      31.141  45.376   0.256  1.00  0.00     0.013 C 
HETATM   13  C18 UNL     1      30.496  44.631   1.438  1.00  0.00    -0.036 C 
HETATM   14  C19 UNL     1      31.431  44.803   2.587  1.00  0.00     0.016 C 
HETATM   15  C20 UNL     1      30.220  43.193   1.086  1.00  0.00    -0.002 C 
HETATM   16  C21 UNL     1      31.502  42.427   0.929  1.00  0.00     0.006 C 
HETATM   17  C22 UNL     1      31.270  40.971   0.538  1.00  0.00     0.010 C 
HETATM   18  C23 UNL     1      29.992  40.418   1.021  1.00  0.00    -0.032 C 
HETATM   19  C24 UNL     1      28.959  40.607  -0.062  1.00  0.00     0.016 C 
HETATM   20  C25 UNL     1      29.922  39.000   1.492  1.00  0.00     0.026 C 
ENDROOT
BRANCH  10  21
HETATM   21  O1  UNL     1      29.931  47.983  -0.661  1.00  0.00    -0.381 OA
ATOM     22  H1  UNL     1      30.742  47.726  -1.084  1.00  0.00     0.211 HD
ENDBRANCH  10  21
BRANCH  10  23
HETATM   23  C11 UNL     1      29.814  48.541   1.619  1.00  0.00     0.149 C 
BRANCH  23  24
HETATM   24  O2  UNL     1      29.986  48.188   2.876  1.00  0.00    -0.347 OA
ATOM     25  H2  UNL     1      29.498  48.684   3.523  1.00  0.00     0.219 HD
ENDBRANCH  23  24
BRANCH  23  26
HETATM   26  N1  UNL     1      29.511  49.897   1.471  1.00  0.00    -0.361 N 
BRANCH  26  27
HETATM   27  C12 UNL     1      30.661  50.853   1.541  1.00  0.00     0.120 C 
HETATM   28  C13 UNL     1      30.959  51.236   0.123  1.00  0.00     0.026 C 
ENDBRANCH  26  27
BRANCH  26  29
HETATM   29  C14 UNL     1      28.221  50.481   1.303  1.00  0.00     0.150 C 
BRANCH  29  30
HETATM   30  C15 UNL     1      27.072  49.608   1.716  1.00  0.00     0.183 C 
BRANCH  30  31
HETATM   31  O3  UNL     1      27.064  49.229   3.040  1.00  0.00    -0.399 OA
ATOM     32  H3  UNL     1      26.489  49.732   3.604  1.00  0.00     0.209 HD
ENDBRANCH  30  31
ENDBRANCH  29  30
ENDBRANCH  26  29
ENDBRANCH  23  26
ENDBRANCH  10  23
BRANCH  20  33
HETATM   33  C26 UNL     1      30.841  37.977   0.963  1.00  0.00    -0.006 C 
HETATM   34  C27 UNL     1      30.172  36.604   1.241  1.00  0.00     0.011 C 
BRANCH  33  35
HETATM   35  C28 UNL     1      30.936  38.062  -0.538  1.00  0.00     0.037 C 
BRANCH  35  36
HETATM   36  C29 UNL     1      30.591  36.849  -1.314  1.00  0.00     0.044 C 
BRANCH  36  37
HETATM   37  C30 UNL     1      31.401  36.268  -2.322  1.00  0.00     0.250 C 
HETATM   38  N2  UNL     1      32.452  35.349  -1.924  1.00  0.00    -0.058 NA
HETATM   39  O4  UNL     1      31.324  36.463  -3.545  1.00  0.00    -0.272 OA
ENDBRANCH  36  37
ENDBRANCH  35  36
ENDBRANCH  33  35
ENDBRANCH  20  33
TORSDOF 12
ENDMDL
MODEL 5
REMARK VINA RESULT: -8.032965858      2.130      2.705
REMARK  12 active torsions:
REMARK  status: ('A' for Active; 'I' for Inactive)
REMARK    1  A    between atoms: C10_10  and  O1_11 
REMARK    2  A    between atoms: C10_10  and  C11_13 
REMARK    3  A    between atoms: C11_13  and  O2_14 
REMARK    4  A    between atoms: C11_13  and  N1_16 
REMARK    5  A    between atoms: N1_16  and  C12_17 
REMARK    6  A    between atoms: N1_16  and  C14_19 
REMARK    7  A    between atoms: C14_19  and  C15_20 
REMARK    8  A    between atoms: C15_20  and  O3_21 
REMARK    9  A    between atoms: C25_32  and  C26_33 
REMARK   10  A    between atoms: C26_33  and  C28_35 
REMARK   11  A    between atoms: C28_35  and  C29_36 
REMARK   12  A    between atoms: C29_36  and  C30_37 
ROOT
HETATM    1  C1  UNL     1      30.242  38.525   3.956  1.00  0.00     0.015 C 
HETATM    2  C2  UNL     1      29.747  39.080   2.935  1.00  0.00    -0.084 C 
HETATM    3  C3  UNL     1      28.757  40.245   3.032  1.00  0.00     0.039 C 
HETATM    4  C4  UNL     1      29.656  41.176   2.288  1.00  0.00     0.003 C 
HETATM    5  C5  UNL     1      29.374  42.584   2.225  1.00  0.00    -0.005 C 
HETATM    6  C6  UNL     1      27.993  43.113   2.264  1.00  0.00     0.006 C 
HETATM    7  C7  UNL     1      27.959  44.339   1.388  1.00  0.00     0.006 C 
HETATM    8  C8  UNL     1      29.141  45.285   1.643  1.00  0.00    -0.003 C 
HETATM    9  C9  UNL     1      28.859  46.441   0.731  1.00  0.00     0.052 C 
HETATM   10  C10 UNL     1      29.958  47.463   0.614  1.00  0.00     0.122 C 
HETATM   11  C16 UNL     1      31.325  46.785   0.695  1.00  0.00     0.047 C 
HETATM   12  C17 UNL     1      31.099  45.355   0.219  1.00  0.00     0.013 C 
HETATM   13  C18 UNL     1      30.480  44.612   1.416  1.00  0.00    -0.036 C 
HETATM   14  C19 UNL     1      31.446  44.774   2.540  1.00  0.00     0.016 C 
HETATM   15  C20 UNL     1      30.181  43.178   1.068  1.00  0.00    -0.002 C 
HETATM   16  C21 UNL     1      31.451  42.402   0.875  1.00  0.00     0.006 C 
HETATM   17  C22 UNL     1      31.196  40.949   0.487  1.00  0.00     0.010 C 
HETATM   18  C23 UNL     1      29.927  40.406   1.003  1.00  0.00    -0.032 C 
HETATM   19  C24 UNL     1      28.866  40.607  -0.051  1.00  0.00     0.016 C 
HETATM   20  C25 UNL     1      29.856  38.987   1.472  1.00  0.00     0.026 C 
ENDROOT
BRANCH  10  21
HETATM   21  O1  UNL     1      29.889  47.976  -0.659  1.00  0.00    -0.381 OA
ATOM     22  H1  UNL     1      30.779  48.010  -0.989  1.00  0.00     0.211 HD
ENDBRANCH  10  21
BRANCH  10  23
HETATM   23  C11 UNL     1      29.839  48.528   1.624  1.00  0.00     0.149 C 
BRANCH  23  24
HETATM   24  O2  UNL     1      30.249  48.229   2.839  1.00  0.00    -0.347 OA
ATOM     25  H2  UNL     1      31.114  48.540   3.080  1.00  0.00     0.219 HD
ENDBRANCH  23  24
BRANCH  23  26
HETATM   26  N1  UNL     1      29.357  49.836   1.520  1.00  0.00    -0.361 N 
BRANCH  26  27
HETATM   27  C12 UNL     1      27.871  50.011   1.596  1.00  0.00     0.120 C 
HETATM   28  C13 UNL     1      27.441  50.445   0.228  1.00  0.00     0.026 C 
ENDBRANCH  26  27
BRANCH  26  29
HETATM   29  C14 UNL     1      30.117  51.023   1.306  1.00  0.00     0.150 C 
BRANCH  29  30
HETATM   30  C15 UNL     1      31.181  50.913   0.252  1.00  0.00     0.183 C 
BRANCH  30  31
HETATM   31  O3  UNL     1      30.722  50.740  -1.034  1.00  0.00    -0.399 OA
ATOM     32  H3  UNL     1      30.985  51.411  -1.654  1.00  0.00     0.209 HD
ENDBRANCH  30  31
ENDBRANCH  29  30
ENDBRANCH  26  29
ENDBRANCH  23  26
ENDBRANCH  10  23
BRANCH  20  33
HETATM   33  C26 UNL     1      30.752  37.957   0.917  1.00  0.00    -0.006 C 
HETATM   34  C27 UNL     1      30.054  36.593   1.165  1.00  0.00     0.011 C 
BRANCH  33  35
HETATM   35  C28 UNL     1      30.845  38.076  -0.582  1.00  0.00     0.037 C 
BRANCH  35  36
HETATM   36  C29 UNL     1      30.690  36.835  -1.376  1.00  0.00     0.044 C 
BRANCH  36  37
HETATM   37  C30 UNL     1      31.600  36.379  -2.361  1.00  0.00     0.250 C 
HETATM   38  N2  UNL     1      32.850  35.781  -1.927  1.00  0.00    -0.058 NA
HETATM   39  O4  UNL     1      31.458  36.437  -3.593  1.00  0.00    -0.272 OA
ENDBRANCH  36  37
ENDBRANCH  35  36
ENDBRANCH  33  35
ENDBRANCH  20  33
TORSDOF 12
ENDMDL
