MODEL 1
REMARK VINA RESULT: -9.388803799      0.000      0.000
REMARK  12 active torsions:
REMARK  status: ('A' for Active; 'I' for Inactive)
REMARK    1  A    between atoms: C2_2  and  C5_5 
REMARK    2  A    between atoms: C5_5  and  C6_6 
REMARK    3  A    between atoms: C5_5  and  N1_23 
REMARK    4  A    between atoms: C6_6  and  C7_7 
REMARK    5  A    between atoms: C7_7  and  C8_8 
REMARK    6  A    between atoms: C8_8  and  C11_11 
REMARK    7  A    between atoms: C11_11  and  O1_12 
REMARK       I    between atoms: N1_23  and  C21_25 
REMARK    8  A    between atoms: C21_25  and  C22_27 
REMARK       I    between atoms: C22_27  and  N2_29 
REMARK    9  A    between atoms: N2_29  and  C23_31 
REMARK   10  A    between atoms: C23_31  and  C24_32 
REMARK   11  A    between atoms: C24_32  and  C25_33 
REMARK   12  A    between atoms: C25_33  and  N3_34 
ROOT
HETATM    1  C5  UNL     1      30.296  46.599   1.682  1.00  0.00     0.092 C 
ENDROOT
BRANCH   1   2
HETATM    2  C2  UNL     1      31.506  46.874   0.815  1.00  0.00    -0.031 C 
HETATM    3  C1  UNL     1      32.778  46.464   1.538  1.00  0.00     0.016 C 
HETATM    4  C3  UNL     1      31.505  46.527  -0.589  1.00  0.00     0.016 C 
HETATM    5  C4  UNL     1      31.643  48.446   0.869  1.00  0.00     0.016 C 
ENDBRANCH   1   2
BRANCH   1   6
HETATM    6  C6  UNL     1      29.749  45.172   1.460  1.00  0.00     0.027 C 
BRANCH   6   7
HETATM    7  C7  UNL     1      29.960  44.232   2.547  1.00  0.00     0.014 C 
BRANCH   7   8
HETATM    8  C8  UNL     1      30.825  43.034   2.392  1.00  0.00    -0.016 C 
HETATM    9  C9  UNL     1      32.119  43.413   3.159  1.00  0.00     0.018 C 
HETATM   10  C10 UNL     1      31.286  43.045   0.915  1.00  0.00     0.018 C 
BRANCH   8  11
HETATM   11  C11 UNL     1      30.423  41.719   2.839  1.00  0.00     0.072 C 
HETATM   12  C12 UNL     1      30.800  41.512   4.350  1.00  0.00     0.040 C 
HETATM   13  C13 UNL     1      30.728  39.970   4.350  1.00  0.00     0.007 C 
HETATM   14  C14 UNL     1      29.569  39.544   4.034  1.00  0.00    -0.014 C 
HETATM   15  C15 UNL     1      28.917  38.262   3.829  1.00  0.00     0.005 C 
HETATM   16  C20 UNL     1      28.523  40.668   3.815  1.00  0.00     0.017 C 
HETATM   17  C16 UNL     1      28.430  38.595   2.339  1.00  0.00     0.001 C 
HETATM   18  C17 UNL     1      29.233  39.732   1.751  1.00  0.00     0.012 C 
HETATM   19  C18 UNL     1      29.139  41.100   2.436  1.00  0.00    -0.012 C 
HETATM   20  C19 UNL     1      28.090  41.888   1.784  1.00  0.00     0.018 C 
BRANCH  11  21
HETATM   21  O1  UNL     1      31.419  40.847   2.244  1.00  0.00    -0.388 OA
ATOM     22  H1  UNL     1      30.896  40.160   1.848  1.00  0.00     0.210 HD
ENDBRANCH  11  21
ENDBRANCH   8  11
ENDBRANCH   7   8
ENDBRANCH   6   7
ENDBRANCH   1   6
BRANCH   1  23
HETATM   23  N1  UNL     1      29.248  47.541   1.562  1.00  0.00    -0.348 N 
HETATM   24  C21 UNL     1      28.291  47.878   0.634  1.00  0.00     0.309 C 
HETATM   25  O2  UNL     1      28.087  47.347  -0.455  1.00  0.00    -0.262 OA
ATOM     26  H1  UNL     1      29.185  48.134   2.391  1.00  0.00     0.163 HD
BRANCH  24  27
HETATM   27  C22 UNL     1      27.360  49.018   0.950  1.00  0.00     0.309 C 
HETATM   28  O3  UNL     1      27.282  49.438   2.136  1.00  0.00    -0.262 OA
HETATM   29  N2  UNL     1      26.550  49.642  -0.028  1.00  0.00    -0.353 N 
ATOM     30  H2  UNL     1      26.592  49.324  -0.995  1.00  0.00     0.162 HD
BRANCH  29  31
HETATM   31  C23 UNL     1      25.664  50.727   0.333  1.00  0.00     0.125 C 
BRANCH  31  32
HETATM   32  C24 UNL     1      24.641  51.084  -0.692  1.00  0.00     0.039 C 
BRANCH  32  33
HETATM   33  C25 UNL     1      25.307  51.209  -2.074  1.00  0.00     0.123 C 
BRANCH  33  34
HETATM   34  N3  UNL     1      24.814  52.312  -2.825  1.00  0.00    -0.393 N 
HETATM   35  C26 UNL     1      25.122  52.408  -4.181  1.00  0.00     0.058 C 
HETATM   36  C27 UNL     1      23.950  52.190  -5.144  1.00  0.00     0.044 C 
HETATM   37  C28 UNL     1      22.851  53.140  -4.693  1.00  0.00     0.007 C 
HETATM   38  C29 UNL     1      22.420  52.664  -3.309  1.00  0.00     0.020 C 
HETATM   39  C30 UNL     1      23.587  52.855  -2.349  1.00  0.00     0.122 C 
ENDBRANCH  33  34
ENDBRANCH  32  33
ENDBRANCH  31  32
ENDBRANCH  29  31
ENDBRANCH  24  27
ENDBRANCH   1  23
TORSDOF 12
ENDMDL
MODEL 2
REMARK VINA RESULT: -9.333246078      1.512      2.705
REMARK  12 active torsions:
REMARK  status: ('A' for Active; 'I' for Inactive)
REMARK    1  A    between atoms: C2_2  and  C5_5 
REMARK    2  A    between atoms: C5_5  and  C6_6 
REMARK    3  A    between atoms: C5_5  and  N1_23 
REMARK    4  A    between atoms: C6_6  and  C7_7 
REMARK    5  A    between atoms: C7_7  and  C8_8 
REMARK    6  A    between atoms: C8_8  and  C11_11 
REMARK    7  A    between atoms: C11_11  and  O1_12 
REMARK       I    between atoms: N1_23  and  C21_25 
REMARK    8  A    between atoms: C21_25  and  C22_27 
REMARK       I    between atoms: C22_27  and  N2_29 
REMARK    9  A    between atoms: N2_29  and  C23_31 
REMARK   10  A    between atoms: C23_31  and  C24_32 
REMARK   11  A    between atoms: C24_32  and  C25_33 
REMARK   12  A    between atoms: C25_33  and  N3_34 
ROOT
HETATM    1  C5  UNL     1      30.160  44.860   1.692  1.00  0.00     0.092 C 
ENDROOT
BRANCH   1   2
HETATM    2  C2  UNL     1      31.628  45.047   2.012  1.00  0.00    -0.031 C 
HETATM    3  C1  UNL     1      31.907  44.665   3.455  1.00  0.00     0.016 C 
HETATM    4  C3  UNL     1      32.649  44.600   1.090  1.00  0.00     0.016 C 
HETATM    5  C4  UNL     1      31.784  46.616   2.098  1.00  0.00     0.016 C 
ENDBRANCH   1   2
BRANCH   1   6
HETATM    6  C6  UNL     1      29.938  43.700   0.698  1.00  0.00     0.027 C 
BRANCH   6   7
HETATM    7  C7  UNL     1      30.198  42.365   1.207  1.00  0.00     0.014 C 
BRANCH   7   8
HETATM    8  C8  UNL     1      29.132  41.333   1.285  1.00  0.00    -0.016 C 
HETATM    9  C9  UNL     1      28.590  41.255  -0.166  1.00  0.00     0.018 C 
HETATM   10  C10 UNL     1      27.966  42.000   2.053  1.00  0.00     0.018 C 
BRANCH   8  11
HETATM   11  C11 UNL     1      29.388  39.980   1.727  1.00  0.00     0.072 C 
HETATM   12  C12 UNL     1      29.924  39.104   0.540  1.00  0.00     0.040 C 
HETATM   13  C13 UNL     1      29.608  37.728   1.165  1.00  0.00     0.007 C 
HETATM   14  C14 UNL     1      30.221  37.551   2.268  1.00  0.00    -0.014 C 
HETATM   15  C15 UNL     1      30.299  36.531   3.300  1.00  0.00     0.005 C 
HETATM   16  C20 UNL     1      31.178  38.711   2.651  1.00  0.00     0.017 C 
HETATM   17  C16 UNL     1      29.891  37.517   4.496  1.00  0.00     0.001 C 
HETATM   18  C17 UNL     1      29.199  38.751   3.965  1.00  0.00     0.012 C 
HETATM   19  C18 UNL     1      30.001  39.676   3.042  1.00  0.00    -0.012 C 
HETATM   20  C19 UNL     1      30.627  40.727   3.847  1.00  0.00     0.018 C 
BRANCH  11  21
HETATM   21  O1  UNL     1      28.058  39.410   1.837  1.00  0.00    -0.388 OA
ATOM     22  H1  UNL     1      27.993  38.861   1.064  1.00  0.00     0.210 HD
ENDBRANCH  11  21
ENDBRANCH   8  11
ENDBRANCH   7   8
ENDBRANCH   6   7
ENDBRANCH   1   6
BRANCH   1  23
HETATM   23  N1  UNL     1      29.495  46.021   1.235  1.00  0.00    -0.348 N 
HETATM   24  C21 UNL     1      28.225  46.372   0.842  1.00  0.00     0.309 C 
HETATM   25  O2  UNL     1      27.228  45.654   0.809  1.00  0.00    -0.262 OA
ATOM     26  H1  UNL     1      30.132  46.817   1.183  1.00  0.00     0.163 HD
BRANCH  24  27
HETATM   27  C22 UNL     1      27.980  47.789   0.398  1.00  0.00     0.309 C 
HETATM   28  O3  UNL     1      28.413  48.166  -0.725  1.00  0.00    -0.262 OA
HETATM   29  N2  UNL     1      27.290  48.734   1.191  1.00  0.00    -0.353 N 
ATOM     30  H2  UNL     1      26.928  48.459   2.104  1.00  0.00     0.162 HD
BRANCH  29  31
HETATM   31  C23 UNL     1      27.092  50.088   0.721  1.00  0.00     0.125 C 
BRANCH  31  32
HETATM   32  C24 UNL     1      25.839  50.320  -0.053  1.00  0.00     0.039 C 
BRANCH  32  33
HETATM   33  C25 UNL     1      26.182  50.802  -1.473  1.00  0.00     0.123 C 
BRANCH  33  34
HETATM   34  N3  UNL     1      25.030  50.994  -2.284  1.00  0.00    -0.393 N 
HETATM   35  C26 UNL     1      23.872  51.518  -1.711  1.00  0.00     0.058 C 
HETATM   36  C27 UNL     1      23.499  52.938  -2.152  1.00  0.00     0.044 C 
HETATM   37  C28 UNL     1      23.480  52.917  -3.673  1.00  0.00     0.007 C 
HETATM   38  C29 UNL     1      24.916  52.649  -4.112  1.00  0.00     0.020 C 
HETATM   39  C30 UNL     1      25.304  51.247  -3.657  1.00  0.00     0.122 C 
ENDBRANCH  33  34
ENDBRANCH  32  33
ENDBRANCH  31  32
ENDBRANCH  29  31
ENDBRANCH  24  27
ENDBRANCH   1  23
TORSDOF 12
ENDMDL
MODEL 3
REMARK VINA RESULT: -9.301533339      0.994      1.706
REMARK  12 active torsions:
REMARK  status: ('A' for Active; 'I' for Inactive)
REMARK    1  A    between atoms: C2_2  and  C5_5 
REMARK    2  A    between atoms: C5_5  and  C6_6 
REMARK    3  A    between atoms: C5_5  and  N1_23 
REMARK    4  A    between atoms: C6_6  and  C7_7 
REMARK    5  A    between atoms: C7_7  and  C8_8 
REMARK    6  A    between atoms: C8_8  and  C11_11 
REMARK    7  A    between atoms: C11_11  and  O1_12 
REMARK       I    between atoms: N1_23  and  C21_25 
REMARK    8  A    between atoms: C21_25  and  C22_27 
REMARK       I    between atoms: C22_27  and  N2_29 
REMARK    9  A    between atoms: N2_29  and  C23_31 
REMARK   10  A    between atoms: C23_31  and  C24_32 
REMARK   11  A    between atoms: C24_32  and  C25_33 
REMARK   12  A    between atoms: C25_33  and  N3_34 
ROOT
HETATM    1  C5  UNL     1      29.823  46.042   1.786  1.00  0.00     0.092 C 
ENDROOT
BRANCH   1   2
HETATM    2  C2  UNL     1      31.225  46.287   1.271  1.00  0.00    -0.031 C 
HETATM    3  C1  UNL     1      32.241  45.567   2.141  1.00  0.00     0.016 C 
HETATM    4  C3  UNL     1      31.519  46.205  -0.144  1.00  0.00     0.016 C 
HETATM    5  C4  UNL     1      31.508  47.784   1.682  1.00  0.00     0.016 C 
ENDBRANCH   1   2
BRANCH   1   6
HETATM    6  C6  UNL     1      29.205  44.768   1.171  1.00  0.00     0.027 C 
BRANCH   6   7
HETATM    7  C7  UNL     1      29.393  43.541   1.923  1.00  0.00     0.014 C 
BRANCH   7   8
HETATM    8  C8  UNL     1      29.711  42.252   1.256  1.00  0.00    -0.016 C 
HETATM    9  C9  UNL     1      31.144  42.468   0.704  1.00  0.00     0.018 C 
HETATM   10  C10 UNL     1      28.848  42.227  -0.028  1.00  0.00     0.018 C 
BRANCH   8  11
HETATM   11  C11 UNL     1      29.701  40.988   1.957  1.00  0.00     0.072 C 
HETATM   12  C12 UNL     1      30.102  39.817   0.991  1.00  0.00     0.040 C 
HETATM   13  C13 UNL     1      29.521  38.666   1.840  1.00  0.00     0.007 C 
HETATM   14  C14 UNL     1      30.059  38.603   2.993  1.00  0.00    -0.014 C 
HETATM   15  C15 UNL     1      29.918  37.806   4.200  1.00  0.00     0.005 C 
HETATM   16  C20 UNL     1      31.200  39.631   3.214  1.00  0.00     0.017 C 
HETATM   17  C16 UNL     1      29.663  39.061   5.163  1.00  0.00     0.001 C 
HETATM   18  C17 UNL     1      29.225  40.269   4.368  1.00  0.00     0.012 C 
HETATM   19  C18 UNL     1      30.209  40.843   3.342  1.00  0.00    -0.012 C 
HETATM   20  C19 UNL     1      30.993  41.906   3.976  1.00  0.00     0.018 C 
BRANCH  11  21
HETATM   21  O1  UNL     1      28.286  40.690   2.086  1.00  0.00    -0.388 OA
ATOM     22  H1  UNL     1      28.089  40.955   2.977  1.00  0.00     0.210 HD
ENDBRANCH  11  21
ENDBRANCH   8  11
ENDBRANCH   7   8
ENDBRANCH   6   7
ENDBRANCH   1   6
BRANCH   1  23
HETATM   23  N1  UNL     1      28.933  47.131   1.637  1.00  0.00    -0.348 N 
HETATM   24  C21 UNL     1      28.213  47.719   0.623  1.00  0.00     0.309 C 
HETATM   25  O2  UNL     1      28.156  47.369  -0.553  1.00  0.00    -0.262 OA
ATOM     26  H1  UNL     1      28.785  47.613   2.524  1.00  0.00     0.163 HD
BRANCH  24  27
HETATM   27  C22 UNL     1      27.377  48.928   0.949  1.00  0.00     0.309 C 
HETATM   28  O3  UNL     1      27.439  49.425   2.105  1.00  0.00    -0.262 OA
HETATM   29  N2  UNL     1      26.509  49.536   0.013  1.00  0.00    -0.353 N 
ATOM     30  H2  UNL     1      26.438  49.157  -0.931  1.00  0.00     0.162 HD
BRANCH  29  31
HETATM   31  C23 UNL     1      25.720  50.691   0.382  1.00  0.00     0.125 C 
BRANCH  31  32
HETATM   32  C24 UNL     1      24.681  51.099  -0.608  1.00  0.00     0.039 C 
BRANCH  32  33
HETATM   33  C25 UNL     1      25.293  51.143  -2.019  1.00  0.00     0.123 C 
BRANCH  33  34
HETATM   34  N3  UNL     1      24.842  52.256  -2.781  1.00  0.00    -0.393 N 
HETATM   35  C26 UNL     1      25.180  52.344  -4.130  1.00  0.00     0.058 C 
HETATM   36  C27 UNL     1      24.024  52.152  -5.118  1.00  0.00     0.044 C 
HETATM   37  C28 UNL     1      22.937  53.126  -4.691  1.00  0.00     0.007 C 
HETATM   38  C29 UNL     1      22.466  52.661  -3.317  1.00  0.00     0.020 C 
HETATM   39  C30 UNL     1      23.617  52.826  -2.332  1.00  0.00     0.122 C 
ENDBRANCH  33  34
ENDBRANCH  32  33
ENDBRANCH  31  32
ENDBRANCH  29  31
ENDBRANCH  24  27
ENDBRANCH   1  23
TORSDOF 12
ENDMDL
MODEL 4
REMARK VINA RESULT: -9.230845074      1.878      3.354
REMARK  12 active torsions:
REMARK  status: ('A' for Active; 'I' for Inactive)
REMARK    1  A    between atoms: C2_2  and  C5_5 
REMARK    2  A    between atoms: C5_5  and  C6_6 
REMARK    3  A    between atoms: C5_5  and  N1_23 
REMARK    4  A    between atoms: C6_6  and  C7_7 
REMARK    5  A    between atoms: C7_7  and  C8_8 
REMARK    6  A    between atoms: C8_8  and  C11_11 
REMARK    7  A    between atoms: C11_11  and  O1_12 
REMARK       I    between atoms: N1_23  and  C21_25 
REMARK    8  A    between atoms: C21_25  and  C22_27 
REMARK       I    between atoms: C22_27  and  N2_29 
REMARK    9  A    between atoms: N2_29  and  C23_31 
REMARK   10  A    between atoms: C23_31  and  C24_32 
REMARK   11  A    between atoms: C24_32  and  C25_33 
REMARK   12  A    between atoms: C25_33  and  N3_34 
ROOT
HETATM    1  C5  UNL     1      30.020  44.134   2.463  1.00  0.00     0.092 C 
ENDROOT
BRANCH   1   2
HETATM    2  C2  UNL     1      31.458  44.190   2.934  1.00  0.00    -0.031 C 
HETATM    3  C1  UNL     1      31.517  44.201   4.452  1.00  0.00     0.016 C 
HETATM    4  C3  UNL     1      32.469  43.354   2.324  1.00  0.00     0.016 C 
HETATM    5  C4  UNL     1      31.886  45.677   2.623  1.00  0.00     0.016 C 
ENDBRANCH   1   2
BRANCH   1   6
HETATM    6  C6  UNL     1      29.828  43.088   1.344  1.00  0.00     0.027 C 
BRANCH   6   7
HETATM    7  C7  UNL     1      29.352  41.783   1.766  1.00  0.00     0.014 C 
BRANCH   7   8
HETATM    8  C8  UNL     1      29.520  40.575   0.918  1.00  0.00    -0.016 C 
HETATM    9  C9  UNL     1      30.801  40.878   0.097  1.00  0.00     0.018 C 
HETATM   10  C10 UNL     1      28.401  40.658  -0.148  1.00  0.00     0.018 C 
BRANCH   8  11
HETATM   11  C11 UNL     1      29.663  39.247   1.472  1.00  0.00     0.072 C 
HETATM   12  C12 UNL     1      30.102  38.229   0.360  1.00  0.00     0.040 C 
HETATM   13  C13 UNL     1      29.676  36.944   1.103  1.00  0.00     0.007 C 
HETATM   14  C14 UNL     1      30.288  36.808   2.212  1.00  0.00    -0.014 C 
HETATM   15  C15 UNL     1      30.292  35.876   3.327  1.00  0.00     0.005 C 
HETATM   16  C20 UNL     1      31.349  37.907   2.487  1.00  0.00     0.017 C 
HETATM   17  C16 UNL     1      29.990  36.991   4.437  1.00  0.00     0.001 C 
HETATM   18  C17 UNL     1      29.401  38.233   3.808  1.00  0.00     0.012 C 
HETATM   19  C18 UNL     1      30.267  39.001   2.803  1.00  0.00    -0.012 C 
HETATM   20  C19 UNL     1      30.995  40.058   3.510  1.00  0.00     0.018 C 
BRANCH  11  21
HETATM   21  O1  UNL     1      28.289  38.808   1.640  1.00  0.00    -0.388 OA
ATOM     22  H1  UNL     1      28.149  38.891   2.577  1.00  0.00     0.210 HD
ENDBRANCH  11  21
ENDBRANCH   8  11
ENDBRANCH   7   8
ENDBRANCH   6   7
ENDBRANCH   1   6
BRANCH   1  23
HETATM   23  N1  UNL     1      29.474  45.376   2.063  1.00  0.00    -0.348 N 
HETATM   24  C21 UNL     1      28.331  45.827   1.446  1.00  0.00     0.309 C 
HETATM   25  O2  UNL     1      27.376  45.157   1.059  1.00  0.00    -0.262 OA
ATOM     26  H1  UNL     1      30.098  46.148   2.297  1.00  0.00     0.163 HD
BRANCH  24  27
HETATM   27  C22 UNL     1      28.188  47.305   1.200  1.00  0.00     0.309 C 
HETATM   28  O3  UNL     1      28.078  47.725   0.017  1.00  0.00    -0.262 OA
HETATM   29  N2  UNL     1      28.180  48.260   2.243  1.00  0.00    -0.353 N 
ATOM     30  H2  UNL     1      28.267  47.951   3.211  1.00  0.00     0.162 HD
BRANCH  29  31
HETATM   31  C23 UNL     1      28.052  49.671   1.951  1.00  0.00     0.125 C 
BRANCH  31  32
HETATM   32  C24 UNL     1      26.657  50.156   1.741  1.00  0.00     0.039 C 
BRANCH  32  33
HETATM   33  C25 UNL     1      26.607  51.094   0.523  1.00  0.00     0.123 C 
BRANCH  33  34
HETATM   34  N3  UNL     1      25.737  50.624  -0.499  1.00  0.00    -0.393 N 
HETATM   35  C26 UNL     1      24.392  50.991  -0.474  1.00  0.00     0.058 C 
HETATM   36  C27 UNL     1      23.948  51.958  -1.577  1.00  0.00     0.044 C 
HETATM   37  C28 UNL     1      24.392  51.332  -2.891  1.00  0.00     0.007 C 
HETATM   38  C29 UNL     1      25.916  51.319  -2.861  1.00  0.00     0.020 C 
HETATM   39  C30 UNL     1      26.368  50.378  -1.751  1.00  0.00     0.122 C 
ENDBRANCH  33  34
ENDBRANCH  32  33
ENDBRANCH  31  32
ENDBRANCH  29  31
ENDBRANCH  24  27
ENDBRANCH   1  23
TORSDOF 12
ENDMDL
MODEL 5
REMARK VINA RESULT: -9.160871507      2.280      4.435
REMARK  12 active torsions:
REMARK  status: ('A' for Active; 'I' for Inactive)
REMARK    1  A    between atoms: C2_2  and  C5_5 
REMARK    2  A    between atoms: C5_5  and  C6_6 
REMARK    3  A    between atoms: C5_5  and  N1_23 
REMARK    4  A    between atoms: C6_6  and  C7_7 
REMARK    5  A    between atoms: C7_7  and  C8_8 
REMARK    6  A    between atoms: C8_8  and  C11_11 
REMARK    7  A    between atoms: C11_11  and  O1_12 
REMARK       I    between atoms: N1_23  and  C21_25 
REMARK    8  A    between atoms: C21_25  and  C22_27 
REMARK       I    between atoms: C22_27  and  N2_29 
REMARK    9  A    between atoms: N2_29  and  C23_31 
REMARK   10  A    between atoms: C23_31  and  C24_32 
REMARK   11  A    between atoms: C24_32  and  C25_33 
REMARK   12  A    between atoms: C25_33  and  N3_34 
ROOT
HETATM    1  C5  UNL     1      27.920  48.710   0.429  1.00  0.00     0.092 C 
ENDROOT
BRANCH   1   2
HETATM    2  C2  UNL     1      28.399  49.304   1.737  1.00  0.00    -0.031 C 
HETATM    3  C1  UNL     1      27.247  49.967   2.470  1.00  0.00     0.016 C 
HETATM    4  C3  UNL     1      29.284  48.560   2.608  1.00  0.00     0.016 C 
HETATM    5  C4  UNL     1      29.216  50.576   1.281  1.00  0.00     0.016 C 
ENDBRANCH   1   2
BRANCH   1   6
HETATM    6  C6  UNL     1      29.092  48.449  -0.540  1.00  0.00     0.027 C 
BRANCH   6   7
HETATM    7  C7  UNL     1      29.527  47.069  -0.660  1.00  0.00     0.014 C 
BRANCH   7   8
HETATM    8  C8  UNL     1      30.907  46.647  -0.308  1.00  0.00    -0.016 C 
HETATM    9  C9  UNL     1      31.624  47.981   0.028  1.00  0.00     0.018 C 
HETATM   10  C10 UNL     1      31.565  46.229  -1.645  1.00  0.00     0.018 C 
BRANCH   8  11
HETATM   11  C11 UNL     1      31.189  45.719   0.764  1.00  0.00     0.072 C 
HETATM   12  C12 UNL     1      32.194  46.352   1.791  1.00  0.00     0.040 C 
HETATM   13  C13 UNL     1      32.651  45.031   2.446  1.00  0.00     0.007 C 
HETATM   14  C14 UNL     1      31.680  44.401   2.980  1.00  0.00    -0.014 C 
HETATM   15  C15 UNL     1      31.473  43.143   3.677  1.00  0.00     0.005 C 
HETATM   16  C20 UNL     1      30.325  45.153   2.910  1.00  0.00     0.017 C 
HETATM   17  C16 UNL     1      30.339  42.617   2.673  1.00  0.00     0.001 C 
HETATM   18  C17 UNL     1      30.401  43.357   1.357  1.00  0.00     0.012 C 
HETATM   19  C18 UNL     1      30.141  44.868   1.375  1.00  0.00    -0.012 C 
HETATM   20  C19 UNL     1      28.720  45.111   1.114  1.00  0.00     0.018 C 
BRANCH  11  21
HETATM   21  O1  UNL     1      32.084  44.759   0.146  1.00  0.00    -0.388 OA
ATOM     22  H1  UNL     1      32.677  45.306  -0.356  1.00  0.00     0.210 HD
ENDBRANCH  11  21
ENDBRANCH   8  11
ENDBRANCH   7   8
ENDBRANCH   6   7
ENDBRANCH   1   6
BRANCH   1  23
HETATM   23  N1  UNL     1      26.906  49.447  -0.225  1.00  0.00    -0.348 N 
HETATM   24  C21 UNL     1      26.770  50.169  -1.387  1.00  0.00     0.309 C 
HETATM   25  O2  UNL     1      27.618  50.352  -2.257  1.00  0.00    -0.262 OA
ATOM     26  H1  UNL     1      26.037  49.440   0.311  1.00  0.00     0.163 HD
BRANCH  24  27
HETATM   27  C22 UNL     1      25.443  50.824  -1.670  1.00  0.00     0.309 C 
HETATM   28  O3  UNL     1      24.666  51.076  -0.710  1.00  0.00    -0.262 OA
HETATM   29  N2  UNL     1      25.017  51.164  -2.974  1.00  0.00    -0.353 N 
ATOM     30  H2  UNL     1      25.625  50.973  -3.770  1.00  0.00     0.162 HD
BRANCH  29  31
HETATM   31  C23 UNL     1      23.727  51.781  -3.191  1.00  0.00     0.125 C 
BRANCH  31  32
HETATM   32  C24 UNL     1      23.695  52.849  -4.232  1.00  0.00     0.039 C 
BRANCH  32  33
HETATM   33  C25 UNL     1      23.093  52.292  -5.534  1.00  0.00     0.123 C 
BRANCH  33  34
HETATM   34  N3  UNL     1      21.817  52.847  -5.831  1.00  0.00    -0.393 N 
HETATM   35  C26 UNL     1      21.318  53.877  -5.036  1.00  0.00     0.058 C 
HETATM   36  C27 UNL     1      21.241  55.253  -5.706  1.00  0.00     0.044 C 
HETATM   37  C28 UNL     1      20.475  55.050  -7.004  1.00  0.00     0.007 C 
HETATM   38  C29 UNL     1      21.346  54.149  -7.874  1.00  0.00     0.020 C 
HETATM   39  C30 UNL     1      21.447  52.785  -7.204  1.00  0.00     0.122 C 
ENDBRANCH  33  34
ENDBRANCH  32  33
ENDBRANCH  31  32
ENDBRANCH  29  31
ENDBRANCH  24  27
ENDBRANCH   1  23
TORSDOF 12
ENDMDL
