MODEL 1
REMARK VINA RESULT: -8.331361867      0.000      0.000
REMARK  11 active torsions:
REMARK  status: ('A' for Active; 'I' for Inactive)
REMARK    1  A    between atoms: S1_2  and  C2_3 
REMARK    2  A    between atoms: C2_3  and  C3_4 
REMARK    3  A    between atoms: C3_4  and  C4_5 
REMARK    4  A    between atoms: C4_5  and  C5_6 
REMARK    5  A    between atoms: C5_6  and  O1_7 
REMARK    6  A    between atoms: C5_6  and  C6_9 
REMARK       I    between atoms: C6_9  and  N1_11 
REMARK    7  A    between atoms: C17_22  and  C18_23 
REMARK       I    between atoms: C18_23  and  N2_25 
REMARK    8  A    between atoms: N2_25  and  C19_27 
REMARK    9  A    between atoms: C19_27  and  C20_28 
REMARK   10  A    between atoms: C20_28  and  C23_31 
REMARK   11  A    between atoms: C23_31  and  O4_32 
ROOT
HETATM    1  C6  UNL     1      28.009  48.834  -0.105  1.00  0.00     0.248 C 
HETATM    2  O2  UNL     1      28.269  49.197  -1.304  1.00  0.00    -0.270 OA
HETATM    3  N1  UNL     1      28.533  47.606   0.332  1.00  0.00    -0.350 N 
HETATM    4  C7  UNL     1      29.351  46.818  -0.589  1.00  0.00     0.126 C 
HETATM    5  C8  UNL     1      30.560  46.260   0.081  1.00  0.00     0.030 C 
HETATM    6  C9  UNL     1      30.274  45.508   1.333  1.00  0.00    -0.033 C 
HETATM    7  C10 UNL     1      31.215  46.023   2.422  1.00  0.00     0.016 C 
HETATM    8  C11 UNL     1      28.889  45.721   1.841  1.00  0.00     0.012 C 
HETATM    9  C12 UNL     1      27.904  44.649   1.375  1.00  0.00     0.007 C 
HETATM   10  C13 UNL     1      28.289  43.391   2.127  1.00  0.00     0.006 C 
HETATM   11  C14 UNL     1      29.795  43.313   2.317  1.00  0.00    -0.005 C 
HETATM   12  C15 UNL     1      30.146  41.859   2.435  1.00  0.00    -0.004 C 
HETATM   13  C16 UNL     1      30.338  41.356   3.845  1.00  0.00     0.020 C 
HETATM   14  C17 UNL     1      31.635  40.725   3.408  1.00  0.00     0.082 C 
HETATM   15  C24 UNL     1      31.552  41.515   2.125  1.00  0.00     0.003 C 
HETATM   16  C25 UNL     1      32.396  42.768   2.128  1.00  0.00     0.006 C 
HETATM   17  C26 UNL     1      31.878  43.612   0.955  1.00  0.00     0.006 C 
HETATM   18  C27 UNL     1      30.455  44.000   1.153  1.00  0.00    -0.001 C 
HETATM   19  C28 UNL     1      28.308  47.075   1.637  1.00  0.00     0.131 C 
ENDROOT
BRANCH  14  20
HETATM   20  C18 UNL     1      31.476  39.245   3.199  1.00  0.00     0.222 C 
HETATM   21  O3  UNL     1      32.316  38.600   2.521  1.00  0.00    -0.273 OA
HETATM   22  N2  UNL     1      30.383  38.527   3.754  1.00  0.00    -0.360 N 
ATOM     23  H2  UNL     1      29.685  39.023   4.309  1.00  0.00     0.162 HD
BRANCH  22  24
HETATM   24  C19 UNL     1      30.246  37.113   3.546  1.00  0.00     0.133 C 
BRANCH  24  25
HETATM   25  C20 UNL     1      28.980  36.711   2.868  1.00  0.00    -0.010 C 
HETATM   26  C21 UNL     1      29.195  36.375   1.412  1.00  0.00     0.018 C 
HETATM   27  C22 UNL     1      28.525  35.409   3.542  1.00  0.00     0.018 C 
BRANCH  25  28
HETATM   28  C23 UNL     1      27.911  37.717   3.121  1.00  0.00     0.174 C 
BRANCH  28  29
HETATM   29  O4  UNL     1      27.815  38.743   2.218  1.00  0.00    -0.400 OA
ATOM     30  H4  UNL     1      27.642  39.605   2.576  1.00  0.00     0.209 HD
ENDBRANCH  28  29
ENDBRANCH  25  28
ENDBRANCH  24  25
ENDBRANCH  22  24
ENDBRANCH  14  20
BRANCH   1  31
HETATM   31  C5  UNL     1      27.164  49.753   0.734  1.00  0.00     0.210 C 
BRANCH  31  32
HETATM   32  C4  UNL     1      26.513  50.695  -0.212  1.00  0.00     0.042 C 
BRANCH  32  33
HETATM   33  C3  UNL     1      25.050  50.743  -0.309  1.00  0.00     0.013 C 
BRANCH  33  34
HETATM   34  C2  UNL     1      24.415  51.453  -1.445  1.00  0.00     0.073 C 
BRANCH  34  35
HETATM   35  S1  UNL     1      25.280  51.462  -2.998  1.00  0.00    -0.173 SA
HETATM   36  C1  UNL     1      24.570  52.587  -4.226  1.00  0.00     0.089 C 
ENDBRANCH  34  35
ENDBRANCH  33  34
ENDBRANCH  32  33
ENDBRANCH  31  32
BRANCH  31  37
HETATM   37  O1  UNL     1      27.855  50.357   1.748  1.00  0.00    -0.386 OA
ATOM     38  H1  UNL     1      28.679  49.939   1.966  1.00  0.00     0.210 HD
ENDBRANCH  31  37
ENDBRANCH   1  31
TORSDOF 11
ENDMDL
MODEL 2
REMARK VINA RESULT: -8.310178195      0.688      1.018
REMARK  11 active torsions:
REMARK  status: ('A' for Active; 'I' for Inactive)
REMARK    1  A    between atoms: S1_2  and  C2_3 
REMARK    2  A    between atoms: C2_3  and  C3_4 
REMARK    3  A    between atoms: C3_4  and  C4_5 
REMARK    4  A    between atoms: C4_5  and  C5_6 
REMARK    5  A    between atoms: C5_6  and  O1_7 
REMARK    6  A    between atoms: C5_6  and  C6_9 
REMARK       I    between atoms: C6_9  and  N1_11 
REMARK    7  A    between atoms: C17_22  and  C18_23 
REMARK       I    between atoms: C18_23  and  N2_25 
REMARK    8  A    between atoms: N2_25  and  C19_27 
REMARK    9  A    between atoms: C19_27  and  C20_28 
REMARK   10  A    between atoms: C20_28  and  C23_31 
REMARK   11  A    between atoms: C23_31  and  O4_32 
ROOT
HETATM    1  C6  UNL     1      28.210  48.614  -0.009  1.00  0.00     0.248 C 
HETATM    2  O2  UNL     1      28.577  48.990  -1.175  1.00  0.00    -0.270 OA
HETATM    3  N1  UNL     1      28.655  47.359   0.441  1.00  0.00    -0.350 N 
HETATM    4  C7  UNL     1      29.517  46.561  -0.430  1.00  0.00     0.126 C 
HETATM    5  C8  UNL     1      30.649  45.946   0.321  1.00  0.00     0.030 C 
HETATM    6  C9  UNL     1      30.238  45.180   1.529  1.00  0.00    -0.033 C 
HETATM    7  C10 UNL     1      31.106  45.640   2.700  1.00  0.00     0.016 C 
HETATM    8  C11 UNL     1      28.826  45.434   1.931  1.00  0.00     0.012 C 
HETATM    9  C12 UNL     1      27.845  44.407   1.365  1.00  0.00     0.007 C 
HETATM   10  C13 UNL     1      28.125  43.122   2.116  1.00  0.00     0.006 C 
HETATM   11  C14 UNL     1      29.608  42.986   2.423  1.00  0.00    -0.005 C 
HETATM   12  C15 UNL     1      29.898  41.518   2.536  1.00  0.00    -0.004 C 
HETATM   13  C16 UNL     1      29.959  40.981   3.945  1.00  0.00     0.020 C 
HETATM   14  C17 UNL     1      31.264  40.312   3.597  1.00  0.00     0.082 C 
HETATM   15  C24 UNL     1      31.311  41.130   2.330  1.00  0.00     0.003 C 
HETATM   16  C25 UNL     1      32.195  42.351   2.428  1.00  0.00     0.006 C 
HETATM   17  C26 UNL     1      31.802  43.236   1.237  1.00  0.00     0.006 C 
HETATM   18  C27 UNL     1      30.381  43.671   1.331  1.00  0.00    -0.001 C 
HETATM   19  C28 UNL     1      28.310  46.811   1.712  1.00  0.00     0.131 C 
ENDROOT
BRANCH  14  20
HETATM   20  C18 UNL     1      31.072  38.843   3.344  1.00  0.00     0.222 C 
HETATM   21  O3  UNL     1      31.926  38.189   2.693  1.00  0.00    -0.273 OA
HETATM   22  N2  UNL     1      29.931  38.147   3.825  1.00  0.00    -0.360 N 
ATOM     23  H2  UNL     1      29.221  38.652   4.356  1.00  0.00     0.162 HD
BRANCH  22  24
HETATM   24  C19 UNL     1      29.763  36.744   3.575  1.00  0.00     0.133 C 
BRANCH  24  25
HETATM   25  C20 UNL     1      28.603  36.410   2.698  1.00  0.00    -0.010 C 
HETATM   26  C21 UNL     1      27.695  35.379   3.323  1.00  0.00     0.018 C 
HETATM   27  C22 UNL     1      27.769  37.694   2.580  1.00  0.00     0.018 C 
BRANCH  25  28
HETATM   28  C23 UNL     1      29.067  36.077   1.323  1.00  0.00     0.174 C 
BRANCH  28  29
HETATM   29  O4  UNL     1      29.938  36.962   0.744  1.00  0.00    -0.400 OA
ATOM     30  H4  UNL     1      29.675  37.875   0.748  1.00  0.00     0.209 HD
ENDBRANCH  28  29
ENDBRANCH  25  28
ENDBRANCH  24  25
ENDBRANCH  22  24
ENDBRANCH  14  20
BRANCH   1  31
HETATM   31  C5  UNL     1      27.334  49.545   0.782  1.00  0.00     0.210 C 
BRANCH  31  32
HETATM   32  C4  UNL     1      26.634  50.398  -0.213  1.00  0.00     0.042 C 
BRANCH  32  33
HETATM   33  C3  UNL     1      25.210  50.708  -0.042  1.00  0.00     0.013 C 
BRANCH  33  34
HETATM   34  C2  UNL     1      24.460  51.342  -1.152  1.00  0.00     0.073 C 
BRANCH  34  35
HETATM   35  S1  UNL     1      25.269  51.460  -2.731  1.00  0.00    -0.173 SA
HETATM   36  C1  UNL     1      24.460  52.596  -3.886  1.00  0.00     0.089 C 
ENDBRANCH  34  35
ENDBRANCH  33  34
ENDBRANCH  32  33
ENDBRANCH  31  32
BRANCH  31  37
HETATM   37  O1  UNL     1      28.005  50.241   1.749  1.00  0.00    -0.386 OA
ATOM     38  H1  UNL     1      27.662  50.124   2.627  1.00  0.00     0.210 HD
ENDBRANCH  31  37
ENDBRANCH   1  31
TORSDOF 11
ENDMDL
MODEL 3
REMARK VINA RESULT: -8.249124588      6.605     11.277
REMARK  11 active torsions:
REMARK  status: ('A' for Active; 'I' for Inactive)
REMARK    1  A    between atoms: S1_2  and  C2_3 
REMARK    2  A    between atoms: C2_3  and  C3_4 
REMARK    3  A    between atoms: C3_4  and  C4_5 
REMARK    4  A    between atoms: C4_5  and  C5_6 
REMARK    5  A    between atoms: C5_6  and  O1_7 
REMARK    6  A    between atoms: C5_6  and  C6_9 
REMARK       I    between atoms: C6_9  and  N1_11 
REMARK    7  A    between atoms: C17_22  and  C18_23 
REMARK       I    between atoms: C18_23  and  N2_25 
REMARK    8  A    between atoms: N2_25  and  C19_27 
REMARK    9  A    between atoms: C19_27  and  C20_28 
REMARK   10  A    between atoms: C20_28  and  C23_31 
REMARK   11  A    between atoms: C23_31  and  O4_32 
ROOT
HETATM    1  C6  UNL     1      21.274  54.040  -6.739  1.00  0.00     0.248 C 
HETATM    2  O2  UNL     1      20.717  55.163  -6.481  1.00  0.00    -0.270 OA
HETATM    3  N1  UNL     1      22.113  53.488  -5.756  1.00  0.00    -0.350 N 
HETATM    4  C7  UNL     1      22.296  54.209  -4.497  1.00  0.00     0.126 C 
HETATM    5  C8  UNL     1      22.239  53.295  -3.321  1.00  0.00     0.030 C 
HETATM    6  C9  UNL     1      23.150  52.122  -3.412  1.00  0.00    -0.033 C 
HETATM    7  C10 UNL     1      22.341  50.867  -3.084  1.00  0.00     0.016 C 
HETATM    8  C11 UNL     1      23.704  51.916  -4.780  1.00  0.00     0.012 C 
HETATM    9  C12 UNL     1      25.075  52.564  -4.979  1.00  0.00     0.007 C 
HETATM   10  C13 UNL     1      26.038  51.734  -4.156  1.00  0.00     0.006 C 
HETATM   11  C14 UNL     1      25.374  51.233  -2.885  1.00  0.00    -0.005 C 
HETATM   12  C15 UNL     1      26.463  51.026  -1.874  1.00  0.00    -0.004 C 
HETATM   13  C16 UNL     1      26.936  49.602  -1.719  1.00  0.00     0.020 C 
HETATM   14  C17 UNL     1      26.792  49.751  -0.226  1.00  0.00     0.082 C 
HETATM   15  C24 UNL     1      26.029  51.033  -0.459  1.00  0.00     0.003 C 
HETATM   16  C25 UNL     1      24.529  50.869  -0.384  1.00  0.00     0.006 C 
HETATM   17  C26 UNL     1      23.947  52.133  -1.031  1.00  0.00     0.006 C 
HETATM   18  C27 UNL     1      24.342  52.241  -2.462  1.00  0.00    -0.001 C 
HETATM   19  C28 UNL     1      22.808  52.253  -5.918  1.00  0.00     0.131 C 
ENDROOT
BRANCH  14  20
HETATM   20  C18 UNL     1      28.126  49.971   0.430  1.00  0.00     0.222 C 
HETATM   21  O3  UNL     1      28.217  50.647   1.486  1.00  0.00    -0.273 OA
HETATM   22  N2  UNL     1      29.322  49.429  -0.114  1.00  0.00    -0.360 N 
ATOM     23  H2  UNL     1      29.280  48.876  -0.970  1.00  0.00     0.162 HD
BRANCH  22  24
HETATM   24  C19 UNL     1      30.588  49.647   0.526  1.00  0.00     0.133 C 
BRANCH  24  25
HETATM   25  C20 UNL     1      31.278  48.399   0.965  1.00  0.00    -0.010 C 
HETATM   26  C21 UNL     1      31.540  47.458  -0.185  1.00  0.00     0.018 C 
HETATM   27  C22 UNL     1      32.657  48.830   1.485  1.00  0.00     0.018 C 
BRANCH  25  28
HETATM   28  C23 UNL     1      30.561  47.785   2.118  1.00  0.00     0.174 C 
BRANCH  28  29
HETATM   29  O4  UNL     1      29.810  48.634   2.888  1.00  0.00    -0.400 OA
ATOM     30  H4  UNL     1      29.240  48.227   3.529  1.00  0.00     0.209 HD
ENDBRANCH  28  29
ENDBRANCH  25  28
ENDBRANCH  24  25
ENDBRANCH  22  24
ENDBRANCH  14  20
BRANCH   1  31
HETATM   31  C5  UNL     1      20.984  53.406  -8.071  1.00  0.00     0.210 C 
BRANCH  31  32
HETATM   32  C4  UNL     1      20.444  54.488  -8.934  1.00  0.00     0.042 C 
BRANCH  32  33
HETATM   33  C3  UNL     1      21.308  55.135  -9.928  1.00  0.00     0.013 C 
BRANCH  33  34
HETATM   34  C2  UNL     1      20.884  55.182 -11.348  1.00  0.00     0.073 C 
BRANCH  34  35
HETATM   35  S1  UNL     1      19.277  54.536 -11.749  1.00  0.00    -0.173 SA
HETATM   36  C1  UNL     1      17.927  55.714 -11.489  1.00  0.00     0.089 C 
ENDBRANCH  34  35
ENDBRANCH  33  34
ENDBRANCH  32  33
ENDBRANCH  31  32
BRANCH  31  37
HETATM   37  O1  UNL     1      20.186  52.298  -7.989  1.00  0.00    -0.386 OA
ATOM     38  H1  UNL     1      20.122  51.926  -7.118  1.00  0.00     0.210 HD
ENDBRANCH  31  37
ENDBRANCH   1  31
TORSDOF 11
ENDMDL
MODEL 4
REMARK VINA RESULT: -7.966374241      4.325     11.009
REMARK  11 active torsions:
REMARK  status: ('A' for Active; 'I' for Inactive)
REMARK    1  A    between atoms: S1_2  and  C2_3 
REMARK    2  A    between atoms: C2_3  and  C3_4 
REMARK    3  A    between atoms: C3_4  and  C4_5 
REMARK    4  A    between atoms: C4_5  and  C5_6 
REMARK    5  A    between atoms: C5_6  and  O1_7 
REMARK    6  A    between atoms: C5_6  and  C6_9 
REMARK       I    between atoms: C6_9  and  N1_11 
REMARK    7  A    between atoms: C17_22  and  C18_23 
REMARK       I    between atoms: C18_23  and  N2_25 
REMARK    8  A    between atoms: N2_25  and  C19_27 
REMARK    9  A    between atoms: C19_27  and  C20_28 
REMARK   10  A    between atoms: C20_28  and  C23_31 
REMARK   11  A    between atoms: C23_31  and  O4_32 
ROOT
HETATM    1  C6  UNL     1      32.898  44.643   2.296  1.00  0.00     0.248 C 
HETATM    2  O2  UNL     1      32.674  43.940   3.342  1.00  0.00    -0.270 OA
HETATM    3  N1  UNL     1      31.896  45.537   1.885  1.00  0.00    -0.350 N 
HETATM    4  C7  UNL     1      30.665  45.630   2.670  1.00  0.00     0.126 C 
HETATM    5  C8  UNL     1      30.238  47.044   2.867  1.00  0.00     0.030 C 
HETATM    6  C9  UNL     1      30.142  47.836   1.611  1.00  0.00    -0.033 C 
HETATM    7  C10 UNL     1      30.893  49.151   1.819  1.00  0.00     0.016 C 
HETATM    8  C11 UNL     1      30.786  47.167   0.446  1.00  0.00     0.012 C 
HETATM    9  C12 UNL     1      29.806  46.349  -0.396  1.00  0.00     0.007 C 
HETATM   10  C13 UNL     1      28.933  47.365  -1.103  1.00  0.00     0.006 C 
HETATM   11  C14 UNL     1      28.681  48.574  -0.216  1.00  0.00    -0.005 C 
HETATM   12  C15 UNL     1      27.374  49.169  -0.649  1.00  0.00    -0.004 C 
HETATM   13  C16 UNL     1      27.483  50.360  -1.568  1.00  0.00     0.020 C 
HETATM   14  C17 UNL     1      26.512  51.093  -0.680  1.00  0.00     0.082 C 
HETATM   15  C24 UNL     1      26.693  50.013   0.359  1.00  0.00     0.003 C 
HETATM   16  C25 UNL     1      27.664  50.382   1.455  1.00  0.00     0.006 C 
HETATM   17  C26 UNL     1      28.016  49.060   2.151  1.00  0.00     0.006 C 
HETATM   18  C27 UNL     1      28.692  48.118   1.217  1.00  0.00    -0.001 C 
HETATM   19  C28 UNL     1      32.008  46.368   0.731  1.00  0.00     0.131 C 
ENDROOT
BRANCH  14  20
HETATM   20  C18 UNL     1      25.133  51.110  -1.277  1.00  0.00     0.222 C 
HETATM   21  O3  UNL     1      24.115  51.057  -0.541  1.00  0.00    -0.273 OA
HETATM   22  N2  UNL     1      24.930  51.186  -2.682  1.00  0.00    -0.360 N 
ATOM     23  H2  UNL     1      25.737  51.230  -3.305  1.00  0.00     0.162 HD
BRANCH  22  24
HETATM   24  C19 UNL     1      23.607  51.202  -3.236  1.00  0.00     0.133 C 
BRANCH  24  25
HETATM   25  C20 UNL     1      23.336  52.353  -4.147  1.00  0.00    -0.010 C 
HETATM   26  C21 UNL     1      22.011  53.013  -3.851  1.00  0.00     0.018 C 
HETATM   27  C22 UNL     1      24.412  53.405  -3.842  1.00  0.00     0.018 C 
BRANCH  25  28
HETATM   28  C23 UNL     1      23.525  51.950  -5.568  1.00  0.00     0.174 C 
BRANCH  28  29
HETATM   29  O4  UNL     1      24.647  51.214  -5.846  1.00  0.00    -0.400 OA
ATOM     30  H4  UNL     1      24.514  50.413  -6.339  1.00  0.00     0.209 HD
ENDBRANCH  28  29
ENDBRANCH  25  28
ENDBRANCH  24  25
ENDBRANCH  22  24
ENDBRANCH  14  20
BRANCH   1  31
HETATM   31  C5  UNL     1      34.215  44.452   1.596  1.00  0.00     0.210 C 
BRANCH  31  32
HETATM   32  C4  UNL     1      34.086  43.197   0.810  1.00  0.00     0.042 C 
BRANCH  32  33
HETATM   33  C3  UNL     1      33.707  43.255  -0.606  1.00  0.00     0.013 C 
BRANCH  33  34
HETATM   34  C2  UNL     1      32.305  42.974  -1.000  1.00  0.00     0.073 C 
BRANCH  34  35
HETATM   35  S1  UNL     1      31.331  41.959   0.087  1.00  0.00    -0.173 SA
HETATM   36  C1  UNL     1      29.740  42.692   0.545  1.00  0.00     0.089 C 
ENDBRANCH  34  35
ENDBRANCH  33  34
ENDBRANCH  32  33
ENDBRANCH  31  32
BRANCH  31  37
HETATM   37  O1  UNL     1      35.293  44.483   2.437  1.00  0.00    -0.386 OA
ATOM     38  H1  UNL     1      35.451  45.328   2.841  1.00  0.00     0.210 HD
ENDBRANCH  31  37
ENDBRANCH   1  31
TORSDOF 11
ENDMDL
MODEL 5
REMARK VINA RESULT: -7.959757727      5.840      7.369
REMARK  11 active torsions:
REMARK  status: ('A' for Active; 'I' for Inactive)
REMARK    1  A    between atoms: S1_2  and  C2_3 
REMARK    2  A    between atoms: C2_3  and  C3_4 
REMARK    3  A    between atoms: C3_4  and  C4_5 
REMARK    4  A    between atoms: C4_5  and  C5_6 
REMARK    5  A    between atoms: C5_6  and  O1_7 
REMARK    6  A    between atoms: C5_6  and  C6_9 
REMARK       I    between atoms: C6_9  and  N1_11 
REMARK    7  A    between atoms: C17_22  and  C18_23 
REMARK       I    between atoms: C18_23  and  N2_25 
REMARK    8  A    between atoms: N2_25  and  C19_27 
REMARK    9  A    between atoms: C19_27  and  C20_28 
REMARK   10  A    between atoms: C20_28  and  C23_31 
REMARK   11  A    between atoms: C23_31  and  O4_32 
ROOT
HETATM    1  C6  UNL     1      25.661  50.540  -0.602  1.00  0.00     0.248 C 
HETATM    2  O2  UNL     1      24.726  50.393   0.259  1.00  0.00    -0.270 OA
HETATM    3  N1  UNL     1      26.933  50.040  -0.275  1.00  0.00    -0.350 N 
HETATM    4  C7  UNL     1      27.121  49.373   1.013  1.00  0.00     0.126 C 
HETATM    5  C8  UNL     1      27.934  48.131   0.882  1.00  0.00     0.030 C 
HETATM    6  C9  UNL     1      29.229  48.320   0.174  1.00  0.00    -0.033 C 
HETATM    7  C10 UNL     1      29.345  47.238  -0.899  1.00  0.00     0.016 C 
HETATM    8  C11 UNL     1      29.323  49.626  -0.537  1.00  0.00     0.012 C 
HETATM    9  C12 UNL     1      30.007  50.715   0.290  1.00  0.00     0.007 C 
HETATM   10  C13 UNL     1      31.469  50.320   0.349  1.00  0.00     0.006 C 
HETATM   11  C14 UNL     1      31.620  48.809   0.413  1.00  0.00    -0.005 C 
HETATM   12  C15 UNL     1      32.921  48.530   1.106  1.00  0.00    -0.004 C 
HETATM   13  C16 UNL     1      34.081  48.213   0.195  1.00  0.00     0.020 C 
HETATM   14  C17 UNL     1      34.382  47.009   1.050  1.00  0.00     0.082 C 
HETATM   15  C24 UNL     1      33.041  47.188   1.720  1.00  0.00     0.003 C 
HETATM   16  C25 UNL     1      31.964  46.280   1.174  1.00  0.00     0.006 C 
HETATM   17  C26 UNL     1      30.639  46.875   1.669  1.00  0.00     0.006 C 
HETATM   18  C27 UNL     1      30.423  48.244   1.126  1.00  0.00    -0.001 C 
HETATM   19  C28 UNL     1      28.066  50.150  -1.134  1.00  0.00     0.131 C 
ENDROOT
BRANCH  14  20
HETATM   20  C18 UNL     1      35.540  47.272   1.972  1.00  0.00     0.222 C 
HETATM   21  O3  UNL     1      35.838  48.447   2.306  1.00  0.00    -0.273 OA
HETATM   22  N2  UNL     1      36.332  46.214   2.493  1.00  0.00    -0.360 N 
ATOM     23  H2  UNL     1      36.114  45.250   2.239  1.00  0.00     0.162 HD
BRANCH  22  24
HETATM   24  C19 UNL     1      37.434  46.482   3.373  1.00  0.00     0.133 C 
BRANCH  24  25
HETATM   25  C20 UNL     1      37.233  46.004   4.772  1.00  0.00    -0.010 C 
HETATM   26  C21 UNL     1      36.144  44.964   4.869  1.00  0.00     0.018 C 
HETATM   27  C22 UNL     1      38.534  45.296   5.176  1.00  0.00     0.018 C 
BRANCH  25  28
HETATM   28  C23 UNL     1      37.073  47.159   5.699  1.00  0.00     0.174 C 
BRANCH  28  29
HETATM   29  O4  UNL     1      36.799  48.370   5.119  1.00  0.00    -0.400 OA
ATOM     30  H4  UNL     1      37.526  48.807   4.693  1.00  0.00     0.209 HD
ENDBRANCH  28  29
ENDBRANCH  25  28
ENDBRANCH  24  25
ENDBRANCH  22  24
ENDBRANCH  14  20
BRANCH   1  31
HETATM   31  C5  UNL     1      25.319  51.234  -1.891  1.00  0.00     0.210 C 
BRANCH  31  32
HETATM   32  C4  UNL     1      23.939  51.758  -1.725  1.00  0.00     0.042 C 
BRANCH  32  33
HETATM   33  C3  UNL     1      23.508  52.941  -2.477  1.00  0.00     0.013 C 
BRANCH  33  34
HETATM   34  C2  UNL     1      22.533  52.790  -3.585  1.00  0.00     0.073 C 
BRANCH  34  35
HETATM   35  S1  UNL     1      23.175  52.438  -5.205  1.00  0.00    -0.173 SA
HETATM   36  C1  UNL     1      21.994  52.739  -6.543  1.00  0.00     0.089 C 
ENDBRANCH  34  35
ENDBRANCH  33  34
ENDBRANCH  32  33
ENDBRANCH  31  32
BRANCH  31  37
HETATM   37  O1  UNL     1      25.497  50.451  -2.999  1.00  0.00    -0.386 OA
ATOM     38  H1  UNL     1      24.915  49.702  -3.046  1.00  0.00     0.210 HD
ENDBRANCH  31  37
ENDBRANCH   1  31
TORSDOF 11
ENDMDL
