MODEL 1
REMARK VINA RESULT: -9.211312461      0.000      0.000
REMARK  10 active torsions:
REMARK  status: ('A' for Active; 'I' for Inactive)
REMARK       I    between atoms: C2_2  and  N1_4 
REMARK    1  A    between atoms: N1_4  and  C3_6 
REMARK    2  A    between atoms: C9_12  and  C10_13 
REMARK       I    between atoms: C10_13  and  N2_15 
REMARK    3  A    between atoms: N2_15  and  C11_17 
REMARK    4  A    between atoms: C11_17  and  C12_18 
REMARK    5  A    between atoms: C12_18  and  C13_19 
REMARK    6  A    between atoms: C13_19  and  C14_20 
REMARK    7  A    between atoms: C14_20  and  C15_21 
REMARK    8  A    between atoms: C15_21  and  N3_22 
REMARK       I    between atoms: N3_22  and  C16_24 
REMARK    9  A    between atoms: C16_24  and  O4_26 
REMARK   10  A    between atoms: O4_26  and  C17_27 
ROOT
HETATM    1  C3  UNL     1      31.522  44.371   1.035  1.00  0.00     0.097 C 
HETATM    2  C4  UNL     1      30.845  44.258   2.367  1.00  0.00     0.005 C 
HETATM    3  C5  UNL     1      30.556  42.766   2.598  1.00  0.00     0.012 C 
HETATM    4  C6  UNL     1      29.495  44.928   2.378  1.00  0.00     0.007 C 
HETATM    5  C7  UNL     1      29.417  46.229   1.683  1.00  0.00     0.007 C 
HETATM    6  C8  UNL     1      30.198  46.287   0.420  1.00  0.00     0.009 C 
HETATM    7  C9  UNL     1      30.293  47.680  -0.140  1.00  0.00     0.083 C 
HETATM    8  C21 UNL     1      30.904  48.649   0.808  1.00  0.00     0.020 C 
HETATM    9  C22 UNL     1      31.979  48.079   1.662  1.00  0.00    -0.004 A 
HETATM   10  C23 UNL     1      33.205  48.993   1.523  1.00  0.00    -0.006 A 
HETATM   11  C24 UNL     1      33.858  49.169   0.201  1.00  0.00     0.010 A 
HETATM   12  C25 UNL     1      34.357  48.167   1.182  1.00  0.00    -0.009 A 
HETATM   13  C26 UNL     1      33.905  46.735   1.094  1.00  0.00     0.011 A 
HETATM   14  C27 UNL     1      32.426  46.696   1.429  1.00  0.00     0.001 A 
HETATM   15  C28 UNL     1      31.636  45.808   0.545  1.00  0.00    -0.015 C 
HETATM   16  C29 UNL     1      32.181  45.692  -0.873  1.00  0.00     0.018 C 
ENDROOT
BRANCH   7  17
HETATM   17  C10 UNL     1      29.026  48.099  -0.755  1.00  0.00     0.222 C 
HETATM   18  O2  UNL     1      28.395  47.250  -1.421  1.00  0.00    -0.273 OA
HETATM   19  N2  UNL     1      28.516  49.400  -0.612  1.00  0.00    -0.361 N 
ATOM     20  H2  UNL     1      29.085  50.040  -0.058  1.00  0.00     0.162 HD
BRANCH  19  21
HETATM   21  C11 UNL     1      27.316  49.940  -1.136  1.00  0.00     0.122 C 
BRANCH  21  22
HETATM   22  C12 UNL     1      26.600  50.769  -0.095  1.00  0.00     0.020 C 
BRANCH  22  23
HETATM   23  C13 UNL     1      25.103  50.511  -0.210  1.00  0.00     0.003 C 
BRANCH  23  24
HETATM   24  C14 UNL     1      24.375  51.562  -0.957  1.00  0.00     0.020 C 
BRANCH  24  25
HETATM   25  C15 UNL     1      24.642  51.581  -2.447  1.00  0.00     0.125 C 
BRANCH  25  26
HETATM   26  N3  UNL     1      23.853  52.641  -3.033  1.00  0.00    -0.337 N 
HETATM   27  C16 UNL     1      23.902  52.898  -4.440  1.00  0.00     0.361 C 
HETATM   28  O3  UNL     1      24.643  52.212  -5.178  1.00  0.00    -0.238 OA
ATOM     29  H3  UNL     1      23.255  53.212  -2.437  1.00  0.00     0.164 HD
BRANCH  27  30
HETATM   30  O4  UNL     1      23.148  53.890  -5.023  1.00  0.00    -0.294 OA
BRANCH  30  31
HETATM   31  C17 UNL     1      21.805  53.820  -5.382  1.00  0.00     0.061 C 
HETATM   32  C18 UNL     1      21.317  55.275  -5.471  1.00  0.00     0.046 C 
HETATM   33  C19 UNL     1      21.533  53.194  -6.721  1.00  0.00     0.046 C 
HETATM   34  C20 UNL     1      20.945  53.132  -4.360  1.00  0.00     0.046 C 
ENDBRANCH  30  31
ENDBRANCH  27  30
ENDBRANCH  25  26
ENDBRANCH  24  25
ENDBRANCH  23  24
ENDBRANCH  22  23
ENDBRANCH  21  22
ENDBRANCH  19  21
ENDBRANCH   7  17
BRANCH   1  35
HETATM   35  N1  UNL     1      32.740  43.639   1.032  1.00  0.00    -0.356 N 
HETATM   36  C2  UNL     1      32.915  42.531   0.164  1.00  0.00     0.213 C 
HETATM   37  C1  UNL     1      34.161  41.710   0.094  1.00  0.00     0.117 C 
HETATM   38  O1  UNL     1      31.983  42.164  -0.632  1.00  0.00    -0.274 OA
ATOM     39  H1  UNL     1      33.496  43.913   1.660  1.00  0.00     0.162 HD
ENDBRANCH   1  35
TORSDOF 10
ENDMDL
MODEL 2
REMARK VINA RESULT: -9.020216843      1.104      1.378
REMARK  10 active torsions:
REMARK  status: ('A' for Active; 'I' for Inactive)
REMARK       I    between atoms: C2_2  and  N1_4 
REMARK    1  A    between atoms: N1_4  and  C3_6 
REMARK    2  A    between atoms: C9_12  and  C10_13 
REMARK       I    between atoms: C10_13  and  N2_15 
REMARK    3  A    between atoms: N2_15  and  C11_17 
REMARK    4  A    between atoms: C11_17  and  C12_18 
REMARK    5  A    between atoms: C12_18  and  C13_19 
REMARK    6  A    between atoms: C13_19  and  C14_20 
REMARK    7  A    between atoms: C14_20  and  C15_21 
REMARK    8  A    between atoms: C15_21  and  N3_22 
REMARK       I    between atoms: N3_22  and  C16_24 
REMARK    9  A    between atoms: C16_24  and  O4_26 
REMARK   10  A    between atoms: O4_26  and  C17_27 
ROOT
HETATM    1  C3  UNL     1      32.206  44.853   0.234  1.00  0.00     0.097 C 
HETATM    2  C4  UNL     1      32.027  44.335   1.629  1.00  0.00     0.005 C 
HETATM    3  C5  UNL     1      32.081  42.801   1.548  1.00  0.00     0.012 C 
HETATM    4  C6  UNL     1      30.661  44.653   2.183  1.00  0.00     0.007 C 
HETATM    5  C7  UNL     1      30.147  46.005   1.887  1.00  0.00     0.007 C 
HETATM    6  C8  UNL     1      30.455  46.482   0.514  1.00  0.00     0.009 C 
HETATM    7  C9  UNL     1      30.130  47.939   0.318  1.00  0.00     0.083 C 
HETATM    8  C21 UNL     1      30.844  48.828   1.271  1.00  0.00     0.020 C 
HETATM    9  C22 UNL     1      32.218  48.378   1.621  1.00  0.00    -0.004 A 
HETATM   10  C23 UNL     1      33.162  49.565   1.381  1.00  0.00    -0.006 A 
HETATM   11  C24 UNL     1      33.313  50.135   0.019  1.00  0.00     0.010 A 
HETATM   12  C25 UNL     1      34.261  49.113   0.538  1.00  0.00    -0.009 A 
HETATM   13  C26 UNL     1      34.051  47.658   0.222  1.00  0.00     0.011 A 
HETATM   14  C27 UNL     1      32.789  47.208   0.933  1.00  0.00     0.001 A 
HETATM   15  C28 UNL     1      31.915  46.341   0.110  1.00  0.00    -0.015 C 
HETATM   16  C29 UNL     1      31.981  46.626  -1.385  1.00  0.00     0.018 C 
ENDROOT
BRANCH   7  17
HETATM   17  C10 UNL     1      28.681  48.154   0.205  1.00  0.00     0.222 C 
HETATM   18  O2  UNL     1      28.028  47.358  -0.504  1.00  0.00    -0.273 OA
HETATM   19  N2  UNL     1      28.025  49.208   0.863  1.00  0.00    -0.361 N 
ATOM     20  H2  UNL     1      28.620  49.820   1.422  1.00  0.00     0.162 HD
BRANCH  19  21
HETATM   21  C11 UNL     1      26.647  49.532   0.854  1.00  0.00     0.122 C 
BRANCH  21  22
HETATM   22  C12 UNL     1      26.316  50.442  -0.307  1.00  0.00     0.020 C 
BRANCH  22  23
HETATM   23  C13 UNL     1      24.840  50.813  -0.231  1.00  0.00     0.003 C 
BRANCH  23  24
HETATM   24  C14 UNL     1      24.350  51.546  -1.421  1.00  0.00     0.020 C 
BRANCH  24  25
HETATM   25  C15 UNL     1      24.965  51.107  -2.733  1.00  0.00     0.125 C 
BRANCH  25  26
HETATM   26  N3  UNL     1      24.022  51.389  -3.791  1.00  0.00    -0.337 N 
HETATM   27  C16 UNL     1      24.099  52.609  -4.535  1.00  0.00     0.361 C 
HETATM   28  O3  UNL     1      24.982  53.453  -4.266  1.00  0.00    -0.238 OA
ATOM     29  H3  UNL     1      23.292  50.712  -4.009  1.00  0.00     0.164 HD
BRANCH  27  30
HETATM   30  O4  UNL     1      23.223  52.893  -5.556  1.00  0.00    -0.294 OA
BRANCH  30  31
HETATM   31  C17 UNL     1      21.931  53.398  -5.437  1.00  0.00     0.061 C 
HETATM   32  C18 UNL     1      21.183  52.945  -6.700  1.00  0.00     0.046 C 
HETATM   33  C19 UNL     1      21.148  52.877  -4.265  1.00  0.00     0.046 C 
HETATM   34  C20 UNL     1      21.875  54.899  -5.410  1.00  0.00     0.046 C 
ENDBRANCH  30  31
ENDBRANCH  27  30
ENDBRANCH  25  26
ENDBRANCH  24  25
ENDBRANCH  23  24
ENDBRANCH  22  23
ENDBRANCH  21  22
ENDBRANCH  19  21
ENDBRANCH   7  17
BRANCH   1  35
HETATM   35  N1  UNL     1      33.462  44.443  -0.291  1.00  0.00    -0.356 N 
HETATM   36  C2  UNL     1      33.528  43.599  -1.429  1.00  0.00     0.213 C 
HETATM   37  C1  UNL     1      34.802  43.123  -2.047  1.00  0.00     0.117 C 
HETATM   38  O1  UNL     1      32.463  43.186  -2.005  1.00  0.00    -0.274 OA
ATOM     39  H1  UNL     1      34.324  44.759   0.155  1.00  0.00     0.162 HD
ENDBRANCH   1  35
TORSDOF 10
ENDMDL
MODEL 3
REMARK VINA RESULT: -9.017347796      2.754      4.155
REMARK  10 active torsions:
REMARK  status: ('A' for Active; 'I' for Inactive)
REMARK       I    between atoms: C2_2  and  N1_4 
REMARK    1  A    between atoms: N1_4  and  C3_6 
REMARK    2  A    between atoms: C9_12  and  C10_13 
REMARK       I    between atoms: C10_13  and  N2_15 
REMARK    3  A    between atoms: N2_15  and  C11_17 
REMARK    4  A    between atoms: C11_17  and  C12_18 
REMARK    5  A    between atoms: C12_18  and  C13_19 
REMARK    6  A    between atoms: C13_19  and  C14_20 
REMARK    7  A    between atoms: C14_20  and  C15_21 
REMARK    8  A    between atoms: C15_21  and  N3_22 
REMARK       I    between atoms: N3_22  and  C16_24 
REMARK    9  A    between atoms: C16_24  and  O4_26 
REMARK   10  A    between atoms: O4_26  and  C17_27 
ROOT
HETATM    1  C3  UNL     1      30.325  40.928   1.603  1.00  0.00     0.097 C 
HETATM    2  C4  UNL     1      28.989  40.686   2.240  1.00  0.00     0.005 C 
HETATM    3  C5  UNL     1      28.369  39.471   1.531  1.00  0.00     0.012 C 
HETATM    4  C6  UNL     1      28.028  41.820   1.994  1.00  0.00     0.007 C 
HETATM    5  C7  UNL     1      28.597  43.179   2.100  1.00  0.00     0.007 C 
HETATM    6  C8  UNL     1      29.964  43.308   1.534  1.00  0.00     0.009 C 
HETATM    7  C9  UNL     1      30.607  44.628   1.862  1.00  0.00     0.083 C 
HETATM    8  C21 UNL     1      30.704  44.881   3.324  1.00  0.00     0.020 C 
HETATM    9  C22 UNL     1      30.959  43.666   4.143  1.00  0.00    -0.004 A 
HETATM   10  C23 UNL     1      32.170  43.965   5.038  1.00  0.00    -0.006 A 
HETATM   11  C24 UNL     1      33.491  44.267   4.431  1.00  0.00     0.010 A 
HETATM   12  C25 UNL     1      33.140  42.890   4.873  1.00  0.00    -0.009 A 
HETATM   13  C26 UNL     1      32.587  41.898   3.886  1.00  0.00     0.011 A 
HETATM   14  C27 UNL     1      31.211  42.383   3.466  1.00  0.00     0.001 A 
HETATM   15  C28 UNL     1      30.949  42.253   2.015  1.00  0.00    -0.015 C 
HETATM   16  C29 UNL     1      32.189  42.386   1.141  1.00  0.00     0.018 C 
ENDROOT
BRANCH   7  17
HETATM   17  C10 UNL     1      30.034  45.719   1.061  1.00  0.00     0.222 C 
HETATM   18  O2  UNL     1      30.439  45.852  -0.113  1.00  0.00    -0.273 OA
HETATM   19  N2  UNL     1      29.060  46.593   1.571  1.00  0.00    -0.361 N 
ATOM     20  H2  UNL     1      28.779  46.427   2.538  1.00  0.00     0.162 HD
BRANCH  19  21
HETATM   21  C11 UNL     1      28.418  47.674   0.921  1.00  0.00     0.122 C 
BRANCH  21  22
HETATM   22  C12 UNL     1      28.852  48.994   1.515  1.00  0.00     0.020 C 
BRANCH  22  23
HETATM   23  C13 UNL     1      27.701  49.562   2.338  1.00  0.00     0.003 C 
BRANCH  23  24
HETATM   24  C14 UNL     1      26.556  50.020   1.519  1.00  0.00     0.020 C 
BRANCH  24  25
HETATM   25  C15 UNL     1      26.937  50.703   0.222  1.00  0.00     0.125 C 
BRANCH  25  26
HETATM   26  N3  UNL     1      25.746  50.830  -0.587  1.00  0.00    -0.337 N 
HETATM   27  C16 UNL     1      25.815  50.729  -2.013  1.00  0.00     0.361 C 
HETATM   28  O3  UNL     1      26.917  50.541  -2.576  1.00  0.00    -0.238 OA
ATOM     29  H3  UNL     1      24.846  50.994  -0.137  1.00  0.00     0.164 HD
BRANCH  27  30
HETATM   30  O4  UNL     1      24.694  50.830  -2.803  1.00  0.00    -0.294 OA
BRANCH  30  31
HETATM   31  C17 UNL     1      24.123  51.997  -3.302  1.00  0.00     0.061 C 
HETATM   32  C18 UNL     1      23.572  52.752  -2.082  1.00  0.00     0.046 C 
HETATM   33  C19 UNL     1      25.079  52.933  -3.988  1.00  0.00     0.046 C 
HETATM   34  C20 UNL     1      22.964  51.751  -4.225  1.00  0.00     0.046 C 
ENDBRANCH  30  31
ENDBRANCH  27  30
ENDBRANCH  25  26
ENDBRANCH  24  25
ENDBRANCH  23  24
ENDBRANCH  22  23
ENDBRANCH  21  22
ENDBRANCH  19  21
ENDBRANCH   7  17
BRANCH   1  35
HETATM   35  N1  UNL     1      31.166  39.794   1.766  1.00  0.00    -0.356 N 
HETATM   36  C2  UNL     1      31.628  39.070   0.636  1.00  0.00     0.213 C 
HETATM   37  C1  UNL     1      32.516  37.871   0.715  1.00  0.00     0.117 C 
HETATM   38  O1  UNL     1      31.298  39.418  -0.549  1.00  0.00    -0.274 OA
ATOM     39  H1  UNL     1      31.440  39.498   2.703  1.00  0.00     0.162 HD
ENDBRANCH   1  35
TORSDOF 10
ENDMDL
MODEL 4
REMARK VINA RESULT: -9.007687577      3.100      5.286
REMARK  10 active torsions:
REMARK  status: ('A' for Active; 'I' for Inactive)
REMARK       I    between atoms: C2_2  and  N1_4 
REMARK    1  A    between atoms: N1_4  and  C3_6 
REMARK    2  A    between atoms: C9_12  and  C10_13 
REMARK       I    between atoms: C10_13  and  N2_15 
REMARK    3  A    between atoms: N2_15  and  C11_17 
REMARK    4  A    between atoms: C11_17  and  C12_18 
REMARK    5  A    between atoms: C12_18  and  C13_19 
REMARK    6  A    between atoms: C13_19  and  C14_20 
REMARK    7  A    between atoms: C14_20  and  C15_21 
REMARK    8  A    between atoms: C15_21  and  N3_22 
REMARK       I    between atoms: N3_22  and  C16_24 
REMARK    9  A    between atoms: C16_24  and  O4_26 
REMARK   10  A    between atoms: O4_26  and  C17_27 
ROOT
HETATM    1  C3  UNL     1      29.745  39.748   2.401  1.00  0.00     0.097 C 
HETATM    2  C4  UNL     1      30.458  39.987   3.698  1.00  0.00     0.005 C 
HETATM    3  C5  UNL     1      29.881  38.990   4.717  1.00  0.00     0.012 C 
HETATM    4  C6  UNL     1      30.160  41.351   4.267  1.00  0.00     0.007 C 
HETATM    5  C7  UNL     1      30.128  42.461   3.294  1.00  0.00     0.007 C 
HETATM    6  C8  UNL     1      29.493  42.109   1.997  1.00  0.00     0.009 C 
HETATM    7  C9  UNL     1      29.682  43.173   0.950  1.00  0.00     0.083 C 
HETATM    8  C21 UNL     1      31.112  43.477   0.680  1.00  0.00     0.020 C 
HETATM    9  C22 UNL     1      32.017  42.300   0.765  1.00  0.00    -0.004 A 
HETATM   10  C23 UNL     1      32.831  42.255  -0.536  1.00  0.00    -0.006 A 
HETATM   11  C24 UNL     1      32.144  42.079  -1.840  1.00  0.00     0.010 A 
HETATM   12  C25 UNL     1      32.714  40.918  -1.104  1.00  0.00    -0.009 A 
HETATM   13  C26 UNL     1      31.839  40.093  -0.201  1.00  0.00     0.011 A 
HETATM   14  C27 UNL     1      31.441  40.962   0.977  1.00  0.00     0.001 A 
HETATM   15  C28 UNL     1      30.018  40.829   1.365  1.00  0.00    -0.015 C 
HETATM   16  C29 UNL     1      29.083  40.501   0.208  1.00  0.00     0.018 C 
ENDROOT
BRANCH   7  17
HETATM   17  C10 UNL     1      28.819  44.335   1.204  1.00  0.00     0.222 C 
HETATM   18  O2  UNL     1      27.687  44.122   1.690  1.00  0.00    -0.273 OA
HETATM   19  N2  UNL     1      29.226  45.649   0.923  1.00  0.00    -0.361 N 
ATOM     20  H2  UNL     1      30.160  45.747   0.525  1.00  0.00     0.162 HD
BRANCH  19  21
HETATM   21  C11 UNL     1      28.512  46.855   1.119  1.00  0.00     0.122 C 
BRANCH  21  22
HETATM   22  C12 UNL     1      29.440  47.965   1.557  1.00  0.00     0.020 C 
BRANCH  22  23
HETATM   23  C13 UNL     1      28.601  49.143   2.038  1.00  0.00     0.003 C 
BRANCH  23  24
HETATM   24  C14 UNL     1      27.398  49.391   1.212  1.00  0.00     0.020 C 
BRANCH  24  25
HETATM   25  C15 UNL     1      27.494  50.593   0.296  1.00  0.00     0.125 C 
BRANCH  25  26
HETATM   26  N3  UNL     1      26.239  50.725  -0.410  1.00  0.00    -0.337 N 
HETATM   27  C16 UNL     1      26.180  50.586  -1.832  1.00  0.00     0.361 C 
HETATM   28  O3  UNL     1      27.224  50.360  -2.484  1.00  0.00    -0.238 OA
ATOM     29  H3  UNL     1      25.386  50.919   0.113  1.00  0.00     0.164 HD
BRANCH  27  30
HETATM   30  O4  UNL     1      24.996  50.690  -2.523  1.00  0.00    -0.294 OA
BRANCH  30  31
HETATM   31  C17 UNL     1      24.330  51.862  -2.873  1.00  0.00     0.061 C 
HETATM   32  C18 UNL     1      23.196  51.435  -3.817  1.00  0.00     0.046 C 
HETATM   33  C19 UNL     1      23.684  52.594  -1.730  1.00  0.00     0.046 C 
HETATM   34  C20 UNL     1      25.187  52.836  -3.630  1.00  0.00     0.046 C 
ENDBRANCH  30  31
ENDBRANCH  27  30
ENDBRANCH  25  26
ENDBRANCH  24  25
ENDBRANCH  23  24
ENDBRANCH  22  23
ENDBRANCH  21  22
ENDBRANCH  19  21
ENDBRANCH   7  17
BRANCH   1  35
HETATM   35  N1  UNL     1      29.966  38.418   1.951  1.00  0.00    -0.356 N 
HETATM   36  C2  UNL     1      28.884  37.508   1.833  1.00  0.00     0.213 C 
HETATM   37  C1  UNL     1      29.024  36.095   1.366  1.00  0.00     0.117 C 
HETATM   38  O1  UNL     1      27.691  37.860   2.132  1.00  0.00    -0.274 OA
ATOM     39  H1  UNL     1      30.909  38.115   1.710  1.00  0.00     0.162 HD
ENDBRANCH   1  35
TORSDOF 10
ENDMDL
MODEL 5
REMARK VINA RESULT: -8.852841790      1.800      2.566
REMARK  10 active torsions:
REMARK  status: ('A' for Active; 'I' for Inactive)
REMARK       I    between atoms: C2_2  and  N1_4 
REMARK    1  A    between atoms: N1_4  and  C3_6 
REMARK    2  A    between atoms: C9_12  and  C10_13 
REMARK       I    between atoms: C10_13  and  N2_15 
REMARK    3  A    between atoms: N2_15  and  C11_17 
REMARK    4  A    between atoms: C11_17  and  C12_18 
REMARK    5  A    between atoms: C12_18  and  C13_19 
REMARK    6  A    between atoms: C13_19  and  C14_20 
REMARK    7  A    between atoms: C14_20  and  C15_21 
REMARK    8  A    between atoms: C15_21  and  N3_22 
REMARK       I    between atoms: N3_22  and  C16_24 
REMARK    9  A    between atoms: C16_24  and  O4_26 
REMARK   10  A    between atoms: O4_26  and  C17_27 
ROOT
HETATM    1  C3  UNL     1      31.212  42.851   2.321  1.00  0.00     0.097 C 
HETATM    2  C4  UNL     1      31.806  43.480   3.545  1.00  0.00     0.005 C 
HETATM    3  C5  UNL     1      31.626  42.477   4.696  1.00  0.00     0.012 C 
HETATM    4  C6  UNL     1      31.053  44.713   3.974  1.00  0.00     0.007 C 
HETATM    5  C7  UNL     1      30.623  45.614   2.886  1.00  0.00     0.007 C 
HETATM    6  C8  UNL     1      30.141  44.908   1.671  1.00  0.00     0.009 C 
HETATM    7  C9  UNL     1      29.934  45.836   0.503  1.00  0.00     0.083 C 
HETATM    8  C21 UNL     1      31.163  46.583   0.128  1.00  0.00     0.020 C 
HETATM    9  C22 UNL     1      32.425  45.815   0.297  1.00  0.00    -0.004 A 
HETATM   10  C23 UNL     1      33.191  45.897  -1.031  1.00  0.00    -0.006 A 
HETATM   11  C24 UNL     1      32.598  45.335  -2.271  1.00  0.00     0.010 A 
HETATM   12  C25 UNL     1      33.547  44.544  -1.440  1.00  0.00    -0.009 A 
HETATM   13  C26 UNL     1      33.026  43.583  -0.408  1.00  0.00     0.011 A 
HETATM   14  C27 UNL     1      32.358  44.396   0.685  1.00  0.00     0.001 A 
HETATM   15  C28 UNL     1      31.077  43.824   1.158  1.00  0.00    -0.015 C 
HETATM   16  C29 UNL     1      30.306  43.052   0.094  1.00  0.00     0.018 C 
ENDROOT
BRANCH   7  17
HETATM   17  C10 UNL     1      28.719  46.645   0.671  1.00  0.00     0.222 C 
HETATM   18  O2  UNL     1      27.617  46.060   0.601  1.00  0.00    -0.273 OA
HETATM   19  N2  UNL     1      28.766  48.029   0.905  1.00  0.00    -0.361 N 
ATOM     20  H2  UNL     1      29.699  48.440   0.947  1.00  0.00     0.162 HD
BRANCH  19  21
HETATM   21  C11 UNL     1      27.689  48.929   1.092  1.00  0.00     0.122 C 
BRANCH  21  22
HETATM   22  C12 UNL     1      27.491  49.792  -0.133  1.00  0.00     0.020 C 
BRANCH  22  23
HETATM   23  C13 UNL     1      26.310  50.724   0.112  1.00  0.00     0.003 C 
BRANCH  23  24
HETATM   24  C14 UNL     1      25.316  50.723  -0.986  1.00  0.00     0.020 C 
BRANCH  24  25
HETATM   25  C15 UNL     1      25.861  51.143  -2.335  1.00  0.00     0.125 C 
BRANCH  25  26
HETATM   26  N3  UNL     1      25.046  52.227  -2.834  1.00  0.00    -0.337 N 
HETATM   27  C16 UNL     1      24.761  52.347  -4.230  1.00  0.00     0.361 C 
HETATM   28  O3  UNL     1      25.229  51.516  -5.040  1.00  0.00    -0.238 OA
ATOM     29  H3  UNL     1      24.669  52.915  -2.182  1.00  0.00     0.164 HD
BRANCH  27  30
HETATM   30  O4  UNL     1      23.975  53.360  -4.726  1.00  0.00    -0.294 OA
BRANCH  30  31
HETATM   31  C17 UNL     1      22.584  53.385  -4.795  1.00  0.00     0.061 C 
HETATM   32  C18 UNL     1      22.209  52.562  -6.038  1.00  0.00     0.046 C 
HETATM   33  C19 UNL     1      21.876  52.751  -3.631  1.00  0.00     0.046 C 
HETATM   34  C20 UNL     1      22.018  54.762  -4.995  1.00  0.00     0.046 C 
ENDBRANCH  30  31
ENDBRANCH  27  30
ENDBRANCH  25  26
ENDBRANCH  24  25
ENDBRANCH  23  24
ENDBRANCH  22  23
ENDBRANCH  21  22
ENDBRANCH  19  21
ENDBRANCH   7  17
BRANCH   1  35
HETATM   35  N1  UNL     1      31.882  41.637   2.010  1.00  0.00    -0.356 N 
HETATM   36  C2  UNL     1      31.171  40.410   1.973  1.00  0.00     0.213 C 
HETATM   37  C1  UNL     1      31.794  39.089   1.653  1.00  0.00     0.117 C 
HETATM   38  O1  UNL     1      29.916  40.367   2.220  1.00  0.00    -0.274 OA
ATOM     39  H1  UNL     1      32.882  41.647   1.812  1.00  0.00     0.162 HD
ENDBRANCH   1  35
TORSDOF 10
ENDMDL
