MODEL 1
REMARK VINA RESULT: -6.122227449      0.000      0.000
REMARK  15 active torsions:
REMARK  status: ('A' for Active; 'I' for Inactive)
REMARK    1  A    between atoms: N1_2  and  C3_4 
REMARK    2  A    between atoms: N1_2  and  C5_8 
REMARK    3  A    between atoms: C3_4  and  C4_5 
REMARK    4  A    between atoms: C4_5  and  O1_6 
REMARK    5  A    between atoms: C5_8  and  C6_9 
REMARK    6  A    between atoms: C6_9  and  C7_10 
REMARK    7  A    between atoms: C7_10  and  C8_11 
REMARK    8  A    between atoms: C8_11  and  O2_12 
REMARK    9  A    between atoms: O2_12  and  C9_13 
REMARK   10  A    between atoms: C11_15  and  O3_16 
REMARK   11  A    between atoms: C13_19  and  C14_20 
REMARK   12  A    between atoms: C14_20  and  O4_21 
REMARK   13  A    between atoms: C14_20  and  C15_23 
REMARK   14  A    between atoms: C15_23  and  O5_24 
REMARK   15  A    between atoms: O5_24  and  C16_25 
ROOT
HETATM    1  C9  UNL     1      -5.934   2.654  15.358  1.00  0.00     0.262 C 
HETATM    2  C10 UNL     1      -5.130   2.202  16.556  1.00  0.00     0.092 C 
HETATM    3  C11 UNL     1      -4.754   0.757  16.310  1.00  0.00     0.125 C 
HETATM    4  C12 UNL     1      -4.677   0.466  14.811  1.00  0.00     0.066 C 
HETATM    5  C13 UNL     1      -4.164   1.726  14.160  1.00  0.00     0.158 C 
HETATM    6  O6  UNL     1      -5.091   2.762  14.257  1.00  0.00    -0.353 OA
ENDROOT
BRANCH   1   7
HETATM    7  O2  UNL     1      -6.565   3.854  15.550  1.00  0.00    -0.361 OA
BRANCH   7   8
HETATM    8  C8  UNL     1      -5.810   4.983  15.426  1.00  0.00     0.171 C 
BRANCH   8   9
HETATM    9  C7  UNL     1      -6.301   5.905  14.294  1.00  0.00     0.028 C 
BRANCH   9  10
HETATM   10  C6  UNL     1      -5.142   6.220  13.410  1.00  0.00     0.030 C 
BRANCH  10  11
HETATM   11  C5  UNL     1      -3.851   6.178  14.117  1.00  0.00     0.236 C 
BRANCH  11  12
HETATM   12  N1  UNL     1      -2.776   6.980  13.642  1.00  0.00    -0.073 N 
HETATM   13  C1  UNL     1      -3.000   7.730  12.457  1.00  0.00     0.272 C 
HETATM   14  C2  UNL     1      -2.538   7.967  14.728  1.00  0.00     0.272 C 
BRANCH  12  15
HETATM   15  C3  UNL     1      -1.597   6.139  13.545  1.00  0.00     0.262 C 
BRANCH  15  16
HETATM   16  C4  UNL     1      -1.781   4.760  14.073  1.00  0.00     0.192 C 
BRANCH  16  17
HETATM   17  O1  UNL     1      -1.008   3.807  13.428  1.00  0.00    -0.399 OA
ATOM     18  H1  UNL     1      -1.488   3.022  13.190  1.00  0.00     0.209 HD
ENDBRANCH  16  17
ENDBRANCH  15  16
ENDBRANCH  12  15
ENDBRANCH  11  12
ENDBRANCH  10  11
ENDBRANCH   9  10
ENDBRANCH   8   9
ENDBRANCH   7   8
ENDBRANCH   1   7
BRANCH   3  19
HETATM   19  O3  UNL     1      -5.699  -0.130  16.829  1.00  0.00    -0.395 OA
ATOM     20  H3  UNL     1      -6.014  -0.743  16.176  1.00  0.00     0.210 HD
ENDBRANCH   3  19
BRANCH   5  21
HETATM   21  C14 UNL     1      -3.850   1.539  12.691  1.00  0.00     0.171 C 
BRANCH  21  22
HETATM   22  O4  UNL     1      -2.492   1.670  12.529  1.00  0.00    -0.391 OA
ATOM     23  H4  UNL     1      -2.340   2.242  11.786  1.00  0.00     0.210 HD
ENDBRANCH  21  22
BRANCH  21  24
HETATM   24  C15 UNL     1      -4.674   2.449  11.815  1.00  0.00     0.204 C 
BRANCH  24  25
HETATM   25  O5  UNL     1      -3.978   2.907  10.719  1.00  0.00    -0.356 OA
BRANCH  25  26
HETATM   26  C16 UNL     1      -3.692   4.215  10.659  1.00  0.00     0.320 C 
HETATM   27  C17 UNL     1      -2.299   4.594  10.256  1.00  0.00     0.063 C 
HETATM   28  C18 UNL     1      -2.451   4.722   8.750  1.00  0.00     0.032 C 
HETATM   29  C19 UNL     1      -3.801   5.403   8.652  1.00  0.00     0.235 C 
HETATM   30  N2  UNL     1      -4.583   4.968   9.766  1.00  0.00    -0.049 N 
ATOM     31  H22 UNL     1      -5.411   4.439   9.489  1.00  0.00     0.280 HD
ATOM     32  H21 UNL     1      -5.066   5.734  10.237  1.00  0.00     0.280 HD
ENDBRANCH  25  26
ENDBRANCH  24  25
ENDBRANCH  21  24
ENDBRANCH   5  21
TORSDOF 15
ENDMDL
MODEL 2
REMARK VINA RESULT: -6.109225753      2.771      5.731
REMARK  15 active torsions:
REMARK  status: ('A' for Active; 'I' for Inactive)
REMARK    1  A    between atoms: N1_2  and  C3_4 
REMARK    2  A    between atoms: N1_2  and  C5_8 
REMARK    3  A    between atoms: C3_4  and  C4_5 
REMARK    4  A    between atoms: C4_5  and  O1_6 
REMARK    5  A    between atoms: C5_8  and  C6_9 
REMARK    6  A    between atoms: C6_9  and  C7_10 
REMARK    7  A    between atoms: C7_10  and  C8_11 
REMARK    8  A    between atoms: C8_11  and  O2_12 
REMARK    9  A    between atoms: O2_12  and  C9_13 
REMARK   10  A    between atoms: C11_15  and  O3_16 
REMARK   11  A    between atoms: C13_19  and  C14_20 
REMARK   12  A    between atoms: C14_20  and  O4_21 
REMARK   13  A    between atoms: C14_20  and  C15_23 
REMARK   14  A    between atoms: C15_23  and  O5_24 
REMARK   15  A    between atoms: O5_24  and  C16_25 
ROOT
HETATM    1  C9  UNL     1      -4.586   5.347  12.745  1.00  0.00     0.262 C 
HETATM    2  C10 UNL     1      -3.410   5.948  12.010  1.00  0.00     0.092 C 
HETATM    3  C11 UNL     1      -2.265   4.968  12.143  1.00  0.00     0.125 C 
HETATM    4  C12 UNL     1      -2.790   3.543  12.316  1.00  0.00     0.066 C 
HETATM    5  C13 UNL     1      -4.053   3.454  11.497  1.00  0.00     0.158 C 
HETATM    6  O6  UNL     1      -5.062   4.254  12.029  1.00  0.00    -0.353 OA
ENDROOT
BRANCH   1   7
HETATM    7  O2  UNL     1      -5.615   6.231  12.937  1.00  0.00    -0.361 OA
BRANCH   7   8
HETATM    8  C8  UNL     1      -5.705   7.281  12.071  1.00  0.00     0.171 C 
BRANCH   8   9
HETATM    9  C7  UNL     1      -7.154   7.761  11.867  1.00  0.00     0.028 C 
BRANCH   9  10
HETATM   10  C6  UNL     1      -7.331   8.118  10.430  1.00  0.00     0.030 C 
BRANCH  10  11
HETATM   11  C5  UNL     1      -6.363   7.446   9.547  1.00  0.00     0.236 C 
BRANCH  11  12
HETATM   12  N1  UNL     1      -6.735   7.161   8.204  1.00  0.00    -0.073 N 
HETATM   13  C1  UNL     1      -7.911   6.391   8.005  1.00  0.00     0.272 C 
HETATM   14  C2  UNL     1      -6.996   8.494   7.598  1.00  0.00     0.272 C 
BRANCH  12  15
HETATM   15  C3  UNL     1      -5.583   6.589   7.530  1.00  0.00     0.262 C 
BRANCH  15  16
HETATM   16  C4  UNL     1      -4.530   6.073   8.446  1.00  0.00     0.192 C 
BRANCH  16  17
HETATM   17  O1  UNL     1      -4.173   4.756   8.201  1.00  0.00    -0.399 OA
ATOM     18  H1  UNL     1      -4.760   4.121   8.593  1.00  0.00     0.209 HD
ENDBRANCH  16  17
ENDBRANCH  15  16
ENDBRANCH  12  15
ENDBRANCH  11  12
ENDBRANCH  10  11
ENDBRANCH   9  10
ENDBRANCH   8   9
ENDBRANCH   7   8
ENDBRANCH   1   7
BRANCH   3  19
HETATM   19  O3  UNL     1      -1.473   5.229  13.264  1.00  0.00    -0.395 OA
ATOM     20  H3  UNL     1      -0.665   4.731  13.256  1.00  0.00     0.210 HD
ENDBRANCH   3  19
BRANCH   5  21
HETATM   21  C14 UNL     1      -4.595   2.043  11.410  1.00  0.00     0.171 C 
BRANCH  21  22
HETATM   22  O4  UNL     1      -5.963   2.121  11.305  1.00  0.00    -0.391 OA
ATOM     23  H4  UNL     1      -6.297   2.506  12.106  1.00  0.00     0.210 HD
ENDBRANCH  21  22
BRANCH  21  24
HETATM   24  C15 UNL     1      -4.105   1.178  12.545  1.00  0.00     0.204 C 
BRANCH  24  25
HETATM   25  O5  UNL     1      -4.951   1.195  13.631  1.00  0.00    -0.356 OA
BRANCH  25  26
HETATM   26  C16 UNL     1      -4.417   1.423  14.839  1.00  0.00     0.320 C 
HETATM   27  C17 UNL     1      -4.762   2.720  15.506  1.00  0.00     0.063 C 
HETATM   28  C18 UNL     1      -5.993   2.326  16.303  1.00  0.00     0.032 C 
HETATM   29  C19 UNL     1      -5.588   0.956  16.805  1.00  0.00     0.235 C 
HETATM   30  N2  UNL     1      -4.727   0.376  15.823  1.00  0.00    -0.049 N 
ATOM     31  H22 UNL     1      -5.116  -0.467  15.399  1.00  0.00     0.280 HD
ATOM     32  H21 UNL     1      -3.892  -0.051  16.226  1.00  0.00     0.280 HD
ENDBRANCH  25  26
ENDBRANCH  24  25
ENDBRANCH  21  24
ENDBRANCH   5  21
TORSDOF 15
ENDMDL
MODEL 3
REMARK VINA RESULT: -5.999465888      2.073      4.399
REMARK  15 active torsions:
REMARK  status: ('A' for Active; 'I' for Inactive)
REMARK    1  A    between atoms: N1_2  and  C3_4 
REMARK    2  A    between atoms: N1_2  and  C5_8 
REMARK    3  A    between atoms: C3_4  and  C4_5 
REMARK    4  A    between atoms: C4_5  and  O1_6 
REMARK    5  A    between atoms: C5_8  and  C6_9 
REMARK    6  A    between atoms: C6_9  and  C7_10 
REMARK    7  A    between atoms: C7_10  and  C8_11 
REMARK    8  A    between atoms: C8_11  and  O2_12 
REMARK    9  A    between atoms: O2_12  and  C9_13 
REMARK   10  A    between atoms: C11_15  and  O3_16 
REMARK   11  A    between atoms: C13_19  and  C14_20 
REMARK   12  A    between atoms: C14_20  and  O4_21 
REMARK   13  A    between atoms: C14_20  and  C15_23 
REMARK   14  A    between atoms: C15_23  and  O5_24 
REMARK   15  A    between atoms: O5_24  and  C16_25 
ROOT
HETATM    1  C9  UNL     1      -3.661   4.119  14.811  1.00  0.00     0.262 C 
HETATM    2  C10 UNL     1      -4.546   5.189  15.411  1.00  0.00     0.092 C 
HETATM    3  C11 UNL     1      -5.975   4.788  15.119  1.00  0.00     0.125 C 
HETATM    4  C12 UNL     1      -6.094   3.270  14.980  1.00  0.00     0.066 C 
HETATM    5  C13 UNL     1      -5.097   2.677  15.944  1.00  0.00     0.158 C 
HETATM    6  O6  UNL     1      -3.788   2.952  15.556  1.00  0.00    -0.353 OA
ENDROOT
BRANCH   1   7
HETATM    7  O2  UNL     1      -2.339   4.472  14.765  1.00  0.00    -0.361 OA
BRANCH   7   8
HETATM    8  C8  UNL     1      -1.859   4.941  13.577  1.00  0.00     0.171 C 
BRANCH   8   9
HETATM    9  C7  UNL     1      -1.568   6.453  13.607  1.00  0.00     0.028 C 
BRANCH   9  10
HETATM   10  C6  UNL     1      -2.631   7.150  12.829  1.00  0.00     0.030 C 
BRANCH  10  11
HETATM   11  C5  UNL     1      -3.260   6.288  11.813  1.00  0.00     0.236 C 
BRANCH  11  12
HETATM   12  N1  UNL     1      -4.195   6.858  10.906  1.00  0.00    -0.073 N 
HETATM   13  C1  UNL     1      -3.672   7.524   9.766  1.00  0.00     0.272 C 
HETATM   14  C2  UNL     1      -4.976   5.700  10.397  1.00  0.00     0.272 C 
BRANCH  12  15
HETATM   15  C3  UNL     1      -5.101   7.701  11.665  1.00  0.00     0.262 C 
BRANCH  15  16
HETATM   16  C4  UNL     1      -6.515   7.652  11.206  1.00  0.00     0.192 C 
BRANCH  16  17
HETATM   17  O1  UNL     1      -7.428   7.438  12.228  1.00  0.00    -0.399 OA
ATOM     18  H1  UNL     1      -8.334   7.473  11.945  1.00  0.00     0.209 HD
ENDBRANCH  16  17
ENDBRANCH  15  16
ENDBRANCH  12  15
ENDBRANCH  11  12
ENDBRANCH  10  11
ENDBRANCH   9  10
ENDBRANCH   8   9
ENDBRANCH   7   8
ENDBRANCH   1   7
BRANCH   3  19
HETATM   19  O3  UNL     1      -6.439   5.325  13.916  1.00  0.00    -0.395 OA
ATOM     20  H3  UNL     1      -6.938   4.695  13.411  1.00  0.00     0.210 HD
ENDBRANCH   3  19
BRANCH   5  21
HETATM   21  C14 UNL     1      -5.225   1.173  16.065  1.00  0.00     0.171 C 
BRANCH  21  22
HETATM   22  O4  UNL     1      -5.138   0.847  17.397  1.00  0.00    -0.391 OA
ATOM     23  H4  UNL     1      -5.987   1.004  17.793  1.00  0.00     0.210 HD
ENDBRANCH  21  22
BRANCH  21  24
HETATM   24  C15 UNL     1      -4.242   0.448  15.179  1.00  0.00     0.204 C 
BRANCH  24  25
HETATM   25  O5  UNL     1      -4.797   0.047  13.985  1.00  0.00    -0.356 OA
BRANCH  25  26
HETATM   26  C16 UNL     1      -4.111   0.292  12.860  1.00  0.00     0.320 C 
HETATM   27  C17 UNL     1      -4.882   0.298  11.575  1.00  0.00     0.063 C 
HETATM   28  C18 UNL     1      -5.267   1.764  11.468  1.00  0.00     0.032 C 
HETATM   29  C19 UNL     1      -3.992   2.433  11.937  1.00  0.00     0.235 C 
HETATM   30  N2  UNL     1      -3.375   1.564  12.888  1.00  0.00    -0.049 N 
ATOM     31  H22 UNL     1      -3.318   1.971  13.822  1.00  0.00     0.280 HD
ATOM     32  H21 UNL     1      -2.374   1.448  12.732  1.00  0.00     0.280 HD
ENDBRANCH  25  26
ENDBRANCH  24  25
ENDBRANCH  21  24
ENDBRANCH   5  21
TORSDOF 15
ENDMDL
MODEL 4
REMARK VINA RESULT: -5.996457930      1.943      4.541
REMARK  15 active torsions:
REMARK  status: ('A' for Active; 'I' for Inactive)
REMARK    1  A    between atoms: N1_2  and  C3_4 
REMARK    2  A    between atoms: N1_2  and  C5_8 
REMARK    3  A    between atoms: C3_4  and  C4_5 
REMARK    4  A    between atoms: C4_5  and  O1_6 
REMARK    5  A    between atoms: C5_8  and  C6_9 
REMARK    6  A    between atoms: C6_9  and  C7_10 
REMARK    7  A    between atoms: C7_10  and  C8_11 
REMARK    8  A    between atoms: C8_11  and  O2_12 
REMARK    9  A    between atoms: O2_12  and  C9_13 
REMARK   10  A    between atoms: C11_15  and  O3_16 
REMARK   11  A    between atoms: C13_19  and  C14_20 
REMARK   12  A    between atoms: C14_20  and  O4_21 
REMARK   13  A    between atoms: C14_20  and  C15_23 
REMARK   14  A    between atoms: C15_23  and  O5_24 
REMARK   15  A    between atoms: O5_24  and  C16_25 
ROOT
HETATM    1  C9  UNL     1      -3.349   3.990  14.699  1.00  0.00     0.262 C 
HETATM    2  C10 UNL     1      -4.186   5.131  15.229  1.00  0.00     0.092 C 
HETATM    3  C11 UNL     1      -5.628   4.801  14.910  1.00  0.00     0.125 C 
HETATM    4  C12 UNL     1      -5.831   3.288  14.826  1.00  0.00     0.066 C 
HETATM    5  C13 UNL     1      -4.898   2.679  15.843  1.00  0.00     0.158 C 
HETATM    6  O6  UNL     1      -3.564   2.862  15.485  1.00  0.00    -0.353 OA
ENDROOT
BRANCH   1   7
HETATM    7  O2  UNL     1      -2.007   4.264  14.680  1.00  0.00    -0.361 OA
BRANCH   7   8
HETATM    8  C8  UNL     1      -1.584   5.245  13.831  1.00  0.00     0.171 C 
BRANCH   8   9
HETATM    9  C7  UNL     1      -1.175   4.699  12.449  1.00  0.00     0.028 C 
BRANCH   9  10
HETATM   10  C6  UNL     1      -1.641   5.661  11.410  1.00  0.00     0.030 C 
BRANCH  10  11
HETATM   11  C5  UNL     1      -3.097   5.877  11.437  1.00  0.00     0.236 C 
BRANCH  11  12
HETATM   12  N1  UNL     1      -3.794   6.044  10.208  1.00  0.00    -0.073 N 
HETATM   13  C1  UNL     1      -5.202   6.213  10.277  1.00  0.00     0.272 C 
HETATM   14  C2  UNL     1      -3.246   7.303   9.636  1.00  0.00     0.272 C 
BRANCH  12  15
HETATM   15  C3  UNL     1      -3.414   4.957   9.325  1.00  0.00     0.262 C 
BRANCH  15  16
HETATM   16  C4  UNL     1      -3.424   5.309   7.879  1.00  0.00     0.192 C 
BRANCH  16  17
HETATM   17  O1  UNL     1      -4.453   4.713   7.166  1.00  0.00    -0.399 OA
ATOM     18  H1  UNL     1      -4.406   4.862   6.229  1.00  0.00     0.209 HD
ENDBRANCH  16  17
ENDBRANCH  15  16
ENDBRANCH  12  15
ENDBRANCH  11  12
ENDBRANCH  10  11
ENDBRANCH   9  10
ENDBRANCH   8   9
ENDBRANCH   7   8
ENDBRANCH   1   7
BRANCH   3  19
HETATM   19  O3  UNL     1      -6.026   5.315  13.673  1.00  0.00    -0.395 OA
ATOM     20  H3  UNL     1      -6.971   5.349  13.586  1.00  0.00     0.210 HD
ENDBRANCH   3  19
BRANCH   5  21
HETATM   21  C14 UNL     1      -5.117   1.191  16.019  1.00  0.00     0.171 C 
BRANCH  21  22
HETATM   22  O4  UNL     1      -5.027   0.905  17.359  1.00  0.00    -0.391 OA
ATOM     23  H4  UNL     1      -5.625   0.192  17.548  1.00  0.00     0.210 HD
ENDBRANCH  21  22
BRANCH  21  24
HETATM   24  C15 UNL     1      -4.196   0.376  15.144  1.00  0.00     0.204 C 
BRANCH  24  25
HETATM   25  O5  UNL     1      -4.787  -0.007  13.961  1.00  0.00    -0.356 OA
BRANCH  25  26
HETATM   26  C16 UNL     1      -4.101   0.183  12.826  1.00  0.00     0.320 C 
HETATM   27  C17 UNL     1      -4.888   0.248  11.552  1.00  0.00     0.063 C 
HETATM   28  C18 UNL     1      -5.160   1.738  11.447  1.00  0.00     0.032 C 
HETATM   29  C19 UNL     1      -3.830   2.308  11.896  1.00  0.00     0.235 C 
HETATM   30  N2  UNL     1      -3.269   1.394  12.840  1.00  0.00    -0.049 N 
ATOM     31  H22 UNL     1      -3.167   1.797  13.773  1.00  0.00     0.280 HD
ATOM     32  H21 UNL     1      -2.281   1.201  12.670  1.00  0.00     0.280 HD
ENDBRANCH  25  26
ENDBRANCH  24  25
ENDBRANCH  21  24
ENDBRANCH   5  21
TORSDOF 15
ENDMDL
MODEL 5
REMARK VINA RESULT: -5.983853187      2.291      4.641
REMARK  15 active torsions:
REMARK  status: ('A' for Active; 'I' for Inactive)
REMARK    1  A    between atoms: N1_2  and  C3_4 
REMARK    2  A    between atoms: N1_2  and  C5_8 
REMARK    3  A    between atoms: C3_4  and  C4_5 
REMARK    4  A    between atoms: C4_5  and  O1_6 
REMARK    5  A    between atoms: C5_8  and  C6_9 
REMARK    6  A    between atoms: C6_9  and  C7_10 
REMARK    7  A    between atoms: C7_10  and  C8_11 
REMARK    8  A    between atoms: C8_11  and  O2_12 
REMARK    9  A    between atoms: O2_12  and  C9_13 
REMARK   10  A    between atoms: C11_15  and  O3_16 
REMARK   11  A    between atoms: C13_19  and  C14_20 
REMARK   12  A    between atoms: C14_20  and  O4_21 
REMARK   13  A    between atoms: C14_20  and  C15_23 
REMARK   14  A    between atoms: C15_23  and  O5_24 
REMARK   15  A    between atoms: O5_24  and  C16_25 
ROOT
HETATM    1  C9  UNL     1      -3.827   4.371  14.721  1.00  0.00     0.262 C 
HETATM    2  C10 UNL     1      -4.708   5.397  15.398  1.00  0.00     0.092 C 
HETATM    3  C11 UNL     1      -6.137   4.937  15.210  1.00  0.00     0.125 C 
HETATM    4  C12 UNL     1      -6.202   3.417  15.062  1.00  0.00     0.066 C 
HETATM    5  C13 UNL     1      -5.112   2.859  15.942  1.00  0.00     0.158 C 
HETATM    6  O6  UNL     1      -3.848   3.192  15.460  1.00  0.00    -0.353 OA
ENDROOT
BRANCH   1   7
HETATM    7  O2  UNL     1      -2.528   4.781  14.580  1.00  0.00    -0.361 OA
BRANCH   7   8
HETATM    8  C8  UNL     1      -2.317   5.990  13.986  1.00  0.00     0.171 C 
BRANCH   8   9
HETATM    9  C7  UNL     1      -2.561   5.958  12.466  1.00  0.00     0.028 C 
BRANCH   9  10
HETATM   10  C6  UNL     1      -3.621   6.955  12.140  1.00  0.00     0.030 C 
BRANCH  10  11
HETATM   11  C5  UNL     1      -4.748   6.373  11.393  1.00  0.00     0.236 C 
BRANCH  11  12
HETATM   12  N1  UNL     1      -5.586   7.231  10.628  1.00  0.00    -0.073 N 
HETATM   13  C1  UNL     1      -6.778   7.695  11.246  1.00  0.00     0.272 C 
HETATM   14  C2  UNL     1      -4.751   8.433  10.366  1.00  0.00     0.272 C 
BRANCH  12  15
HETATM   15  C3  UNL     1      -5.844   6.587   9.353  1.00  0.00     0.262 C 
BRANCH  15  16
HETATM   16  C4  UNL     1      -7.183   6.882   8.776  1.00  0.00     0.192 C 
BRANCH  16  17
HETATM   17  O1  UNL     1      -7.470   6.155   7.631  1.00  0.00    -0.399 OA
ATOM     18  H1  UNL     1      -7.737   6.691   6.893  1.00  0.00     0.209 HD
ENDBRANCH  16  17
ENDBRANCH  15  16
ENDBRANCH  12  15
ENDBRANCH  11  12
ENDBRANCH  10  11
ENDBRANCH   9  10
ENDBRANCH   8   9
ENDBRANCH   7   8
ENDBRANCH   1   7
BRANCH   3  19
HETATM   19  O3  UNL     1      -6.713   5.465  14.052  1.00  0.00    -0.395 OA
ATOM     20  H3  UNL     1      -7.084   4.790  13.496  1.00  0.00     0.210 HD
ENDBRANCH   3  19
BRANCH   5  21
HETATM   21  C14 UNL     1      -5.167   1.350  16.054  1.00  0.00     0.171 C 
BRANCH  21  22
HETATM   22  O4  UNL     1      -5.027   1.019  17.380  1.00  0.00    -0.391 OA
ATOM     23  H4  UNL     1      -4.982   0.072  17.443  1.00  0.00     0.210 HD
ENDBRANCH  21  22
BRANCH  21  24
HETATM   24  C15 UNL     1      -4.178   0.677  15.135  1.00  0.00     0.204 C 
BRANCH  24  25
HETATM   25  O5  UNL     1      -4.753   0.238  13.964  1.00  0.00    -0.356 OA
BRANCH  25  26
HETATM   26  C16 UNL     1      -4.084   0.446  12.821  1.00  0.00     0.320 C 
HETATM   27  C17 UNL     1      -4.893   0.537  11.562  1.00  0.00     0.063 C 
HETATM   28  C18 UNL     1      -5.159   2.031  11.489  1.00  0.00     0.032 C 
HETATM   29  C19 UNL     1      -3.819   2.586  11.926  1.00  0.00     0.235 C 
HETATM   30  N2  UNL     1      -3.246   1.652  12.843  1.00  0.00    -0.049 N 
ATOM     31  H22 UNL     1      -3.126   2.037  13.781  1.00  0.00     0.280 HD
ATOM     32  H21 UNL     1      -2.263   1.458  12.653  1.00  0.00     0.280 HD
ENDBRANCH  25  26
ENDBRANCH  24  25
ENDBRANCH  21  24
ENDBRANCH   5  21
TORSDOF 15
ENDMDL
