MODEL 1
REMARK VINA RESULT: -6.805743624      0.000      0.000
REMARK  11 active torsions:
REMARK  status: ('A' for Active; 'I' for Inactive)
REMARK    1  A    between atoms: C2_2  and  N2_8 
REMARK    2  A    between atoms: C3_3  and  N1_4 
REMARK    3  A    between atoms: N1_4  and  C4_6 
REMARK    4  A    between atoms: N2_8  and  C6_10 
REMARK    5  A    between atoms: C6_10  and  C7_11 
REMARK    6  A    between atoms: C6_10  and  C10_16 
REMARK    7  A    between atoms: C7_11  and  N3_12 
REMARK    8  A    between atoms: N3_12  and  C9_14 
REMARK       I    between atoms: C10_16  and  N4_18 
REMARK    9  A    between atoms: C14_22  and  C15_23 
REMARK       I    between atoms: C15_23  and  N5_25 
REMARK   10  A    between atoms: N5_25  and  C16_27 
REMARK   11  A    between atoms: C16_27  and  C17_28 
ROOT
HETATM    1  C6  UNL     1      -3.660   5.677  13.963  1.00  0.00     0.098 C 
ENDROOT
BRANCH   1   2
HETATM    2  N2  UNL     1      -3.357   6.774  14.763  1.00  0.00    -0.351 N 
HETATM    3  C5  UNL     1      -4.212   6.961  15.902  1.00  0.00     0.156 C 
BRANCH   2   4
HETATM    4  C2  UNL     1      -2.118   7.361  14.736  1.00  0.00     0.023 C 
HETATM    5  C1  UNL     1      -2.195   8.772  15.477  1.00  0.00     0.070 C 
HETATM    6  C3  UNL     1      -1.137   7.496  13.684  1.00  0.00     0.115 C 
BRANCH   6   7
HETATM    7  N1  UNL     1      -1.238   8.451  12.632  1.00  0.00    -0.342 N 
ATOM      8  H1  UNL     1      -0.442   9.087  12.586  1.00  0.00     0.167 HD
BRANCH   7   9
HETATM    9  C4  UNL     1      -2.196   8.697  11.652  1.00  0.00     0.352 C 
HETATM   10  O1  UNL     1      -3.423   8.880  11.761  1.00  0.00    -0.283 OA
ENDBRANCH   7   9
ENDBRANCH   6   7
ENDBRANCH   2   4
ENDBRANCH   1   2
BRANCH   1  11
HETATM   11  C7  UNL     1      -4.560   5.728  12.817  1.00  0.00     0.187 C 
BRANCH  11  12
HETATM   12  N3  UNL     1      -4.102   5.429  11.504  1.00  0.00    -0.358 N 
HETATM   13  C8  UNL     1      -4.916   5.951  10.398  1.00  0.00     0.152 C 
BRANCH  12  14
HETATM   14  C9  UNL     1      -2.955   4.697  11.133  1.00  0.00     0.350 C 
HETATM   15  O2  UNL     1      -2.883   3.472  11.311  1.00  0.00    -0.284 OA
ENDBRANCH  12  14
ENDBRANCH  11  12
ENDBRANCH   1  11
BRANCH   1  16
HETATM   16  C10 UNL     1      -3.510   4.333  14.607  1.00  0.00     0.268 C 
HETATM   17  O3  UNL     1      -2.329   3.841  14.738  1.00  0.00    -0.266 OA
HETATM   18  N4  UNL     1      -4.548   3.521  15.104  1.00  0.00    -0.334 N 
HETATM   19  C11 UNL     1      -5.981   3.687  15.181  1.00  0.00     0.127 C 
HETATM   20  C14 UNL     1      -4.317   2.193  15.699  1.00  0.00     0.179 C 
HETATM   21  C12 UNL     1      -6.420   2.911  16.389  1.00  0.00     0.022 C 
HETATM   22  C13 UNL     1      -5.244   2.121  16.864  1.00  0.00     0.037 C 
BRANCH  20  23
HETATM   23  C15 UNL     1      -4.453   1.115  14.713  1.00  0.00     0.241 C 
HETATM   24  O4  UNL     1      -4.914  -0.006  15.085  1.00  0.00    -0.271 OA
HETATM   25  N5  UNL     1      -4.105   1.222  13.343  1.00  0.00    -0.349 N 
ATOM     26  H5  UNL     1      -3.731   2.111  13.012  1.00  0.00     0.163 HD
BRANCH  25  27
HETATM   27  C16 UNL     1      -4.245   0.158  12.395  1.00  0.00     0.235 C 
BRANCH  27  28
HETATM   28  C17 UNL     1      -5.016   0.660  11.230  1.00  0.00     0.191 C 
HETATM   29  O5  UNL     1      -5.048   0.065  10.128  1.00  0.00    -0.647 OA
HETATM   30  O6  UNL     1      -5.764   1.847  11.299  1.00  0.00    -0.647 OA
ENDBRANCH  27  28
ENDBRANCH  25  27
ENDBRANCH  20  23
ENDBRANCH   1  16
TORSDOF 11
ENDMDL
MODEL 2
REMARK VINA RESULT: -6.728842382      1.424      3.405
REMARK  11 active torsions:
REMARK  status: ('A' for Active; 'I' for Inactive)
REMARK    1  A    between atoms: C2_2  and  N2_8 
REMARK    2  A    between atoms: C3_3  and  N1_4 
REMARK    3  A    between atoms: N1_4  and  C4_6 
REMARK    4  A    between atoms: N2_8  and  C6_10 
REMARK    5  A    between atoms: C6_10  and  C7_11 
REMARK    6  A    between atoms: C6_10  and  C10_16 
REMARK    7  A    between atoms: C7_11  and  N3_12 
REMARK    8  A    between atoms: N3_12  and  C9_14 
REMARK       I    between atoms: C10_16  and  N4_18 
REMARK    9  A    between atoms: C14_22  and  C15_23 
REMARK       I    between atoms: C15_23  and  N5_25 
REMARK   10  A    between atoms: N5_25  and  C16_27 
REMARK   11  A    between atoms: C16_27  and  C17_28 
ROOT
HETATM    1  C6  UNL     1      -3.215   5.727  14.063  1.00  0.00     0.098 C 
ENDROOT
BRANCH   1   2
HETATM    2  N2  UNL     1      -4.039   5.875  12.952  1.00  0.00    -0.351 N 
HETATM    3  C5  UNL     1      -5.336   6.434  13.217  1.00  0.00     0.156 C 
BRANCH   2   4
HETATM    4  C2  UNL     1      -3.528   5.908  11.680  1.00  0.00     0.023 C 
HETATM    5  C1  UNL     1      -4.505   5.104  10.708  1.00  0.00     0.070 C 
HETATM    6  C3  UNL     1      -2.188   5.719  11.174  1.00  0.00     0.115 C 
BRANCH   6   7
HETATM    7  N1  UNL     1      -1.577   4.441  11.022  1.00  0.00    -0.342 N 
ATOM      8  H1  UNL     1      -1.650   4.068  10.076  1.00  0.00     0.167 HD
BRANCH   7   9
HETATM    9  C4  UNL     1      -0.900   3.596  11.896  1.00  0.00     0.352 C 
HETATM   10  O1  UNL     1      -1.176   2.439  12.264  1.00  0.00    -0.283 OA
ENDBRANCH   7   9
ENDBRANCH   6   7
ENDBRANCH   2   4
ENDBRANCH   1   2
BRANCH   1  11
HETATM   11  C7  UNL     1      -2.027   6.535  14.309  1.00  0.00     0.187 C 
BRANCH  11  12
HETATM   12  N3  UNL     1      -2.117   7.942  14.504  1.00  0.00    -0.358 N 
HETATM   13  C8  UNL     1      -2.011   8.772  13.296  1.00  0.00     0.152 C 
BRANCH  12  14
HETATM   14  C9  UNL     1      -2.302   8.638  15.716  1.00  0.00     0.350 C 
HETATM   15  O2  UNL     1      -1.524   9.535  16.073  1.00  0.00    -0.284 OA
ENDBRANCH  12  14
ENDBRANCH  11  12
ENDBRANCH   1  11
BRANCH   1  16
HETATM   16  C10 UNL     1      -3.224   4.378  14.713  1.00  0.00     0.268 C 
HETATM   17  O3  UNL     1      -2.100   3.795  14.939  1.00  0.00    -0.266 OA
HETATM   18  N4  UNL     1      -4.359   3.651  15.120  1.00  0.00    -0.334 N 
HETATM   19  C11 UNL     1      -5.776   3.928  15.080  1.00  0.00     0.127 C 
HETATM   20  C14 UNL     1      -4.281   2.310  15.729  1.00  0.00     0.179 C 
HETATM   21  C12 UNL     1      -6.372   3.192  16.247  1.00  0.00     0.022 C 
HETATM   22  C13 UNL     1      -5.304   2.315  16.814  1.00  0.00     0.037 C 
BRANCH  20  23
HETATM   23  C15 UNL     1      -4.420   1.243  14.732  1.00  0.00     0.241 C 
HETATM   24  O4  UNL     1      -4.935   0.138  15.079  1.00  0.00    -0.271 OA
HETATM   25  N5  UNL     1      -4.017   1.344  13.376  1.00  0.00    -0.349 N 
ATOM     26  H5  UNL     1      -3.600   2.221  13.064  1.00  0.00     0.163 HD
BRANCH  25  27
HETATM   27  C16 UNL     1      -4.161   0.290  12.417  1.00  0.00     0.235 C 
BRANCH  27  28
HETATM   28  C17 UNL     1      -4.984   0.789  11.286  1.00  0.00     0.191 C 
HETATM   29  O5  UNL     1      -5.007   0.232  10.164  1.00  0.00    -0.647 OA
HETATM   30  O6  UNL     1      -5.796   1.927  11.413  1.00  0.00    -0.647 OA
ENDBRANCH  27  28
ENDBRANCH  25  27
ENDBRANCH  20  23
ENDBRANCH   1  16
TORSDOF 11
ENDMDL
MODEL 3
REMARK VINA RESULT: -6.567900555      1.652      3.240
REMARK  11 active torsions:
REMARK  status: ('A' for Active; 'I' for Inactive)
REMARK    1  A    between atoms: C2_2  and  N2_8 
REMARK    2  A    between atoms: C3_3  and  N1_4 
REMARK    3  A    between atoms: N1_4  and  C4_6 
REMARK    4  A    between atoms: N2_8  and  C6_10 
REMARK    5  A    between atoms: C6_10  and  C7_11 
REMARK    6  A    between atoms: C6_10  and  C10_16 
REMARK    7  A    between atoms: C7_11  and  N3_12 
REMARK    8  A    between atoms: N3_12  and  C9_14 
REMARK       I    between atoms: C10_16  and  N4_18 
REMARK    9  A    between atoms: C14_22  and  C15_23 
REMARK       I    between atoms: C15_23  and  N5_25 
REMARK   10  A    between atoms: N5_25  and  C16_27 
REMARK   11  A    between atoms: C16_27  and  C17_28 
ROOT
HETATM    1  C6  UNL     1      -3.907   5.757  14.117  1.00  0.00     0.098 C 
ENDROOT
BRANCH   1   2
HETATM    2  N2  UNL     1      -4.170   5.779  12.751  1.00  0.00    -0.351 N 
HETATM    3  C5  UNL     1      -3.923   4.546  12.057  1.00  0.00     0.156 C 
BRANCH   2   4
HETATM    4  C2  UNL     1      -4.995   6.722  12.195  1.00  0.00     0.023 C 
HETATM    5  C1  UNL     1      -6.426   6.637  12.895  1.00  0.00     0.070 C 
HETATM    6  C3  UNL     1      -5.224   7.115  10.824  1.00  0.00     0.115 C 
BRANCH   6   7
HETATM    7  N1  UNL     1      -6.027   6.369   9.915  1.00  0.00    -0.342 N 
ATOM      8  H1  UNL     1      -6.168   5.400  10.202  1.00  0.00     0.167 HD
BRANCH   7   9
HETATM    9  C4  UNL     1      -6.659   6.685   8.716  1.00  0.00     0.352 C 
HETATM   10  O1  UNL     1      -7.870   6.689   8.427  1.00  0.00    -0.283 OA
ENDBRANCH   7   9
ENDBRANCH   6   7
ENDBRANCH   2   4
ENDBRANCH   1   2
BRANCH   1  11
HETATM   11  C7  UNL     1      -3.322   6.872  14.852  1.00  0.00     0.187 C 
BRANCH  11  12
HETATM   12  N3  UNL     1      -2.101   7.473  14.435  1.00  0.00    -0.358 N 
HETATM   13  C8  UNL     1      -1.504   8.443  15.363  1.00  0.00     0.152 C 
BRANCH  12  14
HETATM   14  C9  UNL     1      -1.389   7.246  13.239  1.00  0.00     0.350 C 
HETATM   15  O2  UNL     1      -0.735   6.208  13.061  1.00  0.00    -0.284 OA
ENDBRANCH  12  14
ENDBRANCH  11  12
ENDBRANCH   1  11
BRANCH   1  16
HETATM   16  C10 UNL     1      -3.698   4.403  14.725  1.00  0.00     0.268 C 
HETATM   17  O3  UNL     1      -2.498   3.953  14.830  1.00  0.00    -0.266 OA
HETATM   18  N4  UNL     1      -4.699   3.540  15.211  1.00  0.00    -0.334 N 
HETATM   19  C11 UNL     1      -6.136   3.649  15.308  1.00  0.00     0.127 C 
HETATM   20  C14 UNL     1      -4.410   2.207  15.770  1.00  0.00     0.179 C 
HETATM   21  C12 UNL     1      -6.531   2.826  16.501  1.00  0.00     0.022 C 
HETATM   22  C13 UNL     1      -5.320   2.071  16.942  1.00  0.00     0.037 C 
BRANCH  20  23
HETATM   23  C15 UNL     1      -4.517   1.150  14.758  1.00  0.00     0.241 C 
HETATM   24  O4  UNL     1      -4.919   0.000  15.108  1.00  0.00    -0.271 OA
HETATM   25  N5  UNL     1      -4.200   1.308  13.385  1.00  0.00    -0.349 N 
ATOM     26  H5  UNL     1      -3.873   2.221  13.071  1.00  0.00     0.163 HD
BRANCH  25  27
HETATM   27  C16 UNL     1      -4.311   0.263  12.412  1.00  0.00     0.235 C 
BRANCH  27  28
HETATM   28  C17 UNL     1      -5.027   0.796  11.226  1.00  0.00     0.191 C 
HETATM   29  O5  UNL     1      -4.923   0.289  10.084  1.00  0.00    -0.647 OA
HETATM   30  O6  UNL     1      -5.875   1.911  11.317  1.00  0.00    -0.647 OA
ENDBRANCH  27  28
ENDBRANCH  25  27
ENDBRANCH  20  23
ENDBRANCH   1  16
TORSDOF 11
ENDMDL
MODEL 4
REMARK VINA RESULT: -6.548071908      1.499      3.363
REMARK  11 active torsions:
REMARK  status: ('A' for Active; 'I' for Inactive)
REMARK    1  A    between atoms: C2_2  and  N2_8 
REMARK    2  A    between atoms: C3_3  and  N1_4 
REMARK    3  A    between atoms: N1_4  and  C4_6 
REMARK    4  A    between atoms: N2_8  and  C6_10 
REMARK    5  A    between atoms: C6_10  and  C7_11 
REMARK    6  A    between atoms: C6_10  and  C10_16 
REMARK    7  A    between atoms: C7_11  and  N3_12 
REMARK    8  A    between atoms: N3_12  and  C9_14 
REMARK       I    between atoms: C10_16  and  N4_18 
REMARK    9  A    between atoms: C14_22  and  C15_23 
REMARK       I    between atoms: C15_23  and  N5_25 
REMARK   10  A    between atoms: N5_25  and  C16_27 
REMARK   11  A    between atoms: C16_27  and  C17_28 
ROOT
HETATM    1  C6  UNL     1      -2.870   5.606  14.032  1.00  0.00     0.098 C 
ENDROOT
BRANCH   1   2
HETATM    2  N2  UNL     1      -3.570   5.775  12.842  1.00  0.00    -0.351 N 
HETATM    3  C5  UNL     1      -4.370   6.965  12.762  1.00  0.00     0.156 C 
BRANCH   2   4
HETATM    4  C2  UNL     1      -3.200   5.122  11.694  1.00  0.00     0.023 C 
HETATM    5  C1  UNL     1      -2.046   5.956  10.972  1.00  0.00     0.070 C 
HETATM    6  C3  UNL     1      -3.975   4.494  10.649  1.00  0.00     0.115 C 
BRANCH   6   7
HETATM    7  N1  UNL     1      -4.642   5.217   9.620  1.00  0.00    -0.342 N 
ATOM      8  H1  UNL     1      -4.443   4.864   8.684  1.00  0.00     0.167 HD
BRANCH   7   9
HETATM    9  C4  UNL     1      -5.509   6.306   9.624  1.00  0.00     0.352 C 
HETATM   10  O1  UNL     1      -6.716   6.366   9.923  1.00  0.00    -0.283 OA
ENDBRANCH   7   9
ENDBRANCH   6   7
ENDBRANCH   2   4
ENDBRANCH   1   2
BRANCH   1  11
HETATM   11  C7  UNL     1      -1.651   6.332  14.371  1.00  0.00     0.187 C 
BRANCH  11  12
HETATM   12  N3  UNL     1      -1.646   7.749  14.494  1.00  0.00    -0.358 N 
HETATM   13  C8  UNL     1      -0.946   8.490  13.436  1.00  0.00     0.152 C 
BRANCH  12  14
HETATM   14  C9  UNL     1      -2.237   8.532  15.507  1.00  0.00     0.350 C 
HETATM   15  O2  UNL     1      -1.721   9.593  15.889  1.00  0.00    -0.284 OA
ENDBRANCH  12  14
ENDBRANCH  11  12
ENDBRANCH   1  11
BRANCH   1  16
HETATM   16  C10 UNL     1      -3.045   4.284  14.715  1.00  0.00     0.268 C 
HETATM   17  O3  UNL     1      -1.995   3.619  15.049  1.00  0.00    -0.266 OA
HETATM   18  N4  UNL     1      -4.267   3.667  15.046  1.00  0.00    -0.334 N 
HETATM   19  C11 UNL     1      -5.647   4.058  14.881  1.00  0.00     0.127 C 
HETATM   20  C14 UNL     1      -4.351   2.346  15.695  1.00  0.00     0.179 C 
HETATM   21  C12 UNL     1      -6.395   3.414  16.013  1.00  0.00     0.022 C 
HETATM   22  C13 UNL     1      -5.454   2.472  16.691  1.00  0.00     0.037 C 
BRANCH  20  23
HETATM   23  C15 UNL     1      -4.499   1.261  14.719  1.00  0.00     0.241 C 
HETATM   24  O4  UNL     1      -4.941   0.138  15.108  1.00  0.00    -0.271 OA
HETATM   25  N5  UNL     1      -4.182   1.362  13.341  1.00  0.00    -0.349 N 
ATOM     26  H5  UNL     1      -3.824   2.252  12.996  1.00  0.00     0.163 HD
BRANCH  25  27
HETATM   27  C16 UNL     1      -4.333   0.290  12.403  1.00  0.00     0.235 C 
BRANCH  27  28
HETATM   28  C17 UNL     1      -5.041   0.806  11.205  1.00  0.00     0.191 C 
HETATM   29  O5  UNL     1      -4.896   0.310  10.063  1.00  0.00    -0.647 OA
HETATM   30  O6  UNL     1      -5.925   1.894  11.284  1.00  0.00    -0.647 OA
ENDBRANCH  27  28
ENDBRANCH  25  27
ENDBRANCH  20  23
ENDBRANCH   1  16
TORSDOF 11
ENDMDL
MODEL 5
REMARK VINA RESULT: -6.373556837      1.264      3.029
REMARK  11 active torsions:
REMARK  status: ('A' for Active; 'I' for Inactive)
REMARK    1  A    between atoms: C2_2  and  N2_8 
REMARK    2  A    between atoms: C3_3  and  N1_4 
REMARK    3  A    between atoms: N1_4  and  C4_6 
REMARK    4  A    between atoms: N2_8  and  C6_10 
REMARK    5  A    between atoms: C6_10  and  C7_11 
REMARK    6  A    between atoms: C6_10  and  C10_16 
REMARK    7  A    between atoms: C7_11  and  N3_12 
REMARK    8  A    between atoms: N3_12  and  C9_14 
REMARK       I    between atoms: C10_16  and  N4_18 
REMARK    9  A    between atoms: C14_22  and  C15_23 
REMARK       I    between atoms: C15_23  and  N5_25 
REMARK   10  A    between atoms: N5_25  and  C16_27 
REMARK   11  A    between atoms: C16_27  and  C17_28 
ROOT
HETATM    1  C6  UNL     1      -3.988   5.720  14.147  1.00  0.00     0.098 C 
ENDROOT
BRANCH   1   2
HETATM    2  N2  UNL     1      -4.085   5.782  12.761  1.00  0.00    -0.351 N 
HETATM    3  C5  UNL     1      -4.185   4.513  12.094  1.00  0.00     0.156 C 
BRANCH   2   4
HETATM    4  C2  UNL     1      -4.491   6.924  12.121  1.00  0.00     0.023 C 
HETATM    5  C1  UNL     1      -6.081   7.029  12.207  1.00  0.00     0.070 C 
HETATM    6  C3  UNL     1      -4.102   7.514  10.861  1.00  0.00     0.115 C 
BRANCH   6   7
HETATM    7  N1  UNL     1      -4.563   7.047   9.597  1.00  0.00    -0.342 N 
ATOM      8  H1  UNL     1      -5.248   7.667   9.163  1.00  0.00     0.167 HD
BRANCH   7   9
HETATM    9  C4  UNL     1      -4.275   5.922   8.830  1.00  0.00     0.352 C 
HETATM   10  O1  UNL     1      -3.199   5.317   8.671  1.00  0.00    -0.283 OA
ENDBRANCH   7   9
ENDBRANCH   6   7
ENDBRANCH   2   4
ENDBRANCH   1   2
BRANCH   1  11
HETATM   11  C7  UNL     1      -3.591   6.844  14.987  1.00  0.00     0.187 C 
BRANCH  11  12
HETATM   12  N3  UNL     1      -2.360   7.526  14.776  1.00  0.00    -0.358 N 
HETATM   13  C8  UNL     1      -2.158   8.758  15.552  1.00  0.00     0.152 C 
BRANCH  12  14
HETATM   14  C9  UNL     1      -1.304   7.160  13.915  1.00  0.00     0.350 C 
HETATM   15  O2  UNL     1      -1.102   7.757  12.848  1.00  0.00    -0.284 OA
ENDBRANCH  12  14
ENDBRANCH  11  12
ENDBRANCH   1  11
BRANCH   1  16
HETATM   16  C10 UNL     1      -3.743   4.362  14.730  1.00  0.00     0.268 C 
HETATM   17  O3  UNL     1      -2.533   3.928  14.795  1.00  0.00    -0.266 OA
HETATM   18  N4  UNL     1      -4.717   3.476  15.231  1.00  0.00    -0.334 N 
HETATM   19  C11 UNL     1      -6.152   3.563  15.369  1.00  0.00     0.127 C 
HETATM   20  C14 UNL     1      -4.393   2.141  15.762  1.00  0.00     0.179 C 
HETATM   21  C12 UNL     1      -6.502   2.717  16.560  1.00  0.00     0.022 C 
HETATM   22  C13 UNL     1      -5.268   1.974  16.957  1.00  0.00     0.037 C 
BRANCH  20  23
HETATM   23  C15 UNL     1      -4.512   1.096  14.739  1.00  0.00     0.241 C 
HETATM   24  O4  UNL     1      -4.959  -0.043  15.070  1.00  0.00    -0.271 OA
HETATM   25  N5  UNL     1      -4.162   1.256  13.374  1.00  0.00    -0.349 N 
ATOM     26  H5  UNL     1      -3.800   2.161  13.075  1.00  0.00     0.163 HD
BRANCH  25  27
HETATM   27  C16 UNL     1      -4.286   0.223  12.389  1.00  0.00     0.235 C 
BRANCH  27  28
HETATM   28  C17 UNL     1      -5.018   0.771  11.220  1.00  0.00     0.191 C 
HETATM   29  O5  UNL     1      -4.912   0.293  10.066  1.00  0.00    -0.647 OA
HETATM   30  O6  UNL     1      -5.883   1.870  11.342  1.00  0.00    -0.647 OA
ENDBRANCH  27  28
ENDBRANCH  25  27
ENDBRANCH  20  23
ENDBRANCH   1  16
TORSDOF 11
ENDMDL
