MODEL 1
REMARK VINA RESULT: -6.524526242      0.000      0.000
REMARK  15 active torsions:
REMARK  status: ('A' for Active; 'I' for Inactive)
REMARK    1  A    between atoms: N1_1  and  N2_4 
REMARK    2  A    between atoms: N2_4  and  C1_6 
REMARK    3  A    between atoms: N3_7  and  C2_9 
REMARK    4  A    between atoms: C2_9  and  C3_10 
REMARK    5  A    between atoms: C3_10  and  C4_11 
REMARK    6  A    between atoms: C4_11  and  C5_12 
REMARK    7  A    between atoms: C5_12  and  C6_13 
REMARK    8  A    between atoms: C5_12  and  N4_15 
REMARK       I    between atoms: N4_15  and  C7_17 
REMARK    9  A    between atoms: C7_17  and  C8_19 
REMARK       I    between atoms: N5_23  and  C12_24 
REMARK   10  A    between atoms: C12_24  and  C13_26 
REMARK   11  A    between atoms: C13_26  and  C14_28 
REMARK   12  A    between atoms: C14_28  and  C15_29 
REMARK   13  A    between atoms: C15_29  and  C16_30 
REMARK   14  A    between atoms: C16_30  and  O5_31 
REMARK   15  A    between atoms: C16_30  and  O6_33 
ROOT
HETATM    1  N4  UNL     1      -4.356   6.343  11.666  1.00  0.00    -0.348 N 
ATOM      2  H4  UNL     1      -4.332   5.855  10.771  1.00  0.00     0.163 HD
HETATM    3  C7  UNL     1      -3.818   5.712  12.810  1.00  0.00     0.241 C 
HETATM    4  O2  UNL     1      -3.853   6.311  13.904  1.00  0.00    -0.271 OA
ENDROOT
BRANCH   3   5
HETATM    5  C8  UNL     1      -3.213   4.362  12.762  1.00  0.00     0.179 C 
HETATM    6  C9  UNL     1      -3.280   3.694  11.431  1.00  0.00     0.037 C 
HETATM    7  C10 UNL     1      -4.446   2.766  11.500  1.00  0.00     0.022 C 
HETATM    8  C11 UNL     1      -5.070   2.993  12.888  1.00  0.00     0.127 C 
HETATM    9  N5  UNL     1      -3.931   3.445  13.639  1.00  0.00    -0.332 N 
HETATM   10  C12 UNL     1      -3.504   3.132  14.951  1.00  0.00     0.290 C 
HETATM   11  O3  UNL     1      -2.424   3.678  15.376  1.00  0.00    -0.264 OA
BRANCH  10  12
HETATM   12  C13 UNL     1      -4.158   2.253  15.889  1.00  0.00     0.216 C 
HETATM   13  O4  UNL     1      -3.530   1.240  16.335  1.00  0.00    -0.287 OA
BRANCH  12  14
HETATM   14  C14 UNL     1      -5.536   2.490  16.348  1.00  0.00     0.094 C 
BRANCH  14  15
HETATM   15  C15 UNL     1      -5.916   1.863  17.639  1.00  0.00     0.068 C 
BRANCH  15  16
HETATM   16  C16 UNL     1      -6.767   0.629  17.538  1.00  0.00     0.254 C 
BRANCH  16  17
HETATM   17  O5  UNL     1      -5.967  -0.482  17.289  1.00  0.00    -0.371 OA
ATOM     18  H5  UNL     1      -5.655  -0.462  16.392  1.00  0.00     0.212 HD
ENDBRANCH  16  17
BRANCH  16  19
HETATM   19  O6  UNL     1      -7.762   0.793  16.556  1.00  0.00    -0.371 OA
ATOM     20  H6  UNL     1      -8.333   0.034  16.528  1.00  0.00     0.212 HD
ENDBRANCH  16  19
ENDBRANCH  15  16
ENDBRANCH  14  15
ENDBRANCH  12  14
ENDBRANCH  10  12
ENDBRANCH   3   5
BRANCH   1  21
HETATM   21  C5  UNL     1      -4.941   7.670  11.733  1.00  0.00     0.146 C 
BRANCH  21  22
HETATM   22  C4  UNL     1      -4.190   8.652  10.868  1.00  0.00     0.034 C 
BRANCH  22  23
HETATM   23  C3  UNL     1      -3.435   7.949   9.794  1.00  0.00     0.022 C 
BRANCH  23  24
HETATM   24  C2  UNL     1      -3.988   8.122   8.414  1.00  0.00     0.120 C 
BRANCH  24  25
HETATM   25  N3  UNL     1      -4.877   7.002   8.186  1.00  0.00    -0.385 N 
HETATM   26  C1  UNL     1      -5.666   7.033   7.195  1.00  0.00     0.192 C 
ATOM     27  H3  UNL     1      -4.869   6.199   8.815  1.00  0.00     0.160 HD
BRANCH  26  28
HETATM   28  N2  UNL     1      -6.573   5.977   6.896  1.00  0.00    -0.303 N 
ATOM     29  H2  UNL     1      -6.402   5.263   6.188  1.00  0.00     0.187 HD
BRANCH  28  30
HETATM   30  N1  UNL     1      -7.723   6.031   7.682  1.00  0.00    -0.344 N 
ATOM     31  H12 UNL     1      -7.699   6.060   8.701  1.00  0.00     0.176 HD
ATOM     32  H11 UNL     1      -8.575   6.038   7.121  1.00  0.00     0.176 HD
ENDBRANCH  28  30
ENDBRANCH  26  28
ENDBRANCH  24  25
ENDBRANCH  23  24
ENDBRANCH  22  23
ENDBRANCH  21  22
BRANCH  21  33
HETATM   33  C6  UNL     1      -6.402   7.635  11.441  1.00  0.00     0.256 C 
HETATM   34  O1  UNL     1      -6.903   7.012  10.524  1.00  0.00    -0.305 OA
ENDBRANCH  21  33
ENDBRANCH   1  21
TORSDOF 15
ENDMDL
MODEL 2
REMARK VINA RESULT: -6.466875992      4.443      5.773
REMARK  15 active torsions:
REMARK  status: ('A' for Active; 'I' for Inactive)
REMARK    1  A    between atoms: N1_1  and  N2_4 
REMARK    2  A    between atoms: N2_4  and  C1_6 
REMARK    3  A    between atoms: N3_7  and  C2_9 
REMARK    4  A    between atoms: C2_9  and  C3_10 
REMARK    5  A    between atoms: C3_10  and  C4_11 
REMARK    6  A    between atoms: C4_11  and  C5_12 
REMARK    7  A    between atoms: C5_12  and  C6_13 
REMARK    8  A    between atoms: C5_12  and  N4_15 
REMARK       I    between atoms: N4_15  and  C7_17 
REMARK    9  A    between atoms: C7_17  and  C8_19 
REMARK       I    between atoms: N5_23  and  C12_24 
REMARK   10  A    between atoms: C12_24  and  C13_26 
REMARK   11  A    between atoms: C13_26  and  C14_28 
REMARK   12  A    between atoms: C14_28  and  C15_29 
REMARK   13  A    between atoms: C15_29  and  C16_30 
REMARK   14  A    between atoms: C16_30  and  O5_31 
REMARK   15  A    between atoms: C16_30  and  O6_33 
ROOT
HETATM    1  N4  UNL     1      -1.114   4.850  11.505  1.00  0.00    -0.348 N 
ATOM      2  H4  UNL     1      -1.628   5.690  11.241  1.00  0.00     0.163 HD
HETATM    3  C7  UNL     1      -1.821   3.748  12.037  1.00  0.00     0.241 C 
HETATM    4  O2  UNL     1      -1.187   2.724  12.363  1.00  0.00    -0.271 OA
ENDROOT
BRANCH   3   5
HETATM    5  C8  UNL     1      -3.289   3.761  12.225  1.00  0.00     0.179 C 
HETATM    6  C9  UNL     1      -3.947   5.062  11.915  1.00  0.00     0.037 C 
HETATM    7  C10 UNL     1      -4.144   5.742  13.228  1.00  0.00     0.022 C 
HETATM    8  C11 UNL     1      -3.507   4.809  14.272  1.00  0.00     0.127 C 
HETATM    9  N5  UNL     1      -3.631   3.532  13.624  1.00  0.00    -0.332 N 
HETATM   10  C12 UNL     1      -3.997   2.265  14.136  1.00  0.00     0.290 C 
HETATM   11  O3  UNL     1      -4.040   1.279  13.318  1.00  0.00    -0.264 OA
BRANCH  10  12
HETATM   12  C13 UNL     1      -4.333   1.947  15.501  1.00  0.00     0.216 C 
HETATM   13  O4  UNL     1      -3.547   1.213  16.182  1.00  0.00    -0.287 OA
BRANCH  12  14
HETATM   14  C14 UNL     1      -5.563   2.445  16.137  1.00  0.00     0.094 C 
BRANCH  14  15
HETATM   15  C15 UNL     1      -5.855   1.930  17.498  1.00  0.00     0.068 C 
BRANCH  15  16
HETATM   16  C16 UNL     1      -6.752   0.727  17.562  1.00  0.00     0.254 C 
BRANCH  16  17
HETATM   17  O5  UNL     1      -6.012  -0.430  17.337  1.00  0.00    -0.371 OA
ATOM     18  H5  UNL     1      -5.974  -0.950  18.131  1.00  0.00     0.212 HD
ENDBRANCH  16  17
BRANCH  16  19
HETATM   19  O6  UNL     1      -7.819   0.856  16.652  1.00  0.00    -0.371 OA
ATOM     20  H6  UNL     1      -8.649   0.693  17.085  1.00  0.00     0.212 HD
ENDBRANCH  16  19
ENDBRANCH  15  16
ENDBRANCH  14  15
ENDBRANCH  12  14
ENDBRANCH  10  12
ENDBRANCH   3   5
BRANCH   1  21
HETATM   21  C5  UNL     1       0.326   4.816  11.324  1.00  0.00     0.146 C 
BRANCH  21  22
HETATM   22  C4  UNL     1       0.700   4.653   9.871  1.00  0.00     0.034 C 
BRANCH  22  23
HETATM   23  C3  UNL     1       1.969   3.887   9.729  1.00  0.00     0.022 C 
BRANCH  23  24
HETATM   24  C2  UNL     1       2.295   3.457   8.334  1.00  0.00     0.120 C 
BRANCH  24  25
HETATM   25  N3  UNL     1       2.707   2.071   8.418  1.00  0.00    -0.385 N 
HETATM   26  C1  UNL     1       3.892   1.760   8.095  1.00  0.00     0.192 C 
ATOM     27  H3  UNL     1       2.053   1.356   8.734  1.00  0.00     0.160 HD
BRANCH  26  28
HETATM   28  N2  UNL     1       4.382   0.423   8.148  1.00  0.00    -0.303 N 
ATOM     29  H2  UNL     1       5.352   0.166   7.968  1.00  0.00     0.187 HD
BRANCH  28  30
HETATM   30  N1  UNL     1       3.382  -0.492   8.473  1.00  0.00    -0.344 N 
ATOM     31  H12 UNL     1       3.336  -0.969   9.373  1.00  0.00     0.176 HD
ATOM     32  H11 UNL     1       2.716  -0.622   7.712  1.00  0.00     0.176 HD
ENDBRANCH  28  30
ENDBRANCH  26  28
ENDBRANCH  24  25
ENDBRANCH  23  24
ENDBRANCH  22  23
ENDBRANCH  21  22
BRANCH  21  33
HETATM   33  C6  UNL     1       0.982   5.990  11.967  1.00  0.00     0.256 C 
HETATM   34  O1  UNL     1       0.390   6.981  12.348  1.00  0.00    -0.305 OA
ENDBRANCH  21  33
ENDBRANCH   1  21
TORSDOF 15
ENDMDL
MODEL 3
REMARK VINA RESULT: -6.375034574      2.379      3.277
REMARK  15 active torsions:
REMARK  status: ('A' for Active; 'I' for Inactive)
REMARK    1  A    between atoms: N1_1  and  N2_4 
REMARK    2  A    between atoms: N2_4  and  C1_6 
REMARK    3  A    between atoms: N3_7  and  C2_9 
REMARK    4  A    between atoms: C2_9  and  C3_10 
REMARK    5  A    between atoms: C3_10  and  C4_11 
REMARK    6  A    between atoms: C4_11  and  C5_12 
REMARK    7  A    between atoms: C5_12  and  C6_13 
REMARK    8  A    between atoms: C5_12  and  N4_15 
REMARK       I    between atoms: N4_15  and  C7_17 
REMARK    9  A    between atoms: C7_17  and  C8_19 
REMARK       I    between atoms: N5_23  and  C12_24 
REMARK   10  A    between atoms: C12_24  and  C13_26 
REMARK   11  A    between atoms: C13_26  and  C14_28 
REMARK   12  A    between atoms: C14_28  and  C15_29 
REMARK   13  A    between atoms: C15_29  and  C16_30 
REMARK   14  A    between atoms: C16_30  and  O5_31 
REMARK   15  A    between atoms: C16_30  and  O6_33 
ROOT
HETATM    1  N4  UNL     1      -2.022   4.803  11.592  1.00  0.00    -0.348 N 
ATOM      2  H4  UNL     1      -2.556   5.672  11.563  1.00  0.00     0.163 HD
HETATM    3  C7  UNL     1      -2.612   3.650  12.155  1.00  0.00     0.241 C 
HETATM    4  O2  UNL     1      -1.954   2.590  12.192  1.00  0.00    -0.271 OA
ENDROOT
BRANCH   3   5
HETATM    5  C8  UNL     1      -3.987   3.648  12.705  1.00  0.00     0.179 C 
HETATM    6  C9  UNL     1      -4.516   4.994  13.067  1.00  0.00     0.037 C 
HETATM    7  C10 UNL     1      -4.322   5.124  14.541  1.00  0.00     0.022 C 
HETATM    8  C11 UNL     1      -3.601   3.837  14.975  1.00  0.00     0.127 C 
HETATM    9  N5  UNL     1      -4.036   2.913  13.963  1.00  0.00    -0.332 N 
HETATM   10  C12 UNL     1      -4.446   1.563  14.057  1.00  0.00     0.290 C 
HETATM   11  O3  UNL     1      -4.802   0.969  12.978  1.00  0.00    -0.264 OA
BRANCH  10  12
HETATM   12  C13 UNL     1      -4.510   0.758  15.252  1.00  0.00     0.216 C 
HETATM   13  O4  UNL     1      -4.639  -0.504  15.147  1.00  0.00    -0.287 OA
BRANCH  12  14
HETATM   14  C14 UNL     1      -4.431   1.351  16.596  1.00  0.00     0.094 C 
BRANCH  14  15
HETATM   15  C15 UNL     1      -5.707   1.846  17.173  1.00  0.00     0.068 C 
BRANCH  15  16
HETATM   16  C16 UNL     1      -6.715   0.791  17.527  1.00  0.00     0.254 C 
BRANCH  16  17
HETATM   17  O5  UNL     1      -6.080  -0.433  17.708  1.00  0.00    -0.371 OA
ATOM     18  H5  UNL     1      -5.517  -0.620  16.965  1.00  0.00     0.212 HD
ENDBRANCH  16  17
BRANCH  16  19
HETATM   19  O6  UNL     1      -7.724   0.722  16.547  1.00  0.00    -0.371 OA
ATOM     20  H6  UNL     1      -7.849   1.569  16.136  1.00  0.00     0.212 HD
ENDBRANCH  16  19
ENDBRANCH  15  16
ENDBRANCH  14  15
ENDBRANCH  12  14
ENDBRANCH  10  12
ENDBRANCH   3   5
BRANCH   1  21
HETATM   21  C5  UNL     1      -0.674   4.783  11.052  1.00  0.00     0.146 C 
BRANCH  21  22
HETATM   22  C4  UNL     1      -0.647   5.215   9.607  1.00  0.00     0.034 C 
BRANCH  22  23
HETATM   23  C3  UNL     1      -1.943   5.832   9.211  1.00  0.00     0.022 C 
BRANCH  23  24
HETATM   24  C2  UNL     1      -2.692   5.100   8.142  1.00  0.00     0.120 C 
BRANCH  24  25
HETATM   25  N3  UNL     1      -4.075   5.055   8.568  1.00  0.00    -0.385 N 
HETATM   26  C1  UNL     1      -4.563   6.049   9.184  1.00  0.00     0.192 C 
ATOM     27  H3  UNL     1      -4.649   4.235   8.375  1.00  0.00     0.160 HD
BRANCH  26  28
HETATM   28  N2  UNL     1      -5.912   6.091   9.639  1.00  0.00    -0.303 N 
ATOM     29  H2  UNL     1      -6.183   6.032  10.621  1.00  0.00     0.187 HD
BRANCH  28  30
HETATM   30  N1  UNL     1      -6.819   6.221   8.589  1.00  0.00    -0.344 N 
ATOM     31  H12 UNL     1      -7.523   5.516   8.371  1.00  0.00     0.176 HD
ATOM     32  H11 UNL     1      -6.693   7.094   8.076  1.00  0.00     0.176 HD
ENDBRANCH  28  30
ENDBRANCH  26  28
ENDBRANCH  24  25
ENDBRANCH  23  24
ENDBRANCH  22  23
ENDBRANCH  21  22
BRANCH  21  33
HETATM   33  C6  UNL     1       0.266   5.559  11.911  1.00  0.00     0.256 C 
HETATM   34  O1  UNL     1      -0.069   6.467  12.647  1.00  0.00    -0.305 OA
ENDBRANCH  21  33
ENDBRANCH   1  21
TORSDOF 15
ENDMDL
MODEL 4
REMARK VINA RESULT: -6.321717343      3.568      4.496
REMARK  15 active torsions:
REMARK  status: ('A' for Active; 'I' for Inactive)
REMARK    1  A    between atoms: N1_1  and  N2_4 
REMARK    2  A    between atoms: N2_4  and  C1_6 
REMARK    3  A    between atoms: N3_7  and  C2_9 
REMARK    4  A    between atoms: C2_9  and  C3_10 
REMARK    5  A    between atoms: C3_10  and  C4_11 
REMARK    6  A    between atoms: C4_11  and  C5_12 
REMARK    7  A    between atoms: C5_12  and  C6_13 
REMARK    8  A    between atoms: C5_12  and  N4_15 
REMARK       I    between atoms: N4_15  and  C7_17 
REMARK    9  A    between atoms: C7_17  and  C8_19 
REMARK       I    between atoms: N5_23  and  C12_24 
REMARK   10  A    between atoms: C12_24  and  C13_26 
REMARK   11  A    between atoms: C13_26  and  C14_28 
REMARK   12  A    between atoms: C14_28  and  C15_29 
REMARK   13  A    between atoms: C15_29  and  C16_30 
REMARK   14  A    between atoms: C16_30  and  O5_31 
REMARK   15  A    between atoms: C16_30  and  O6_33 
ROOT
HETATM    1  N4  UNL     1      -2.691   7.328  13.909  1.00  0.00    -0.348 N 
ATOM      2  H4  UNL     1      -3.483   7.887  13.589  1.00  0.00     0.163 HD
HETATM    3  C7  UNL     1      -2.753   5.921  13.801  1.00  0.00     0.241 C 
HETATM    4  O2  UNL     1      -1.784   5.242  14.197  1.00  0.00    -0.271 OA
ENDROOT
BRANCH   3   5
HETATM    5  C8  UNL     1      -3.926   5.218  13.235  1.00  0.00     0.179 C 
HETATM    6  C9  UNL     1      -5.145   6.062  13.079  1.00  0.00     0.037 C 
HETATM    7  C10 UNL     1      -6.001   5.763  14.264  1.00  0.00     0.022 C 
HETATM    8  C11 UNL     1      -5.186   4.780  15.122  1.00  0.00     0.127 C 
HETATM    9  N5  UNL     1      -4.364   4.149  14.125  1.00  0.00    -0.332 N 
HETATM   10  C12 UNL     1      -3.994   2.795  13.952  1.00  0.00     0.290 C 
HETATM   11  O3  UNL     1      -3.248   2.501  12.952  1.00  0.00    -0.264 OA
BRANCH  10  12
HETATM   12  C13 UNL     1      -4.366   1.681  14.789  1.00  0.00     0.216 C 
HETATM   13  O4  UNL     1      -4.713   0.582  14.247  1.00  0.00    -0.287 OA
BRANCH  12  14
HETATM   14  C14 UNL     1      -4.358   1.774  16.257  1.00  0.00     0.094 C 
BRANCH  14  15
HETATM   15  C15 UNL     1      -5.668   2.029  16.908  1.00  0.00     0.068 C 
BRANCH  15  16
HETATM   16  C16 UNL     1      -6.410   0.812  17.380  1.00  0.00     0.254 C 
BRANCH  16  17
HETATM   17  O5  UNL     1      -5.769  -0.339  16.933  1.00  0.00    -0.371 OA
ATOM     18  H5  UNL     1      -6.053  -1.088  17.444  1.00  0.00     0.212 HD
ENDBRANCH  16  17
BRANCH  16  19
HETATM   19  O6  UNL     1      -7.755   0.861  16.968  1.00  0.00    -0.371 OA
ATOM     20  H6  UNL     1      -8.160   0.006  17.047  1.00  0.00     0.212 HD
ENDBRANCH  16  19
ENDBRANCH  15  16
ENDBRANCH  14  15
ENDBRANCH  12  14
ENDBRANCH  10  12
ENDBRANCH   3   5
BRANCH   1  21
HETATM   21  C5  UNL     1      -1.529   8.000  14.462  1.00  0.00     0.146 C 
BRANCH  21  22
HETATM   22  C4  UNL     1      -0.835   8.852  13.428  1.00  0.00     0.034 C 
BRANCH  22  23
HETATM   23  C3  UNL     1       0.463   8.247  13.022  1.00  0.00     0.022 C 
BRANCH  23  24
HETATM   24  C2  UNL     1       0.411   7.405  11.786  1.00  0.00     0.120 C 
BRANCH  24  25
HETATM   25  N3  UNL     1       0.540   6.030  12.221  1.00  0.00    -0.385 N 
HETATM   26  C1  UNL     1       0.479   5.103  11.360  1.00  0.00     0.192 C 
ATOM     27  H3  UNL     1       0.679   5.811  13.207  1.00  0.00     0.160 HD
BRANCH  26  28
HETATM   28  N2  UNL     1       0.595   3.724  11.699  1.00  0.00    -0.303 N 
ATOM     29  H2  UNL     1       1.385   3.138  11.430  1.00  0.00     0.187 HD
BRANCH  28  30
HETATM   30  N1  UNL     1      -0.494   3.269  12.439  1.00  0.00    -0.344 N 
ATOM     31  H12 UNL     1      -1.288   3.861  12.683  1.00  0.00     0.176 HD
ATOM     32  H11 UNL     1      -0.400   2.287  12.701  1.00  0.00     0.176 HD
ENDBRANCH  28  30
ENDBRANCH  26  28
ENDBRANCH  24  25
ENDBRANCH  23  24
ENDBRANCH  22  23
ENDBRANCH  21  22
BRANCH  21  33
HETATM   33  C6  UNL     1      -1.876   8.753  15.700  1.00  0.00     0.256 C 
HETATM   34  O1  UNL     1      -1.517   9.892  15.933  1.00  0.00    -0.305 OA
ENDBRANCH  21  33
ENDBRANCH   1  21
TORSDOF 15
ENDMDL
MODEL 5
REMARK VINA RESULT: -6.216460433      4.103      5.772
REMARK  15 active torsions:
REMARK  status: ('A' for Active; 'I' for Inactive)
REMARK    1  A    between atoms: N1_1  and  N2_4 
REMARK    2  A    between atoms: N2_4  and  C1_6 
REMARK    3  A    between atoms: N3_7  and  C2_9 
REMARK    4  A    between atoms: C2_9  and  C3_10 
REMARK    5  A    between atoms: C3_10  and  C4_11 
REMARK    6  A    between atoms: C4_11  and  C5_12 
REMARK    7  A    between atoms: C5_12  and  C6_13 
REMARK    8  A    between atoms: C5_12  and  N4_15 
REMARK       I    between atoms: N4_15  and  C7_17 
REMARK    9  A    between atoms: C7_17  and  C8_19 
REMARK       I    between atoms: N5_23  and  C12_24 
REMARK   10  A    between atoms: C12_24  and  C13_26 
REMARK   11  A    between atoms: C13_26  and  C14_28 
REMARK   12  A    between atoms: C14_28  and  C15_29 
REMARK   13  A    between atoms: C15_29  and  C16_30 
REMARK   14  A    between atoms: C16_30  and  O5_31 
REMARK   15  A    between atoms: C16_30  and  O6_33 
ROOT
HETATM    1  N4  UNL     1      -1.551   5.165  11.988  1.00  0.00    -0.348 N 
ATOM      2  H4  UNL     1      -2.217   5.926  11.849  1.00  0.00     0.163 HD
HETATM    3  C7  UNL     1      -2.036   3.850  12.163  1.00  0.00     0.241 C 
HETATM    4  O2  UNL     1      -1.218   2.923  12.336  1.00  0.00    -0.271 OA
ENDROOT
BRANCH   3   5
HETATM    5  C8  UNL     1      -3.480   3.526  12.148  1.00  0.00     0.179 C 
HETATM    6  C9  UNL     1      -4.382   4.701  11.977  1.00  0.00     0.037 C 
HETATM    7  C10 UNL     1      -4.852   5.055  13.348  1.00  0.00     0.022 C 
HETATM    8  C11 UNL     1      -4.124   4.086  14.295  1.00  0.00     0.127 C 
HETATM    9  N5  UNL     1      -3.893   2.963  13.428  1.00  0.00    -0.332 N 
HETATM   10  C12 UNL     1      -4.011   1.572  13.662  1.00  0.00     0.290 C 
HETATM   11  O3  UNL     1      -3.752   0.778  12.690  1.00  0.00    -0.264 OA
BRANCH  10  12
HETATM   12  C13 UNL     1      -4.396   0.931  14.895  1.00  0.00     0.216 C 
HETATM   13  O4  UNL     1      -4.798  -0.277  14.870  1.00  0.00    -0.287 OA
BRANCH  12  14
HETATM   14  C14 UNL     1      -4.340   1.631  16.188  1.00  0.00     0.094 C 
BRANCH  14  15
HETATM   15  C15 UNL     1      -5.637   2.088  16.746  1.00  0.00     0.068 C 
BRANCH  15  16
HETATM   16  C16 UNL     1      -6.419   1.055  17.507  1.00  0.00     0.254 C 
BRANCH  16  17
HETATM   17  O5  UNL     1      -5.554   0.119  18.064  1.00  0.00    -0.371 OA
ATOM     18  H5  UNL     1      -6.044  -0.508  18.583  1.00  0.00     0.212 HD
ENDBRANCH  16  17
BRANCH  16  19
HETATM   19  O6  UNL     1      -7.384   0.454  16.677  1.00  0.00    -0.371 OA
ATOM     20  H6  UNL     1      -6.983  -0.200  16.117  1.00  0.00     0.212 HD
ENDBRANCH  16  19
ENDBRANCH  15  16
ENDBRANCH  14  15
ENDBRANCH  12  14
ENDBRANCH  10  12
ENDBRANCH   3   5
BRANCH   1  21
HETATM   21  C5  UNL     1      -0.130   5.462  12.000  1.00  0.00     0.146 C 
BRANCH  21  22
HETATM   22  C4  UNL     1       0.499   5.226  10.649  1.00  0.00     0.034 C 
BRANCH  22  23
HETATM   23  C3  UNL     1       1.665   4.306  10.757  1.00  0.00     0.022 C 
BRANCH  23  24
HETATM   24  C2  UNL     1       2.977   4.897  10.348  1.00  0.00     0.120 C 
BRANCH  24  25
HETATM   25  N3  UNL     1       3.390   5.765  11.431  1.00  0.00    -0.385 N 
HETATM   26  C1  UNL     1       3.781   5.249  12.520  1.00  0.00     0.192 C 
ATOM     27  H3  UNL     1       3.367   6.779  11.319  1.00  0.00     0.160 HD
BRANCH  26  28
HETATM   28  N2  UNL     1       4.204   6.027  13.636  1.00  0.00    -0.303 N 
ATOM     29  H2  UNL     1       4.679   5.640  14.452  1.00  0.00     0.187 HD
BRANCH  28  30
HETATM   30  N1  UNL     1       3.894   7.378  13.486  1.00  0.00    -0.344 N 
ATOM     31  H12 UNL     1       3.116   7.710  12.916  1.00  0.00     0.176 HD
ATOM     32  H11 UNL     1       4.530   7.980  14.008  1.00  0.00     0.176 HD
ENDBRANCH  28  30
ENDBRANCH  26  28
ENDBRANCH  24  25
ENDBRANCH  23  24
ENDBRANCH  22  23
ENDBRANCH  21  22
BRANCH  21  33
HETATM   33  C6  UNL     1       0.135   6.828  12.535  1.00  0.00     0.256 C 
HETATM   34  O1  UNL     1       1.103   7.503  12.243  1.00  0.00    -0.305 OA
ENDBRANCH  21  33
ENDBRANCH   1  21
TORSDOF 15
ENDMDL
