MODEL 1
REMARK VINA RESULT: -7.347085682      0.000      0.000
REMARK  12 active torsions:
REMARK  status: ('A' for Active; 'I' for Inactive)
REMARK       I    between atoms: N1_2  and  C3_4 
REMARK    1  A    between atoms: C3_4  and  C4_6 
REMARK    2  A    between atoms: C4_6  and  N2_7 
REMARK    3  A    between atoms: C4_6  and  C7_16 
REMARK       I    between atoms: N2_7  and  C5_9 
REMARK    4  A    between atoms: C5_9  and  C6_11 
REMARK    5  A    between atoms: C6_11  and  N3_12 
REMARK    6  A    between atoms: N3_12  and  N4_13 
REMARK    7  A    between atoms: C7_16  and  O3_17 
REMARK    8  A    between atoms: C7_16  and  C8_19 
REMARK    9  A    between atoms: C8_19  and  C9_20 
REMARK   10  A    between atoms: C9_20  and  C10_21 
REMARK   11  A    between atoms: C9_20  and  N5_23 
REMARK       I    between atoms: N5_23  and  C11_24 
REMARK   12  A    between atoms: C11_24  and  C12_26 
ROOT
HETATM    1  C4  UNL     1      -2.678   3.840  12.607  1.00  0.00     0.205 C 
ENDROOT
BRANCH   1   2
HETATM    2  C3  UNL     1      -1.240   3.755  12.159  1.00  0.00     0.244 C 
HETATM    3  N1  UNL     1      -0.549   4.841  11.541  1.00  0.00    -0.359 N 
HETATM    4  C1  UNL     1       0.836   4.651  11.151  1.00  0.00     0.152 C 
HETATM    5  C2  UNL     1      -1.109   6.125  11.251  1.00  0.00     0.152 C 
HETATM    6  O1  UNL     1      -0.693   2.644  12.370  1.00  0.00    -0.271 OA
ENDBRANCH   1   2
BRANCH   1   7
HETATM    7  N2  UNL     1      -3.301   2.580  12.365  1.00  0.00    -0.340 N 
HETATM    8  C5  UNL     1      -4.419   2.459  11.442  1.00  0.00     0.273 C 
HETATM    9  O2  UNL     1      -4.807   3.473  10.865  1.00  0.00    -0.266 OA
ATOM     10  H2  UNL     1      -2.957   1.750  12.847  1.00  0.00     0.163 HD
BRANCH   8  11
HETATM   11  C6  UNL     1      -5.037   1.156  11.237  1.00  0.00     0.282 C 
BRANCH  11  12
HETATM   12  N3  UNL     1      -4.751   0.191  11.985  1.00  0.00    -0.340 NA
BRANCH  12  13
HETATM   13  N4  UNL     1      -4.121  -0.734  12.538  1.00  0.00    -0.281 N 
ATOM     14  H42 UNL     1      -4.206  -1.390  11.762  1.00  0.00     0.191 HD
ATOM     15  H41 UNL     1      -3.590  -1.268  13.225  1.00  0.00     0.191 HD
ENDBRANCH  12  13
ENDBRANCH  11  12
ENDBRANCH   8  11
ENDBRANCH   1   7
BRANCH   1  16
HETATM   16  C7  UNL     1      -2.811   4.509  13.932  1.00  0.00     0.153 C 
BRANCH  16  17
HETATM   17  O3  UNL     1      -3.423   5.784  13.770  1.00  0.00    -0.393 OA
ATOM     18  H3  UNL     1      -4.368   5.686  13.732  1.00  0.00     0.210 HD
ENDBRANCH  16  17
BRANCH  16  19
HETATM   19  C8  UNL     1      -3.584   3.830  14.987  1.00  0.00     0.081 C 
BRANCH  19  20
HETATM   20  C9  UNL     1      -4.883   3.126  14.586  1.00  0.00     0.230 C 
BRANCH  20  21
HETATM   21  C10 UNL     1      -5.947   4.098  15.078  1.00  0.00     0.270 C 
HETATM   22  O4  UNL     1      -6.310   5.048  14.548  1.00  0.00    -0.303 OA
ENDBRANCH  20  21
BRANCH  20  23
HETATM   23  N5  UNL     1      -5.036   1.903  15.263  1.00  0.00    -0.402 NA
HETATM   24  C11 UNL     1      -5.182   0.725  15.915  1.00  0.00     0.291 C 
HETATM   25  O5  UNL     1      -4.830  -0.388  15.525  1.00  0.00    -0.257 OA
BRANCH  24  26
HETATM   26  C12 UNL     1      -5.843   0.693  17.299  1.00  0.00     0.093 A 
HETATM   27  C13 UNL     1      -7.295   1.124  17.260  1.00  0.00     0.016 A 
HETATM   28  C14 UNL     1      -6.284   2.000  17.901  1.00  0.00     0.016 A 
ENDBRANCH  24  26
ENDBRANCH  20  23
ENDBRANCH  19  20
ENDBRANCH  16  19
ENDBRANCH   1  16
TORSDOF 12
ENDMDL
MODEL 2
REMARK VINA RESULT: -7.305093978      1.284      1.335
REMARK  12 active torsions:
REMARK  status: ('A' for Active; 'I' for Inactive)
REMARK       I    between atoms: N1_2  and  C3_4 
REMARK    1  A    between atoms: C3_4  and  C4_6 
REMARK    2  A    between atoms: C4_6  and  N2_7 
REMARK    3  A    between atoms: C4_6  and  C7_16 
REMARK       I    between atoms: N2_7  and  C5_9 
REMARK    4  A    between atoms: C5_9  and  C6_11 
REMARK    5  A    between atoms: C6_11  and  N3_12 
REMARK    6  A    between atoms: N3_12  and  N4_13 
REMARK    7  A    between atoms: C7_16  and  O3_17 
REMARK    8  A    between atoms: C7_16  and  C8_19 
REMARK    9  A    between atoms: C8_19  and  C9_20 
REMARK   10  A    between atoms: C9_20  and  C10_21 
REMARK   11  A    between atoms: C9_20  and  N5_23 
REMARK       I    between atoms: N5_23  and  C11_24 
REMARK   12  A    between atoms: C11_24  and  C12_26 
ROOT
HETATM    1  C4  UNL     1      -3.128   3.545  12.253  1.00  0.00     0.205 C 
ENDROOT
BRANCH   1   2
HETATM    2  C3  UNL     1      -1.693   3.923  11.982  1.00  0.00     0.244 C 
HETATM    3  N1  UNL     1      -1.247   4.457  10.736  1.00  0.00    -0.359 N 
HETATM    4  C1  UNL     1       0.157   4.789  10.586  1.00  0.00     0.152 C 
HETATM    5  C2  UNL     1      -2.070   4.691   9.590  1.00  0.00     0.152 C 
HETATM    6  O1  UNL     1      -0.912   3.725  12.946  1.00  0.00    -0.271 OA
ENDBRANCH   1   2
BRANCH   1   7
HETATM    7  N2  UNL     1      -3.160   2.203  12.734  1.00  0.00    -0.340 N 
HETATM    8  C5  UNL     1      -4.235   1.296  12.364  1.00  0.00     0.273 C 
HETATM    9  O2  UNL     1      -5.114   1.714  11.612  1.00  0.00    -0.266 OA
ATOM     10  H2  UNL     1      -2.415   1.874  13.349  1.00  0.00     0.163 HD
BRANCH   8  11
HETATM   11  C6  UNL     1      -4.237  -0.062  12.892  1.00  0.00     0.282 C 
BRANCH  11  12
HETATM   12  N3  UNL     1      -4.402  -1.041  12.127  1.00  0.00    -0.340 NA
BRANCH  12  13
HETATM   13  N4  UNL     1      -4.291  -2.169  11.604  1.00  0.00    -0.281 N 
ATOM     14  H42 UNL     1      -3.285  -2.108  11.447  1.00  0.00     0.191 HD
ATOM     15  H41 UNL     1      -4.519  -3.092  11.235  1.00  0.00     0.191 HD
ENDBRANCH  12  13
ENDBRANCH  11  12
ENDBRANCH   8  11
ENDBRANCH   1   7
BRANCH   1  16
HETATM   16  C7  UNL     1      -3.864   4.625  12.970  1.00  0.00     0.153 C 
BRANCH  16  17
HETATM   17  O3  UNL     1      -5.126   4.844  12.348  1.00  0.00    -0.393 OA
ATOM     18  H3  UNL     1      -5.070   5.586  11.756  1.00  0.00     0.210 HD
ENDBRANCH  16  17
BRANCH  16  19
HETATM   19  C8  UNL     1      -4.155   4.445  14.403  1.00  0.00     0.081 C 
BRANCH  19  20
HETATM   20  C9  UNL     1      -5.384   3.618  14.789  1.00  0.00     0.230 C 
BRANCH  20  21
HETATM   21  C10 UNL     1      -6.196   4.606  15.617  1.00  0.00     0.270 C 
HETATM   22  O4  UNL     1      -6.103   5.749  15.610  1.00  0.00    -0.303 OA
ENDBRANCH  20  21
BRANCH  20  23
HETATM   23  N5  UNL     1      -5.035   2.524  15.599  1.00  0.00    -0.402 NA
HETATM   24  C11 UNL     1      -4.699   1.469  16.380  1.00  0.00     0.291 C 
HETATM   25  O5  UNL     1      -3.664   0.805  16.325  1.00  0.00    -0.257 OA
BRANCH  24  26
HETATM   26  C12 UNL     1      -5.657   0.994  17.480  1.00  0.00     0.093 A 
HETATM   27  C13 UNL     1      -7.112   1.210  17.116  1.00  0.00     0.016 A 
HETATM   28  C14 UNL     1      -6.491   2.031  18.185  1.00  0.00     0.016 A 
ENDBRANCH  24  26
ENDBRANCH  20  23
ENDBRANCH  19  20
ENDBRANCH  16  19
ENDBRANCH   1  16
TORSDOF 12
ENDMDL
MODEL 3
REMARK VINA RESULT: -7.184050460      2.971      3.744
REMARK  12 active torsions:
REMARK  status: ('A' for Active; 'I' for Inactive)
REMARK       I    between atoms: N1_2  and  C3_4 
REMARK    1  A    between atoms: C3_4  and  C4_6 
REMARK    2  A    between atoms: C4_6  and  N2_7 
REMARK    3  A    between atoms: C4_6  and  C7_16 
REMARK       I    between atoms: N2_7  and  C5_9 
REMARK    4  A    between atoms: C5_9  and  C6_11 
REMARK    5  A    between atoms: C6_11  and  N3_12 
REMARK    6  A    between atoms: N3_12  and  N4_13 
REMARK    7  A    between atoms: C7_16  and  O3_17 
REMARK    8  A    between atoms: C7_16  and  C8_19 
REMARK    9  A    between atoms: C8_19  and  C9_20 
REMARK   10  A    between atoms: C9_20  and  C10_21 
REMARK   11  A    between atoms: C9_20  and  N5_23 
REMARK       I    between atoms: N5_23  and  C11_24 
REMARK   12  A    between atoms: C11_24  and  C12_26 
ROOT
HETATM    1  C4  UNL     1      -4.246   4.448  10.865  1.00  0.00     0.205 C 
ENDROOT
BRANCH   1   2
HETATM    2  C3  UNL     1      -2.838   4.370  10.328  1.00  0.00     0.244 C 
HETATM    3  N1  UNL     1      -1.722   4.982  10.972  1.00  0.00    -0.359 N 
HETATM    4  C1  UNL     1      -0.409   4.841  10.369  1.00  0.00     0.152 C 
HETATM    5  C2  UNL     1      -1.775   5.750  12.178  1.00  0.00     0.152 C 
HETATM    6  O1  UNL     1      -2.725   3.722   9.258  1.00  0.00    -0.271 OA
ENDBRANCH   1   2
BRANCH   1   7
HETATM    7  N2  UNL     1      -5.043   5.184   9.939  1.00  0.00    -0.340 N 
HETATM    8  C5  UNL     1      -5.845   6.318  10.371  1.00  0.00     0.273 C 
HETATM    9  O2  UNL     1      -5.808   6.636  11.559  1.00  0.00    -0.266 OA
ATOM     10  H2  UNL     1      -5.051   4.910   8.957  1.00  0.00     0.163 HD
BRANCH   8  11
HETATM   11  C6  UNL     1      -6.658   7.031   9.395  1.00  0.00     0.282 C 
BRANCH  11  12
HETATM   12  N3  UNL     1      -6.674   6.668   8.195  1.00  0.00    -0.340 NA
BRANCH  12  13
HETATM   13  N4  UNL     1      -7.075   6.271   7.082  1.00  0.00    -0.281 N 
ATOM     14  H42 UNL     1      -7.657   7.086   6.889  1.00  0.00     0.191 HD
ATOM     15  H41 UNL     1      -7.214   5.695   6.251  1.00  0.00     0.191 HD
ENDBRANCH  12  13
ENDBRANCH  11  12
ENDBRANCH   8  11
ENDBRANCH   1   7
BRANCH   1  16
HETATM   16  C7  UNL     1      -4.715   3.136  11.394  1.00  0.00     0.153 C 
BRANCH  16  17
HETATM   17  O3  UNL     1      -4.565   2.131  10.397  1.00  0.00    -0.393 OA
ATOM     18  H3  UNL     1      -3.665   1.824  10.382  1.00  0.00     0.210 HD
ENDBRANCH  16  17
BRANCH  16  19
HETATM   19  C8  UNL     1      -4.070   2.595  12.603  1.00  0.00     0.081 C 
BRANCH  19  20
HETATM   20  C9  UNL     1      -4.632   3.010  13.966  1.00  0.00     0.230 C 
BRANCH  20  21
HETATM   21  C10 UNL     1      -3.511   3.871  14.532  1.00  0.00     0.270 C 
HETATM   22  O4  UNL     1      -2.481   3.514  14.888  1.00  0.00    -0.303 OA
ENDBRANCH  20  21
BRANCH  20  23
HETATM   23  N5  UNL     1      -4.821   1.898  14.804  1.00  0.00    -0.402 NA
HETATM   24  C11 UNL     1      -5.004   0.827  15.614  1.00  0.00     0.291 C 
HETATM   25  O5  UNL     1      -4.765  -0.351  15.350  1.00  0.00    -0.257 OA
BRANCH  24  26
HETATM   26  C12 UNL     1      -5.558   1.023  17.030  1.00  0.00     0.093 A 
HETATM   27  C13 UNL     1      -7.073   1.048  17.063  1.00  0.00     0.016 A 
HETATM   28  C14 UNL     1      -6.310   2.294  17.325  1.00  0.00     0.016 A 
ENDBRANCH  24  26
ENDBRANCH  20  23
ENDBRANCH  19  20
ENDBRANCH  16  19
ENDBRANCH   1  16
TORSDOF 12
ENDMDL
MODEL 4
REMARK VINA RESULT: -7.082525203      1.328      1.502
REMARK  12 active torsions:
REMARK  status: ('A' for Active; 'I' for Inactive)
REMARK       I    between atoms: N1_2  and  C3_4 
REMARK    1  A    between atoms: C3_4  and  C4_6 
REMARK    2  A    between atoms: C4_6  and  N2_7 
REMARK    3  A    between atoms: C4_6  and  C7_16 
REMARK       I    between atoms: N2_7  and  C5_9 
REMARK    4  A    between atoms: C5_9  and  C6_11 
REMARK    5  A    between atoms: C6_11  and  N3_12 
REMARK    6  A    between atoms: N3_12  and  N4_13 
REMARK    7  A    between atoms: C7_16  and  O3_17 
REMARK    8  A    between atoms: C7_16  and  C8_19 
REMARK    9  A    between atoms: C8_19  and  C9_20 
REMARK   10  A    between atoms: C9_20  and  C10_21 
REMARK   11  A    between atoms: C9_20  and  N5_23 
REMARK       I    between atoms: N5_23  and  C11_24 
REMARK   12  A    between atoms: C11_24  and  C12_26 
ROOT
HETATM    1  C4  UNL     1      -3.411   3.579  12.355  1.00  0.00     0.205 C 
ENDROOT
BRANCH   1   2
HETATM    2  C3  UNL     1      -2.720   4.307  11.229  1.00  0.00     0.244 C 
HETATM    3  N1  UNL     1      -3.345   5.335  10.463  1.00  0.00    -0.359 N 
HETATM    4  C1  UNL     1      -2.585   5.972   9.404  1.00  0.00     0.152 C 
HETATM    5  C2  UNL     1      -4.687   5.800  10.634  1.00  0.00     0.152 C 
HETATM    6  O1  UNL     1      -1.540   3.933  11.015  1.00  0.00    -0.271 OA
ENDBRANCH   1   2
BRANCH   1   7
HETATM    7  N2  UNL     1      -3.559   2.210  11.984  1.00  0.00    -0.340 N 
HETATM    8  C5  UNL     1      -4.786   1.723  11.373  1.00  0.00     0.273 C 
HETATM    9  O2  UNL     1      -5.693   2.530  11.172  1.00  0.00    -0.266 OA
ATOM     10  H2  UNL     1      -2.791   1.560  12.151  1.00  0.00     0.163 HD
BRANCH   8  11
HETATM   11  C6  UNL     1      -4.901   0.314  11.025  1.00  0.00     0.282 C 
BRANCH  11  12
HETATM   12  N3  UNL     1      -4.621  -0.573  11.866  1.00  0.00    -0.340 NA
BRANCH  12  13
HETATM   13  N4  UNL     1      -4.012  -1.239  12.728  1.00  0.00    -0.281 N 
ATOM     14  H42 UNL     1      -3.742  -0.439  13.301  1.00  0.00     0.191 HD
ATOM     15  H41 UNL     1      -3.609  -2.025  13.239  1.00  0.00     0.191 HD
ENDBRANCH  12  13
ENDBRANCH  11  12
ENDBRANCH   8  11
ENDBRANCH   1   7
BRANCH   1  16
HETATM   16  C7  UNL     1      -2.851   3.947  13.686  1.00  0.00     0.153 C 
BRANCH  16  17
HETATM   17  O3  UNL     1      -2.402   5.298  13.664  1.00  0.00    -0.393 OA
ATOM     18  H3  UNL     1      -1.536   5.344  13.274  1.00  0.00     0.210 HD
ENDBRANCH  16  17
BRANCH  16  19
HETATM   19  C8  UNL     1      -3.723   3.840  14.869  1.00  0.00     0.081 C 
BRANCH  19  20
HETATM   20  C9  UNL     1      -5.103   3.201  14.689  1.00  0.00     0.230 C 
BRANCH  20  21
HETATM   21  C10 UNL     1      -6.016   4.186  15.408  1.00  0.00     0.270 C 
HETATM   22  O4  UNL     1      -6.189   5.287  15.137  1.00  0.00    -0.303 OA
ENDBRANCH  20  21
BRANCH  20  23
HETATM   23  N5  UNL     1      -5.181   1.954  15.334  1.00  0.00    -0.402 NA
HETATM   24  C11 UNL     1      -5.257   0.753  15.955  1.00  0.00     0.291 C 
HETATM   25  O5  UNL     1      -4.829  -0.324  15.541  1.00  0.00    -0.257 OA
BRANCH  24  26
HETATM   26  C12 UNL     1      -5.926   0.643  17.331  1.00  0.00     0.093 A 
HETATM   27  C13 UNL     1      -7.350   1.162  17.328  1.00  0.00     0.016 A 
HETATM   28  C14 UNL     1      -6.292   1.919  18.042  1.00  0.00     0.016 A 
ENDBRANCH  24  26
ENDBRANCH  20  23
ENDBRANCH  19  20
ENDBRANCH  16  19
ENDBRANCH   1  16
TORSDOF 12
ENDMDL
MODEL 5
REMARK VINA RESULT: -7.077178183      1.295      3.895
REMARK  12 active torsions:
REMARK  status: ('A' for Active; 'I' for Inactive)
REMARK       I    between atoms: N1_2  and  C3_4 
REMARK    1  A    between atoms: C3_4  and  C4_6 
REMARK    2  A    between atoms: C4_6  and  N2_7 
REMARK    3  A    between atoms: C4_6  and  C7_16 
REMARK       I    between atoms: N2_7  and  C5_9 
REMARK    4  A    between atoms: C5_9  and  C6_11 
REMARK    5  A    between atoms: C6_11  and  N3_12 
REMARK    6  A    between atoms: N3_12  and  N4_13 
REMARK    7  A    between atoms: C7_16  and  O3_17 
REMARK    8  A    between atoms: C7_16  and  C8_19 
REMARK    9  A    between atoms: C8_19  and  C9_20 
REMARK   10  A    between atoms: C9_20  and  C10_21 
REMARK   11  A    between atoms: C9_20  and  N5_23 
REMARK       I    between atoms: N5_23  and  C11_24 
REMARK   12  A    between atoms: C11_24  and  C12_26 
ROOT
HETATM    1  C4  UNL     1      -3.047   3.992  12.431  1.00  0.00     0.205 C 
ENDROOT
BRANCH   1   2
HETATM    2  C3  UNL     1      -3.922   3.161  11.527  1.00  0.00     0.244 C 
HETATM    3  N1  UNL     1      -4.254   1.800  11.796  1.00  0.00    -0.359 N 
HETATM    4  C1  UNL     1      -5.108   1.094  10.858  1.00  0.00     0.152 C 
HETATM    5  C2  UNL     1      -3.804   1.041  12.923  1.00  0.00     0.152 C 
HETATM    6  O1  UNL     1      -4.338   3.765  10.506  1.00  0.00    -0.271 OA
ENDBRANCH   1   2
BRANCH   1   7
HETATM    7  N2  UNL     1      -1.946   4.483  11.668  1.00  0.00    -0.340 N 
HETATM    8  C5  UNL     1      -0.671   3.782  11.650  1.00  0.00     0.273 C 
HETATM    9  O2  UNL     1      -0.570   2.745  12.303  1.00  0.00    -0.266 OA
ATOM     10  H2  UNL     1      -2.054   5.340  11.126  1.00  0.00     0.163 HD
BRANCH   8  11
HETATM   11  C6  UNL     1       0.433   4.327  10.871  1.00  0.00     0.282 C 
BRANCH  11  12
HETATM   12  N3  UNL     1       1.493   4.686  11.435  1.00  0.00    -0.340 NA
BRANCH  12  13
HETATM   13  N4  UNL     1       2.468   4.721  12.215  1.00  0.00    -0.281 N 
ATOM     14  H42 UNL     1       2.947   5.487  11.741  1.00  0.00     0.191 HD
ATOM     15  H41 UNL     1       3.097   4.509  12.988  1.00  0.00     0.191 HD
ENDBRANCH  12  13
ENDBRANCH  11  12
ENDBRANCH   8  11
ENDBRANCH   1   7
BRANCH   1  16
HETATM   16  C7  UNL     1      -3.845   4.914  13.288  1.00  0.00     0.153 C 
BRANCH  16  17
HETATM   17  O3  UNL     1      -5.111   5.159  12.686  1.00  0.00    -0.393 OA
ATOM     18  H3  UNL     1      -5.727   4.481  12.942  1.00  0.00     0.210 HD
ENDBRANCH  16  17
BRANCH  16  19
HETATM   19  C8  UNL     1      -4.137   4.507  14.674  1.00  0.00     0.081 C 
BRANCH  19  20
HETATM   20  C9  UNL     1      -5.357   3.614  14.919  1.00  0.00     0.230 C 
BRANCH  20  21
HETATM   21  C10 UNL     1      -6.292   4.541  15.684  1.00  0.00     0.270 C 
HETATM   22  O4  UNL     1      -6.247   5.686  15.721  1.00  0.00    -0.303 OA
ENDBRANCH  20  21
BRANCH  20  23
HETATM   23  N5  UNL     1      -5.035   2.516  15.735  1.00  0.00    -0.402 NA
HETATM   24  C11 UNL     1      -4.726   1.458  16.523  1.00  0.00     0.291 C 
HETATM   25  O5  UNL     1      -3.706   0.770  16.474  1.00  0.00    -0.257 OA
BRANCH  24  26
HETATM   26  C12 UNL     1      -5.697   1.011  17.622  1.00  0.00     0.093 A 
HETATM   27  C13 UNL     1      -7.148   1.141  17.204  1.00  0.00     0.016 A 
HETATM   28  C14 UNL     1      -6.595   2.052  18.236  1.00  0.00     0.016 A 
ENDBRANCH  24  26
ENDBRANCH  20  23
ENDBRANCH  19  20
ENDBRANCH  16  19
ENDBRANCH   1  16
TORSDOF 12
ENDMDL
