MODEL 1
REMARK VINA RESULT: -6.454713485      0.000      0.000
REMARK  12 active torsions:
REMARK  status: ('A' for Active; 'I' for Inactive)
REMARK    1  A    between atoms: O1_2  and  C2_3 
REMARK    2  A    between atoms: N1_6  and  C5_7 
REMARK    3  A    between atoms: C5_7  and  C6_8 
REMARK    4  A    between atoms: C5_7  and  C10_17 
REMARK    5  A    between atoms: C6_8  and  C7_9 
REMARK    6  A    between atoms: C8_10  and  C9_11 
REMARK    7  A    between atoms: C9_11  and  N2_12 
REMARK    8  A    between atoms: C10_17  and  C11_19 
REMARK    9  A    between atoms: C11_19  and  N4_21 
REMARK   10  A    between atoms: N4_21  and  C13_23 
REMARK   11  A    between atoms: C14_25  and  C15_26 
REMARK   12  A    between atoms: C15_26  and  O4_27 
ROOT
HETATM    1  C5  UNL     1      -4.777   4.083  13.910  1.00  0.00     0.155 C 
ENDROOT
BRANCH   1   2
HETATM    2  N1  UNL     1      -5.163   3.642  15.176  1.00  0.00    -0.392 N 
HETATM    3  C4  UNL     1      -6.270   4.408  15.682  1.00  0.00     0.121 C 
HETATM    4  C3  UNL     1      -7.047   3.352  16.496  1.00  0.00     0.053 C 
HETATM    5  C2  UNL     1      -5.824   2.646  17.066  1.00  0.00     0.146 C 
HETATM    6  C14 UNL     1      -5.026   2.428  15.761  1.00  0.00     0.132 C 
BRANCH   5   7
HETATM    7  O1  UNL     1      -6.092   1.549  17.784  1.00  0.00    -0.389 OA
HETATM    8  C1  UNL     1      -7.236   0.920  17.259  1.00  0.00     0.202 C 
ENDBRANCH   5   7
BRANCH   6   9
HETATM    9  C15 UNL     1      -3.710   1.925  16.248  1.00  0.00     0.191 C 
BRANCH   9  10
HETATM   10  O4  UNL     1      -3.720   0.507  16.189  1.00  0.00    -0.399 OA
ATOM     11  H4  UNL     1      -3.565   0.168  17.063  1.00  0.00     0.209 HD
ENDBRANCH   9  10
ENDBRANCH   6   9
ENDBRANCH   1   2
BRANCH   1  12
HETATM   12  C6  UNL     1      -4.692   5.598  13.794  1.00  0.00     0.059 C 
BRANCH  12  13
HETATM   13  C7  UNL     1      -4.752   6.078  12.415  1.00  0.00    -0.027 C 
HETATM   14  C8  UNL     1      -5.709   6.906  12.025  1.00  0.00    -0.010 C 
BRANCH  14  15
HETATM   15  C9  UNL     1      -5.824   7.428  10.633  1.00  0.00     0.166 C 
BRANCH  15  16
HETATM   16  N2  UNL     1      -6.041   6.304   9.769  1.00  0.00    -0.339 N 
HETATM   17  N3  UNL     1      -7.051   6.311   9.059  1.00  0.00    -0.349 N 
ATOM     18  H32 UNL     1      -7.700   7.098   9.097  1.00  0.00     0.176 HD
ATOM     19  H31 UNL     1      -7.206   5.511   8.444  1.00  0.00     0.176 HD
ATOM     20  H2  UNL     1      -5.383   5.524   9.743  1.00  0.00     0.179 HD
ENDBRANCH  15  16
ENDBRANCH  14  15
ENDBRANCH  12  13
ENDBRANCH   1  12
BRANCH   1  21
HETATM   21  C10 UNL     1      -3.594   3.487  13.293  1.00  0.00     0.171 C 
HETATM   22  O2  UNL     1      -2.495   3.893  13.723  1.00  0.00    -0.293 OA
BRANCH  21  23
HETATM   23  C11 UNL     1      -3.490   2.483  12.247  1.00  0.00     0.151 C 
HETATM   24  C12 UNL     1      -4.868   2.299  11.578  1.00  0.00     0.040 C 
BRANCH  23  25
HETATM   25  N4  UNL     1      -3.248   1.171  12.874  1.00  0.00    -0.357 N 
ATOM     26  H4  UNL     1      -2.410   1.035  13.438  1.00  0.00     0.162 HD
BRANCH  25  27
HETATM   27  C13 UNL     1      -4.147   0.104  12.711  1.00  0.00     0.349 C 
HETATM   28  O3  UNL     1      -4.610  -0.551  13.686  1.00  0.00    -0.284 OA
ENDBRANCH  25  27
ENDBRANCH  23  25
ENDBRANCH  21  23
ENDBRANCH   1  21
TORSDOF 12
ENDMDL
MODEL 2
REMARK VINA RESULT: -6.249530805      1.389      1.600
REMARK  12 active torsions:
REMARK  status: ('A' for Active; 'I' for Inactive)
REMARK    1  A    between atoms: O1_2  and  C2_3 
REMARK    2  A    between atoms: N1_6  and  C5_7 
REMARK    3  A    between atoms: C5_7  and  C6_8 
REMARK    4  A    between atoms: C5_7  and  C10_17 
REMARK    5  A    between atoms: C6_8  and  C7_9 
REMARK    6  A    between atoms: C8_10  and  C9_11 
REMARK    7  A    between atoms: C9_11  and  N2_12 
REMARK    8  A    between atoms: C10_17  and  C11_19 
REMARK    9  A    between atoms: C11_19  and  N4_21 
REMARK   10  A    between atoms: N4_21  and  C13_23 
REMARK   11  A    between atoms: C14_25  and  C15_26 
REMARK   12  A    between atoms: C15_26  and  O4_27 
ROOT
HETATM    1  C5  UNL     1      -4.215   4.262  13.974  1.00  0.00     0.155 C 
ENDROOT
BRANCH   1   2
HETATM    2  N1  UNL     1      -4.788   3.445  14.948  1.00  0.00    -0.392 N 
HETATM    3  C4  UNL     1      -5.602   4.205  15.858  1.00  0.00     0.121 C 
HETATM    4  C3  UNL     1      -6.725   3.204  16.201  1.00  0.00     0.053 C 
HETATM    5  C2  UNL     1      -5.834   1.969  16.263  1.00  0.00     0.146 C 
HETATM    6  C14 UNL     1      -5.091   2.125  14.917  1.00  0.00     0.132 C 
BRANCH   5   7
HETATM    7  O1  UNL     1      -6.487   0.815  16.447  1.00  0.00    -0.389 OA
HETATM    8  C1  UNL     1      -7.574   1.031  17.314  1.00  0.00     0.202 C 
ENDBRANCH   5   7
BRANCH   6   9
HETATM    9  C15 UNL     1      -4.043   1.067  14.985  1.00  0.00     0.191 C 
BRANCH   9  10
HETATM   10  O4  UNL     1      -3.641   0.918  16.337  1.00  0.00    -0.399 OA
ATOM     11  H4  UNL     1      -2.726   1.164  16.409  1.00  0.00     0.209 HD
ENDBRANCH   9  10
ENDBRANCH   6   9
ENDBRANCH   1   2
BRANCH   1  12
HETATM   12  C6  UNL     1      -4.101   5.720  14.394  1.00  0.00     0.059 C 
BRANCH  12  13
HETATM   13  C7  UNL     1      -4.208   6.656  13.276  1.00  0.00    -0.027 C 
HETATM   14  C8  UNL     1      -5.247   6.621  12.457  1.00  0.00    -0.010 C 
BRANCH  14  15
HETATM   15  C9  UNL     1      -5.410   7.547  11.300  1.00  0.00     0.166 C 
BRANCH  15  16
HETATM   16  N2  UNL     1      -6.170   6.853  10.300  1.00  0.00    -0.339 N 
HETATM   17  N3  UNL     1      -5.620   5.921   9.703  1.00  0.00    -0.349 N 
ATOM     18  H32 UNL     1      -4.657   5.666   9.927  1.00  0.00     0.176 HD
ATOM     19  H31 UNL     1      -6.159   5.428   8.992  1.00  0.00     0.176 HD
ATOM     20  H2  UNL     1      -7.131   7.120  10.087  1.00  0.00     0.179 HD
ENDBRANCH  15  16
ENDBRANCH  14  15
ENDBRANCH  12  13
ENDBRANCH   1  12
BRANCH   1  21
HETATM   21  C10 UNL     1      -2.960   3.841  13.357  1.00  0.00     0.171 C 
HETATM   22  O2  UNL     1      -1.957   3.863  14.099  1.00  0.00    -0.293 OA
BRANCH  21  23
HETATM   23  C11 UNL     1      -2.689   3.392  12.001  1.00  0.00     0.151 C 
HETATM   24  C12 UNL     1      -1.945   4.505  11.235  1.00  0.00     0.040 C 
BRANCH  23  25
HETATM   25  N4  UNL     1      -3.967   3.286  11.274  1.00  0.00    -0.357 N 
ATOM     26  H4  UNL     1      -4.368   4.120  10.846  1.00  0.00     0.162 HD
BRANCH  25  27
HETATM   27  C13 UNL     1      -4.645   2.061  11.159  1.00  0.00     0.349 C 
HETATM   28  O3  UNL     1      -5.901   1.967  11.254  1.00  0.00    -0.284 OA
ENDBRANCH  25  27
ENDBRANCH  23  25
ENDBRANCH  21  23
ENDBRANCH   1  21
TORSDOF 12
ENDMDL
MODEL 3
REMARK VINA RESULT: -6.246837369      2.444      5.532
REMARK  12 active torsions:
REMARK  status: ('A' for Active; 'I' for Inactive)
REMARK    1  A    between atoms: O1_2  and  C2_3 
REMARK    2  A    between atoms: N1_6  and  C5_7 
REMARK    3  A    between atoms: C5_7  and  C6_8 
REMARK    4  A    between atoms: C5_7  and  C10_17 
REMARK    5  A    between atoms: C6_8  and  C7_9 
REMARK    6  A    between atoms: C8_10  and  C9_11 
REMARK    7  A    between atoms: C9_11  and  N2_12 
REMARK    8  A    between atoms: C10_17  and  C11_19 
REMARK    9  A    between atoms: C11_19  and  N4_21 
REMARK   10  A    between atoms: N4_21  and  C13_23 
REMARK   11  A    between atoms: C14_25  and  C15_26 
REMARK   12  A    between atoms: C15_26  and  O4_27 
ROOT
HETATM    1  C5  UNL     1      -4.068   4.018  13.843  1.00  0.00     0.155 C 
ENDROOT
BRANCH   1   2
HETATM    2  N1  UNL     1      -3.373   5.220  13.714  1.00  0.00    -0.392 N 
HETATM    3  C4  UNL     1      -4.218   6.348  14.002  1.00  0.00     0.121 C 
HETATM    4  C3  UNL     1      -3.226   7.337  14.649  1.00  0.00     0.053 C 
HETATM    5  C2  UNL     1      -2.054   7.026  13.726  1.00  0.00     0.146 C 
HETATM    6  C14 UNL     1      -2.050   5.484  13.834  1.00  0.00     0.132 C 
BRANCH   5   7
HETATM    7  O1  UNL     1      -0.910   7.643  14.045  1.00  0.00    -0.389 OA
HETATM    8  C1  UNL     1      -1.169   8.626  15.018  1.00  0.00     0.202 C 
ENDBRANCH   5   7
BRANCH   6   9
HETATM    9  C15 UNL     1      -1.061   5.076  12.795  1.00  0.00     0.191 C 
BRANCH   9  10
HETATM   10  O4  UNL     1      -0.685   3.729  13.037  1.00  0.00    -0.399 OA
ATOM     11  H4  UNL     1      -1.192   3.168  12.461  1.00  0.00     0.209 HD
ENDBRANCH   9  10
ENDBRANCH   6   9
ENDBRANCH   1   2
BRANCH   1  12
HETATM   12  C6  UNL     1      -5.392   4.157  14.580  1.00  0.00     0.059 C 
BRANCH  12  13
HETATM   13  C7  UNL     1      -5.508   3.272  15.738  1.00  0.00    -0.027 C 
HETATM   14  C8  UNL     1      -6.674   3.085  16.336  1.00  0.00    -0.010 C 
BRANCH  14  15
HETATM   15  C9  UNL     1      -6.855   2.198  17.520  1.00  0.00     0.166 C 
BRANCH  15  16
HETATM   16  N2  UNL     1      -6.751   0.843  17.060  1.00  0.00    -0.339 N 
HETATM   17  N3  UNL     1      -5.958   0.096  17.644  1.00  0.00    -0.349 N 
ATOM     18  H32 UNL     1      -5.402   0.447  18.424  1.00  0.00     0.176 HD
ATOM     19  H31 UNL     1      -5.883  -0.867  17.317  1.00  0.00     0.176 HD
ATOM     20  H2  UNL     1      -7.313   0.506  16.278  1.00  0.00     0.179 HD
ENDBRANCH  15  16
ENDBRANCH  14  15
ENDBRANCH  12  13
ENDBRANCH   1  12
BRANCH   1  21
HETATM   21  C10 UNL     1      -4.265   3.192  12.654  1.00  0.00     0.171 C 
HETATM   22  O2  UNL     1      -4.940   3.710  11.740  1.00  0.00    -0.293 OA
BRANCH  21  23
HETATM   23  C11 UNL     1      -3.794   1.849  12.360  1.00  0.00     0.151 C 
HETATM   24  C12 UNL     1      -4.904   1.068  11.626  1.00  0.00     0.040 C 
BRANCH  23  25
HETATM   25  N4  UNL     1      -3.652   1.110  13.628  1.00  0.00    -0.357 N 
ATOM     26  H4  UNL     1      -2.972   1.430  14.317  1.00  0.00     0.162 HD
BRANCH  25  27
HETATM   27  C13 UNL     1      -4.432  -0.024  13.907  1.00  0.00     0.349 C 
HETATM   28  O3  UNL     1      -4.751  -0.358  15.082  1.00  0.00    -0.284 OA
ENDBRANCH  25  27
ENDBRANCH  23  25
ENDBRANCH  21  23
ENDBRANCH   1  21
TORSDOF 12
ENDMDL
MODEL 4
REMARK VINA RESULT: -6.115944803      2.582      5.777
REMARK  12 active torsions:
REMARK  status: ('A' for Active; 'I' for Inactive)
REMARK    1  A    between atoms: O1_2  and  C2_3 
REMARK    2  A    between atoms: N1_6  and  C5_7 
REMARK    3  A    between atoms: C5_7  and  C6_8 
REMARK    4  A    between atoms: C5_7  and  C10_17 
REMARK    5  A    between atoms: C6_8  and  C7_9 
REMARK    6  A    between atoms: C8_10  and  C9_11 
REMARK    7  A    between atoms: C9_11  and  N2_12 
REMARK    8  A    between atoms: C10_17  and  C11_19 
REMARK    9  A    between atoms: C11_19  and  N4_21 
REMARK   10  A    between atoms: N4_21  and  C13_23 
REMARK   11  A    between atoms: C14_25  and  C15_26 
REMARK   12  A    between atoms: C15_26  and  O4_27 
ROOT
HETATM    1  C5  UNL     1      -3.973   3.517  13.915  1.00  0.00     0.155 C 
ENDROOT
BRANCH   1   2
HETATM    2  N1  UNL     1      -3.403   4.780  13.763  1.00  0.00    -0.392 N 
HETATM    3  C4  UNL     1      -4.339   5.821  14.091  1.00  0.00     0.121 C 
HETATM    4  C3  UNL     1      -3.421   6.901  14.701  1.00  0.00     0.053 C 
HETATM    5  C2  UNL     1      -2.264   6.705  13.730  1.00  0.00     0.146 C 
HETATM    6  C14 UNL     1      -2.108   5.171  13.829  1.00  0.00     0.132 C 
BRANCH   5   7
HETATM    7  O1  UNL     1      -1.172   7.429  14.003  1.00  0.00    -0.389 OA
HETATM    8  C1  UNL     1      -1.490   8.395  14.975  1.00  0.00     0.202 C 
ENDBRANCH   5   7
BRANCH   6   9
HETATM    9  C15 UNL     1      -1.128   4.860  12.748  1.00  0.00     0.191 C 
BRANCH   9  10
HETATM   10  O4  UNL     1      -0.587   3.571  12.988  1.00  0.00    -0.399 OA
ATOM     11  H4  UNL     1      -0.740   3.345  13.898  1.00  0.00     0.209 HD
ENDBRANCH   9  10
ENDBRANCH   6   9
ENDBRANCH   1   2
BRANCH   1  12
HETATM   12  C6  UNL     1      -5.380   3.550  14.494  1.00  0.00     0.059 C 
BRANCH  12  13
HETATM   13  C7  UNL     1      -5.548   2.686  15.660  1.00  0.00    -0.027 C 
HETATM   14  C8  UNL     1      -6.517   2.907  16.535  1.00  0.00    -0.010 C 
BRANCH  14  15
HETATM   15  C9  UNL     1      -6.737   2.063  17.744  1.00  0.00     0.166 C 
BRANCH  15  16
HETATM   16  N2  UNL     1      -6.801   0.697  17.308  1.00  0.00    -0.339 N 
HETATM   17  N3  UNL     1      -5.922  -0.075  17.705  1.00  0.00    -0.349 N 
ATOM     18  H32 UNL     1      -5.182   0.263  18.321  1.00  0.00     0.176 HD
ATOM     19  H31 UNL     1      -5.966  -1.046  17.395  1.00  0.00     0.176 HD
ATOM     20  H2  UNL     1      -7.547   0.374  16.691  1.00  0.00     0.179 HD
ENDBRANCH  15  16
ENDBRANCH  14  15
ENDBRANCH  12  13
ENDBRANCH   1  12
BRANCH   1  21
HETATM   21  C10 UNL     1      -3.942   2.594  12.781  1.00  0.00     0.171 C 
HETATM   22  O2  UNL     1      -2.931   1.867  12.703  1.00  0.00    -0.293 OA
BRANCH  21  23
HETATM   23  C11 UNL     1      -4.912   2.385  11.720  1.00  0.00     0.151 C 
HETATM   24  C12 UNL     1      -4.915   0.896  11.317  1.00  0.00     0.040 C 
BRANCH  23  25
HETATM   25  N4  UNL     1      -4.431   3.058  10.500  1.00  0.00    -0.357 N 
ATOM     26  H4  UNL     1      -4.193   2.497   9.682  1.00  0.00     0.162 HD
BRANCH  25  27
HETATM   27  C13 UNL     1      -4.294   4.455  10.440  1.00  0.00     0.349 C 
HETATM   28  O3  UNL     1      -5.235   5.245  10.732  1.00  0.00    -0.284 OA
ENDBRANCH  25  27
ENDBRANCH  23  25
ENDBRANCH  21  23
ENDBRANCH   1  21
TORSDOF 12
ENDMDL
MODEL 5
REMARK VINA RESULT: -6.093780326      2.638      3.305
REMARK  12 active torsions:
REMARK  status: ('A' for Active; 'I' for Inactive)
REMARK    1  A    between atoms: O1_2  and  C2_3 
REMARK    2  A    between atoms: N1_6  and  C5_7 
REMARK    3  A    between atoms: C5_7  and  C6_8 
REMARK    4  A    between atoms: C5_7  and  C10_17 
REMARK    5  A    between atoms: C6_8  and  C7_9 
REMARK    6  A    between atoms: C8_10  and  C9_11 
REMARK    7  A    between atoms: C9_11  and  N2_12 
REMARK    8  A    between atoms: C10_17  and  C11_19 
REMARK    9  A    between atoms: C11_19  and  N4_21 
REMARK   10  A    between atoms: N4_21  and  C13_23 
REMARK   11  A    between atoms: C14_25  and  C15_26 
REMARK   12  A    between atoms: C15_26  and  O4_27 
ROOT
HETATM    1  C5  UNL     1      -3.439   3.905  13.650  1.00  0.00     0.155 C 
ENDROOT
BRANCH   1   2
HETATM    2  N1  UNL     1      -4.282   3.366  14.622  1.00  0.00    -0.392 N 
HETATM    3  C4  UNL     1      -5.018   4.395  15.306  1.00  0.00     0.121 C 
HETATM    4  C3  UNL     1      -6.359   3.691  15.601  1.00  0.00     0.053 C 
HETATM    5  C2  UNL     1      -5.763   2.331  15.940  1.00  0.00     0.146 C 
HETATM    6  C14 UNL     1      -4.850   2.140  14.708  1.00  0.00     0.132 C 
BRANCH   5   7
HETATM    7  O1  UNL     1      -6.661   1.364  16.165  1.00  0.00    -0.389 OA
HETATM    8  C1  UNL     1      -7.098   1.441  17.500  1.00  0.00     0.202 C 
ENDBRANCH   5   7
BRANCH   6   9
HETATM    9  C15 UNL     1      -4.064   0.921  15.054  1.00  0.00     0.191 C 
BRANCH   9  10
HETATM   10  O4  UNL     1      -3.651   1.022  16.408  1.00  0.00    -0.399 OA
ATOM     11  H4  UNL     1      -3.353   0.167  16.697  1.00  0.00     0.209 HD
ENDBRANCH   9  10
ENDBRANCH   6   9
ENDBRANCH   1   2
BRANCH   1  12
HETATM   12  C6  UNL     1      -2.099   4.371  14.199  1.00  0.00     0.059 C 
BRANCH  12  13
HETATM   13  C7  UNL     1      -1.758   5.739  13.813  1.00  0.00    -0.027 C 
HETATM   14  C8  UNL     1      -2.465   6.766  14.258  1.00  0.00    -0.010 C 
BRANCH  14  15
HETATM   15  C9  UNL     1      -2.168   8.183  13.899  1.00  0.00     0.166 C 
BRANCH  15  16
HETATM   16  N2  UNL     1      -2.187   8.946  15.114  1.00  0.00    -0.339 N 
HETATM   17  N3  UNL     1      -1.157   8.969  15.796  1.00  0.00    -0.349 N 
ATOM     18  H32 UNL     1      -0.329   8.456  15.491  1.00  0.00     0.176 HD
ATOM     19  H31 UNL     1      -1.170   9.511  16.660  1.00  0.00     0.176 HD
ATOM     20  H2  UNL     1      -3.023   9.453  15.405  1.00  0.00     0.179 HD
ENDBRANCH  15  16
ENDBRANCH  14  15
ENDBRANCH  12  13
ENDBRANCH   1  12
BRANCH   1  21
HETATM   21  C10 UNL     1      -3.218   3.148  12.419  1.00  0.00     0.171 C 
HETATM   22  O2  UNL     1      -2.313   2.290  12.466  1.00  0.00    -0.293 OA
BRANCH  21  23
HETATM   23  C11 UNL     1      -3.892   3.235  11.135  1.00  0.00     0.151 C 
HETATM   24  C12 UNL     1      -4.426   4.668  10.935  1.00  0.00     0.040 C 
BRANCH  23  25
HETATM   25  N4  UNL     1      -5.124   2.427  11.193  1.00  0.00    -0.357 N 
ATOM     26  H4  UNL     1      -6.026   2.898  11.261  1.00  0.00     0.162 HD
BRANCH  25  27
HETATM   27  C13 UNL     1      -5.082   1.023  11.156  1.00  0.00     0.349 C 
HETATM   28  O3  UNL     1      -4.796   0.378  10.109  1.00  0.00    -0.284 OA
ENDBRANCH  25  27
ENDBRANCH  23  25
ENDBRANCH  21  23
ENDBRANCH   1  21
TORSDOF 12
ENDMDL
