MODEL 1
REMARK VINA RESULT: -5.886813590      0.000      0.000
REMARK  13 active torsions:
REMARK  status: ('A' for Active; 'I' for Inactive)
REMARK    1  A    between atoms: C2_2  and  C3_3 
REMARK    2  A    between atoms: C3_3  and  N1_4 
REMARK    3  A    between atoms: N1_4  and  C5_6 
REMARK    4  A    between atoms: N1_4  and  C7_8 
REMARK    5  A    between atoms: C7_8  and  C8_9 
REMARK    6  A    between atoms: C8_9  and  C9_10 
REMARK    7  A    between atoms: C9_10  and  S1_11 
REMARK    8  A    between atoms: S1_11  and  C10_12 
REMARK    9  A    between atoms: S1_11  and  O4_26 
REMARK   10  A    between atoms: C10_12  and  C11_13 
REMARK   11  A    between atoms: C12_17  and  O1_18 
REMARK   12  A    between atoms: C13_20  and  O2_21 
REMARK   13  A    between atoms: C14_23  and  O3_24 
ROOT
HETATM    1  C10 UNL     1      -3.796   3.327  14.752  1.00  0.00     0.127 C 
ENDROOT
BRANCH   1   2
HETATM    2  S1  UNL     1      -4.183   3.664  13.063  1.00  0.00    -0.088 SA
BRANCH   2   3
HETATM    3  C9  UNL     1      -4.661   5.357  12.821  1.00  0.00     0.093 C 
BRANCH   3   4
HETATM    4  C8  UNL     1      -3.896   5.856  11.592  1.00  0.00     0.039 C 
BRANCH   4   5
HETATM    5  C7  UNL     1      -4.804   5.652  10.410  1.00  0.00     0.238 C 
BRANCH   5   6
HETATM    6  N1  UNL     1      -5.157   6.877   9.743  1.00  0.00    -0.068 N 
HETATM    7  C4  UNL     1      -4.304   7.982  10.184  1.00  0.00     0.272 C 
BRANCH   6   8
HETATM    8  C3  UNL     1      -6.548   7.231   9.895  1.00  0.00     0.263 C 
BRANCH   8   9
HETATM    9  C2  UNL     1      -6.828   8.179  10.963  1.00  0.00    -0.009 C 
HETATM   10  C1  UNL     1      -7.572   7.783  11.990  1.00  0.00     0.008 C 
ENDBRANCH   8   9
ENDBRANCH   6   8
BRANCH   6  11
HETATM   11  C5  UNL     1      -4.917   6.729   8.325  1.00  0.00     0.233 C 
HETATM   12  C6  UNL     1      -6.165   6.845   7.493  1.00  0.00     0.035 C 
ENDBRANCH   6  11
ENDBRANCH   5   6
ENDBRANCH   4   5
ENDBRANCH   3   4
ENDBRANCH   2   3
BRANCH   2  13
HETATM   13  O4  UNL     1      -5.366   2.672  12.455  1.00  0.00    -0.337 OA
HETATM   14  C15 UNL     1      -4.958   1.899  11.388  1.00  0.00     0.219 C 
ENDBRANCH   2  13
ENDBRANCH   1   2
BRANCH   1  15
HETATM   15  C11 UNL     1      -4.791   2.324  15.272  1.00  0.00     0.230 C 
HETATM   16  N2  UNL     1      -6.034   2.981  15.533  1.00  0.00    -0.039 N 
HETATM   17  C12 UNL     1      -6.522   2.527  16.815  1.00  0.00     0.350 C 
ATOM     18  H22 UNL     1      -5.962   3.997  15.476  1.00  0.00     0.281 HD
ATOM     19  H21 UNL     1      -6.714   2.850  14.784  1.00  0.00     0.281 HD
HETATM   20  C13 UNL     1      -5.697   1.304  17.184  1.00  0.00     0.205 C 
HETATM   21  C14 UNL     1      -4.340   1.692  16.580  1.00  0.00     0.182 C 
BRANCH  17  22
HETATM   22  O1  UNL     1      -7.866   2.229  16.775  1.00  0.00    -0.368 OA
ATOM     23  H1  UNL     1      -8.034   1.421  16.306  1.00  0.00     0.212 HD
ENDBRANCH  17  22
BRANCH  20  24
HETATM   24  O2  UNL     1      -6.180   0.243  16.450  1.00  0.00    -0.389 OA
ATOM     25  H2  UNL     1      -6.811  -0.215  16.994  1.00  0.00     0.210 HD
ENDBRANCH  20  24
BRANCH  21  26
HETATM   26  O3  UNL     1      -3.585   0.574  16.266  1.00  0.00    -0.391 OA
ATOM     27  H3  UNL     1      -4.105  -0.192  16.480  1.00  0.00     0.210 HD
ENDBRANCH  21  26
ENDBRANCH   1  15
TORSDOF 13
ENDMDL
MODEL 2
REMARK VINA RESULT: -5.881750145      0.932      1.835
REMARK  13 active torsions:
REMARK  status: ('A' for Active; 'I' for Inactive)
REMARK    1  A    between atoms: C2_2  and  C3_3 
REMARK    2  A    between atoms: C3_3  and  N1_4 
REMARK    3  A    between atoms: N1_4  and  C5_6 
REMARK    4  A    between atoms: N1_4  and  C7_8 
REMARK    5  A    between atoms: C7_8  and  C8_9 
REMARK    6  A    between atoms: C8_9  and  C9_10 
REMARK    7  A    between atoms: C9_10  and  S1_11 
REMARK    8  A    between atoms: S1_11  and  C10_12 
REMARK    9  A    between atoms: S1_11  and  O4_26 
REMARK   10  A    between atoms: C10_12  and  C11_13 
REMARK   11  A    between atoms: C12_17  and  O1_18 
REMARK   12  A    between atoms: C13_20  and  O2_21 
REMARK   13  A    between atoms: C14_23  and  O3_24 
ROOT
HETATM    1  C10 UNL     1      -4.394   3.725  14.892  1.00  0.00     0.127 C 
ENDROOT
BRANCH   1   2
HETATM    2  S1  UNL     1      -3.977   3.510  13.190  1.00  0.00    -0.088 SA
BRANCH   2   3
HETATM    3  C9  UNL     1      -3.443   5.029  12.444  1.00  0.00     0.093 C 
BRANCH   3   4
HETATM    4  C8  UNL     1      -4.533   5.435  11.448  1.00  0.00     0.039 C 
BRANCH   4   5
HETATM    5  C7  UNL     1      -5.223   6.636  12.034  1.00  0.00     0.238 C 
BRANCH   5   6
HETATM    6  N1  UNL     1      -5.907   7.437  11.054  1.00  0.00    -0.068 N 
HETATM    7  C4  UNL     1      -7.223   7.855  11.539  1.00  0.00     0.272 C 
BRANCH   6   8
HETATM    8  C3  UNL     1      -6.033   6.787   9.771  1.00  0.00     0.263 C 
BRANCH   8   9
HETATM    9  C2  UNL     1      -7.368   6.821   9.193  1.00  0.00    -0.009 C 
HETATM   10  C1  UNL     1      -7.490   6.915   7.874  1.00  0.00     0.008 C 
ENDBRANCH   8   9
ENDBRANCH   6   8
BRANCH   6  11
HETATM   11  C5  UNL     1      -5.159   8.654  10.833  1.00  0.00     0.233 C 
HETATM   12  C6  UNL     1      -6.031   9.863  10.629  1.00  0.00     0.035 C 
ENDBRANCH   6  11
ENDBRANCH   5   6
ENDBRANCH   4   5
ENDBRANCH   3   4
ENDBRANCH   2   3
BRANCH   2  13
HETATM   13  O4  UNL     1      -5.216   2.868  12.291  1.00  0.00    -0.337 OA
HETATM   14  C15 UNL     1      -4.906   1.672  11.679  1.00  0.00     0.219 C 
ENDBRANCH   2  13
ENDBRANCH   1   2
BRANCH   1  15
HETATM   15  C11 UNL     1      -5.074   2.470  15.372  1.00  0.00     0.230 C 
HETATM   16  N2  UNL     1      -6.439   2.761  15.684  1.00  0.00    -0.039 N 
HETATM   17  C12 UNL     1      -6.754   2.134  16.948  1.00  0.00     0.350 C 
ATOM     18  H22 UNL     1      -6.641   3.761  15.680  1.00  0.00     0.281 HD
ATOM     19  H21 UNL     1      -7.080   2.489  14.939  1.00  0.00     0.281 HD
HETATM   20  C13 UNL     1      -5.625   1.159  17.240  1.00  0.00     0.205 C 
HETATM   21  C14 UNL     1      -4.436   1.921  16.639  1.00  0.00     0.182 C 
BRANCH  17  22
HETATM   22  O1  UNL     1      -7.972   1.492  16.911  1.00  0.00    -0.368 OA
ATOM     23  H1  UNL     1      -7.907   0.596  17.219  1.00  0.00     0.212 HD
ENDBRANCH  17  22
BRANCH  20  24
HETATM   24  O2  UNL     1      -5.830   0.043  16.459  1.00  0.00    -0.389 OA
ATOM     25  H2  UNL     1      -5.170   0.048  15.775  1.00  0.00     0.210 HD
ENDBRANCH  20  24
BRANCH  21  26
HETATM   26  O3  UNL     1      -3.421   1.060  16.257  1.00  0.00    -0.391 OA
ATOM     27  H3  UNL     1      -3.639   0.195  16.586  1.00  0.00     0.210 HD
ENDBRANCH  21  26
ENDBRANCH   1  15
TORSDOF 13
ENDMDL
MODEL 3
REMARK VINA RESULT: -5.875115010      2.120      3.236
REMARK  13 active torsions:
REMARK  status: ('A' for Active; 'I' for Inactive)
REMARK    1  A    between atoms: C2_2  and  C3_3 
REMARK    2  A    between atoms: C3_3  and  N1_4 
REMARK    3  A    between atoms: N1_4  and  C5_6 
REMARK    4  A    between atoms: N1_4  and  C7_8 
REMARK    5  A    between atoms: C7_8  and  C8_9 
REMARK    6  A    between atoms: C8_9  and  C9_10 
REMARK    7  A    between atoms: C9_10  and  S1_11 
REMARK    8  A    between atoms: S1_11  and  C10_12 
REMARK    9  A    between atoms: S1_11  and  O4_26 
REMARK   10  A    between atoms: C10_12  and  C11_13 
REMARK   11  A    between atoms: C12_17  and  O1_18 
REMARK   12  A    between atoms: C13_20  and  O2_21 
REMARK   13  A    between atoms: C14_23  and  O3_24 
ROOT
HETATM    1  C10 UNL     1      -4.361   3.422  14.762  1.00  0.00     0.127 C 
ENDROOT
BRANCH   1   2
HETATM    2  S1  UNL     1      -3.724   2.951  13.184  1.00  0.00    -0.088 SA
BRANCH   2   3
HETATM    3  C9  UNL     1      -2.330   3.943  12.712  1.00  0.00     0.093 C 
BRANCH   3   4
HETATM    4  C8  UNL     1      -2.048   4.888  13.884  1.00  0.00     0.039 C 
BRANCH   4   5
HETATM    5  C7  UNL     1      -1.729   6.230  13.285  1.00  0.00     0.238 C 
BRANCH   5   6
HETATM    6  N1  UNL     1      -2.745   7.220  13.526  1.00  0.00    -0.068 N 
HETATM    7  C4  UNL     1      -3.555   6.870  14.694  1.00  0.00     0.272 C 
BRANCH   6   8
HETATM    8  C3  UNL     1      -3.596   7.455  12.383  1.00  0.00     0.263 C 
BRANCH   8   9
HETATM    9  C2  UNL     1      -4.894   6.798  12.437  1.00  0.00    -0.009 C 
HETATM   10  C1  UNL     1      -5.886   7.285  11.702  1.00  0.00     0.008 C 
ENDBRANCH   8   9
ENDBRANCH   6   8
BRANCH   6  11
HETATM   11  C5  UNL     1      -2.113   8.480  13.842  1.00  0.00     0.233 C 
HETATM   12  C6  UNL     1      -1.978   8.727  15.320  1.00  0.00     0.035 C 
ENDBRANCH   6  11
ENDBRANCH   5   6
ENDBRANCH   4   5
ENDBRANCH   3   4
ENDBRANCH   2   3
BRANCH   2  13
HETATM   13  O4  UNL     1      -4.864   3.006  11.978  1.00  0.00    -0.337 OA
HETATM   14  C15 UNL     1      -5.109   1.788  11.381  1.00  0.00     0.219 C 
ENDBRANCH   2  13
ENDBRANCH   1   2
BRANCH   1  15
HETATM   15  C11 UNL     1      -5.088   2.241  15.348  1.00  0.00     0.230 C 
HETATM   16  N2  UNL     1      -6.438   2.613  15.641  1.00  0.00    -0.039 N 
HETATM   17  C12 UNL     1      -6.767   2.107  16.954  1.00  0.00     0.350 C 
ATOM     18  H22 UNL     1      -6.597   3.618  15.555  1.00  0.00     0.281 HD
ATOM     19  H21 UNL     1      -7.095   2.308  14.924  1.00  0.00     0.281 HD
HETATM   20  C13 UNL     1      -5.677   1.112  17.321  1.00  0.00     0.205 C 
HETATM   21  C14 UNL     1      -4.464   1.771  16.652  1.00  0.00     0.182 C 
BRANCH  17  22
HETATM   22  O1  UNL     1      -8.011   1.515  16.976  1.00  0.00    -0.368 OA
ATOM     23  H1  UNL     1      -8.704   2.146  16.819  1.00  0.00     0.212 HD
ENDBRANCH  17  22
BRANCH  20  24
HETATM   24  O2  UNL     1      -5.935  -0.055  16.635  1.00  0.00    -0.389 OA
ATOM     25  H2  UNL     1      -5.138  -0.572  16.644  1.00  0.00     0.210 HD
ENDBRANCH  20  24
BRANCH  21  26
HETATM   26  O3  UNL     1      -3.488   0.840  16.338  1.00  0.00    -0.391 OA
ATOM     27  H3  UNL     1      -2.654   1.188  16.630  1.00  0.00     0.210 HD
ENDBRANCH  21  26
ENDBRANCH   1  15
TORSDOF 13
ENDMDL
MODEL 4
REMARK VINA RESULT: -5.867811275      2.251      3.172
REMARK  13 active torsions:
REMARK  status: ('A' for Active; 'I' for Inactive)
REMARK    1  A    between atoms: C2_2  and  C3_3 
REMARK    2  A    between atoms: C3_3  and  N1_4 
REMARK    3  A    between atoms: N1_4  and  C5_6 
REMARK    4  A    between atoms: N1_4  and  C7_8 
REMARK    5  A    between atoms: C7_8  and  C8_9 
REMARK    6  A    between atoms: C8_9  and  C9_10 
REMARK    7  A    between atoms: C9_10  and  S1_11 
REMARK    8  A    between atoms: S1_11  and  C10_12 
REMARK    9  A    between atoms: S1_11  and  O4_26 
REMARK   10  A    between atoms: C10_12  and  C11_13 
REMARK   11  A    between atoms: C12_17  and  O1_18 
REMARK   12  A    between atoms: C13_20  and  O2_21 
REMARK   13  A    between atoms: C14_23  and  O3_24 
ROOT
HETATM    1  C10 UNL     1      -4.233   3.385  14.658  1.00  0.00     0.127 C 
ENDROOT
BRANCH   1   2
HETATM    2  S1  UNL     1      -3.643   2.854  13.081  1.00  0.00    -0.088 SA
BRANCH   2   3
HETATM    3  C9  UNL     1      -2.185   3.738  12.590  1.00  0.00     0.093 C 
BRANCH   3   4
HETATM    4  C8  UNL     1      -2.069   4.946  13.525  1.00  0.00     0.039 C 
BRANCH   4   5
HETATM    5  C7  UNL     1      -2.119   6.170  12.652  1.00  0.00     0.238 C 
BRANCH   5   6
HETATM    6  N1  UNL     1      -3.032   7.174  13.130  1.00  0.00    -0.068 N 
HETATM    7  C4  UNL     1      -2.917   8.406  12.346  1.00  0.00     0.272 C 
BRANCH   6   8
HETATM    8  C3  UNL     1      -2.879   7.463  14.536  1.00  0.00     0.263 C 
BRANCH   8   9
HETATM    9  C2  UNL     1      -2.151   8.687  14.837  1.00  0.00    -0.009 C 
HETATM   10  C1  UNL     1      -1.398   8.729  15.930  1.00  0.00     0.008 C 
ENDBRANCH   8   9
ENDBRANCH   6   8
BRANCH   6  11
HETATM   11  C5  UNL     1      -4.387   6.709  12.944  1.00  0.00     0.233 C 
HETATM   12  C6  UNL     1      -4.768   6.542  11.498  1.00  0.00     0.035 C 
ENDBRANCH   6  11
ENDBRANCH   5   6
ENDBRANCH   4   5
ENDBRANCH   3   4
ENDBRANCH   2   3
BRANCH   2  13
HETATM   13  O4  UNL     1      -4.785   2.978  11.882  1.00  0.00    -0.337 OA
HETATM   14  C15 UNL     1      -5.157   1.769  11.333  1.00  0.00     0.219 C 
ENDBRANCH   2  13
ENDBRANCH   1   2
BRANCH   1  15
HETATM   15  C11 UNL     1      -5.015   2.254  15.273  1.00  0.00     0.230 C 
HETATM   16  N2  UNL     1      -6.344   2.698  15.560  1.00  0.00    -0.039 N 
HETATM   17  C12 UNL     1      -6.694   2.240  16.885  1.00  0.00     0.350 C 
ATOM     18  H22 UNL     1      -6.455   3.707  15.450  1.00  0.00     0.281 HD
ATOM     19  H21 UNL     1      -7.018   2.408  14.852  1.00  0.00     0.281 HD
HETATM   20  C13 UNL     1      -5.652   1.202  17.273  1.00  0.00     0.205 C 
HETATM   21  C14 UNL     1      -4.410   1.786  16.587  1.00  0.00     0.182 C 
BRANCH  17  22
HETATM   22  O1  UNL     1      -7.965   1.710  16.924  1.00  0.00    -0.368 OA
ATOM     23  H1  UNL     1      -8.011   0.872  16.479  1.00  0.00     0.212 HD
ENDBRANCH  17  22
BRANCH  20  24
HETATM   24  O2  UNL     1      -5.968   0.033  16.616  1.00  0.00    -0.389 OA
ATOM     25  H2  UNL     1      -5.511  -0.674  17.057  1.00  0.00     0.210 HD
ENDBRANCH  20  24
BRANCH  21  26
HETATM   26  O3  UNL     1      -3.482   0.801  16.293  1.00  0.00    -0.391 OA
ATOM     27  H3  UNL     1      -2.617   1.183  16.390  1.00  0.00     0.210 HD
ENDBRANCH  21  26
ENDBRANCH   1  15
TORSDOF 13
ENDMDL
MODEL 5
REMARK VINA RESULT: -5.845007921      1.382      2.211
REMARK  13 active torsions:
REMARK  status: ('A' for Active; 'I' for Inactive)
REMARK    1  A    between atoms: C2_2  and  C3_3 
REMARK    2  A    between atoms: C3_3  and  N1_4 
REMARK    3  A    between atoms: N1_4  and  C5_6 
REMARK    4  A    between atoms: N1_4  and  C7_8 
REMARK    5  A    between atoms: C7_8  and  C8_9 
REMARK    6  A    between atoms: C8_9  and  C9_10 
REMARK    7  A    between atoms: C9_10  and  S1_11 
REMARK    8  A    between atoms: S1_11  and  C10_12 
REMARK    9  A    between atoms: S1_11  and  O4_26 
REMARK   10  A    between atoms: C10_12  and  C11_13 
REMARK   11  A    between atoms: C12_17  and  O1_18 
REMARK   12  A    between atoms: C13_20  and  O2_21 
REMARK   13  A    between atoms: C14_23  and  O3_24 
ROOT
HETATM    1  C10 UNL     1      -4.331   3.380  14.522  1.00  0.00     0.127 C 
ENDROOT
BRANCH   1   2
HETATM    2  S1  UNL     1      -3.589   2.758  13.046  1.00  0.00    -0.088 SA
BRANCH   2   3
HETATM    3  C9  UNL     1      -4.512   3.214  11.600  1.00  0.00     0.093 C 
BRANCH   3   4
HETATM    4  C8  UNL     1      -3.752   4.370  10.942  1.00  0.00     0.039 C 
BRANCH   4   5
HETATM    5  C7  UNL     1      -4.773   5.425  10.618  1.00  0.00     0.238 C 
BRANCH   5   6
HETATM    6  N1  UNL     1      -4.499   6.695  11.237  1.00  0.00    -0.068 N 
HETATM    7  C4  UNL     1      -3.190   7.208  10.830  1.00  0.00     0.272 C 
BRANCH   6   8
HETATM    8  C3  UNL     1      -4.595   6.660  12.677  1.00  0.00     0.263 C 
BRANCH   8   9
HETATM    9  C2  UNL     1      -3.394   7.082  13.383  1.00  0.00    -0.009 C 
HETATM   10  C1  UNL     1      -3.384   7.035  14.710  1.00  0.00     0.008 C 
ENDBRANCH   8   9
ENDBRANCH   6   8
BRANCH   6  11
HETATM   11  C5  UNL     1      -5.468   7.664  10.778  1.00  0.00     0.233 C 
HETATM   12  C6  UNL     1      -6.744   7.657  11.575  1.00  0.00     0.035 C 
ENDBRANCH   6  11
ENDBRANCH   5   6
ENDBRANCH   4   5
ENDBRANCH   3   4
ENDBRANCH   2   3
BRANCH   2  13
HETATM   13  O4  UNL     1      -3.384   1.111  13.064  1.00  0.00    -0.337 OA
HETATM   14  C15 UNL     1      -4.287   0.424  12.279  1.00  0.00     0.219 C 
ENDBRANCH   2  13
ENDBRANCH   1   2
BRANCH   1  15
HETATM   15  C11 UNL     1      -5.077   2.253  15.185  1.00  0.00     0.230 C 
HETATM   16  N2  UNL     1      -6.396   2.693  15.523  1.00  0.00    -0.039 N 
HETATM   17  C12 UNL     1      -6.685   2.250  16.868  1.00  0.00     0.350 C 
ATOM     18  H22 UNL     1      -6.519   3.699  15.405  1.00  0.00     0.281 HD
ATOM     19  H21 UNL     1      -7.097   2.389  14.848  1.00  0.00     0.281 HD
HETATM   20  C13 UNL     1      -5.620   1.225  17.225  1.00  0.00     0.205 C 
HETATM   21  C14 UNL     1      -4.413   1.807  16.478  1.00  0.00     0.182 C 
BRANCH  17  22
HETATM   22  O1  UNL     1      -7.950   1.713  16.969  1.00  0.00    -0.368 OA
ATOM     23  H1  UNL     1      -8.189   1.541  17.872  1.00  0.00     0.212 HD
ENDBRANCH  17  22
BRANCH  20  24
HETATM   24  O2  UNL     1      -5.956   0.045  16.598  1.00  0.00    -0.389 OA
ATOM     25  H2  UNL     1      -5.191  -0.250  16.117  1.00  0.00     0.210 HD
ENDBRANCH  20  24
BRANCH  21  26
HETATM   26  O3  UNL     1      -3.491   0.824  16.157  1.00  0.00    -0.391 OA
ATOM     27  H3  UNL     1      -2.802   0.854  16.810  1.00  0.00     0.210 HD
ENDBRANCH  21  26
ENDBRANCH   1  15
TORSDOF 13
ENDMDL
