MODEL 1
REMARK VINA RESULT: -7.844435390      0.000      0.000
REMARK  15 active torsions:
REMARK  status: ('A' for Active; 'I' for Inactive)
REMARK    1  A    between atoms: C2_2  and  C3_3 
REMARK    2  A    between atoms: C3_3  and  C5_5 
REMARK    3  A    between atoms: C5_5  and  N1_6 
REMARK    4  A    between atoms: C5_5  and  C23_34 
REMARK       I    between atoms: N1_6  and  C6_8 
REMARK    5  A    between atoms: C6_8  and  C7_10 
REMARK    6  A    between atoms: C7_10  and  N2_11 
REMARK    7  A    between atoms: N2_11  and  C8_12 
REMARK    8  A    between atoms: C8_12  and  C9_13 
REMARK    9  A    between atoms: C8_12  and  C13_17 
REMARK   10  A    between atoms: C9_13  and  C10_14 
REMARK       I    between atoms: C13_17  and  N3_19 
REMARK   11  A    between atoms: C17_23  and  C18_24 
REMARK   12  A    between atoms: C18_24  and  C19_26 
REMARK   13  A    between atoms: C19_26  and  C20_27 
REMARK   14  A    between atoms: C20_27  and  C21_28 
REMARK   15  A    between atoms: C21_28  and  N4_29 
ROOT
HETATM    1  C8  UNL     1      -2.661   7.796  13.857  1.00  0.00     0.254 C 
ENDROOT
BRANCH   1   2
HETATM    2  N2  UNL     1      -2.640   6.479  14.313  1.00  0.00    -0.440 NA
BRANCH   2   3
HETATM    3  C7  UNL     1      -2.620   5.395  14.715  1.00  0.00     0.249 C 
BRANCH   3   4
HETATM    4  C6  UNL     1      -3.658   4.355  14.515  1.00  0.00     0.270 C 
HETATM    5  N1  UNL     1      -3.852   3.281  15.388  1.00  0.00    -0.342 N 
ATOM      6  H1  UNL     1      -3.252   3.202  16.210  1.00  0.00     0.163 HD
HETATM    7  O1  UNL     1      -4.371   4.482  13.504  1.00  0.00    -0.266 OA
BRANCH   5   8
HETATM    8  C5  UNL     1      -4.868   2.278  15.171  1.00  0.00     0.177 C 
BRANCH   8   9
HETATM    9  C3  UNL     1      -6.161   2.540  15.853  1.00  0.00     0.013 C 
HETATM   10  C4  UNL     1      -6.443   4.012  15.876  1.00  0.00     0.012 C 
BRANCH   9  11
HETATM   11  C2  UNL     1      -6.135   1.944  17.248  1.00  0.00     0.002 C 
HETATM   12  C1  UNL     1      -7.375   1.065  17.392  1.00  0.00     0.005 C 
ENDBRANCH   9  11
ENDBRANCH   8   9
BRANCH   8  13
HETATM   13  C23 UNL     1      -4.343   0.928  15.628  1.00  0.00     0.254 C 
HETATM   14  N7  UNL     1      -4.862  -0.269  15.082  1.00  0.00    -0.060 NA
HETATM   15  O4  UNL     1      -3.450   0.873  16.491  1.00  0.00    -0.275 OA
ENDBRANCH   8  13
ENDBRANCH   5   8
ENDBRANCH   3   4
ENDBRANCH   2   3
ENDBRANCH   1   2
BRANCH   1  16
HETATM   16  C9  UNL     1      -1.482   8.534  14.380  1.00  0.00     0.053 C 
BRANCH  16  17
HETATM   17  C10 UNL     1      -1.628   9.888  14.924  1.00  0.00    -0.019 C 
HETATM   18  C11 UNL     1      -0.261  10.215  15.585  1.00  0.00     0.009 C 
HETATM   19  C12 UNL     1      -1.925  11.014  14.030  1.00  0.00     0.009 C 
ENDBRANCH  16  17
ENDBRANCH   1  16
BRANCH   1  20
HETATM   20  C13 UNL     1      -2.841   7.762  12.389  1.00  0.00     0.256 C 
HETATM   21  O2  UNL     1      -1.782   7.869  11.671  1.00  0.00    -0.270 OA
HETATM   22  N3  UNL     1      -4.062   7.633  11.676  1.00  0.00    -0.338 N 
HETATM   23  C14 UNL     1      -5.370   7.278  12.132  1.00  0.00     0.127 C 
HETATM   24  C17 UNL     1      -4.186   7.982  10.287  1.00  0.00     0.157 C 
HETATM   25  C15 UNL     1      -6.290   8.203  11.372  1.00  0.00     0.022 C 
HETATM   26  C16 UNL     1      -5.506   8.666  10.200  1.00  0.00     0.035 C 
BRANCH  24  27
HETATM   27  C18 UNL     1      -3.941   6.945   9.302  1.00  0.00     0.149 C 
HETATM   28  O3  UNL     1      -4.967   6.633   8.631  1.00  0.00    -0.296 OA
BRANCH  27  29
HETATM   29  C19 UNL     1      -2.745   6.206   8.944  1.00  0.00     0.082 C 
BRANCH  29  30
HETATM   30  C20 UNL     1      -2.831   4.708   9.080  1.00  0.00     0.027 C 
BRANCH  30  31
HETATM   31  C21 UNL     1      -3.041   4.223  10.468  1.00  0.00     0.122 C 
BRANCH  31  32
HETATM   32  N4  UNL     1      -4.316   3.510  10.554  1.00  0.00    -0.367 N 
HETATM   33  C22 UNL     1      -4.408   2.401  11.174  1.00  0.00     0.196 C 
HETATM   34  N5  UNL     1      -5.612   1.677  11.284  1.00  0.00    -0.067 NA
HETATM   35  N6  UNL     1      -3.242   1.854  11.790  1.00  0.00    -0.067 NA
ATOM     36  H4  UNL     1      -5.145   3.908  10.111  1.00  0.00     0.161 HD
ENDBRANCH  31  32
ENDBRANCH  30  31
ENDBRANCH  29  30
ENDBRANCH  27  29
ENDBRANCH  24  27
ENDBRANCH   1  20
TORSDOF 15
ENDMDL
MODEL 2
REMARK VINA RESULT: -7.804633415      1.364      1.809
REMARK  15 active torsions:
REMARK  status: ('A' for Active; 'I' for Inactive)
REMARK    1  A    between atoms: C2_2  and  C3_3 
REMARK    2  A    between atoms: C3_3  and  C5_5 
REMARK    3  A    between atoms: C5_5  and  N1_6 
REMARK    4  A    between atoms: C5_5  and  C23_34 
REMARK       I    between atoms: N1_6  and  C6_8 
REMARK    5  A    between atoms: C6_8  and  C7_10 
REMARK    6  A    between atoms: C7_10  and  N2_11 
REMARK    7  A    between atoms: N2_11  and  C8_12 
REMARK    8  A    between atoms: C8_12  and  C9_13 
REMARK    9  A    between atoms: C8_12  and  C13_17 
REMARK   10  A    between atoms: C9_13  and  C10_14 
REMARK       I    between atoms: C13_17  and  N3_19 
REMARK   11  A    between atoms: C17_23  and  C18_24 
REMARK   12  A    between atoms: C18_24  and  C19_26 
REMARK   13  A    between atoms: C19_26  and  C20_27 
REMARK   14  A    between atoms: C20_27  and  C21_28 
REMARK   15  A    between atoms: C21_28  and  N4_29 
ROOT
HETATM    1  C8  UNL     1      -2.746   7.546  13.600  1.00  0.00     0.254 C 
ENDROOT
BRANCH   1   2
HETATM    2  N2  UNL     1      -2.577   6.189  13.871  1.00  0.00    -0.440 NA
BRANCH   2   3
HETATM    3  C7  UNL     1      -2.431   5.070  14.121  1.00  0.00     0.249 C 
BRANCH   3   4
HETATM    4  C6  UNL     1      -3.456   4.002  14.039  1.00  0.00     0.270 C 
HETATM    5  N1  UNL     1      -3.872   3.246  15.139  1.00  0.00    -0.342 N 
ATOM      6  H1  UNL     1      -3.454   3.435  16.050  1.00  0.00     0.163 HD
HETATM    7  O1  UNL     1      -3.946   3.798  12.914  1.00  0.00    -0.266 OA
BRANCH   5   8
HETATM    8  C5  UNL     1      -4.871   2.208  15.034  1.00  0.00     0.177 C 
BRANCH   8   9
HETATM    9  C3  UNL     1      -6.178   2.533  15.659  1.00  0.00     0.013 C 
HETATM   10  C4  UNL     1      -6.446   4.005  15.559  1.00  0.00     0.012 C 
BRANCH   9  11
HETATM   11  C2  UNL     1      -6.195   2.048  17.096  1.00  0.00     0.002 C 
HETATM   12  C1  UNL     1      -7.478   1.242  17.291  1.00  0.00     0.005 C 
ENDBRANCH   9  11
ENDBRANCH   8   9
BRANCH   8  13
HETATM   13  C23 UNL     1      -4.335   0.934  15.665  1.00  0.00     0.254 C 
HETATM   14  N7  UNL     1      -4.826  -0.330  15.264  1.00  0.00    -0.060 NA
HETATM   15  O4  UNL     1      -3.459   1.002  16.543  1.00  0.00    -0.275 OA
ENDBRANCH   8  13
ENDBRANCH   5   8
ENDBRANCH   3   4
ENDBRANCH   2   3
ENDBRANCH   1   2
BRANCH   1  16
HETATM   16  C9  UNL     1      -1.520   8.297  13.976  1.00  0.00     0.053 C 
BRANCH  16  17
HETATM   17  C10 UNL     1      -1.581   9.385  14.957  1.00  0.00    -0.019 C 
HETATM   18  C11 UNL     1      -2.113   8.732  16.263  1.00  0.00     0.009 C 
HETATM   19  C12 UNL     1      -0.360  10.107  15.335  1.00  0.00     0.009 C 
ENDBRANCH  16  17
ENDBRANCH   1  16
BRANCH   1  20
HETATM   20  C13 UNL     1      -3.213   7.671  12.201  1.00  0.00     0.256 C 
HETATM   21  O2  UNL     1      -2.341   8.025  11.328  1.00  0.00    -0.270 OA
HETATM   22  N3  UNL     1      -4.527   7.451  11.712  1.00  0.00    -0.338 N 
HETATM   23  C14 UNL     1      -5.663   6.849  12.339  1.00  0.00     0.127 C 
HETATM   24  C17 UNL     1      -4.971   7.950  10.439  1.00  0.00     0.157 C 
HETATM   25  C15 UNL     1      -6.824   7.715  11.910  1.00  0.00     0.022 C 
HETATM   26  C16 UNL     1      -6.354   8.434  10.700  1.00  0.00     0.035 C 
BRANCH  24  27
HETATM   27  C18 UNL     1      -4.805   7.094   9.280  1.00  0.00     0.149 C 
HETATM   28  O3  UNL     1      -5.888   6.592   8.862  1.00  0.00    -0.296 OA
BRANCH  27  29
HETATM   29  C19 UNL     1      -3.634   6.712   8.512  1.00  0.00     0.082 C 
BRANCH  29  30
HETATM   30  C20 UNL     1      -3.376   5.232   8.397  1.00  0.00     0.027 C 
BRANCH  30  31
HETATM   31  C21 UNL     1      -2.814   4.605   9.621  1.00  0.00     0.122 C 
BRANCH  31  32
HETATM   32  N4  UNL     1      -1.660   5.376  10.085  1.00  0.00    -0.367 N 
HETATM   33  C22 UNL     1      -0.792   4.856  10.859  1.00  0.00     0.196 C 
HETATM   34  N5  UNL     1       0.335   5.557  11.333  1.00  0.00    -0.067 NA
HETATM   35  N6  UNL     1      -0.958   3.501  11.275  1.00  0.00    -0.067 NA
ATOM     36  H4  UNL     1      -1.549   6.344   9.783  1.00  0.00     0.161 HD
ENDBRANCH  31  32
ENDBRANCH  30  31
ENDBRANCH  29  30
ENDBRANCH  27  29
ENDBRANCH  24  27
ENDBRANCH   1  20
TORSDOF 15
ENDMDL
MODEL 3
REMARK VINA RESULT: -7.745160372      4.486      5.617
REMARK  15 active torsions:
REMARK  status: ('A' for Active; 'I' for Inactive)
REMARK    1  A    between atoms: C2_2  and  C3_3 
REMARK    2  A    between atoms: C3_3  and  C5_5 
REMARK    3  A    between atoms: C5_5  and  N1_6 
REMARK    4  A    between atoms: C5_5  and  C23_34 
REMARK       I    between atoms: N1_6  and  C6_8 
REMARK    5  A    between atoms: C6_8  and  C7_10 
REMARK    6  A    between atoms: C7_10  and  N2_11 
REMARK    7  A    between atoms: N2_11  and  C8_12 
REMARK    8  A    between atoms: C8_12  and  C9_13 
REMARK    9  A    between atoms: C8_12  and  C13_17 
REMARK   10  A    between atoms: C9_13  and  C10_14 
REMARK       I    between atoms: C13_17  and  N3_19 
REMARK   11  A    between atoms: C17_23  and  C18_24 
REMARK   12  A    between atoms: C18_24  and  C19_26 
REMARK   13  A    between atoms: C19_26  and  C20_27 
REMARK   14  A    between atoms: C20_27  and  C21_28 
REMARK   15  A    between atoms: C21_28  and  N4_29 
ROOT
HETATM    1  C8  UNL     1      -1.534   5.197  12.333  1.00  0.00     0.254 C 
ENDROOT
BRANCH   1   2
HETATM    2  N2  UNL     1      -2.458   4.203  12.020  1.00  0.00    -0.440 NA
BRANCH   2   3
HETATM    3  C7  UNL     1      -3.235   3.393  11.741  1.00  0.00     0.249 C 
BRANCH   3   4
HETATM    4  C6  UNL     1      -4.242   2.782  12.642  1.00  0.00     0.270 C 
HETATM    5  N1  UNL     1      -4.065   2.654  14.022  1.00  0.00    -0.342 N 
ATOM      6  H1  UNL     1      -3.200   2.999  14.440  1.00  0.00     0.163 HD
HETATM    7  O1  UNL     1      -5.284   2.373  12.100  1.00  0.00    -0.266 OA
BRANCH   5   8
HETATM    8  C5  UNL     1      -5.058   2.052  14.880  1.00  0.00     0.177 C 
BRANCH   8   9
HETATM    9  C3  UNL     1      -5.724   2.989  15.820  1.00  0.00     0.013 C 
HETATM   10  C4  UNL     1      -6.637   2.235  16.740  1.00  0.00     0.012 C 
BRANCH   9  11
HETATM   11  C2  UNL     1      -6.462   4.061  15.039  1.00  0.00     0.002 C 
HETATM   12  C1  UNL     1      -5.869   5.410  15.444  1.00  0.00     0.005 C 
ENDBRANCH   9  11
ENDBRANCH   8   9
BRANCH   8  13
HETATM   13  C23 UNL     1      -4.414   0.936  15.684  1.00  0.00     0.254 C 
HETATM   14  N7  UNL     1      -4.769  -0.414  15.456  1.00  0.00    -0.060 NA
HETATM   15  O4  UNL     1      -3.568   1.210  16.552  1.00  0.00    -0.275 OA
ENDBRANCH   8  13
ENDBRANCH   5   8
ENDBRANCH   3   4
ENDBRANCH   2   3
ENDBRANCH   1   2
BRANCH   1  16
HETATM   16  C9  UNL     1      -1.647   5.563  13.769  1.00  0.00     0.053 C 
BRANCH  16  17
HETATM   17  C10 UNL     1      -2.679   6.501  14.223  1.00  0.00    -0.019 C 
HETATM   18  C11 UNL     1      -1.930   7.550  15.089  1.00  0.00     0.009 C 
HETATM   19  C12 UNL     1      -3.461   7.268  13.245  1.00  0.00     0.009 C 
ENDBRANCH  16  17
ENDBRANCH   1  16
BRANCH   1  20
HETATM   20  C13 UNL     1      -0.208   4.748  11.852  1.00  0.00     0.256 C 
HETATM   21  O2  UNL     1      -0.053   3.487  11.672  1.00  0.00    -0.270 OA
HETATM   22  N3  UNL     1       0.924   5.559  11.574  1.00  0.00    -0.338 N 
HETATM   23  C14 UNL     1       1.042   6.979  11.451  1.00  0.00     0.127 C 
HETATM   24  C17 UNL     1       2.254   5.021  11.478  1.00  0.00     0.157 C 
HETATM   25  C15 UNL     1       2.346   7.302  12.142  1.00  0.00     0.022 C 
HETATM   26  C16 UNL     1       3.104   6.027  12.172  1.00  0.00     0.035 C 
BRANCH  24  27
HETATM   27  C18 UNL     1       2.717   4.587  10.174  1.00  0.00     0.149 C 
HETATM   28  O3  UNL     1       2.171   3.520   9.773  1.00  0.00    -0.296 OA
BRANCH  27  29
HETATM   29  C19 UNL     1       3.683   5.149   9.247  1.00  0.00     0.082 C 
BRANCH  29  30
HETATM   30  C20 UNL     1       4.940   4.345   9.038  1.00  0.00     0.027 C 
BRANCH  30  31
HETATM   31  C21 UNL     1       4.916   3.456   7.849  1.00  0.00     0.122 C 
BRANCH  31  32
HETATM   32  N4  UNL     1       4.552   2.098   8.255  1.00  0.00    -0.367 N 
HETATM   33  C22 UNL     1       3.680   1.431   7.607  1.00  0.00     0.196 C 
HETATM   34  N5  UNL     1       3.296   0.122   7.959  1.00  0.00    -0.067 NA
HETATM   35  N6  UNL     1       3.055   2.028   6.472  1.00  0.00    -0.067 NA
ATOM     36  H4  UNL     1       5.004   1.679   9.068  1.00  0.00     0.161 HD
ENDBRANCH  31  32
ENDBRANCH  30  31
ENDBRANCH  29  30
ENDBRANCH  27  29
ENDBRANCH  24  27
ENDBRANCH   1  20
TORSDOF 15
ENDMDL
MODEL 4
REMARK VINA RESULT: -7.665552631      2.461      4.371
REMARK  15 active torsions:
REMARK  status: ('A' for Active; 'I' for Inactive)
REMARK    1  A    between atoms: C2_2  and  C3_3 
REMARK    2  A    between atoms: C3_3  and  C5_5 
REMARK    3  A    between atoms: C5_5  and  N1_6 
REMARK    4  A    between atoms: C5_5  and  C23_34 
REMARK       I    between atoms: N1_6  and  C6_8 
REMARK    5  A    between atoms: C6_8  and  C7_10 
REMARK    6  A    between atoms: C7_10  and  N2_11 
REMARK    7  A    between atoms: N2_11  and  C8_12 
REMARK    8  A    between atoms: C8_12  and  C9_13 
REMARK    9  A    between atoms: C8_12  and  C13_17 
REMARK   10  A    between atoms: C9_13  and  C10_14 
REMARK       I    between atoms: C13_17  and  N3_19 
REMARK   11  A    between atoms: C17_23  and  C18_24 
REMARK   12  A    between atoms: C18_24  and  C19_26 
REMARK   13  A    between atoms: C19_26  and  C20_27 
REMARK   14  A    between atoms: C20_27  and  C21_28 
REMARK   15  A    between atoms: C21_28  and  N4_29 
ROOT
HETATM    1  C8  UNL     1      -1.146   4.190  11.921  1.00  0.00     0.254 C 
ENDROOT
BRANCH   1   2
HETATM    2  N2  UNL     1      -2.081   3.167  11.779  1.00  0.00    -0.440 NA
BRANCH   2   3
HETATM    3  C7  UNL     1      -2.837   2.300  11.662  1.00  0.00     0.249 C 
BRANCH   3   4
HETATM    4  C6  UNL     1      -3.881   1.897  12.636  1.00  0.00     0.270 C 
HETATM    5  N1  UNL     1      -3.963   2.407  13.934  1.00  0.00    -0.342 N 
ATOM      6  H1  UNL     1      -3.272   3.096  14.235  1.00  0.00     0.163 HD
HETATM    7  O1  UNL     1      -4.707   1.057  12.236  1.00  0.00    -0.266 OA
BRANCH   5   8
HETATM    8  C5  UNL     1      -4.987   1.998  14.866  1.00  0.00     0.177 C 
BRANCH   8   9
HETATM    9  C3  UNL     1      -5.583   3.098  15.665  1.00  0.00     0.013 C 
HETATM   10  C4  UNL     1      -6.640   2.557  16.581  1.00  0.00     0.012 C 
BRANCH   9  11
HETATM   11  C2  UNL     1      -6.128   4.169  14.738  1.00  0.00     0.002 C 
HETATM   12  C1  UNL     1      -6.108   5.490  15.505  1.00  0.00     0.005 C 
ENDBRANCH   9  11
ENDBRANCH   8   9
BRANCH   8  13
HETATM   13  C23 UNL     1      -4.412   0.964  15.818  1.00  0.00     0.254 C 
HETATM   14  N7  UNL     1      -4.877  -0.371  15.801  1.00  0.00    -0.060 NA
HETATM   15  O4  UNL     1      -3.524   1.294  16.624  1.00  0.00    -0.275 OA
ENDBRANCH   8  13
ENDBRANCH   5   8
ENDBRANCH   3   4
ENDBRANCH   2   3
ENDBRANCH   1   2
BRANCH   1  16
HETATM   16  C9  UNL     1       0.036   3.924  11.061  1.00  0.00     0.053 C 
BRANCH  16  17
HETATM   17  C10 UNL     1       1.350   4.477  11.403  1.00  0.00    -0.019 C 
HETATM   18  C11 UNL     1       2.143   4.510  10.067  1.00  0.00     0.009 C 
HETATM   19  C12 UNL     1       1.458   5.826  11.970  1.00  0.00     0.009 C 
ENDBRANCH  16  17
ENDBRANCH   1  16
BRANCH   1  20
HETATM   20  C13 UNL     1      -1.851   5.476  11.722  1.00  0.00     0.256 C 
HETATM   21  O2  UNL     1      -1.865   5.952  10.530  1.00  0.00    -0.270 OA
HETATM   22  N3  UNL     1      -2.512   6.254  12.709  1.00  0.00    -0.338 N 
HETATM   23  C14 UNL     1      -2.878   5.933  14.054  1.00  0.00     0.127 C 
HETATM   24  C17 UNL     1      -2.835   7.641  12.510  1.00  0.00     0.157 C 
HETATM   25  C15 UNL     1      -2.574   7.193  14.830  1.00  0.00     0.022 C 
HETATM   26  C16 UNL     1      -2.527   8.278  13.819  1.00  0.00     0.035 C 
BRANCH  24  27
HETATM   27  C18 UNL     1      -4.129   7.960  11.936  1.00  0.00     0.149 C 
HETATM   28  O3  UNL     1      -4.137   9.041  11.280  1.00  0.00    -0.296 OA
BRANCH  27  29
HETATM   29  C19 UNL     1      -5.406   7.272  11.971  1.00  0.00     0.082 C 
BRANCH  29  30
HETATM   30  C20 UNL     1      -6.612   8.103  11.618  1.00  0.00     0.027 C 
BRANCH  30  31
HETATM   31  C21 UNL     1      -7.271   7.727  10.341  1.00  0.00     0.122 C 
BRANCH  31  32
HETATM   32  N4  UNL     1      -6.256   7.389   9.343  1.00  0.00    -0.367 N 
HETATM   33  C22 UNL     1      -6.559   6.730   8.295  1.00  0.00     0.196 C 
HETATM   34  N5  UNL     1      -5.618   6.381   7.306  1.00  0.00    -0.067 NA
HETATM   35  N6  UNL     1      -7.912   6.319   8.103  1.00  0.00    -0.067 NA
ATOM     36  H4  UNL     1      -5.291   7.687   9.488  1.00  0.00     0.161 HD
ENDBRANCH  31  32
ENDBRANCH  30  31
ENDBRANCH  29  30
ENDBRANCH  27  29
ENDBRANCH  24  27
ENDBRANCH   1  20
TORSDOF 15
ENDMDL
MODEL 5
REMARK VINA RESULT: -7.650716762      4.868      6.151
REMARK  15 active torsions:
REMARK  status: ('A' for Active; 'I' for Inactive)
REMARK    1  A    between atoms: C2_2  and  C3_3 
REMARK    2  A    between atoms: C3_3  and  C5_5 
REMARK    3  A    between atoms: C5_5  and  N1_6 
REMARK    4  A    between atoms: C5_5  and  C23_34 
REMARK       I    between atoms: N1_6  and  C6_8 
REMARK    5  A    between atoms: C6_8  and  C7_10 
REMARK    6  A    between atoms: C7_10  and  N2_11 
REMARK    7  A    between atoms: N2_11  and  C8_12 
REMARK    8  A    between atoms: C8_12  and  C9_13 
REMARK    9  A    between atoms: C8_12  and  C13_17 
REMARK   10  A    between atoms: C9_13  and  C10_14 
REMARK       I    between atoms: C13_17  and  N3_19 
REMARK   11  A    between atoms: C17_23  and  C18_24 
REMARK   12  A    between atoms: C18_24  and  C19_26 
REMARK   13  A    between atoms: C19_26  and  C20_27 
REMARK   14  A    between atoms: C20_27  and  C21_28 
REMARK   15  A    between atoms: C21_28  and  N4_29 
ROOT
HETATM    1  C8  UNL     1      -2.308   5.101  11.528  1.00  0.00     0.254 C 
ENDROOT
BRANCH   1   2
HETATM    2  N2  UNL     1      -3.008   3.896  11.487  1.00  0.00    -0.440 NA
BRANCH   2   3
HETATM    3  C7  UNL     1      -3.602   2.905  11.475  1.00  0.00     0.249 C 
BRANCH   3   4
HETATM    4  C6  UNL     1      -4.521   2.408  12.528  1.00  0.00     0.270 C 
HETATM    5  N1  UNL     1      -4.213   2.424  13.891  1.00  0.00    -0.342 N 
ATOM      6  H1  UNL     1      -3.311   2.798  14.185  1.00  0.00     0.163 HD
HETATM    7  O1  UNL     1      -5.613   1.960  12.134  1.00  0.00    -0.266 OA
BRANCH   5   8
HETATM    8  C5  UNL     1      -5.124   1.932  14.898  1.00  0.00     0.177 C 
BRANCH   8   9
HETATM    9  C3  UNL     1      -5.690   2.973  15.792  1.00  0.00     0.013 C 
HETATM   10  C4  UNL     1      -6.585   2.342  16.817  1.00  0.00     0.012 C 
BRANCH   9  11
HETATM   11  C2  UNL     1      -6.419   4.017  14.966  1.00  0.00     0.002 C 
HETATM   12  C1  UNL     1      -5.629   5.320  15.079  1.00  0.00     0.005 C 
ENDBRANCH   9  11
ENDBRANCH   8   9
BRANCH   8  13
HETATM   13  C23 UNL     1      -4.412   0.896  15.750  1.00  0.00     0.254 C 
HETATM   14  N7  UNL     1      -4.807  -0.462  15.714  1.00  0.00    -0.060 NA
HETATM   15  O4  UNL     1      -3.476   1.243  16.490  1.00  0.00    -0.275 OA
ENDBRANCH   8  13
ENDBRANCH   5   8
ENDBRANCH   3   4
ENDBRANCH   2   3
ENDBRANCH   1   2
BRANCH   1  16
HETATM   16  C9  UNL     1      -2.654   5.849  12.764  1.00  0.00     0.053 C 
BRANCH  16  17
HETATM   17  C10 UNL     1      -1.782   5.792  13.941  1.00  0.00    -0.019 C 
HETATM   18  C11 UNL     1      -2.025   7.126  14.700  1.00  0.00     0.009 C 
HETATM   19  C12 UNL     1      -1.953   4.725  14.935  1.00  0.00     0.009 C 
ENDBRANCH  16  17
ENDBRANCH   1  16
BRANCH   1  20
HETATM   20  C13 UNL     1      -0.878   4.799  11.297  1.00  0.00     0.256 C 
HETATM   21  O2  UNL     1      -0.553   3.561  11.210  1.00  0.00    -0.270 OA
HETATM   22  N3  UNL     1       0.186   5.730  11.169  1.00  0.00    -0.338 N 
HETATM   23  C14 UNL     1       0.163   7.150  10.995  1.00  0.00     0.127 C 
HETATM   24  C17 UNL     1       1.565   5.354  11.323  1.00  0.00     0.157 C 
HETATM   25  C15 UNL     1       1.284   7.649  11.875  1.00  0.00     0.022 C 
HETATM   26  C16 UNL     1       2.165   6.475  12.096  1.00  0.00     0.035 C 
BRANCH  24  27
HETATM   27  C18 UNL     1       2.291   4.937  10.138  1.00  0.00     0.149 C 
HETATM   28  O3  UNL     1       2.359   3.682  10.003  1.00  0.00    -0.296 OA
BRANCH  27  29
HETATM   29  C19 UNL     1       2.945   5.689   9.083  1.00  0.00     0.082 C 
BRANCH  29  30
HETATM   30  C20 UNL     1       4.442   5.537   8.997  1.00  0.00     0.027 C 
BRANCH  30  31
HETATM   31  C21 UNL     1       5.190   6.133  10.133  1.00  0.00     0.122 C 
BRANCH  31  32
HETATM   32  N4  UNL     1       5.880   5.077  10.876  1.00  0.00    -0.367 N 
HETATM   33  C22 UNL     1       7.145   4.941  10.801  1.00  0.00     0.196 C 
HETATM   34  N5  UNL     1       7.854   3.942  11.496  1.00  0.00    -0.067 NA
HETATM   35  N6  UNL     1       7.890   5.836   9.976  1.00  0.00    -0.067 NA
ATOM     36  H4  UNL     1       5.340   4.442  11.464  1.00  0.00     0.161 HD
ENDBRANCH  31  32
ENDBRANCH  30  31
ENDBRANCH  29  30
ENDBRANCH  27  29
ENDBRANCH  24  27
ENDBRANCH   1  20
TORSDOF 15
ENDMDL
