MODEL 1
REMARK VINA RESULT: -8.423027979      0.000      0.000
REMARK  13 active torsions:
REMARK  status: ('A' for Active; 'I' for Inactive)
REMARK    1  A    between atoms: C2_2  and  C3_4 
REMARK    2  A    between atoms: C3_4  and  C4_5 
REMARK    3  A    between atoms: C3_4  and  N4_13 
REMARK    4  A    between atoms: C4_5  and  N1_6 
REMARK    5  A    between atoms: N1_6  and  N2_8 
REMARK       I    between atoms: N4_13  and  C5_15 
REMARK    6  A    between atoms: C5_15  and  C6_17 
REMARK    7  A    between atoms: C6_17  and  C7_18 
REMARK    8  A    between atoms: C6_17  and  N5_22 
REMARK    9  A    between atoms: C7_18  and  C8_19 
REMARK       I    between atoms: N5_22  and  C11_24 
REMARK   10  A    between atoms: C11_24  and  C12_26 
REMARK   11  A    between atoms: C12_26  and  C13_27 
REMARK   12  A    between atoms: C13_27  and  C14_28 
REMARK   13  A    between atoms: C13_27  and  N6_31 
REMARK       I    between atoms: N7_35  and  C20_36 
ROOT
HETATM    1  C6  UNL     1      -4.835   1.908  15.862  1.00  0.00     0.177 C 
ENDROOT
BRANCH   1   2
HETATM    2  C5  UNL     1      -4.723   0.807  14.803  1.00  0.00     0.245 C 
HETATM    3  N4  UNL     1      -4.581   1.191  13.475  1.00  0.00    -0.321 N 
ATOM      4  H4  UNL     1      -4.560   2.201  13.336  1.00  0.00     0.169 HD
HETATM    5  O2  UNL     1      -4.760  -0.385  15.154  1.00  0.00    -0.271 OA
BRANCH   3   6
HETATM    6  C3  UNL     1      -4.460   0.442  12.275  1.00  0.00     0.097 C 
BRANCH   6   7
HETATM    7  C2  UNL     1      -4.616   1.205  11.016  1.00  0.00     0.173 C 
HETATM    8  C1  UNL     1      -4.519   2.685  10.933  1.00  0.00     0.098 C 
HETATM    9  O1  UNL     1      -4.836   0.542   9.999  1.00  0.00    -0.291 OA
ENDBRANCH   6   7
BRANCH   6  10
HETATM   10  C4  UNL     1      -3.321  -0.525  12.303  1.00  0.00     0.141 C 
BRANCH  10  11
HETATM   11  N1  UNL     1      -3.546  -1.807  11.777  1.00  0.00    -0.296 N 
ATOM     12  H1  UNL     1      -4.497  -2.032  11.483  1.00  0.00     0.187 HD
BRANCH  11  13
HETATM   13  N2  UNL     1      -2.574  -2.801  11.624  1.00  0.00    -0.250 N 
HETATM   14  N3  UNL     1      -2.870  -4.036  11.495  1.00  0.00    -0.331 N 
ATOM     15  H32 UNL     1      -3.858  -4.290  11.506  1.00  0.00     0.178 HD
ATOM     16  H31 UNL     1      -2.161  -4.761  11.383  1.00  0.00     0.178 HD
ATOM     17  H2  UNL     1      -1.592  -2.529  11.616  1.00  0.00     0.207 HD
ENDBRANCH  11  13
ENDBRANCH  10  11
ENDBRANCH   6  10
ENDBRANCH   3   6
ENDBRANCH   1   2
BRANCH   1  18
HETATM   18  C7  UNL     1      -4.880   1.222  17.187  1.00  0.00     0.038 C 
BRANCH  18  19
HETATM   19  C8  UNL     1      -6.145   1.313  17.953  1.00  0.00    -0.020 C 
HETATM   20  C9  UNL     1      -6.242   2.469  18.906  1.00  0.00     0.009 C 
HETATM   21  C10 UNL     1      -7.373   1.269  17.061  1.00  0.00     0.009 C 
ENDBRANCH  18  19
ENDBRANCH   1  18
BRANCH   1  22
HETATM   22  N5  UNL     1      -3.669   2.719  15.682  1.00  0.00    -0.344 N 
HETATM   23  C11 UNL     1      -3.710   3.963  14.904  1.00  0.00     0.240 C 
HETATM   24  O3  UNL     1      -4.805   4.224  14.447  1.00  0.00    -0.269 OA
ATOM     25  H5  UNL     1      -2.789   2.425  16.104  1.00  0.00     0.163 HD
BRANCH  23  26
HETATM   26  C12 UNL     1      -2.498   4.743  14.749  1.00  0.00     0.083 C 
BRANCH  26  27
HETATM   27  C13 UNL     1      -2.353   5.855  13.802  1.00  0.00     0.254 C 
BRANCH  27  28
HETATM   28  C14 UNL     1      -1.743   7.072  14.452  1.00  0.00     0.014 C 
HETATM   29  C15 UNL     1      -2.731   7.744  15.397  1.00  0.00     0.012 C 
HETATM   30  C16 UNL     1      -0.944   8.011  13.663  1.00  0.00     0.012 C 
ENDBRANCH  27  28
BRANCH  27  31
HETATM   31  N6  UNL     1      -1.801   5.582  12.511  1.00  0.00     0.098 N 
HETATM   32  C17 UNL     1      -2.582   5.628  11.347  1.00  0.00     0.275 C 
HETATM   33  C18 UNL     1      -1.779   6.257  10.161  1.00  0.00     0.050 C 
HETATM   34  C19 UNL     1      -0.813   5.233   9.618  1.00  0.00     0.127 C 
HETATM   35  N7  UNL     1       0.099   4.920  10.699  1.00  0.00    -0.351 N 
HETATM   36  C20 UNL     1       1.316   5.667  10.807  1.00  0.00     0.215 C 
HETATM   37  C22 UNL     1      -0.163   3.889  11.677  1.00  0.00     0.156 C 
HETATM   38  C21 UNL     1       2.279   5.386  11.889  1.00  0.00     0.117 C 
HETATM   39  O4  UNL     1       1.597   6.582   9.985  1.00  0.00    -0.274 OA
HETATM   40  C23 UNL     1      -1.286   4.198  12.590  1.00  0.00     0.293 C 
ENDBRANCH  27  31
ENDBRANCH  26  27
ENDBRANCH  23  26
ENDBRANCH   1  22
TORSDOF 13
ENDMDL
MODEL 2
REMARK VINA RESULT: -7.874629105      1.592      1.912
REMARK  13 active torsions:
REMARK  status: ('A' for Active; 'I' for Inactive)
REMARK    1  A    between atoms: C2_2  and  C3_4 
REMARK    2  A    between atoms: C3_4  and  C4_5 
REMARK    3  A    between atoms: C3_4  and  N4_13 
REMARK    4  A    between atoms: C4_5  and  N1_6 
REMARK    5  A    between atoms: N1_6  and  N2_8 
REMARK       I    between atoms: N4_13  and  C5_15 
REMARK    6  A    between atoms: C5_15  and  C6_17 
REMARK    7  A    between atoms: C6_17  and  C7_18 
REMARK    8  A    between atoms: C6_17  and  N5_22 
REMARK    9  A    between atoms: C7_18  and  C8_19 
REMARK       I    between atoms: N5_22  and  C11_24 
REMARK   10  A    between atoms: C11_24  and  C12_26 
REMARK   11  A    between atoms: C12_26  and  C13_27 
REMARK   12  A    between atoms: C13_27  and  C14_28 
REMARK   13  A    between atoms: C13_27  and  N6_31 
REMARK       I    between atoms: N7_35  and  C20_36 
ROOT
HETATM    1  C6  UNL     1      -4.965   2.025  15.793  1.00  0.00     0.177 C 
ENDROOT
BRANCH   1   2
HETATM    2  C5  UNL     1      -4.784   0.912  14.756  1.00  0.00     0.245 C 
HETATM    3  N4  UNL     1      -4.662   1.278  13.421  1.00  0.00    -0.321 N 
ATOM      4  H4  UNL     1      -4.702   2.285  13.262  1.00  0.00     0.169 HD
HETATM    5  O2  UNL     1      -4.749  -0.273  15.130  1.00  0.00    -0.271 OA
BRANCH   3   6
HETATM    6  C3  UNL     1      -4.492   0.515  12.236  1.00  0.00     0.097 C 
BRANCH   6   7
HETATM    7  C2  UNL     1      -4.541   1.272  10.965  1.00  0.00     0.173 C 
HETATM    8  C1  UNL     1      -4.395   2.748  10.879  1.00  0.00     0.098 C 
HETATM    9  O1  UNL     1      -4.712   0.607   9.939  1.00  0.00    -0.291 OA
ENDBRANCH   6   7
BRANCH   6  10
HETATM   10  C4  UNL     1      -3.391  -0.492  12.342  1.00  0.00     0.141 C 
BRANCH  10  11
HETATM   11  N1  UNL     1      -3.649  -1.786  11.864  1.00  0.00    -0.296 N 
ATOM     12  H1  UNL     1      -4.623  -2.087  11.830  1.00  0.00     0.187 HD
BRANCH  11  13
HETATM   13  N2  UNL     1      -2.680  -2.695  11.429  1.00  0.00    -0.250 N 
HETATM   14  N3  UNL     1      -2.846  -3.959  11.493  1.00  0.00    -0.331 N 
ATOM     15  H32 UNL     1      -3.726  -4.302  11.879  1.00  0.00     0.178 HD
ATOM     16  H31 UNL     1      -2.139  -4.623  11.176  1.00  0.00     0.178 HD
ATOM     17  H2  UNL     1      -1.806  -2.335  11.046  1.00  0.00     0.207 HD
ENDBRANCH  11  13
ENDBRANCH  10  11
ENDBRANCH   6  10
ENDBRANCH   3   6
ENDBRANCH   1   2
BRANCH   1  18
HETATM   18  C7  UNL     1      -4.866   1.377  17.134  1.00  0.00     0.038 C 
BRANCH  18  19
HETATM   19  C8  UNL     1      -6.103   1.318  17.949  1.00  0.00    -0.020 C 
HETATM   20  C9  UNL     1      -6.263   2.414  18.962  1.00  0.00     0.009 C 
HETATM   21  C10 UNL     1      -7.357   1.206  17.101  1.00  0.00     0.009 C 
ENDBRANCH  18  19
ENDBRANCH   1  18
BRANCH   1  22
HETATM   22  N5  UNL     1      -3.908   2.954  15.533  1.00  0.00    -0.344 N 
HETATM   23  C11 UNL     1      -4.127   4.162  14.729  1.00  0.00     0.240 C 
HETATM   24  O3  UNL     1      -5.266   4.287  14.324  1.00  0.00    -0.269 OA
ATOM     25  H5  UNL     1      -2.980   2.772  15.914  1.00  0.00     0.163 HD
BRANCH  23  26
HETATM   26  C12 UNL     1      -3.019   5.067  14.491  1.00  0.00     0.083 C 
BRANCH  26  27
HETATM   27  C13 UNL     1      -3.177   6.485  14.148  1.00  0.00     0.254 C 
BRANCH  27  28
HETATM   28  C14 UNL     1      -2.186   7.356  14.879  1.00  0.00     0.014 C 
HETATM   29  C15 UNL     1      -2.811   7.974  16.123  1.00  0.00     0.012 C 
HETATM   30  C16 UNL     1      -1.312   8.267  14.138  1.00  0.00     0.012 C 
ENDBRANCH  27  28
BRANCH  27  31
HETATM   31  N6  UNL     1      -3.312   6.839  12.768  1.00  0.00     0.098 N 
HETATM   32  C17 UNL     1      -4.568   6.981  12.160  1.00  0.00     0.275 C 
HETATM   33  C18 UNL     1      -4.573   8.187  11.163  1.00  0.00     0.050 C 
HETATM   34  C19 UNL     1      -3.868   7.781   9.892  1.00  0.00     0.127 C 
HETATM   35  N7  UNL     1      -2.502   7.475  10.263  1.00  0.00    -0.351 N 
HETATM   36  C20 UNL     1      -1.522   8.517  10.197  1.00  0.00     0.215 C 
HETATM   37  C22 UNL     1      -2.080   6.163  10.702  1.00  0.00     0.156 C 
HETATM   38  C21 UNL     1      -0.118   8.256  10.564  1.00  0.00     0.117 C 
HETATM   39  O4  UNL     1      -1.832   9.682   9.827  1.00  0.00    -0.274 OA
HETATM   40  C23 UNL     1      -2.626   5.765  12.019  1.00  0.00     0.293 C 
ENDBRANCH  27  31
ENDBRANCH  26  27
ENDBRANCH  23  26
ENDBRANCH   1  22
TORSDOF 13
ENDMDL
MODEL 3
REMARK VINA RESULT: -7.637877028      1.631      2.984
REMARK  13 active torsions:
REMARK  status: ('A' for Active; 'I' for Inactive)
REMARK    1  A    between atoms: C2_2  and  C3_4 
REMARK    2  A    between atoms: C3_4  and  C4_5 
REMARK    3  A    between atoms: C3_4  and  N4_13 
REMARK    4  A    between atoms: C4_5  and  N1_6 
REMARK    5  A    between atoms: N1_6  and  N2_8 
REMARK       I    between atoms: N4_13  and  C5_15 
REMARK    6  A    between atoms: C5_15  and  C6_17 
REMARK    7  A    between atoms: C6_17  and  C7_18 
REMARK    8  A    between atoms: C6_17  and  N5_22 
REMARK    9  A    between atoms: C7_18  and  C8_19 
REMARK       I    between atoms: N5_22  and  C11_24 
REMARK   10  A    between atoms: C11_24  and  C12_26 
REMARK   11  A    between atoms: C12_26  and  C13_27 
REMARK   12  A    between atoms: C13_27  and  C14_28 
REMARK   13  A    between atoms: C13_27  and  N6_31 
REMARK       I    between atoms: N7_35  and  C20_36 
ROOT
HETATM    1  C6  UNL     1      -4.719   2.424  15.655  1.00  0.00     0.177 C 
ENDROOT
BRANCH   1   2
HETATM    2  C5  UNL     1      -4.680   1.214  14.715  1.00  0.00     0.245 C 
HETATM    3  N4  UNL     1      -4.562   1.451  13.351  1.00  0.00    -0.321 N 
ATOM      4  H4  UNL     1      -4.506   2.439  13.105  1.00  0.00     0.169 HD
HETATM    5  O2  UNL     1      -4.753   0.068  15.190  1.00  0.00    -0.271 OA
BRANCH   3   6
HETATM    6  C3  UNL     1      -4.504   0.577  12.234  1.00  0.00     0.097 C 
BRANCH   6   7
HETATM    7  C2  UNL     1      -4.645   1.213  10.905  1.00  0.00     0.173 C 
HETATM    8  C1  UNL     1      -4.639   2.683  10.690  1.00  0.00     0.098 C 
HETATM    9  O1  UNL     1      -4.770   0.449   9.944  1.00  0.00    -0.291 OA
ENDBRANCH   6   7
BRANCH   6  10
HETATM   10  C4  UNL     1      -3.416  -0.443  12.346  1.00  0.00     0.141 C 
BRANCH  10  11
HETATM   11  N1  UNL     1      -3.664  -1.716  11.811  1.00  0.00    -0.296 N 
ATOM     12  H1  UNL     1      -4.637  -1.970  11.637  1.00  0.00     0.187 HD
BRANCH  11  13
HETATM   13  N2  UNL     1      -2.686  -2.665  11.495  1.00  0.00    -0.250 N 
HETATM   14  N3  UNL     1      -2.913  -3.921  11.528  1.00  0.00    -0.331 N 
ATOM     15  H32 UNL     1      -3.848  -4.227  11.797  1.00  0.00     0.178 HD
ATOM     16  H31 UNL     1      -2.200  -4.613  11.297  1.00  0.00     0.178 HD
ATOM     17  H2  UNL     1      -1.757  -2.342  11.228  1.00  0.00     0.207 HD
ENDBRANCH  11  13
ENDBRANCH  10  11
ENDBRANCH   6  10
ENDBRANCH   3   6
ENDBRANCH   1   2
BRANCH   1  18
HETATM   18  C7  UNL     1      -5.001   1.892  17.021  1.00  0.00     0.038 C 
BRANCH  18  19
HETATM   19  C8  UNL     1      -6.350   2.145  17.579  1.00  0.00    -0.020 C 
HETATM   20  C9  UNL     1      -6.995   3.432  17.152  1.00  0.00     0.009 C 
HETATM   21  C10 UNL     1      -7.303   0.986  17.355  1.00  0.00     0.009 C 
ENDBRANCH  18  19
ENDBRANCH   1  18
BRANCH   1  22
HETATM   22  N5  UNL     1      -3.428   3.030  15.536  1.00  0.00    -0.344 N 
HETATM   23  C11 UNL     1      -3.211   4.219  14.705  1.00  0.00     0.240 C 
HETATM   24  O3  UNL     1      -4.213   4.624  14.148  1.00  0.00    -0.269 OA
ATOM     25  H5  UNL     1      -2.641   2.625  16.041  1.00  0.00     0.163 HD
BRANCH  23  26
HETATM   26  C12 UNL     1      -1.881   4.790  14.617  1.00  0.00     0.083 C 
BRANCH  26  27
HETATM   27  C13 UNL     1      -1.217   5.132  13.353  1.00  0.00     0.254 C 
BRANCH  27  28
HETATM   28  C14 UNL     1      -1.627   4.209  12.233  1.00  0.00     0.014 C 
HETATM   29  C15 UNL     1      -0.791   2.937  12.235  1.00  0.00     0.012 C 
HETATM   30  C16 UNL     1      -1.896   4.741  10.895  1.00  0.00     0.012 C 
ENDBRANCH  27  28
BRANCH  27  31
HETATM   31  N6  UNL     1      -1.183   6.506  12.954  1.00  0.00     0.098 N 
HETATM   32  C17 UNL     1       0.025   7.199  12.790  1.00  0.00     0.275 C 
HETATM   33  C18 UNL     1      -0.042   8.154  11.552  1.00  0.00     0.050 C 
HETATM   34  C19 UNL     1      -0.838   9.383  11.918  1.00  0.00     0.127 C 
HETATM   35  N7  UNL     1      -2.173   8.923  12.239  1.00  0.00    -0.351 N 
HETATM   36  C20 UNL     1      -3.155   8.883  11.197  1.00  0.00     0.215 C 
HETATM   37  C22 UNL     1      -2.562   8.498  13.565  1.00  0.00     0.156 C 
HETATM   38  C21 UNL     1      -4.529   8.424  11.473  1.00  0.00     0.117 C 
HETATM   39  O4  UNL     1      -2.872   9.237  10.020  1.00  0.00    -0.274 OA
HETATM   40  C23 UNL     1      -1.922   7.238  14.005  1.00  0.00     0.293 C 
ENDBRANCH  27  31
ENDBRANCH  26  27
ENDBRANCH  23  26
ENDBRANCH   1  22
TORSDOF 13
ENDMDL
MODEL 4
REMARK VINA RESULT: -7.523186711      2.459      3.784
REMARK  13 active torsions:
REMARK  status: ('A' for Active; 'I' for Inactive)
REMARK    1  A    between atoms: C2_2  and  C3_4 
REMARK    2  A    between atoms: C3_4  and  C4_5 
REMARK    3  A    between atoms: C3_4  and  N4_13 
REMARK    4  A    between atoms: C4_5  and  N1_6 
REMARK    5  A    between atoms: N1_6  and  N2_8 
REMARK       I    between atoms: N4_13  and  C5_15 
REMARK    6  A    between atoms: C5_15  and  C6_17 
REMARK    7  A    between atoms: C6_17  and  C7_18 
REMARK    8  A    between atoms: C6_17  and  N5_22 
REMARK    9  A    between atoms: C7_18  and  C8_19 
REMARK       I    between atoms: N5_22  and  C11_24 
REMARK   10  A    between atoms: C11_24  and  C12_26 
REMARK   11  A    between atoms: C12_26  and  C13_27 
REMARK   12  A    between atoms: C13_27  and  C14_28 
REMARK   13  A    between atoms: C13_27  and  N6_31 
REMARK       I    between atoms: N7_35  and  C20_36 
ROOT
HETATM    1  C6  UNL     1      -5.369   2.387  15.698  1.00  0.00     0.177 C 
ENDROOT
BRANCH   1   2
HETATM    2  C5  UNL     1      -4.733   1.412  14.701  1.00  0.00     0.245 C 
HETATM    3  N4  UNL     1      -4.203   1.932  13.527  1.00  0.00    -0.321 N 
ATOM      4  H4  UNL     1      -4.289   2.945  13.446  1.00  0.00     0.169 HD
HETATM    5  O2  UNL     1      -4.706   0.197  14.966  1.00  0.00    -0.271 OA
BRANCH   3   6
HETATM    6  C3  UNL     1      -3.564   1.320  12.417  1.00  0.00     0.097 C 
BRANCH   6   7
HETATM    7  C2  UNL     1      -4.378   0.348  11.654  1.00  0.00     0.173 C 
HETATM    8  C1  UNL     1      -4.295  -1.123  11.842  1.00  0.00     0.098 C 
HETATM    9  O1  UNL     1      -5.161   0.822  10.826  1.00  0.00    -0.291 OA
ENDBRANCH   6   7
BRANCH   6  10
HETATM   10  C4  UNL     1      -2.776   2.286  11.591  1.00  0.00     0.141 C 
BRANCH  10  11
HETATM   11  N1  UNL     1      -3.393   3.500  11.249  1.00  0.00    -0.296 N 
ATOM     12  H1  UNL     1      -3.138   4.324  11.794  1.00  0.00     0.187 HD
BRANCH  11  13
HETATM   13  N2  UNL     1      -4.328   3.671  10.224  1.00  0.00    -0.250 N 
HETATM   14  N3  UNL     1      -4.354   4.712   9.486  1.00  0.00    -0.331 N 
ATOM     15  H32 UNL     1      -3.660   5.437   9.664  1.00  0.00     0.178 HD
ATOM     16  H31 UNL     1      -5.036   4.837   8.737  1.00  0.00     0.178 HD
ATOM     17  H2  UNL     1      -5.016   2.936  10.059  1.00  0.00     0.207 HD
ENDBRANCH  11  13
ENDBRANCH  10  11
ENDBRANCH   6  10
ENDBRANCH   3   6
ENDBRANCH   1   2
BRANCH   1  18
HETATM   18  C7  UNL     1      -5.017   1.892  17.061  1.00  0.00     0.038 C 
BRANCH  18  19
HETATM   19  C8  UNL     1      -6.138   1.500  17.948  1.00  0.00    -0.020 C 
HETATM   20  C9  UNL     1      -6.394   2.415  19.110  1.00  0.00     0.009 C 
HETATM   21  C10 UNL     1      -7.427   1.253  17.186  1.00  0.00     0.009 C 
ENDBRANCH  18  19
ENDBRANCH   1  18
BRANCH   1  22
HETATM   22  N5  UNL     1      -4.794   3.661  15.391  1.00  0.00    -0.344 N 
HETATM   23  C11 UNL     1      -5.559   4.701  14.693  1.00  0.00     0.240 C 
HETATM   24  O3  UNL     1      -6.697   4.376  14.415  1.00  0.00    -0.269 OA
ATOM     25  H5  UNL     1      -3.831   3.851  15.664  1.00  0.00     0.163 HD
BRANCH  23  26
HETATM   26  C12 UNL     1      -4.926   5.973  14.402  1.00  0.00     0.083 C 
BRANCH  26  27
HETATM   27  C13 UNL     1      -4.198   6.262  13.161  1.00  0.00     0.254 C 
BRANCH  27  28
HETATM   28  C14 UNL     1      -5.064   6.977  12.153  1.00  0.00     0.014 C 
HETATM   29  C15 UNL     1      -4.315   8.136  11.508  1.00  0.00     0.012 C 
HETATM   30  C16 UNL     1      -6.466   7.271  12.458  1.00  0.00     0.012 C 
ENDBRANCH  27  28
BRANCH  27  31
HETATM   31  N6  UNL     1      -2.885   6.822  13.257  1.00  0.00     0.098 N 
HETATM   32  C17 UNL     1      -1.733   6.033  13.131  1.00  0.00     0.275 C 
HETATM   33  C18 UNL     1      -0.623   6.788  12.329  1.00  0.00     0.050 C 
HETATM   34  C19 UNL     1       0.029   7.811  13.227  1.00  0.00     0.127 C 
HETATM   35  N7  UNL     1      -1.011   8.747  13.600  1.00  0.00    -0.351 N 
HETATM   36  C20 UNL     1      -1.202   9.918  12.798  1.00  0.00     0.215 C 
HETATM   37  C22 UNL     1      -1.871   8.553  14.747  1.00  0.00     0.156 C 
HETATM   38  C21 UNL     1      -2.246  10.902  13.137  1.00  0.00     0.117 C 
HETATM   39  O4  UNL     1      -0.485  10.138  11.784  1.00  0.00    -0.274 OA
HETATM   40  C23 UNL     1      -2.812   7.419  14.608  1.00  0.00     0.293 C 
ENDBRANCH  27  31
ENDBRANCH  26  27
ENDBRANCH  23  26
ENDBRANCH   1  22
TORSDOF 13
ENDMDL
MODEL 5
REMARK VINA RESULT: -7.489218856      2.292      3.376
REMARK  13 active torsions:
REMARK  status: ('A' for Active; 'I' for Inactive)
REMARK    1  A    between atoms: C2_2  and  C3_4 
REMARK    2  A    between atoms: C3_4  and  C4_5 
REMARK    3  A    between atoms: C3_4  and  N4_13 
REMARK    4  A    between atoms: C4_5  and  N1_6 
REMARK    5  A    between atoms: N1_6  and  N2_8 
REMARK       I    between atoms: N4_13  and  C5_15 
REMARK    6  A    between atoms: C5_15  and  C6_17 
REMARK    7  A    between atoms: C6_17  and  C7_18 
REMARK    8  A    between atoms: C6_17  and  N5_22 
REMARK    9  A    between atoms: C7_18  and  C8_19 
REMARK       I    between atoms: N5_22  and  C11_24 
REMARK   10  A    between atoms: C11_24  and  C12_26 
REMARK   11  A    between atoms: C12_26  and  C13_27 
REMARK   12  A    between atoms: C13_27  and  C14_28 
REMARK   13  A    between atoms: C13_27  and  N6_31 
REMARK       I    between atoms: N7_35  and  C20_36 
ROOT
HETATM    1  C6  UNL     1      -4.457   3.593  15.267  1.00  0.00     0.177 C 
ENDROOT
BRANCH   1   2
HETATM    2  C5  UNL     1      -4.685   3.140  13.821  1.00  0.00     0.245 C 
HETATM    3  N4  UNL     1      -3.691   2.387  13.208  1.00  0.00    -0.321 N 
ATOM      4  H4  UNL     1      -2.885   2.201  13.805  1.00  0.00     0.169 HD
HETATM    5  O2  UNL     1      -5.740   3.453  13.242  1.00  0.00    -0.271 OA
BRANCH   3   6
HETATM    6  C3  UNL     1      -3.585   1.828  11.908  1.00  0.00     0.097 C 
BRANCH   6   7
HETATM    7  C2  UNL     1      -4.506   0.708  11.607  1.00  0.00     0.173 C 
HETATM    8  C1  UNL     1      -4.285  -0.686  12.069  1.00  0.00     0.098 C 
HETATM    9  O1  UNL     1      -5.502   0.986  10.934  1.00  0.00    -0.291 OA
ENDBRANCH   6   7
BRANCH   6  10
HETATM   10  C4  UNL     1      -3.460   2.862  10.835  1.00  0.00     0.141 C 
BRANCH  10  11
HETATM   11  N1  UNL     1      -4.613   3.585  10.494  1.00  0.00    -0.296 N 
ATOM     12  H1  UNL     1      -5.454   3.050  10.274  1.00  0.00     0.187 HD
BRANCH  11  13
HETATM   13  N2  UNL     1      -4.705   4.979  10.431  1.00  0.00    -0.250 N 
HETATM   14  N3  UNL     1      -4.603   5.721  11.465  1.00  0.00    -0.331 N 
ATOM     15  H32 UNL     1      -4.449   5.263  12.363  1.00  0.00     0.178 HD
ATOM     16  H31 UNL     1      -4.670   6.738  11.419  1.00  0.00     0.178 HD
ATOM     17  H2  UNL     1      -4.860   5.420   9.525  1.00  0.00     0.207 HD
ENDBRANCH  11  13
ENDBRANCH  10  11
ENDBRANCH   6  10
ENDBRANCH   3   6
ENDBRANCH   1   2
BRANCH   1  18
HETATM   18  C7  UNL     1      -4.379   2.352  16.094  1.00  0.00     0.038 C 
BRANCH  18  19
HETATM   19  C8  UNL     1      -5.489   2.104  17.044  1.00  0.00    -0.020 C 
HETATM   20  C9  UNL     1      -6.749   2.876  16.783  1.00  0.00     0.009 C 
HETATM   21  C10 UNL     1      -5.805   0.628  17.202  1.00  0.00     0.009 C 
ENDBRANCH  18  19
ENDBRANCH   1  18
BRANCH   1  22
HETATM   22  N5  UNL     1      -3.232   4.333  15.237  1.00  0.00    -0.344 N 
HETATM   23  C11 UNL     1      -3.195   5.741  14.823  1.00  0.00     0.240 C 
HETATM   24  O3  UNL     1      -4.280   6.197  14.522  1.00  0.00    -0.269 OA
ATOM     25  H5  UNL     1      -2.365   3.871  15.509  1.00  0.00     0.163 HD
BRANCH  23  26
HETATM   26  C12 UNL     1      -1.925   6.441  14.807  1.00  0.00     0.083 C 
BRANCH  26  27
HETATM   27  C13 UNL     1      -1.606   7.540  13.887  1.00  0.00     0.254 C 
BRANCH  27  28
HETATM   28  C14 UNL     1      -1.451   8.854  14.611  1.00  0.00     0.014 C 
HETATM   29  C15 UNL     1      -1.823   8.718  16.081  1.00  0.00     0.012 C 
HETATM   30  C16 UNL     1      -1.911  10.099  13.994  1.00  0.00     0.012 C 
ENDBRANCH  27  28
BRANCH  27  31
HETATM   31  N6  UNL     1      -0.592   7.328  12.900  1.00  0.00     0.098 N 
HETATM   32  C17 UNL     1       0.342   8.322  12.574  1.00  0.00     0.275 C 
HETATM   33  C18 UNL     1       1.758   7.702  12.336  1.00  0.00     0.050 C 
HETATM   34  C19 UNL     1       1.792   7.052  10.974  1.00  0.00     0.127 C 
HETATM   35  N7  UNL     1       0.805   5.992  11.004  1.00  0.00    -0.351 N 
HETATM   36  C20 UNL     1       1.223   4.676  11.384  1.00  0.00     0.215 C 
HETATM   37  C22 UNL     1      -0.586   6.202  10.670  1.00  0.00     0.156 C 
HETATM   38  C21 UNL     1       0.257   3.562  11.428  1.00  0.00     0.117 C 
HETATM   39  O4  UNL     1       2.422   4.435  11.690  1.00  0.00    -0.274 OA
HETATM   40  C23 UNL     1      -1.319   7.038  11.646  1.00  0.00     0.293 C 
ENDBRANCH  27  31
ENDBRANCH  26  27
ENDBRANCH  23  26
ENDBRANCH   1  22
TORSDOF 13
ENDMDL
