MODEL 1
REMARK VINA RESULT: -7.231217720      0.000      0.000
REMARK  13 active torsions:
REMARK  status: ('A' for Active; 'I' for Inactive)
REMARK    1  A    between atoms: C2_2  and  C4_4 
REMARK    2  A    between atoms: C4_4  and  C5_5 
REMARK    3  A    between atoms: C5_5  and  N1_6 
REMARK    4  A    between atoms: C5_5  and  C13_19 
REMARK       I    between atoms: N1_6  and  C6_8 
REMARK    5  A    between atoms: C6_8  and  C7_10 
REMARK    6  A    between atoms: C7_10  and  N2_12 
REMARK       I    between atoms: N2_12  and  C9_14 
REMARK    7  A    between atoms: C9_14  and  C10_16 
REMARK       I    between atoms: C13_19  and  N3_21 
REMARK    8  A    between atoms: C17_25  and  C18_26 
REMARK       I    between atoms: C18_26  and  N4_28 
REMARK    9  A    between atoms: N4_28  and  C19_30 
REMARK   10  A    between atoms: C19_30  and  C20_31 
REMARK   11  A    between atoms: C19_30  and  C21_33 
REMARK   12  A    between atoms: C21_33  and  C22_34 
REMARK   13  A    between atoms: C22_34  and  C23_35 
ROOT
HETATM    1  C13 UNL     1      -3.523   6.589  14.136  1.00  0.00     0.243 C 
HETATM    2  O3  UNL     1      -3.779   6.203  15.348  1.00  0.00    -0.271 OA
HETATM    3  N3  UNL     1      -2.560   7.626  14.033  1.00  0.00    -0.337 N 
HETATM    4  C14 UNL     1      -1.926   8.186  15.256  1.00  0.00     0.127 C 
HETATM    5  C15 UNL     1      -1.779   9.657  14.963  1.00  0.00     0.022 C 
HETATM    6  C16 UNL     1      -1.418   9.651  13.491  1.00  0.00     0.037 C 
HETATM    7  C17 UNL     1      -1.981   8.339  12.945  1.00  0.00     0.179 C 
ENDROOT
BRANCH   1   8
HETATM    8  C5  UNL     1      -4.237   5.927  13.034  1.00  0.00     0.177 C 
BRANCH   8   9
HETATM    9  C4  UNL     1      -5.495   6.553  12.578  1.00  0.00     0.038 C 
BRANCH   9  10
HETATM   10  C2  UNL     1      -5.464   7.758  11.729  1.00  0.00    -0.020 C 
HETATM   11  C1  UNL     1      -6.771   8.379  11.353  1.00  0.00     0.009 C 
HETATM   12  C3  UNL     1      -4.759   7.393  10.404  1.00  0.00     0.009 C 
ENDBRANCH   9  10
ENDBRANCH   8   9
BRANCH   8  13
HETATM   13  N1  UNL     1      -4.506   4.560  13.472  1.00  0.00    -0.346 N 
HETATM   14  C6  UNL     1      -3.620   3.478  13.197  1.00  0.00     0.240 C 
HETATM   15  O1  UNL     1      -2.565   3.691  12.557  1.00  0.00    -0.271 OA
ATOM     16  H1  UNL     1      -5.362   4.372  13.994  1.00  0.00     0.163 HD
BRANCH  14  17
HETATM   17  C7  UNL     1      -3.948   2.130  13.665  1.00  0.00     0.172 C 
HETATM   18  C8  UNL     1      -4.614   1.333  12.539  1.00  0.00     0.042 C 
BRANCH  17  19
HETATM   19  N2  UNL     1      -4.944   2.211  14.739  1.00  0.00    -0.348 N 
HETATM   20  C9  UNL     1      -4.622   1.790  16.062  1.00  0.00     0.221 C 
HETATM   21  O2  UNL     1      -3.478   1.337  16.351  1.00  0.00    -0.273 OA
ATOM     22  H2  UNL     1      -5.877   2.572  14.537  1.00  0.00     0.163 HD
BRANCH  20  23
HETATM   23  C10 UNL     1      -5.655   1.886  17.119  1.00  0.00     0.070 C 
HETATM   24  C11 UNL     1      -6.711   2.857  16.692  1.00  0.00     0.019 C 
HETATM   25  C12 UNL     1      -6.289   0.529  17.387  1.00  0.00     0.019 C 
ENDBRANCH  20  23
ENDBRANCH  17  19
ENDBRANCH  14  17
ENDBRANCH   8  13
ENDBRANCH   1   8
BRANCH   7  26
HETATM   26  C18 UNL     1      -0.944   7.599  12.195  1.00  0.00     0.241 C 
HETATM   27  O4  UNL     1       0.230   8.101  12.128  1.00  0.00    -0.271 OA
HETATM   28  N4  UNL     1      -1.131   6.365  11.532  1.00  0.00    -0.348 N 
ATOM     29  H4  UNL     1      -2.056   5.935  11.559  1.00  0.00     0.163 HD
BRANCH  28  30
HETATM   30  C19 UNL     1      -0.076   5.682  10.818  1.00  0.00     0.146 C 
BRANCH  30  31
HETATM   31  C20 UNL     1       0.547   4.674  11.687  1.00  0.00     0.256 C 
HETATM   32  O5  UNL     1       1.464   3.976  11.242  1.00  0.00    -0.305 OA
ENDBRANCH  30  31
BRANCH  30  33
HETATM   33  C21 UNL     1      -0.511   5.042   9.535  1.00  0.00     0.041 C 
BRANCH  33  34
HETATM   34  C22 UNL     1      -1.610   5.775   8.817  1.00  0.00     0.102 C 
BRANCH  34  35
HETATM   35  C23 UNL     1      -2.740   4.806   8.590  1.00  0.00     0.231 C 
HETATM   36  N5  UNL     1      -3.624   4.973   7.491  1.00  0.00    -0.062 NA
HETATM   37  O6  UNL     1      -2.928   3.826   9.370  1.00  0.00    -0.277 OA
ENDBRANCH  34  35
ENDBRANCH  33  34
ENDBRANCH  30  33
ENDBRANCH  28  30
ENDBRANCH   7  26
TORSDOF 13
ENDMDL
MODEL 2
REMARK VINA RESULT: -7.223263266      2.448      7.006
REMARK  13 active torsions:
REMARK  status: ('A' for Active; 'I' for Inactive)
REMARK    1  A    between atoms: C2_2  and  C4_4 
REMARK    2  A    between atoms: C4_4  and  C5_5 
REMARK    3  A    between atoms: C5_5  and  N1_6 
REMARK    4  A    between atoms: C5_5  and  C13_19 
REMARK       I    between atoms: N1_6  and  C6_8 
REMARK    5  A    between atoms: C6_8  and  C7_10 
REMARK    6  A    between atoms: C7_10  and  N2_12 
REMARK       I    between atoms: N2_12  and  C9_14 
REMARK    7  A    between atoms: C9_14  and  C10_16 
REMARK       I    between atoms: C13_19  and  N3_21 
REMARK    8  A    between atoms: C17_25  and  C18_26 
REMARK       I    between atoms: C18_26  and  N4_28 
REMARK    9  A    between atoms: N4_28  and  C19_30 
REMARK   10  A    between atoms: C19_30  and  C20_31 
REMARK   11  A    between atoms: C19_30  and  C21_33 
REMARK   12  A    between atoms: C21_33  and  C22_34 
REMARK   13  A    between atoms: C22_34  and  C23_35 
ROOT
HETATM    1  C13 UNL     1      -1.359   6.776  11.616  1.00  0.00     0.243 C 
HETATM    2  O3  UNL     1      -0.096   6.790  11.916  1.00  0.00    -0.271 OA
HETATM    3  N3  UNL     1      -1.722   5.835  10.618  1.00  0.00    -0.337 N 
HETATM    4  C14 UNL     1      -0.691   4.958  10.001  1.00  0.00     0.127 C 
HETATM    5  C15 UNL     1      -1.109   4.848   8.557  1.00  0.00     0.022 C 
HETATM    6  C16 UNL     1      -2.618   4.791   8.668  1.00  0.00     0.037 C 
HETATM    7  C17 UNL     1      -2.951   5.475   9.993  1.00  0.00     0.179 C 
ENDROOT
BRANCH   1   8
HETATM    8  C5  UNL     1      -2.248   7.708  12.324  1.00  0.00     0.177 C 
BRANCH   8   9
HETATM    9  C4  UNL     1      -2.682   7.319  13.681  1.00  0.00     0.038 C 
BRANCH   9  10
HETATM   10  C2  UNL     1      -3.177   5.955  13.944  1.00  0.00    -0.020 C 
HETATM   11  C1  UNL     1      -4.458   5.812  14.701  1.00  0.00     0.009 C 
HETATM   12  C3  UNL     1      -2.102   5.205  14.762  1.00  0.00     0.009 C 
ENDBRANCH   9  10
ENDBRANCH   8   9
BRANCH   8  13
HETATM   13  N1  UNL     1      -3.422   7.894  11.474  1.00  0.00    -0.346 N 
HETATM   14  C6  UNL     1      -3.855   9.179  11.035  1.00  0.00     0.240 C 
HETATM   15  O1  UNL     1      -3.216  10.198  11.382  1.00  0.00    -0.271 OA
ATOM     16  H1  UNL     1      -3.952   7.072  11.184  1.00  0.00     0.163 HD
BRANCH  14  17
HETATM   17  C7  UNL     1      -5.040   9.297  10.183  1.00  0.00     0.172 C 
HETATM   18  C8  UNL     1      -6.201   9.898  10.982  1.00  0.00     0.042 C 
BRANCH  17  19
HETATM   19  N2  UNL     1      -5.488   7.961   9.774  1.00  0.00    -0.348 N 
HETATM   20  C9  UNL     1      -5.975   7.729   8.456  1.00  0.00     0.221 C 
HETATM   21  O2  UNL     1      -6.037   8.659   7.602  1.00  0.00    -0.273 OA
ATOM     22  H2  UNL     1      -5.450   7.190  10.442  1.00  0.00     0.163 HD
BRANCH  20  23
HETATM   23  C10 UNL     1      -6.419   6.366   8.082  1.00  0.00     0.070 C 
HETATM   24  C11 UNL     1      -7.909   6.346   7.961  1.00  0.00     0.019 C 
HETATM   25  C12 UNL     1      -5.794   5.931   6.764  1.00  0.00     0.019 C 
ENDBRANCH  20  23
ENDBRANCH  17  19
ENDBRANCH  14  17
ENDBRANCH   8  13
ENDBRANCH   1   8
BRANCH   7  26
HETATM   26  C18 UNL     1      -3.839   4.623  10.811  1.00  0.00     0.241 C 
HETATM   27  O4  UNL     1      -4.967   5.100  11.179  1.00  0.00    -0.271 OA
HETATM   28  N4  UNL     1      -3.554   3.304  11.234  1.00  0.00    -0.348 N 
ATOM     29  H4  UNL     1      -2.662   2.891  10.965  1.00  0.00     0.163 HD
BRANCH  28  30
HETATM   30  C19 UNL     1      -4.466   2.515  12.030  1.00  0.00     0.146 C 
BRANCH  30  31
HETATM   31  C20 UNL     1      -4.969   1.381  11.242  1.00  0.00     0.256 C 
HETATM   32  O5  UNL     1      -4.597   1.246  10.072  1.00  0.00    -0.305 OA
ENDBRANCH  30  31
BRANCH  30  33
HETATM   33  C21 UNL     1      -3.888   2.013  13.319  1.00  0.00     0.041 C 
BRANCH  33  34
HETATM   34  C22 UNL     1      -4.857   1.998  14.469  1.00  0.00     0.102 C 
BRANCH  34  35
HETATM   35  C23 UNL     1      -4.523   0.815  15.339  1.00  0.00     0.231 C 
HETATM   36  N5  UNL     1      -3.810   0.992  16.555  1.00  0.00    -0.062 NA
HETATM   37  O6  UNL     1      -4.869  -0.357  15.009  1.00  0.00    -0.277 OA
ENDBRANCH  34  35
ENDBRANCH  33  34
ENDBRANCH  30  33
ENDBRANCH  28  30
ENDBRANCH   7  26
TORSDOF 13
ENDMDL
MODEL 3
REMARK VINA RESULT: -7.195903588      2.161      6.863
REMARK  13 active torsions:
REMARK  status: ('A' for Active; 'I' for Inactive)
REMARK    1  A    between atoms: C2_2  and  C4_4 
REMARK    2  A    between atoms: C4_4  and  C5_5 
REMARK    3  A    between atoms: C5_5  and  N1_6 
REMARK    4  A    between atoms: C5_5  and  C13_19 
REMARK       I    between atoms: N1_6  and  C6_8 
REMARK    5  A    between atoms: C6_8  and  C7_10 
REMARK    6  A    between atoms: C7_10  and  N2_12 
REMARK       I    between atoms: N2_12  and  C9_14 
REMARK    7  A    between atoms: C9_14  and  C10_16 
REMARK       I    between atoms: C13_19  and  N3_21 
REMARK    8  A    between atoms: C17_25  and  C18_26 
REMARK       I    between atoms: C18_26  and  N4_28 
REMARK    9  A    between atoms: N4_28  and  C19_30 
REMARK   10  A    between atoms: C19_30  and  C20_31 
REMARK   11  A    between atoms: C19_30  and  C21_33 
REMARK   12  A    between atoms: C21_33  and  C22_34 
REMARK   13  A    between atoms: C22_34  and  C23_35 
ROOT
HETATM    1  C13 UNL     1      -0.988   6.321  11.456  1.00  0.00     0.243 C 
HETATM    2  O3  UNL     1       0.300   6.166  11.437  1.00  0.00    -0.271 OA
HETATM    3  N3  UNL     1      -1.690   5.579  10.471  1.00  0.00    -0.337 N 
HETATM    4  C14 UNL     1      -0.951   4.706   9.520  1.00  0.00     0.127 C 
HETATM    5  C15 UNL     1      -1.699   4.852   8.220  1.00  0.00     0.022 C 
HETATM    6  C16 UNL     1      -3.137   4.927   8.689  1.00  0.00     0.037 C 
HETATM    7  C17 UNL     1      -3.065   5.437  10.128  1.00  0.00     0.179 C 
ENDROOT
BRANCH   1   8
HETATM    8  C5  UNL     1      -1.562   7.221  12.467  1.00  0.00     0.177 C 
BRANCH   8   9
HETATM    9  C4  UNL     1      -2.016   6.605  13.730  1.00  0.00     0.038 C 
BRANCH   9  10
HETATM   10  C2  UNL     1      -3.076   7.243  14.533  1.00  0.00    -0.020 C 
HETATM   11  C1  UNL     1      -2.660   8.059  15.714  1.00  0.00     0.009 C 
HETATM   12  C3  UNL     1      -4.001   6.131  15.076  1.00  0.00     0.009 C 
ENDBRANCH   9  10
ENDBRANCH   8   9
BRANCH   8  13
HETATM   13  N1  UNL     1      -2.684   7.905  11.830  1.00  0.00    -0.346 N 
HETATM   14  C6  UNL     1      -2.533   9.136  11.128  1.00  0.00     0.240 C 
HETATM   15  O1  UNL     1      -1.402   9.665  11.045  1.00  0.00    -0.271 OA
ATOM     16  H1  UNL     1      -3.612   7.485  11.890  1.00  0.00     0.163 HD
BRANCH  14  17
HETATM   17  C7  UNL     1      -3.700   9.771  10.510  1.00  0.00     0.172 C 
HETATM   18  C8  UNL     1      -3.863  11.197  11.045  1.00  0.00     0.042 C 
BRANCH  17  19
HETATM   19  N2  UNL     1      -4.918   9.055  10.906  1.00  0.00    -0.348 N 
HETATM   20  C9  UNL     1      -5.656   8.295   9.954  1.00  0.00     0.221 C 
HETATM   21  O2  UNL     1      -5.290   8.214   8.747  1.00  0.00    -0.273 OA
ATOM     22  H2  UNL     1      -5.239   9.102  11.873  1.00  0.00     0.163 HD
BRANCH  20  23
HETATM   23  C10 UNL     1      -6.881   7.587  10.393  1.00  0.00     0.070 C 
HETATM   24  C11 UNL     1      -7.204   7.981  11.799  1.00  0.00     0.019 C 
HETATM   25  C12 UNL     1      -8.058   7.920   9.487  1.00  0.00     0.019 C 
ENDBRANCH  20  23
ENDBRANCH  17  19
ENDBRANCH  14  17
ENDBRANCH   8  13
ENDBRANCH   1   8
BRANCH   7  26
HETATM   26  C18 UNL     1      -3.846   4.564  11.030  1.00  0.00     0.241 C 
HETATM   27  O4  UNL     1      -4.654   5.113  11.856  1.00  0.00    -0.271 OA
HETATM   28  N4  UNL     1      -3.783   3.153  11.068  1.00  0.00    -0.348 N 
ATOM     29  H4  UNL     1      -3.146   2.679  10.428  1.00  0.00     0.163 HD
BRANCH  28  30
HETATM   30  C19 UNL     1      -4.576   2.349  11.970  1.00  0.00     0.146 C 
BRANCH  30  31
HETATM   31  C20 UNL     1      -4.963   1.092  11.314  1.00  0.00     0.256 C 
HETATM   32  O5  UNL     1      -4.724   0.938  10.113  1.00  0.00    -0.305 OA
ENDBRANCH  30  31
BRANCH  30  33
HETATM   33  C21 UNL     1      -3.912   2.049  13.279  1.00  0.00     0.041 C 
BRANCH  33  34
HETATM   34  C22 UNL     1      -4.845   2.028  14.458  1.00  0.00     0.102 C 
BRANCH  34  35
HETATM   35  C23 UNL     1      -4.497   0.831  15.302  1.00  0.00     0.231 C 
HETATM   36  N5  UNL     1      -3.740   0.985  16.495  1.00  0.00    -0.062 NA
HETATM   37  O6  UNL     1      -4.868  -0.333  14.971  1.00  0.00    -0.277 OA
ENDBRANCH  34  35
ENDBRANCH  33  34
ENDBRANCH  30  33
ENDBRANCH  28  30
ENDBRANCH   7  26
TORSDOF 13
ENDMDL
MODEL 4
REMARK VINA RESULT: -7.178404395      1.591      1.954
REMARK  13 active torsions:
REMARK  status: ('A' for Active; 'I' for Inactive)
REMARK    1  A    between atoms: C2_2  and  C4_4 
REMARK    2  A    between atoms: C4_4  and  C5_5 
REMARK    3  A    between atoms: C5_5  and  N1_6 
REMARK    4  A    between atoms: C5_5  and  C13_19 
REMARK       I    between atoms: N1_6  and  C6_8 
REMARK    5  A    between atoms: C6_8  and  C7_10 
REMARK    6  A    between atoms: C7_10  and  N2_12 
REMARK       I    between atoms: N2_12  and  C9_14 
REMARK    7  A    between atoms: C9_14  and  C10_16 
REMARK       I    between atoms: C13_19  and  N3_21 
REMARK    8  A    between atoms: C17_25  and  C18_26 
REMARK       I    between atoms: C18_26  and  N4_28 
REMARK    9  A    between atoms: N4_28  and  C19_30 
REMARK   10  A    between atoms: C19_30  and  C20_31 
REMARK   11  A    between atoms: C19_30  and  C21_33 
REMARK   12  A    between atoms: C21_33  and  C22_34 
REMARK   13  A    between atoms: C22_34  and  C23_35 
ROOT
HETATM    1  C13 UNL     1      -3.234   7.143  13.750  1.00  0.00     0.243 C 
HETATM    2  O3  UNL     1      -3.068   6.958  15.024  1.00  0.00    -0.271 OA
HETATM    3  N3  UNL     1      -2.526   8.250  13.214  1.00  0.00    -0.337 N 
HETATM    4  C14 UNL     1      -1.673   9.094  14.093  1.00  0.00     0.127 C 
HETATM    5  C15 UNL     1      -1.862  10.493  13.566  1.00  0.00     0.022 C 
HETATM    6  C16 UNL     1      -1.937  10.260  12.071  1.00  0.00     0.037 C 
HETATM    7  C17 UNL     1      -2.405   8.814  11.912  1.00  0.00     0.179 C 
ENDROOT
BRANCH   1   8
HETATM    8  C5  UNL     1      -4.110   6.212  13.024  1.00  0.00     0.177 C 
BRANCH   8   9
HETATM    9  C4  UNL     1      -5.535   6.582  12.913  1.00  0.00     0.038 C 
BRANCH   9  10
HETATM   10  C2  UNL     1      -5.981   7.530  11.875  1.00  0.00    -0.020 C 
HETATM   11  C1  UNL     1      -7.428   7.903  11.847  1.00  0.00     0.009 C 
HETATM   12  C3  UNL     1      -5.664   6.913  10.494  1.00  0.00     0.009 C 
ENDBRANCH   9  10
ENDBRANCH   8   9
BRANCH   8  13
HETATM   13  N1  UNL     1      -3.995   4.920  13.696  1.00  0.00    -0.346 N 
HETATM   14  C6  UNL     1      -4.262   3.686  13.035  1.00  0.00     0.240 C 
HETATM   15  O1  UNL     1      -4.608   3.691  11.833  1.00  0.00    -0.271 OA
ATOM     16  H1  UNL     1      -3.713   4.901  14.677  1.00  0.00     0.163 HD
BRANCH  14  17
HETATM   17  C7  UNL     1      -4.127   2.424  13.767  1.00  0.00     0.172 C 
HETATM   18  C8  UNL     1      -4.516   1.251  12.861  1.00  0.00     0.042 C 
BRANCH  17  19
HETATM   19  N2  UNL     1      -5.077   2.398  14.884  1.00  0.00    -0.348 N 
HETATM   20  C9  UNL     1      -4.695   1.870  16.151  1.00  0.00     0.221 C 
HETATM   21  O2  UNL     1      -3.535   1.410  16.352  1.00  0.00    -0.273 OA
ATOM     22  H2  UNL     1      -6.021   2.761  14.752  1.00  0.00     0.163 HD
BRANCH  20  23
HETATM   23  C10 UNL     1      -5.684   1.860  17.254  1.00  0.00     0.070 C 
HETATM   24  C11 UNL     1      -6.832   2.750  16.897  1.00  0.00     0.019 C 
HETATM   25  C12 UNL     1      -6.194   0.451  17.516  1.00  0.00     0.019 C 
ENDBRANCH  20  23
ENDBRANCH  17  19
ENDBRANCH  14  17
ENDBRANCH   8  13
ENDBRANCH   1   8
BRANCH   7  26
HETATM   26  C18 UNL     1      -1.514   8.076  10.992  1.00  0.00     0.241 C 
HETATM   27  O4  UNL     1      -1.560   8.359   9.746  1.00  0.00    -0.271 OA
HETATM   28  N4  UNL     1      -0.599   7.066  11.366  1.00  0.00    -0.348 N 
ATOM     29  H4  UNL     1      -0.538   6.809  12.351  1.00  0.00     0.163 HD
BRANCH  28  30
HETATM   30  C19 UNL     1       0.252   6.380  10.421  1.00  0.00     0.146 C 
BRANCH  30  31
HETATM   31  C20 UNL     1       1.643   6.397  10.895  1.00  0.00     0.256 C 
HETATM   32  O5  UNL     1       1.930   7.043  11.907  1.00  0.00    -0.305 OA
ENDBRANCH  30  31
BRANCH  30  33
HETATM   33  C21 UNL     1      -0.161   4.971  10.124  1.00  0.00     0.041 C 
BRANCH  33  34
HETATM   34  C22 UNL     1       0.460   3.940  11.026  1.00  0.00     0.102 C 
BRANCH  34  35
HETATM   35  C23 UNL     1      -0.570   3.540  12.049  1.00  0.00     0.231 C 
HETATM   36  N5  UNL     1      -0.983   4.457  13.053  1.00  0.00    -0.062 NA
HETATM   37  O6  UNL     1      -1.087   2.385  12.039  1.00  0.00    -0.277 OA
ENDBRANCH  34  35
ENDBRANCH  33  34
ENDBRANCH  30  33
ENDBRANCH  28  30
ENDBRANCH   7  26
TORSDOF 13
ENDMDL
MODEL 5
REMARK VINA RESULT: -7.114779421      1.412      2.057
REMARK  13 active torsions:
REMARK  status: ('A' for Active; 'I' for Inactive)
REMARK    1  A    between atoms: C2_2  and  C4_4 
REMARK    2  A    between atoms: C4_4  and  C5_5 
REMARK    3  A    between atoms: C5_5  and  N1_6 
REMARK    4  A    between atoms: C5_5  and  C13_19 
REMARK       I    between atoms: N1_6  and  C6_8 
REMARK    5  A    between atoms: C6_8  and  C7_10 
REMARK    6  A    between atoms: C7_10  and  N2_12 
REMARK       I    between atoms: N2_12  and  C9_14 
REMARK    7  A    between atoms: C9_14  and  C10_16 
REMARK       I    between atoms: C13_19  and  N3_21 
REMARK    8  A    between atoms: C17_25  and  C18_26 
REMARK       I    between atoms: C18_26  and  N4_28 
REMARK    9  A    between atoms: N4_28  and  C19_30 
REMARK   10  A    between atoms: C19_30  and  C20_31 
REMARK   11  A    between atoms: C19_30  and  C21_33 
REMARK   12  A    between atoms: C21_33  and  C22_34 
REMARK   13  A    between atoms: C22_34  and  C23_35 
ROOT
HETATM    1  C13 UNL     1      -3.459   6.925  14.349  1.00  0.00     0.243 C 
HETATM    2  O3  UNL     1      -3.839   6.888  15.590  1.00  0.00    -0.271 OA
HETATM    3  N3  UNL     1      -2.342   7.762  14.095  1.00  0.00    -0.337 N 
HETATM    4  C14 UNL     1      -1.698   8.513  15.206  1.00  0.00     0.127 C 
HETATM    5  C15 UNL     1      -1.308   9.832  14.589  1.00  0.00     0.022 C 
HETATM    6  C16 UNL     1      -0.871   9.415  13.200  1.00  0.00     0.037 C 
HETATM    7  C17 UNL     1      -1.599   8.099  12.928  1.00  0.00     0.179 C 
ENDROOT
BRANCH   1   8
HETATM    8  C5  UNL     1      -4.203   6.116  13.373  1.00  0.00     0.177 C 
BRANCH   8   9
HETATM    9  C4  UNL     1      -5.573   6.559  13.043  1.00  0.00     0.038 C 
BRANCH   9  10
HETATM   10  C2  UNL     1      -5.811   7.462  11.902  1.00  0.00    -0.020 C 
HETATM   11  C1  UNL     1      -7.197   7.984  11.703  1.00  0.00     0.009 C 
HETATM   12  C3  UNL     1      -5.442   6.705  10.606  1.00  0.00     0.009 C 
ENDBRANCH   9  10
ENDBRANCH   8   9
BRANCH   8  13
HETATM   13  N1  UNL     1      -4.247   4.756  13.903  1.00  0.00    -0.346 N 
HETATM   14  C6  UNL     1      -3.975   3.610  13.100  1.00  0.00     0.240 C 
HETATM   15  O1  UNL     1      -3.684   3.758  11.892  1.00  0.00    -0.271 OA
ATOM     16  H1  UNL     1      -4.483   4.621  14.887  1.00  0.00     0.163 HD
BRANCH  14  17
HETATM   17  C7  UNL     1      -4.035   2.273  13.695  1.00  0.00     0.172 C 
HETATM   18  C8  UNL     1      -4.569   1.269  12.668  1.00  0.00     0.042 C 
BRANCH  17  19
HETATM   19  N2  UNL     1      -5.001   2.267  14.798  1.00  0.00    -0.348 N 
HETATM   20  C9  UNL     1      -4.616   1.836  16.100  1.00  0.00     0.221 C 
HETATM   21  O2  UNL     1      -3.438   1.446  16.345  1.00  0.00    -0.273 OA
ATOM     22  H2  UNL     1      -5.960   2.575  14.631  1.00  0.00     0.163 HD
BRANCH  20  23
HETATM   23  C10 UNL     1      -5.621   1.844  17.187  1.00  0.00     0.070 C 
HETATM   24  C11 UNL     1      -6.747   2.755  16.814  1.00  0.00     0.019 C 
HETATM   25  C12 UNL     1      -6.162   0.443  17.440  1.00  0.00     0.019 C 
ENDBRANCH  20  23
ENDBRANCH  17  19
ENDBRANCH  14  17
ENDBRANCH   8  13
ENDBRANCH   1   8
BRANCH   7  26
HETATM   26  C18 UNL     1      -0.649   7.062  12.472  1.00  0.00     0.241 C 
HETATM   27  O4  UNL     1       0.597   7.350  12.448  1.00  0.00    -0.271 OA
HETATM   28  N4  UNL     1      -0.994   5.758  12.052  1.00  0.00    -0.348 N 
ATOM     29  H4  UNL     1      -1.979   5.493  12.052  1.00  0.00     0.163 HD
BRANCH  28  30
HETATM   30  C19 UNL     1      -0.019   4.781  11.621  1.00  0.00     0.146 C 
BRANCH  30  31
HETATM   31  C20 UNL     1      -0.195   3.531  12.373  1.00  0.00     0.256 C 
HETATM   32  O5  UNL     1      -0.843   2.608  11.870  1.00  0.00    -0.305 OA
ENDBRANCH  30  31
BRANCH  30  33
HETATM   33  C21 UNL     1      -0.041   4.491  10.151  1.00  0.00     0.041 C 
BRANCH  33  34
HETATM   34  C22 UNL     1       1.100   5.097   9.382  1.00  0.00     0.102 C 
BRANCH  34  35
HETATM   35  C23 UNL     1       2.339   4.297   9.688  1.00  0.00     0.231 C 
HETATM   36  N5  UNL     1       3.352   4.828  10.530  1.00  0.00    -0.062 NA
HETATM   37  O6  UNL     1       2.506   3.139   9.204  1.00  0.00    -0.277 OA
ENDBRANCH  34  35
ENDBRANCH  33  34
ENDBRANCH  30  33
ENDBRANCH  28  30
ENDBRANCH   7  26
TORSDOF 13
ENDMDL
