MODEL 1
REMARK VINA RESULT: -8.024161047      0.000      0.000
REMARK  15 active torsions:
REMARK  status: ('A' for Active; 'I' for Inactive)
REMARK    1  A    between atoms: C2_2  and  C3_4 
REMARK    2  A    between atoms: C3_4  and  C4_5 
REMARK    3  A    between atoms: C3_4  and  N1_9 
REMARK    4  A    between atoms: C4_5  and  C5_6 
REMARK       I    between atoms: N1_9  and  C6_11 
REMARK    5  A    between atoms: C6_11  and  C7_13 
REMARK    6  A    between atoms: C7_13  and  C8_14 
REMARK    7  A    between atoms: C8_14  and  C9_15 
REMARK       I    between atoms: C9_15  and  N2_17 
REMARK    8  A    between atoms: C13_21  and  C14_22 
REMARK    9  A    between atoms: C14_22  and  N3_23 
REMARK   10  A    between atoms: C14_22  and  C21_33 
REMARK   11  A    between atoms: N3_23  and  C15_25 
REMARK   12  A    between atoms: C15_25  and  C20_30 
REMARK   13  A    between atoms: C16_26  and  C17_27 
REMARK   14  A    between atoms: C21_33  and  O7_34 
REMARK   15  A    between atoms: C21_33  and  N5_36 
ROOT
HETATM    1  C9  UNL     1      -4.805   5.959  12.622  1.00  0.00     0.220 C 
HETATM    2  O5  UNL     1      -5.547   5.651  13.578  1.00  0.00    -0.273 OA
HETATM    3  N2  UNL     1      -3.831   5.156  12.115  1.00  0.00    -0.342 N 
HETATM    4  C10 UNL     1      -2.874   5.592  11.062  1.00  0.00     0.127 C 
HETATM    5  C11 UNL     1      -1.564   5.168  11.766  1.00  0.00     0.022 C 
HETATM    6  C12 UNL     1      -1.989   4.076  12.762  1.00  0.00     0.033 C 
HETATM    7  C13 UNL     1      -3.364   3.774  12.228  1.00  0.00     0.141 C 
ENDROOT
BRANCH   7   8
HETATM    8  C14 UNL     1      -4.192   2.821  12.986  1.00  0.00     0.084 C 
BRANCH   8   9
HETATM    9  N3  UNL     1      -4.097   2.736  14.349  1.00  0.00    -0.351 N 
ATOM     10  H3  UNL     1      -3.260   3.145  14.767  1.00  0.00     0.166 HD
BRANCH   9  11
HETATM   11  C15 UNL     1      -5.027   2.146  15.258  1.00  0.00     0.094 C 
HETATM   12  C16 UNL     1      -5.827   2.980  16.104  1.00  0.00     0.012 C 
BRANCH  12  13
HETATM   13  C17 UNL     1      -6.746   2.466  17.176  1.00  0.00     0.002 C 
HETATM   14  C18 UNL     1      -6.139   2.172  18.509  1.00  0.00     0.013 C 
HETATM   15  C19 UNL     1      -7.659   1.344  16.708  1.00  0.00     0.013 C 
ENDBRANCH  12  13
BRANCH  11  16
HETATM   16  C20 UNL     1      -4.442   0.938  15.849  1.00  0.00     0.281 C 
HETATM   17  N4  UNL     1      -4.938  -0.370  15.710  1.00  0.00    -0.056 NA
HETATM   18  O6  UNL     1      -3.381   1.081  16.551  1.00  0.00    -0.269 OA
ENDBRANCH  11  16
ENDBRANCH   9  11
ENDBRANCH   8   9
BRANCH   8  19
HETATM   19  C21 UNL     1      -4.820   1.851  12.111  1.00  0.00     0.162 C 
BRANCH  19  20
HETATM   20  O7  UNL     1      -5.877   2.296  11.475  1.00  0.00    -0.345 OA
ATOM     21  H7  UNL     1      -6.227   1.698  10.824  1.00  0.00     0.219 HD
ENDBRANCH  19  20
BRANCH  19  22
HETATM   22  N5  UNL     1      -4.521   0.517  11.807  1.00  0.00    -0.369 N 
HETATM   23  C22 UNL     1      -3.854  -0.470  12.615  1.00  0.00     0.151 C 
HETATM   24  C23 UNL     1      -4.930  -0.018  10.465  1.00  0.00     0.151 C 
ENDBRANCH  19  22
ENDBRANCH   8  19
ENDBRANCH   7   8
BRANCH   1  25
HETATM   25  C8  UNL     1      -5.080   7.304  12.046  1.00  0.00     0.112 C 
BRANCH  25  26
HETATM   26  C7  UNL     1      -6.557   7.551  11.785  1.00  0.00     0.112 C 
BRANCH  26  27
HETATM   27  C6  UNL     1      -6.827   7.483  10.324  1.00  0.00     0.218 C 
HETATM   28  N1  UNL     1      -7.165   8.649   9.598  1.00  0.00    -0.349 N 
ATOM     29  H1  UNL     1      -7.218   9.543  10.087  1.00  0.00     0.163 HD
HETATM   30  O4  UNL     1      -6.736   6.353   9.757  1.00  0.00    -0.274 OA
BRANCH  28  31
HETATM   31  C3  UNL     1      -7.437   8.604   8.179  1.00  0.00     0.163 C 
BRANCH  31  32
HETATM   32  C2  UNL     1      -8.821   8.981   7.968  1.00  0.00     0.146 C 
HETATM   33  C1  UNL     1      -9.298  10.164   7.256  1.00  0.00     0.093 C 
HETATM   34  O1  UNL     1      -9.710   8.232   8.436  1.00  0.00    -0.296 OA
ENDBRANCH  31  32
BRANCH  31  35
HETATM   35  C4  UNL     1      -6.470   9.321   7.316  1.00  0.00     0.146 C 
BRANCH  35  36
HETATM   36  C5  UNL     1      -5.527  10.111   8.132  1.00  0.00     0.174 C 
HETATM   37  O2  UNL     1      -5.731  11.277   8.510  1.00  0.00    -0.648 OA
HETATM   38  O3  UNL     1      -4.293   9.560   8.549  1.00  0.00    -0.648 OA
ENDBRANCH  35  36
ENDBRANCH  31  35
ENDBRANCH  28  31
ENDBRANCH  26  27
ENDBRANCH  25  26
ENDBRANCH   1  25
TORSDOF 15
ENDMDL
MODEL 2
REMARK VINA RESULT: -7.937936478      1.125      1.971
REMARK  15 active torsions:
REMARK  status: ('A' for Active; 'I' for Inactive)
REMARK    1  A    between atoms: C2_2  and  C3_4 
REMARK    2  A    between atoms: C3_4  and  C4_5 
REMARK    3  A    between atoms: C3_4  and  N1_9 
REMARK    4  A    between atoms: C4_5  and  C5_6 
REMARK       I    between atoms: N1_9  and  C6_11 
REMARK    5  A    between atoms: C6_11  and  C7_13 
REMARK    6  A    between atoms: C7_13  and  C8_14 
REMARK    7  A    between atoms: C8_14  and  C9_15 
REMARK       I    between atoms: C9_15  and  N2_17 
REMARK    8  A    between atoms: C13_21  and  C14_22 
REMARK    9  A    between atoms: C14_22  and  N3_23 
REMARK   10  A    between atoms: C14_22  and  C21_33 
REMARK   11  A    between atoms: N3_23  and  C15_25 
REMARK   12  A    between atoms: C15_25  and  C20_30 
REMARK   13  A    between atoms: C16_26  and  C17_27 
REMARK   14  A    between atoms: C21_33  and  O7_34 
REMARK   15  A    between atoms: C21_33  and  N5_36 
ROOT
HETATM    1  C9  UNL     1      -4.704   5.802  12.571  1.00  0.00     0.220 C 
HETATM    2  O5  UNL     1      -5.363   5.478  13.581  1.00  0.00    -0.273 OA
HETATM    3  N2  UNL     1      -3.813   4.989  11.940  1.00  0.00    -0.342 N 
HETATM    4  C10 UNL     1      -2.945   5.438  10.818  1.00  0.00     0.127 C 
HETATM    5  C11 UNL     1      -1.591   4.939  11.375  1.00  0.00     0.022 C 
HETATM    6  C12 UNL     1      -1.961   3.819  12.363  1.00  0.00     0.033 C 
HETATM    7  C13 UNL     1      -3.391   3.589  11.952  1.00  0.00     0.141 C 
ENDROOT
BRANCH   7   8
HETATM    8  C14 UNL     1      -4.179   2.632  12.748  1.00  0.00     0.084 C 
BRANCH   8   9
HETATM    9  N3  UNL     1      -3.994   2.521  14.100  1.00  0.00    -0.351 N 
ATOM     10  H3  UNL     1      -3.082   2.814  14.453  1.00  0.00     0.166 HD
BRANCH   9  11
HETATM   11  C15 UNL     1      -4.921   2.046  15.076  1.00  0.00     0.094 C 
HETATM   12  C16 UNL     1      -5.668   2.977  15.866  1.00  0.00     0.012 C 
BRANCH  12  13
HETATM   13  C17 UNL     1      -6.577   2.591  16.998  1.00  0.00     0.002 C 
HETATM   14  C18 UNL     1      -7.534   1.471  16.751  1.00  0.00     0.013 C 
HETATM   15  C19 UNL     1      -7.255   3.778  17.665  1.00  0.00     0.013 C 
ENDBRANCH  12  13
BRANCH  11  16
HETATM   16  C20 UNL     1      -4.365   0.869  15.754  1.00  0.00     0.281 C 
HETATM   17  N4  UNL     1      -4.803  -0.457  15.594  1.00  0.00    -0.056 NA
HETATM   18  O6  UNL     1      -3.390   1.061  16.561  1.00  0.00    -0.269 OA
ENDBRANCH  11  16
ENDBRANCH   9  11
ENDBRANCH   8   9
BRANCH   8  19
HETATM   19  C21 UNL     1      -4.878   1.687  11.900  1.00  0.00     0.162 C 
BRANCH  19  20
HETATM   20  O7  UNL     1      -5.952   2.167  11.320  1.00  0.00    -0.345 OA
ATOM     21  H7  UNL     1      -6.306   1.618  10.630  1.00  0.00     0.219 HD
ENDBRANCH  19  20
BRANCH  19  22
HETATM   22  N5  UNL     1      -4.635   0.347  11.575  1.00  0.00    -0.369 N 
HETATM   23  C22 UNL     1      -4.041  -0.689  12.380  1.00  0.00     0.151 C 
HETATM   24  C23 UNL     1      -5.028  -0.140  10.211  1.00  0.00     0.151 C 
ENDBRANCH  19  22
ENDBRANCH   8  19
ENDBRANCH   7   8
BRANCH   1  25
HETATM   25  C8  UNL     1      -4.980   7.180  12.078  1.00  0.00     0.112 C 
BRANCH  25  26
HETATM   26  C7  UNL     1      -6.458   7.537  12.103  1.00  0.00     0.112 C 
BRANCH  26  27
HETATM   27  C6  UNL     1      -6.816   8.275  10.863  1.00  0.00     0.218 C 
HETATM   28  N1  UNL     1      -7.558   7.643   9.837  1.00  0.00    -0.349 N 
ATOM     29  H1  UNL     1      -7.850   6.673   9.958  1.00  0.00     0.163 HD
HETATM   30  O4  UNL     1      -6.443   9.482  10.762  1.00  0.00    -0.274 OA
BRANCH  28  31
HETATM   31  C3  UNL     1      -7.911   8.339   8.620  1.00  0.00     0.163 C 
BRANCH  31  32
HETATM   32  C2  UNL     1      -7.065   7.849   7.551  1.00  0.00     0.146 C 
HETATM   33  C1  UNL     1      -6.318   8.662   6.594  1.00  0.00     0.093 C 
HETATM   34  O1  UNL     1      -6.953   6.608   7.415  1.00  0.00    -0.296 OA
ENDBRANCH  31  32
BRANCH  31  35
HETATM   35  C4  UNL     1      -9.356   8.368   8.293  1.00  0.00     0.146 C 
BRANCH  35  36
HETATM   36  C5  UNL     1      -9.764   9.715   7.848  1.00  0.00     0.174 C 
HETATM   37  O2  UNL     1     -10.885   9.994   7.391  1.00  0.00    -0.648 OA
HETATM   38  O3  UNL     1      -8.866  10.805   7.925  1.00  0.00    -0.648 OA
ENDBRANCH  35  36
ENDBRANCH  31  35
ENDBRANCH  28  31
ENDBRANCH  26  27
ENDBRANCH  25  26
ENDBRANCH   1  25
TORSDOF 15
ENDMDL
MODEL 3
REMARK VINA RESULT: -7.844532911      3.736      6.036
REMARK  15 active torsions:
REMARK  status: ('A' for Active; 'I' for Inactive)
REMARK    1  A    between atoms: C2_2  and  C3_4 
REMARK    2  A    between atoms: C3_4  and  C4_5 
REMARK    3  A    between atoms: C3_4  and  N1_9 
REMARK    4  A    between atoms: C4_5  and  C5_6 
REMARK       I    between atoms: N1_9  and  C6_11 
REMARK    5  A    between atoms: C6_11  and  C7_13 
REMARK    6  A    between atoms: C7_13  and  C8_14 
REMARK    7  A    between atoms: C8_14  and  C9_15 
REMARK       I    between atoms: C9_15  and  N2_17 
REMARK    8  A    between atoms: C13_21  and  C14_22 
REMARK    9  A    between atoms: C14_22  and  N3_23 
REMARK   10  A    between atoms: C14_22  and  C21_33 
REMARK   11  A    between atoms: N3_23  and  C15_25 
REMARK   12  A    between atoms: C15_25  and  C20_30 
REMARK   13  A    between atoms: C16_26  and  C17_27 
REMARK   14  A    between atoms: C21_33  and  O7_34 
REMARK   15  A    between atoms: C21_33  and  N5_36 
ROOT
HETATM    1  C9  UNL     1      -2.798   5.588  13.172  1.00  0.00     0.220 C 
HETATM    2  O5  UNL     1      -2.075   4.881  13.904  1.00  0.00    -0.273 OA
HETATM    3  N2  UNL     1      -3.788   5.107  12.373  1.00  0.00    -0.342 N 
HETATM    4  C10 UNL     1      -4.551   5.950  11.412  1.00  0.00     0.127 C 
HETATM    5  C11 UNL     1      -4.379   5.063  10.157  1.00  0.00     0.022 C 
HETATM    6  C12 UNL     1      -4.095   3.655  10.706  1.00  0.00     0.033 C 
HETATM    7  C13 UNL     1      -4.513   3.858  12.138  1.00  0.00     0.141 C 
ENDROOT
BRANCH   7   8
HETATM    8  C14 UNL     1      -4.294   2.741  13.074  1.00  0.00     0.084 C 
BRANCH   8   9
HETATM    9  N3  UNL     1      -4.372   2.932  14.427  1.00  0.00    -0.351 N 
ATOM     10  H3  UNL     1      -3.768   3.659  14.813  1.00  0.00     0.166 HD
BRANCH   9  11
HETATM   11  C15 UNL     1      -5.196   2.238  15.365  1.00  0.00     0.094 C 
HETATM   12  C16 UNL     1      -6.000   2.975  16.292  1.00  0.00     0.012 C 
BRANCH  12  13
HETATM   13  C17 UNL     1      -6.809   2.353  17.395  1.00  0.00     0.002 C 
HETATM   14  C18 UNL     1      -6.094   2.041  18.669  1.00  0.00     0.013 C 
HETATM   15  C19 UNL     1      -7.676   1.192  16.933  1.00  0.00     0.013 C 
ENDBRANCH  12  13
BRANCH  11  16
HETATM   16  C20 UNL     1      -4.487   1.057  15.866  1.00  0.00     0.281 C 
HETATM   17  N4  UNL     1      -4.883  -0.280  15.688  1.00  0.00    -0.056 NA
HETATM   18  O6  UNL     1      -3.404   1.254  16.521  1.00  0.00    -0.269 OA
ENDBRANCH  11  16
ENDBRANCH   9  11
ENDBRANCH   8   9
BRANCH   8  19
HETATM   19  C21 UNL     1      -3.714   1.595  12.403  1.00  0.00     0.162 C 
BRANCH  19  20
HETATM   20  O7  UNL     1      -2.403   1.595  12.362  1.00  0.00    -0.345 OA
ATOM     21  H7  UNL     1      -2.030   1.079  11.656  1.00  0.00     0.219 HD
ENDBRANCH  19  20
BRANCH  19  22
HETATM   22  N5  UNL     1      -4.279   0.476  11.779  1.00  0.00    -0.369 N 
HETATM   23  C22 UNL     1      -5.086   0.412  10.588  1.00  0.00     0.151 C 
HETATM   24  C23 UNL     1      -4.047  -0.875  12.390  1.00  0.00     0.151 C 
ENDBRANCH  19  22
ENDBRANCH   8  19
ENDBRANCH   7   8
BRANCH   1  25
HETATM   25  C8  UNL     1      -2.502   7.045  13.247  1.00  0.00     0.112 C 
BRANCH  25  26
HETATM   26  C7  UNL     1      -1.120   7.345  13.805  1.00  0.00     0.112 C 
BRANCH  26  27
HETATM   27  C6  UNL     1      -0.100   7.178  12.735  1.00  0.00     0.218 C 
HETATM   28  N1  UNL     1       0.664   5.991  12.647  1.00  0.00    -0.349 N 
ATOM     29  H1  UNL     1       0.505   5.244  13.324  1.00  0.00     0.163 HD
HETATM   30  O4  UNL     1       0.053   8.126  11.909  1.00  0.00    -0.274 OA
BRANCH  28  31
HETATM   31  C3  UNL     1       1.665   5.809  11.620  1.00  0.00     0.163 C 
BRANCH  31  32
HETATM   32  C2  UNL     1       2.967   5.763  12.254  1.00  0.00     0.146 C 
HETATM   33  C1  UNL     1       3.702   6.897  12.808  1.00  0.00     0.093 C 
HETATM   34  O1  UNL     1       3.535   4.650  12.344  1.00  0.00    -0.296 OA
ENDBRANCH  31  32
BRANCH  31  35
HETATM   35  C4  UNL     1       1.411   4.708  10.663  1.00  0.00     0.146 C 
BRANCH  35  36
HETATM   36  C5  UNL     1       0.002   4.272  10.730  1.00  0.00     0.174 C 
HETATM   37  O2  UNL     1      -0.923   4.780  10.074  1.00  0.00    -0.648 OA
HETATM   38  O3  UNL     1      -0.386   3.207  11.576  1.00  0.00    -0.648 OA
ENDBRANCH  35  36
ENDBRANCH  31  35
ENDBRANCH  28  31
ENDBRANCH  26  27
ENDBRANCH  25  26
ENDBRANCH   1  25
TORSDOF 15
ENDMDL
MODEL 4
REMARK VINA RESULT: -7.821778553      1.585      2.572
REMARK  15 active torsions:
REMARK  status: ('A' for Active; 'I' for Inactive)
REMARK    1  A    between atoms: C2_2  and  C3_4 
REMARK    2  A    between atoms: C3_4  and  C4_5 
REMARK    3  A    between atoms: C3_4  and  N1_9 
REMARK    4  A    between atoms: C4_5  and  C5_6 
REMARK       I    between atoms: N1_9  and  C6_11 
REMARK    5  A    between atoms: C6_11  and  C7_13 
REMARK    6  A    between atoms: C7_13  and  C8_14 
REMARK    7  A    between atoms: C8_14  and  C9_15 
REMARK       I    between atoms: C9_15  and  N2_17 
REMARK    8  A    between atoms: C13_21  and  C14_22 
REMARK    9  A    between atoms: C14_22  and  N3_23 
REMARK   10  A    between atoms: C14_22  and  C21_33 
REMARK   11  A    between atoms: N3_23  and  C15_25 
REMARK   12  A    between atoms: C15_25  and  C20_30 
REMARK   13  A    between atoms: C16_26  and  C17_27 
REMARK   14  A    between atoms: C21_33  and  O7_34 
REMARK   15  A    between atoms: C21_33  and  N5_36 
ROOT
HETATM    1  C9  UNL     1      -4.104   5.877  12.850  1.00  0.00     0.220 C 
HETATM    2  O5  UNL     1      -4.773   5.610  13.870  1.00  0.00    -0.273 OA
HETATM    3  N2  UNL     1      -3.383   4.964  12.143  1.00  0.00    -0.342 N 
HETATM    4  C10 UNL     1      -2.490   5.325  11.008  1.00  0.00     0.127 C 
HETATM    5  C11 UNL     1      -1.221   4.580  11.482  1.00  0.00     0.022 C 
HETATM    6  C12 UNL     1      -1.738   3.484  12.428  1.00  0.00     0.033 C 
HETATM    7  C13 UNL     1      -3.200   3.515  12.068  1.00  0.00     0.141 C 
ENDROOT
BRANCH   7   8
HETATM    8  C14 UNL     1      -4.110   2.658  12.849  1.00  0.00     0.084 C 
BRANCH   8   9
HETATM    9  N3  UNL     1      -4.025   2.603  14.214  1.00  0.00    -0.351 N 
ATOM     10  H3  UNL     1      -3.178   2.997  14.627  1.00  0.00     0.166 HD
BRANCH   9  11
HETATM   11  C15 UNL     1      -4.976   2.063  15.131  1.00  0.00     0.094 C 
HETATM   12  C16 UNL     1      -5.782   2.940  15.925  1.00  0.00     0.012 C 
BRANCH  12  13
HETATM   13  C17 UNL     1      -6.725   2.483  17.002  1.00  0.00     0.002 C 
HETATM   14  C18 UNL     1      -6.156   2.296  18.370  1.00  0.00     0.013 C 
HETATM   15  C19 UNL     1      -7.601   1.311  16.586  1.00  0.00     0.013 C 
ENDBRANCH  12  13
BRANCH  11  16
HETATM   16  C20 UNL     1      -4.415   0.876  15.783  1.00  0.00     0.281 C 
HETATM   17  N4  UNL     1      -4.849  -0.449  15.600  1.00  0.00    -0.056 NA
HETATM   18  O6  UNL     1      -3.436   1.055  16.590  1.00  0.00    -0.269 OA
ENDBRANCH  11  16
ENDBRANCH   9  11
ENDBRANCH   8   9
BRANCH   8  19
HETATM   19  C21 UNL     1      -4.818   1.724  11.997  1.00  0.00     0.162 C 
BRANCH  19  20
HETATM   20  O7  UNL     1      -5.885   2.218  11.416  1.00  0.00    -0.345 OA
ATOM     21  H7  UNL     1      -6.602   1.602  11.317  1.00  0.00     0.219 HD
ENDBRANCH  19  20
BRANCH  19  22
HETATM   22  N5  UNL     1      -4.591   0.382  11.669  1.00  0.00    -0.369 N 
HETATM   23  C22 UNL     1      -3.981  -0.655  12.461  1.00  0.00     0.151 C 
HETATM   24  C23 UNL     1      -5.021  -0.106  10.317  1.00  0.00     0.151 C 
ENDBRANCH  19  22
ENDBRANCH   8  19
ENDBRANCH   7   8
BRANCH   1  25
HETATM   25  C8  UNL     1      -4.164   7.306  12.437  1.00  0.00     0.112 C 
BRANCH  25  26
HETATM   26  C7  UNL     1      -5.408   7.644  11.631  1.00  0.00     0.112 C 
BRANCH  26  27
HETATM   27  C6  UNL     1      -5.043   7.832  10.202  1.00  0.00     0.218 C 
HETATM   28  N1  UNL     1      -5.234   6.789   9.265  1.00  0.00    -0.349 N 
ATOM     29  H1  UNL     1      -5.630   5.903   9.580  1.00  0.00     0.163 HD
HETATM   30  O4  UNL     1      -4.567   8.954   9.854  1.00  0.00    -0.274 OA
BRANCH  28  31
HETATM   31  C3  UNL     1      -4.881   6.948   7.873  1.00  0.00     0.163 C 
BRANCH  31  32
HETATM   32  C2  UNL     1      -3.892   5.943   7.535  1.00  0.00     0.146 C 
HETATM   33  C1  UNL     1      -2.708   6.138   6.702  1.00  0.00     0.093 C 
HETATM   34  O1  UNL     1      -4.054   4.787   7.989  1.00  0.00    -0.296 OA
ENDBRANCH  31  32
BRANCH  31  35
HETATM   35  C4  UNL     1      -6.017   7.030   6.927  1.00  0.00     0.146 C 
BRANCH  35  36
HETATM   36  C5  UNL     1      -7.289   7.220   7.653  1.00  0.00     0.174 C 
HETATM   37  O2  UNL     1      -7.790   8.327   7.915  1.00  0.00    -0.648 OA
HETATM   38  O3  UNL     1      -8.037   6.108   8.105  1.00  0.00    -0.648 OA
ENDBRANCH  35  36
ENDBRANCH  31  35
ENDBRANCH  28  31
ENDBRANCH  26  27
ENDBRANCH  25  26
ENDBRANCH   1  25
TORSDOF 15
ENDMDL
MODEL 5
REMARK VINA RESULT: -7.775537381      1.487      2.248
REMARK  15 active torsions:
REMARK  status: ('A' for Active; 'I' for Inactive)
REMARK    1  A    between atoms: C2_2  and  C3_4 
REMARK    2  A    between atoms: C3_4  and  C4_5 
REMARK    3  A    between atoms: C3_4  and  N1_9 
REMARK    4  A    between atoms: C4_5  and  C5_6 
REMARK       I    between atoms: N1_9  and  C6_11 
REMARK    5  A    between atoms: C6_11  and  C7_13 
REMARK    6  A    between atoms: C7_13  and  C8_14 
REMARK    7  A    between atoms: C8_14  and  C9_15 
REMARK       I    between atoms: C9_15  and  N2_17 
REMARK    8  A    between atoms: C13_21  and  C14_22 
REMARK    9  A    between atoms: C14_22  and  N3_23 
REMARK   10  A    between atoms: C14_22  and  C21_33 
REMARK   11  A    between atoms: N3_23  and  C15_25 
REMARK   12  A    between atoms: C15_25  and  C20_30 
REMARK   13  A    between atoms: C16_26  and  C17_27 
REMARK   14  A    between atoms: C21_33  and  O7_34 
REMARK   15  A    between atoms: C21_33  and  N5_36 
ROOT
HETATM    1  C9  UNL     1      -3.691   4.777  10.490  1.00  0.00     0.220 C 
HETATM    2  O5  UNL     1      -4.904   4.977  10.707  1.00  0.00    -0.273 OA
HETATM    3  N2  UNL     1      -2.849   4.147  11.354  1.00  0.00    -0.342 N 
HETATM    4  C10 UNL     1      -1.381   4.033  11.133  1.00  0.00     0.127 C 
HETATM    5  C11 UNL     1      -0.912   4.551  12.512  1.00  0.00     0.022 C 
HETATM    6  C12 UNL     1      -2.105   4.309  13.451  1.00  0.00     0.033 C 
HETATM    7  C13 UNL     1      -2.910   3.370  12.592  1.00  0.00     0.141 C 
ENDROOT
BRANCH   7   8
HETATM    8  C14 UNL     1      -4.235   2.961  13.091  1.00  0.00     0.084 C 
BRANCH   8   9
HETATM    9  N3  UNL     1      -4.646   3.299  14.351  1.00  0.00    -0.351 N 
ATOM     10  H3  UNL     1      -4.422   4.247  14.657  1.00  0.00     0.166 HD
BRANCH   9  11
HETATM   11  C15 UNL     1      -5.352   2.488  15.291  1.00  0.00     0.094 C 
HETATM   12  C16 UNL     1      -6.244   3.094  16.231  1.00  0.00     0.012 C 
BRANCH  12  13
HETATM   13  C17 UNL     1      -6.943   2.354  17.337  1.00  0.00     0.002 C 
HETATM   14  C18 UNL     1      -6.146   2.055  18.564  1.00  0.00     0.013 C 
HETATM   15  C19 UNL     1      -7.724   1.141  16.857  1.00  0.00     0.013 C 
ENDBRANCH  12  13
BRANCH  11  16
HETATM   16  C20 UNL     1      -4.473   1.418  15.777  1.00  0.00     0.281 C 
HETATM   17  N4  UNL     1      -4.718   0.038  15.670  1.00  0.00    -0.056 NA
HETATM   18  O6  UNL     1      -3.381   1.767  16.347  1.00  0.00    -0.269 OA
ENDBRANCH  11  16
ENDBRANCH   9  11
ENDBRANCH   8   9
BRANCH   8  19
HETATM   19  C21 UNL     1      -4.836   1.958  12.234  1.00  0.00     0.162 C 
BRANCH  19  20
HETATM   20  O7  UNL     1      -5.933   2.345  11.629  1.00  0.00    -0.345 OA
ATOM     21  H7  UNL     1      -6.695   2.405  12.193  1.00  0.00     0.219 HD
ENDBRANCH  19  20
BRANCH  19  22
HETATM   22  N5  UNL     1      -4.477   0.640  11.924  1.00  0.00    -0.369 N 
HETATM   23  C22 UNL     1      -3.747  -0.313  12.718  1.00  0.00     0.151 C 
HETATM   24  C23 UNL     1      -4.884   0.085  10.590  1.00  0.00     0.151 C 
ENDBRANCH  19  22
ENDBRANCH   8  19
ENDBRANCH   7   8
BRANCH   1  25
HETATM   25  C8  UNL     1      -3.216   5.279   9.171  1.00  0.00     0.112 C 
BRANCH  25  26
HETATM   26  C7  UNL     1      -4.336   5.445   8.157  1.00  0.00     0.112 C 
BRANCH  26  27
HETATM   27  C6  UNL     1      -4.837   6.845   8.188  1.00  0.00     0.218 C 
HETATM   28  N1  UNL     1      -5.999   7.179   8.923  1.00  0.00    -0.349 N 
ATOM     29  H1  UNL     1      -6.490   6.448   9.438  1.00  0.00     0.163 HD
HETATM   30  O4  UNL     1      -4.187   7.722   7.544  1.00  0.00    -0.274 OA
BRANCH  28  31
HETATM   31  C3  UNL     1      -6.507   8.532   8.961  1.00  0.00     0.163 C 
BRANCH  31  32
HETATM   32  C2  UNL     1      -7.758   8.571   8.228  1.00  0.00     0.146 C 
HETATM   33  C1  UNL     1      -9.057   8.106   8.706  1.00  0.00     0.093 C 
HETATM   34  O1  UNL     1      -7.741   9.043   7.068  1.00  0.00    -0.296 OA
ENDBRANCH  31  32
BRANCH  31  35
HETATM   35  C4  UNL     1      -6.565   9.159  10.302  1.00  0.00     0.146 C 
BRANCH  35  36
HETATM   36  C5  UNL     1      -6.113   8.212  11.341  1.00  0.00     0.174 C 
HETATM   37  O2  UNL     1      -4.939   8.107  11.734  1.00  0.00    -0.648 OA
HETATM   38  O3  UNL     1      -7.031   7.341  11.974  1.00  0.00    -0.648 OA
ENDBRANCH  35  36
ENDBRANCH  31  35
ENDBRANCH  28  31
ENDBRANCH  26  27
ENDBRANCH  25  26
ENDBRANCH   1  25
TORSDOF 15
ENDMDL
