MODEL 1
REMARK VINA RESULT: -7.110374937      0.000      0.000
REMARK  5 active torsions:
REMARK  status: ('A' for Active; 'I' for Inactive)
REMARK    1  A    between atoms: C5_5  and  C6_6 
REMARK    2  A    between atoms: C6_6  and  C7_7 
REMARK    3  A    between atoms: C7_7  and  C8_8 
REMARK    4  A    between atoms: C8_8  and  N1_9 
REMARK    5  A    between atoms: N1_9  and  C9_11 
ROOT
HETATM    1  N1  UNL     1      -2.560  29.078  -6.372  1.00  0.00    -0.375 N 
ATOM      2  H1  UNL     1      -2.980  28.179  -6.610  1.00  0.00     0.160 HD
ENDROOT
BRANCH   1   3
HETATM    3  C8  UNL     1      -1.374  29.488  -7.013  1.00  0.00     0.057 C 
BRANCH   3   4
HETATM    4  C7  UNL     1      -1.400  29.670  -8.482  1.00  0.00     0.044 C 
BRANCH   4   5
HETATM    5  C6  UNL     1      -1.034  31.075  -8.852  1.00  0.00     0.009 C 
BRANCH   5   6
HETATM    6  C5  UNL     1      -1.589  31.472 -10.199  1.00  0.00    -0.014 C 
HETATM    7  C4  UNL     1      -3.080  31.226 -10.134  1.00  0.00     0.004 C 
HETATM    8  C3  UNL     1      -3.789  31.559 -11.417  1.00  0.00     0.000 C 
HETATM    9  C2  UNL     1      -4.076  30.328 -12.260  1.00  0.00     0.000 C 
HETATM   10  C1  UNL     1      -2.856  29.422 -12.148  1.00  0.00     0.000 C 
HETATM   11  C14 UNL     1      -1.663  30.306 -12.435  1.00  0.00     0.000 C 
HETATM   12  C13 UNL     1      -0.884  30.654 -11.218  1.00  0.00     0.004 C 
ENDBRANCH   5   6
ENDBRANCH   4   5
ENDBRANCH   3   4
ENDBRANCH   1   3
BRANCH   1  13
HETATM   13  C9  UNL     1      -3.170  29.898  -5.405  1.00  0.00     0.287 C 
HETATM   14  C10 UNL     1      -2.927  29.446  -3.960  1.00  0.00     0.082 C 
HETATM   15  C11 UNL     1      -3.594  30.536  -3.112  1.00  0.00     0.238 C 
HETATM   16  N2  UNL     1      -4.649  31.182  -3.877  1.00  0.00    -0.051 N 
HETATM   17  C12 UNL     1      -4.125  31.985  -4.970  1.00  0.00     0.465 C 
ATOM     18  H22 UNL     1      -5.329  30.501  -4.213  1.00  0.00     0.279 HD
ATOM     19  H21 UNL     1      -5.256  31.735  -3.272  1.00  0.00     0.279 HD
HETATM   20  N3  UNL     1      -2.911  31.300  -5.455  1.00  0.00    -0.030 N 
ATOM     21  H32 UNL     1      -2.069  31.569  -4.945  1.00  0.00     0.281 HD
ATOM     22  H31 UNL     1      -2.613  31.618  -6.377  1.00  0.00     0.281 HD
ENDBRANCH   1  13
TORSDOF 5
ENDMDL
MODEL 2
REMARK VINA RESULT: -7.086573832      0.925      1.506
REMARK  5 active torsions:
REMARK  status: ('A' for Active; 'I' for Inactive)
REMARK    1  A    between atoms: C5_5  and  C6_6 
REMARK    2  A    between atoms: C6_6  and  C7_7 
REMARK    3  A    between atoms: C7_7  and  C8_8 
REMARK    4  A    between atoms: C8_8  and  N1_9 
REMARK    5  A    between atoms: N1_9  and  C9_11 
ROOT
HETATM    1  N1  UNL     1      -1.581  31.036  -6.496  1.00  0.00    -0.375 N 
ATOM      2  H1  UNL     1      -0.801  31.676  -6.643  1.00  0.00     0.160 HD
ENDROOT
BRANCH   1   3
HETATM    3  C8  UNL     1      -1.582  29.778  -7.130  1.00  0.00     0.057 C 
BRANCH   3   4
HETATM    4  C7  UNL     1      -1.315  29.728  -8.586  1.00  0.00     0.044 C 
BRANCH   4   5
HETATM    5  C6  UNL     1      -0.861  31.063  -9.091  1.00  0.00     0.009 C 
BRANCH   5   6
HETATM    6  C5  UNL     1      -1.487  31.412 -10.420  1.00  0.00    -0.014 C 
HETATM    7  C4  UNL     1      -2.981  31.250 -10.242  1.00  0.00     0.004 C 
HETATM    8  C3  UNL     1      -3.759  31.547 -11.494  1.00  0.00     0.000 C 
HETATM    9  C2  UNL     1      -4.164  30.287 -12.240  1.00  0.00     0.000 C 
HETATM   10  C1  UNL     1      -2.985  29.325 -12.155  1.00  0.00     0.000 C 
HETATM   11  C14 UNL     1      -1.772  30.127 -12.572  1.00  0.00     0.000 C 
HETATM   12  C13 UNL     1      -0.895  30.501 -11.432  1.00  0.00     0.004 C 
ENDBRANCH   5   6
ENDBRANCH   4   5
ENDBRANCH   3   4
ENDBRANCH   1   3
BRANCH   1  13
HETATM   13  C9  UNL     1      -2.648  31.416  -5.661  1.00  0.00     0.287 C 
HETATM   14  C10 UNL     1      -3.460  32.605  -6.189  1.00  0.00     0.082 C 
HETATM   15  C11 UNL     1      -4.600  32.756  -5.175  1.00  0.00     0.238 C 
HETATM   16  N2  UNL     1      -4.194  32.214  -3.888  1.00  0.00    -0.051 N 
HETATM   17  C12 UNL     1      -4.058  30.766  -3.916  1.00  0.00     0.465 C 
ATOM     18  H22 UNL     1      -3.337  32.658  -3.556  1.00  0.00     0.279 HD
ATOM     19  H21 UNL     1      -4.829  32.511  -3.147  1.00  0.00     0.279 HD
HETATM   20  N3  UNL     1      -3.582  30.412  -5.267  1.00  0.00    -0.030 N 
ATOM     21  H32 UNL     1      -4.340  30.286  -5.939  1.00  0.00     0.281 HD
ATOM     22  H31 UNL     1      -3.199  29.468  -5.322  1.00  0.00     0.281 HD
ENDBRANCH   1  13
TORSDOF 5
ENDMDL
MODEL 3
REMARK VINA RESULT: -7.055569586      0.826      1.364
REMARK  5 active torsions:
REMARK  status: ('A' for Active; 'I' for Inactive)
REMARK    1  A    between atoms: C5_5  and  C6_6 
REMARK    2  A    between atoms: C6_6  and  C7_7 
REMARK    3  A    between atoms: C7_7  and  C8_8 
REMARK    4  A    between atoms: C8_8  and  N1_9 
REMARK    5  A    between atoms: N1_9  and  C9_11 
ROOT
HETATM    1  N1  UNL     1      -3.134  29.331  -6.086  1.00  0.00    -0.375 N 
ATOM      2  H1  UNL     1      -3.941  28.731  -6.261  1.00  0.00     0.160 HD
ENDROOT
BRANCH   1   3
HETATM    3  C8  UNL     1      -1.938  29.120  -6.799  1.00  0.00     0.057 C 
BRANCH   3   4
HETATM    4  C7  UNL     1      -1.955  29.309  -8.268  1.00  0.00     0.044 C 
BRANCH   4   5
HETATM    5  C6  UNL     1      -1.135  30.500  -8.662  1.00  0.00     0.009 C 
BRANCH   5   6
HETATM    6  C5  UNL     1      -1.635  31.139  -9.934  1.00  0.00    -0.014 C 
HETATM    7  C4  UNL     1      -3.131  30.917  -9.964  1.00  0.00     0.004 C 
HETATM    8  C3  UNL     1      -3.788  31.486 -11.191  1.00  0.00     0.000 C 
HETATM    9  C2  UNL     1      -4.062  30.429 -12.247  1.00  0.00     0.000 C 
HETATM   10  C1  UNL     1      -2.860  29.492 -12.257  1.00  0.00     0.000 C 
HETATM   11  C14 UNL     1      -1.644  30.387 -12.343  1.00  0.00     0.000 C 
HETATM   12  C13 UNL     1      -0.905  30.499 -11.058  1.00  0.00     0.004 C 
ENDBRANCH   5   6
ENDBRANCH   4   5
ENDBRANCH   3   4
ENDBRANCH   1   3
BRANCH   1  13
HETATM   13  C9  UNL     1      -3.228  30.363  -5.134  1.00  0.00     0.287 C 
HETATM   14  C10 UNL     1      -3.205  31.773  -5.738  1.00  0.00     0.082 C 
HETATM   15  C11 UNL     1      -3.418  32.696  -4.532  1.00  0.00     0.238 C 
HETATM   16  N2  UNL     1      -2.970  32.036  -3.317  1.00  0.00    -0.051 N 
HETATM   17  C12 UNL     1      -3.825  30.920  -2.946  1.00  0.00     0.465 C 
ATOM     18  H22 UNL     1      -1.996  31.743  -3.396  1.00  0.00     0.279 HD
ATOM     19  H21 UNL     1      -2.879  32.702  -2.549  1.00  0.00     0.279 HD
HETATM   20  N3  UNL     1      -4.310  30.321  -4.205  1.00  0.00    -0.030 N 
ATOM     21  H32 UNL     1      -5.157  30.765  -4.559  1.00  0.00     0.281 HD
ATOM     22  H31 UNL     1      -4.694  29.385  -4.081  1.00  0.00     0.281 HD
ENDBRANCH   1  13
TORSDOF 5
ENDMDL
MODEL 4
REMARK VINA RESULT: -6.906426410      1.152      1.930
REMARK  5 active torsions:
REMARK  status: ('A' for Active; 'I' for Inactive)
REMARK    1  A    between atoms: C5_5  and  C6_6 
REMARK    2  A    between atoms: C6_6  and  C7_7 
REMARK    3  A    between atoms: C7_7  and  C8_8 
REMARK    4  A    between atoms: C8_8  and  N1_9 
REMARK    5  A    between atoms: N1_9  and  C9_11 
ROOT
HETATM    1  N1  UNL     1      -3.487  29.502  -5.385  1.00  0.00    -0.375 N 
ATOM      2  H1  UNL     1      -4.337  29.005  -5.656  1.00  0.00     0.160 HD
ENDROOT
BRANCH   1   3
HETATM    3  C8  UNL     1      -2.233  29.024  -5.813  1.00  0.00     0.057 C 
BRANCH   3   4
HETATM    4  C7  UNL     1      -1.980  28.925  -7.269  1.00  0.00     0.044 C 
BRANCH   4   5
HETATM    5  C6  UNL     1      -1.238  30.128  -7.765  1.00  0.00     0.009 C 
BRANCH   5   6
HETATM    6  C5  UNL     1      -1.991  30.852  -8.855  1.00  0.00    -0.014 C 
HETATM    7  C4  UNL     1      -2.755  29.793  -9.619  1.00  0.00     0.004 C 
HETATM    8  C3  UNL     1      -3.553  30.353 -10.764  1.00  0.00     0.000 C 
HETATM    9  C2  UNL     1      -2.855  30.177 -12.102  1.00  0.00     0.000 C 
HETATM   10  C1  UNL     1      -1.372  30.437 -11.864  1.00  0.00     0.000 C 
HETATM   11  C14 UNL     1      -1.303  31.748 -11.111  1.00  0.00     0.000 C 
HETATM   12  C13 UNL     1      -0.985  31.580  -9.669  1.00  0.00     0.004 C 
ENDBRANCH   5   6
ENDBRANCH   4   5
ENDBRANCH   3   4
ENDBRANCH   1   3
BRANCH   1  13
HETATM   13  C9  UNL     1      -3.579  30.657  -4.589  1.00  0.00     0.287 C 
HETATM   14  C10 UNL     1      -3.635  31.964  -5.389  1.00  0.00     0.082 C 
HETATM   15  C11 UNL     1      -3.832  33.047  -4.320  1.00  0.00     0.238 C 
HETATM   16  N2  UNL     1      -3.307  32.584  -3.045  1.00  0.00    -0.051 N 
HETATM   17  C12 UNL     1      -4.104  31.508  -2.478  1.00  0.00     0.465 C 
ATOM     18  H22 UNL     1      -2.327  32.314  -3.127  1.00  0.00     0.279 HD
ATOM     19  H21 UNL     1      -3.209  33.357  -2.386  1.00  0.00     0.279 HD
HETATM   20  N3  UNL     1      -4.618  30.718  -3.613  1.00  0.00    -0.030 N 
ATOM     21  H32 UNL     1      -5.496  31.079  -3.987  1.00  0.00     0.281 HD
ATOM     22  H31 UNL     1      -4.961  29.798  -3.338  1.00  0.00     0.281 HD
ENDBRANCH   1  13
TORSDOF 5
ENDMDL
MODEL 5
REMARK VINA RESULT: -6.428799220      1.224      1.943
REMARK  5 active torsions:
REMARK  status: ('A' for Active; 'I' for Inactive)
REMARK    1  A    between atoms: C5_5  and  C6_6 
REMARK    2  A    between atoms: C6_6  and  C7_7 
REMARK    3  A    between atoms: C7_7  and  C8_8 
REMARK    4  A    between atoms: C8_8  and  N1_9 
REMARK    5  A    between atoms: N1_9  and  C9_11 
ROOT
HETATM    1  N1  UNL     1      -3.327  29.777  -5.414  1.00  0.00    -0.375 N 
ATOM      2  H1  UNL     1      -4.018  29.095  -5.729  1.00  0.00     0.160 HD
ENDROOT
BRANCH   1   3
HETATM    3  C8  UNL     1      -1.966  29.418  -5.361  1.00  0.00     0.057 C 
BRANCH   3   4
HETATM    4  C7  UNL     1      -1.169  29.510  -6.606  1.00  0.00     0.044 C 
BRANCH   4   5
HETATM    5  C6  UNL     1      -1.957  29.017  -7.781  1.00  0.00     0.009 C 
BRANCH   5   6
HETATM    6  C5  UNL     1      -2.358  30.139  -8.708  1.00  0.00    -0.014 C 
HETATM    7  C4  UNL     1      -2.966  29.486  -9.930  1.00  0.00     0.004 C 
HETATM    8  C3  UNL     1      -3.408  30.477 -10.970  1.00  0.00     0.000 C 
HETATM    9  C2  UNL     1      -2.403  30.621 -12.101  1.00  0.00     0.000 C 
HETATM   10  C1  UNL     1      -1.017  30.581 -11.467  1.00  0.00     0.000 C 
HETATM   11  C14 UNL     1      -1.060  31.574 -10.327  1.00  0.00     0.000 C 
HETATM   12  C13 UNL     1      -1.133  30.930  -8.990  1.00  0.00     0.004 C 
ENDBRANCH   5   6
ENDBRANCH   4   5
ENDBRANCH   3   4
ENDBRANCH   1   3
BRANCH   1  13
HETATM   13  C9  UNL     1      -3.742  31.066  -5.035  1.00  0.00     0.287 C 
HETATM   14  C10 UNL     1      -3.093  31.577  -3.743  1.00  0.00     0.082 C 
HETATM   15  C11 UNL     1      -3.619  33.011  -3.604  1.00  0.00     0.238 C 
HETATM   16  N2  UNL     1      -4.892  33.140  -4.295  1.00  0.00    -0.051 N 
HETATM   17  C12 UNL     1      -4.747  33.054  -5.740  1.00  0.00     0.465 C 
ATOM     18  H22 UNL     1      -5.568  32.459  -3.951  1.00  0.00     0.279 HD
ATOM     19  H21 UNL     1      -5.372  33.999  -4.024  1.00  0.00     0.279 HD
HETATM   20  N3  UNL     1      -3.639  32.113  -5.998  1.00  0.00    -0.030 N 
ATOM     21  H32 UNL     1      -2.724  32.564  -6.003  1.00  0.00     0.281 HD
ATOM     22  H31 UNL     1      -3.621  31.771  -6.959  1.00  0.00     0.281 HD
ENDBRANCH   1  13
TORSDOF 5
ENDMDL
