MODEL 1
REMARK VINA RESULT: -6.317064621      0.000      0.000
REMARK  5 active torsions:
REMARK  status: ('A' for Active; 'I' for Inactive)
REMARK    1  A    between atoms: C2_2  and  N1_3 
REMARK    2  A    between atoms: N1_3  and  C3_6 
REMARK    3  A    between atoms: C3_6  and  C4_7 
REMARK    4  A    between atoms: C6_13  and  C7_14 
REMARK    5  A    between atoms: C12_19  and  O1_20 
ROOT
HETATM    1  C4  UNL     1      -2.605  29.953  -5.903  1.00  0.00     0.071 A 
HETATM    2  N2  UNL     1      -2.428  29.089  -6.913  1.00  0.00    -0.341 N 
ATOM      3  H2  UNL     1      -2.495  28.075  -6.820  1.00  0.00     0.167 HD
HETATM    4  C5  UNL     1      -2.152  29.729  -8.068  1.00  0.00     0.119 A 
HETATM    5  N3  UNL     1      -1.876  29.594  -9.384  1.00  0.00    -0.345 N 
ATOM      6  H3  UNL     1      -1.813  28.697  -9.867  1.00  0.00     0.167 HD
HETATM    7  C6  UNL     1      -1.695  30.783  -9.977  1.00  0.00     0.016 A 
HETATM    8  C10 UNL     1      -1.864  31.727  -8.988  1.00  0.00     0.043 A 
HETATM    9  C11 UNL     1      -2.148  31.080  -7.796  1.00  0.00     0.045 A 
HETATM   10  C12 UNL     1      -2.431  31.203  -6.450  1.00  0.00     0.106 A 
ENDROOT
BRANCH   1  11
HETATM   11  C3  UNL     1      -2.927  29.627  -4.465  1.00  0.00     0.292 C 
BRANCH  11  12
HETATM   12  N1  UNL     1      -4.193  30.170  -4.079  1.00  0.00    -0.070 N 
ATOM     13  H12 UNL     1      -4.917  29.459  -3.981  1.00  0.00     0.277 HD
ATOM     14  H11 UNL     1      -4.637  30.710  -4.822  1.00  0.00     0.277 HD
BRANCH  12  15
HETATM   15  C2  UNL     1      -3.987  30.940  -2.866  1.00  0.00     0.228 C 
HETATM   16  C1  UNL     1      -2.534  31.248  -2.615  1.00  0.00     0.034 C 
ENDBRANCH  12  15
ENDBRANCH  11  12
ENDBRANCH   1  11
BRANCH  10  17
HETATM   17  O1  UNL     1      -2.524  32.407  -5.765  1.00  0.00    -0.353 OA
HETATM   18  C13 UNL     1      -3.734  33.141  -5.938  1.00  0.00     0.210 C 
ENDBRANCH  10  17
BRANCH   7  19
HETATM   19  C7  UNL     1      -1.373  31.032 -11.430  1.00  0.00     0.036 A 
HETATM   20  C8  UNL     1      -0.586  30.024 -12.172  1.00  0.00     0.011 A 
HETATM   21  C9  UNL     1      -2.068  30.154 -12.389  1.00  0.00     0.011 A 
ENDBRANCH   7  19
TORSDOF 5
ENDMDL
MODEL 2
REMARK VINA RESULT: -6.281251214      1.119      1.382
REMARK  5 active torsions:
REMARK  status: ('A' for Active; 'I' for Inactive)
REMARK    1  A    between atoms: C2_2  and  N1_3 
REMARK    2  A    between atoms: N1_3  and  C3_6 
REMARK    3  A    between atoms: C3_6  and  C4_7 
REMARK    4  A    between atoms: C6_13  and  C7_14 
REMARK    5  A    between atoms: C12_19  and  O1_20 
ROOT
HETATM    1  C4  UNL     1      -3.036  30.201  -4.916  1.00  0.00     0.071 A 
HETATM    2  N2  UNL     1      -3.027  29.190  -5.798  1.00  0.00    -0.341 N 
ATOM      3  H2  UNL     1      -3.299  28.232  -5.576  1.00  0.00     0.167 HD
HETATM    4  C5  UNL     1      -2.614  29.600  -7.016  1.00  0.00     0.119 A 
HETATM    5  N3  UNL     1      -2.358  29.235  -8.291  1.00  0.00    -0.345 N 
ATOM      6  H3  UNL     1      -2.473  28.287  -8.651  1.00  0.00     0.167 HD
HETATM    7  C6  UNL     1      -1.933  30.273  -9.027  1.00  0.00     0.016 A 
HETATM    8  C10 UNL     1      -1.917  31.356  -8.177  1.00  0.00     0.043 A 
HETATM    9  C11 UNL     1      -2.340  30.947  -6.922  1.00  0.00     0.045 A 
HETATM   10  C12 UNL     1      -2.606  31.306  -5.615  1.00  0.00     0.106 A 
ENDROOT
BRANCH   1  11
HETATM   11  C3  UNL     1      -3.432  30.144  -3.462  1.00  0.00     0.292 C 
BRANCH  11  12
HETATM   12  N1  UNL     1      -4.481  31.072  -3.171  1.00  0.00    -0.070 N 
ATOM     13  H12 UNL     1      -5.408  30.648  -3.205  1.00  0.00     0.277 HD
ATOM     14  H11 UNL     1      -4.621  31.758  -3.913  1.00  0.00     0.277 HD
BRANCH  12  15
HETATM   15  C2  UNL     1      -4.183  31.681  -1.887  1.00  0.00     0.228 C 
HETATM   16  C1  UNL     1      -4.232  33.185  -1.935  1.00  0.00     0.034 C 
ENDBRANCH  12  15
ENDBRANCH  11  12
ENDBRANCH   1  11
BRANCH  10  17
HETATM   17  O1  UNL     1      -2.459  32.585  -5.097  1.00  0.00    -0.353 OA
HETATM   18  C13 UNL     1      -3.354  33.576  -5.599  1.00  0.00     0.210 C 
ENDBRANCH  10  17
BRANCH   7  19
HETATM   19  C7  UNL     1      -1.552  30.254 -10.487  1.00  0.00     0.036 A 
HETATM   20  C8  UNL     1      -2.549  30.675 -11.494  1.00  0.00     0.011 A 
HETATM   21  C9  UNL     1      -1.407  31.578 -11.118  1.00  0.00     0.011 A 
ENDBRANCH   7  19
TORSDOF 5
ENDMDL
MODEL 3
REMARK VINA RESULT: -5.954519807      1.450      1.679
REMARK  5 active torsions:
REMARK  status: ('A' for Active; 'I' for Inactive)
REMARK    1  A    between atoms: C2_2  and  N1_3 
REMARK    2  A    between atoms: N1_3  and  C3_6 
REMARK    3  A    between atoms: C3_6  and  C4_7 
REMARK    4  A    between atoms: C6_13  and  C7_14 
REMARK    5  A    between atoms: C12_19  and  O1_20 
ROOT
HETATM    1  C4  UNL     1      -1.779  29.404  -5.820  1.00  0.00     0.071 A 
HETATM    2  N2  UNL     1      -2.670  29.107  -6.778  1.00  0.00    -0.341 N 
ATOM      3  H2  UNL     1      -3.491  28.516  -6.636  1.00  0.00     0.167 HD
HETATM    4  C5  UNL     1      -2.345  29.686  -7.952  1.00  0.00     0.119 A 
HETATM    5  N3  UNL     1      -2.689  29.858  -9.248  1.00  0.00    -0.345 N 
ATOM      6  H3  UNL     1      -3.513  29.443  -9.683  1.00  0.00     0.167 HD
HETATM    7  C6  UNL     1      -1.812  30.642  -9.892  1.00  0.00     0.016 A 
HETATM    8  C10 UNL     1      -0.859  30.988  -8.961  1.00  0.00     0.043 A 
HETATM    9  C11 UNL     1      -1.183  30.398  -7.749  1.00  0.00     0.045 A 
HETATM   10  C12 UNL     1      -0.844  30.213  -6.423  1.00  0.00     0.106 A 
ENDROOT
BRANCH   1  11
HETATM   11  C3  UNL     1      -1.795  28.948  -4.383  1.00  0.00     0.292 C 
BRANCH  11  12
HETATM   12  N1  UNL     1      -3.103  29.056  -3.816  1.00  0.00    -0.070 N 
ATOM     13  H12 UNL     1      -3.332  28.281  -3.194  1.00  0.00     0.277 HD
ATOM     14  H11 UNL     1      -3.846  28.903  -4.498  1.00  0.00     0.277 HD
BRANCH  12  15
HETATM   15  C2  UNL     1      -3.192  30.350  -3.163  1.00  0.00     0.228 C 
HETATM   16  C1  UNL     1      -4.088  31.310  -3.902  1.00  0.00     0.034 C 
ENDBRANCH  12  15
ENDBRANCH  11  12
ENDBRANCH   1  11
BRANCH  10  17
HETATM   17  O1  UNL     1       0.269  30.764  -5.804  1.00  0.00    -0.353 OA
HETATM   18  C13 UNL     1       0.033  31.453  -4.577  1.00  0.00     0.210 C 
ENDBRANCH  10  17
BRANCH   7  19
HETATM   19  C7  UNL     1      -1.863  31.057 -11.343  1.00  0.00     0.036 A 
HETATM   20  C8  UNL     1      -1.006  30.352 -12.320  1.00  0.00     0.011 A 
HETATM   21  C9  UNL     1      -2.484  30.081 -12.256  1.00  0.00     0.011 A 
ENDBRANCH   7  19
TORSDOF 5
ENDMDL
MODEL 4
REMARK VINA RESULT: -5.928047556      1.847      6.454
REMARK  5 active torsions:
REMARK  status: ('A' for Active; 'I' for Inactive)
REMARK    1  A    between atoms: C2_2  and  N1_3 
REMARK    2  A    between atoms: N1_3  and  C3_6 
REMARK    3  A    between atoms: C3_6  and  C4_7 
REMARK    4  A    between atoms: C6_13  and  C7_14 
REMARK    5  A    between atoms: C12_19  and  O1_20 
ROOT
HETATM    1  C4  UNL     1      -2.223  29.526  -6.233  1.00  0.00     0.071 A 
HETATM    2  N2  UNL     1      -3.456  29.504  -5.705  1.00  0.00    -0.341 N 
ATOM      3  H2  UNL     1      -4.232  28.959  -6.081  1.00  0.00     0.167 HD
HETATM    4  C5  UNL     1      -3.541  30.295  -4.615  1.00  0.00     0.119 A 
HETATM    5  N3  UNL     1      -4.341  30.763  -3.632  1.00  0.00    -0.345 N 
ATOM      6  H3  UNL     1      -5.324  30.510  -3.524  1.00  0.00     0.167 HD
HETATM    7  C6  UNL     1      -3.684  31.599  -2.815  1.00  0.00     0.016 A 
HETATM    8  C10 UNL     1      -2.399  31.670  -3.301  1.00  0.00     0.043 A 
HETATM    9  C11 UNL     1      -2.299  30.861  -4.423  1.00  0.00     0.045 A 
HETATM   10  C12 UNL     1      -1.493  30.375  -5.433  1.00  0.00     0.106 A 
ENDROOT
BRANCH   1  11
HETATM   11  C3  UNL     1      -1.735  28.779  -7.449  1.00  0.00     0.292 C 
BRANCH  11  12
HETATM   12  N1  UNL     1      -0.910  29.608  -8.273  1.00  0.00    -0.070 N 
ATOM     13  H12 UNL     1      -0.096  29.117  -8.641  1.00  0.00     0.277 HD
ATOM     14  H11 UNL     1      -0.408  30.321  -7.744  1.00  0.00     0.277 HD
BRANCH  12  15
HETATM   15  C2  UNL     1      -1.754  30.166  -9.315  1.00  0.00     0.228 C 
HETATM   16  C1  UNL     1      -1.802  31.671  -9.275  1.00  0.00     0.034 C 
ENDBRANCH  12  15
ENDBRANCH  11  12
ENDBRANCH   1  11
BRANCH  10  17
HETATM   17  O1  UNL     1      -0.155  30.699  -5.607  1.00  0.00    -0.353 OA
HETATM   18  C13 UNL     1       0.511  31.262  -4.477  1.00  0.00     0.210 C 
ENDBRANCH  10  17
BRANCH   7  19
HETATM   19  C7  UNL     1      -4.244  32.315  -1.609  1.00  0.00     0.036 A 
HETATM   20  C8  UNL     1      -3.382  33.267  -0.877  1.00  0.00     0.011 A 
HETATM   21  C9  UNL     1      -4.474  33.760  -1.785  1.00  0.00     0.011 A 
ENDBRANCH   7  19
TORSDOF 5
ENDMDL
MODEL 5
REMARK VINA RESULT: -5.867993905      1.466      1.870
REMARK  5 active torsions:
REMARK  status: ('A' for Active; 'I' for Inactive)
REMARK    1  A    between atoms: C2_2  and  N1_3 
REMARK    2  A    between atoms: N1_3  and  C3_6 
REMARK    3  A    between atoms: C3_6  and  C4_7 
REMARK    4  A    between atoms: C6_13  and  C7_14 
REMARK    5  A    between atoms: C12_19  and  O1_20 
ROOT
HETATM    1  C4  UNL     1      -2.979  30.542  -4.492  1.00  0.00     0.071 A 
HETATM    2  N2  UNL     1      -1.962  29.902  -5.089  1.00  0.00    -0.341 N 
ATOM      3  H2  UNL     1      -1.413  29.163  -4.650  1.00  0.00     0.167 HD
HETATM    4  C5  UNL     1      -1.758  30.360  -6.342  1.00  0.00     0.119 A 
HETATM    5  N3  UNL     1      -1.016  30.249  -7.466  1.00  0.00    -0.345 N 
ATOM      6  H3  UNL     1      -0.245  29.590  -7.582  1.00  0.00     0.167 HD
HETATM    7  C6  UNL     1      -1.417  31.112  -8.410  1.00  0.00     0.016 A 
HETATM    8  C10 UNL     1      -2.469  31.811  -7.861  1.00  0.00     0.043 A 
HETATM    9  C11 UNL     1      -2.689  31.349  -6.573  1.00  0.00     0.045 A 
HETATM   10  C12 UNL     1      -3.438  31.451  -5.418  1.00  0.00     0.106 A 
ENDROOT
BRANCH   1  11
HETATM   11  C3  UNL     1      -3.510  30.318  -3.098  1.00  0.00     0.292 C 
BRANCH  11  12
HETATM   12  N1  UNL     1      -4.494  31.296  -2.752  1.00  0.00    -0.070 N 
ATOM     13  H12 UNL     1      -5.384  30.883  -2.473  1.00  0.00     0.277 HD
ATOM     14  H11 UNL     1      -4.836  31.818  -3.558  1.00  0.00     0.277 HD
BRANCH  12  15
HETATM   15  C2  UNL     1      -3.921  32.150  -1.727  1.00  0.00     0.228 C 
HETATM   16  C1  UNL     1      -4.487  33.546  -1.754  1.00  0.00     0.034 C 
ENDBRANCH  12  15
ENDBRANCH  11  12
ENDBRANCH   1  11
BRANCH  10  17
HETATM   17  O1  UNL     1      -4.491  32.336  -5.229  1.00  0.00    -0.353 OA
HETATM   18  C13 UNL     1      -4.205  33.715  -5.453  1.00  0.00     0.210 C 
ENDBRANCH  10  17
BRANCH   7  19
HETATM   19  C7  UNL     1      -0.832  31.281  -9.791  1.00  0.00     0.036 A 
HETATM   20  C8  UNL     1      -1.511  30.644 -10.940  1.00  0.00     0.011 A 
HETATM   21  C9  UNL     1      -1.618  32.126 -10.709  1.00  0.00     0.011 A 
ENDBRANCH   7  19
TORSDOF 5
ENDMDL
