MODEL 1
REMARK VINA RESULT: -6.662729934      0.000      0.000
REMARK  5 active torsions:
REMARK  status: ('A' for Active; 'I' for Inactive)
REMARK    1  A    between atoms: C2_2  and  O1_3 
REMARK    2  A    between atoms: O1_3  and  C3_4 
REMARK    3  A    between atoms: C3_4  and  C4_5 
REMARK    4  A    between atoms: C4_5  and  C5_6 
REMARK    5  A    between atoms: C5_6  and  C6_7 
ROOT
HETATM    1  C6  UNL     1      -2.011  30.763  -7.888  1.00  0.00    -0.033 A 
HETATM    2  C7  UNL     1      -1.734  29.417  -7.827  1.00  0.00     0.097 A 
HETATM    3  N1  UNL     1      -2.206  28.902  -6.678  1.00  0.00    -0.351 N 
ATOM      4  H1  UNL     1      -2.136  27.928  -6.382  1.00  0.00     0.166 HD
HETATM    5  C8  UNL     1      -2.792  29.906  -5.987  1.00  0.00     0.113 A 
HETATM    6  C9  UNL     1      -2.678  31.072  -6.727  1.00  0.00    -0.006 A 
HETATM    7  C10 UNL     1      -3.186  32.410  -6.325  1.00  0.00     0.049 C 
HETATM    8  C11 UNL     1      -2.756  32.771  -4.916  1.00  0.00     0.076 C 
HETATM    9  C12 UNL     1      -3.539  32.060  -3.882  1.00  0.00     0.122 A 
HETATM   10  O2  UNL     1      -4.228  32.178  -2.773  1.00  0.00    -0.237 OA
HETATM   11  N2  UNL     1      -4.528  30.906  -2.642  1.00  0.00    -0.242 N 
ATOM     12  H2  UNL     1      -5.050  30.335  -1.978  1.00  0.00     0.196 HD
HETATM   13  C13 UNL     1      -3.846  30.699  -3.761  1.00  0.00     0.159 A 
HETATM   14  N3  UNL     1      -3.411  29.717  -4.698  1.00  0.00    -0.325 N 
ATOM     15  H3  UNL     1      -3.557  28.747  -4.419  1.00  0.00     0.169 HD
ENDROOT
BRANCH   1  16
HETATM   16  C5  UNL     1      -1.673  31.692  -8.975  1.00  0.00     0.043 C 
BRANCH  16  17
HETATM   17  C4  UNL     1      -0.822  30.907  -9.980  1.00  0.00     0.031 C 
BRANCH  17  18
HETATM   18  C3  UNL     1      -1.506  30.980 -11.355  1.00  0.00     0.167 C 
BRANCH  18  19
HETATM   19  O1  UNL     1      -1.900  29.706 -11.645  1.00  0.00    -0.391 OA
BRANCH  19  20
HETATM   20  C2  UNL     1      -3.149  29.531 -12.161  1.00  0.00     0.163 C 
HETATM   21  C1  UNL     1      -4.093  30.658 -11.975  1.00  0.00     0.033 C 
ENDBRANCH  19  20
ENDBRANCH  18  19
ENDBRANCH  17  18
ENDBRANCH  16  17
ENDBRANCH   1  16
TORSDOF 5
ENDMDL
MODEL 2
REMARK VINA RESULT: -6.339337286      1.432      2.083
REMARK  5 active torsions:
REMARK  status: ('A' for Active; 'I' for Inactive)
REMARK    1  A    between atoms: C2_2  and  O1_3 
REMARK    2  A    between atoms: O1_3  and  C3_4 
REMARK    3  A    between atoms: C3_4  and  C4_5 
REMARK    4  A    between atoms: C4_5  and  C5_6 
REMARK    5  A    between atoms: C5_6  and  C6_7 
ROOT
HETATM    1  C6  UNL     1      -1.851  29.937  -5.980  1.00  0.00    -0.033 A 
HETATM    2  C7  UNL     1      -2.798  28.954  -6.143  1.00  0.00     0.097 A 
HETATM    3  N1  UNL     1      -3.818  29.149  -5.288  1.00  0.00    -0.351 N 
ATOM      4  H1  UNL     1      -4.650  28.566  -5.200  1.00  0.00     0.166 HD
HETATM    5  C8  UNL     1      -3.540  30.258  -4.564  1.00  0.00     0.113 A 
HETATM    6  C9  UNL     1      -2.318  30.760  -4.983  1.00  0.00    -0.006 A 
HETATM    7  C10 UNL     1      -1.644  31.969  -4.441  1.00  0.00     0.049 C 
HETATM    8  C11 UNL     1      -1.583  31.944  -2.926  1.00  0.00     0.076 C 
HETATM    9  C12 UNL     1      -2.881  32.273  -2.299  1.00  0.00     0.122 A 
HETATM   10  O2  UNL     1      -3.496  33.002  -1.399  1.00  0.00    -0.237 OA
HETATM   11  N2  UNL     1      -4.704  32.539  -1.624  1.00  0.00    -0.242 N 
ATOM     12  H2  UNL     1      -5.639  32.701  -1.251  1.00  0.00     0.196 HD
HETATM   13  C13 UNL     1      -4.161  31.764  -2.555  1.00  0.00     0.159 A 
HETATM   14  N3  UNL     1      -4.419  30.770  -3.543  1.00  0.00    -0.325 N 
ATOM     15  H3  UNL     1      -5.356  30.366  -3.525  1.00  0.00     0.169 HD
ENDROOT
BRANCH   1  16
HETATM   16  C5  UNL     1      -0.593  30.091  -6.721  1.00  0.00     0.043 C 
BRANCH  16  17
HETATM   17  C4  UNL     1      -0.785  29.393  -8.072  1.00  0.00     0.031 C 
BRANCH  17  18
HETATM   18  C3  UNL     1      -1.130  30.460  -9.124  1.00  0.00     0.167 C 
BRANCH  18  19
HETATM   19  O1  UNL     1      -0.741  29.943 -10.325  1.00  0.00    -0.391 OA
BRANCH  19  20
HETATM   20  C2  UNL     1      -1.183  30.563 -11.456  1.00  0.00     0.163 C 
HETATM   21  C1  UNL     1      -2.653  30.623 -11.632  1.00  0.00     0.033 C 
ENDBRANCH  19  20
ENDBRANCH  18  19
ENDBRANCH  17  18
ENDBRANCH  16  17
ENDBRANCH   1  16
TORSDOF 5
ENDMDL
MODEL 3
REMARK VINA RESULT: -6.301684945      3.684      6.727
REMARK  5 active torsions:
REMARK  status: ('A' for Active; 'I' for Inactive)
REMARK    1  A    between atoms: C2_2  and  O1_3 
REMARK    2  A    between atoms: O1_3  and  C3_4 
REMARK    3  A    between atoms: C3_4  and  C4_5 
REMARK    4  A    between atoms: C4_5  and  C5_6 
REMARK    5  A    between atoms: C5_6  and  C6_7 
ROOT
HETATM    1  C6  UNL     1      -2.522  32.983  -2.217  1.00  0.00    -0.033 A 
HETATM    2  C7  UNL     1      -1.439  33.677  -2.702  1.00  0.00     0.097 A 
HETATM    3  N1  UNL     1      -1.070  33.179  -3.896  1.00  0.00    -0.351 N 
ATOM      4  H1  UNL     1      -0.296  33.510  -4.473  1.00  0.00     0.166 HD
HETATM    5  C8  UNL     1      -1.909  32.161  -4.194  1.00  0.00     0.113 A 
HETATM    6  C9  UNL     1      -2.819  32.027  -3.158  1.00  0.00    -0.006 A 
HETATM    7  C10 UNL     1      -3.913  31.022  -3.087  1.00  0.00     0.049 C 
HETATM    8  C11 UNL     1      -3.406  29.622  -3.377  1.00  0.00     0.076 C 
HETATM    9  C12 UNL     1      -3.162  29.391  -4.817  1.00  0.00     0.122 A 
HETATM   10  O2  UNL     1      -3.366  28.593  -5.837  1.00  0.00    -0.237 OA
HETATM   11  N2  UNL     1      -2.707  29.303  -6.723  1.00  0.00    -0.242 N 
ATOM     12  H2  UNL     1      -2.490  29.227  -7.716  1.00  0.00     0.196 HD
HETATM   13  C13 UNL     1      -2.453  30.164  -5.746  1.00  0.00     0.159 A 
HETATM   14  N3  UNL     1      -1.810  31.390  -5.408  1.00  0.00    -0.325 N 
ATOM     15  H3  UNL     1      -1.194  31.776  -6.125  1.00  0.00     0.169 HD
ENDROOT
BRANCH   1  16
HETATM   16  C5  UNL     1      -3.233  33.215  -0.953  1.00  0.00     0.043 C 
BRANCH  16  17
HETATM   17  C4  UNL     1      -3.821  34.629  -1.027  1.00  0.00     0.031 C 
BRANCH  17  18
HETATM   18  C3  UNL     1      -5.028  34.603  -1.978  1.00  0.00     0.167 C 
BRANCH  18  19
HETATM   19  O1  UNL     1      -4.992  35.783  -2.663  1.00  0.00    -0.391 OA
BRANCH  19  20
HETATM   20  C2  UNL     1      -4.284  35.818  -3.827  1.00  0.00     0.163 C 
HETATM   21  C1  UNL     1      -4.673  34.824  -4.855  1.00  0.00     0.033 C 
ENDBRANCH  19  20
ENDBRANCH  18  19
ENDBRANCH  17  18
ENDBRANCH  16  17
ENDBRANCH   1  16
TORSDOF 5
ENDMDL
MODEL 4
REMARK VINA RESULT: -6.151803482      2.311      3.588
REMARK  5 active torsions:
REMARK  status: ('A' for Active; 'I' for Inactive)
REMARK    1  A    between atoms: C2_2  and  O1_3 
REMARK    2  A    between atoms: O1_3  and  C3_4 
REMARK    3  A    between atoms: C3_4  and  C4_5 
REMARK    4  A    between atoms: C4_5  and  C5_6 
REMARK    5  A    between atoms: C5_6  and  C6_7 
ROOT
HETATM    1  C6  UNL     1      -3.113  30.262  -4.931  1.00  0.00    -0.033 A 
HETATM    2  C7  UNL     1      -3.199  29.819  -3.632  1.00  0.00     0.097 A 
HETATM    3  N1  UNL     1      -3.700  30.788  -2.846  1.00  0.00    -0.351 N 
ATOM      4  H1  UNL     1      -3.867  30.723  -1.842  1.00  0.00     0.166 HD
HETATM    5  C8  UNL     1      -3.942  31.866  -3.627  1.00  0.00     0.113 A 
HETATM    6  C9  UNL     1      -3.581  31.554  -4.928  1.00  0.00    -0.006 A 
HETATM    7  C10 UNL     1      -3.684  32.464  -6.100  1.00  0.00     0.049 C 
HETATM    8  C11 UNL     1      -3.065  33.818  -5.812  1.00  0.00     0.076 C 
HETATM    9  C12 UNL     1      -3.925  34.668  -4.961  1.00  0.00     0.122 A 
HETATM   10  O2  UNL     1      -4.471  35.850  -4.809  1.00  0.00    -0.237 OA
HETATM   11  N2  UNL     1      -5.085  35.593  -3.678  1.00  0.00    -0.242 N 
ATOM     12  H2  UNL     1      -5.687  36.103  -3.031  1.00  0.00     0.196 HD
HETATM   13  C13 UNL     1      -4.572  34.372  -3.754  1.00  0.00     0.159 A 
HETATM   14  N3  UNL     1      -4.487  33.100  -3.117  1.00  0.00    -0.325 N 
ATOM     15  H3  UNL     1      -4.863  33.056  -2.170  1.00  0.00     0.169 HD
ENDROOT
BRANCH   1  16
HETATM   16  C5  UNL     1      -2.627  29.513  -6.097  1.00  0.00     0.043 C 
BRANCH  16  17
HETATM   17  C4  UNL     1      -1.140  29.853  -6.255  1.00  0.00     0.031 C 
BRANCH  17  18
HETATM   18  C3  UNL     1      -0.756  29.671  -7.732  1.00  0.00     0.167 C 
BRANCH  18  19
HETATM   19  O1  UNL     1      -0.408  30.911  -8.184  1.00  0.00    -0.391 OA
BRANCH  19  20
HETATM   20  C2  UNL     1      -0.950  31.331  -9.362  1.00  0.00     0.163 C 
HETATM   21  C1  UNL     1      -2.429  31.292  -9.448  1.00  0.00     0.033 C 
ENDBRANCH  19  20
ENDBRANCH  18  19
ENDBRANCH  17  18
ENDBRANCH  16  17
ENDBRANCH   1  16
TORSDOF 5
ENDMDL
MODEL 5
REMARK VINA RESULT: -6.050441082      1.209      1.571
REMARK  5 active torsions:
REMARK  status: ('A' for Active; 'I' for Inactive)
REMARK    1  A    between atoms: C2_2  and  O1_3 
REMARK    2  A    between atoms: O1_3  and  C3_4 
REMARK    3  A    between atoms: C3_4  and  C4_5 
REMARK    4  A    between atoms: C4_5  and  C5_6 
REMARK    5  A    between atoms: C5_6  and  C6_7 
ROOT
HETATM    1  C6  UNL     1      -2.145  30.344  -6.439  1.00  0.00    -0.033 A 
HETATM    2  C7  UNL     1      -1.932  29.128  -5.833  1.00  0.00     0.097 A 
HETATM    3  N1  UNL     1      -2.449  29.134  -4.592  1.00  0.00    -0.351 N 
ATOM      4  H1  UNL     1      -2.428  28.360  -3.928  1.00  0.00     0.166 HD
HETATM    5  C8  UNL     1      -3.000  30.351  -4.382  1.00  0.00     0.113 A 
HETATM    6  C9  UNL     1      -2.819  31.116  -5.523  1.00  0.00    -0.006 A 
HETATM    7  C10 UNL     1      -3.273  32.520  -5.709  1.00  0.00     0.049 C 
HETATM    8  C11 UNL     1      -2.854  33.402  -4.549  1.00  0.00     0.076 C 
HETATM    9  C12 UNL     1      -3.687  33.194  -3.346  1.00  0.00     0.122 A 
HETATM   10  O2  UNL     1      -4.392  33.771  -2.402  1.00  0.00    -0.237 OA
HETATM   11  N2  UNL     1      -4.751  32.670  -1.783  1.00  0.00    -0.242 N 
ATOM     12  H2  UNL     1      -5.311  32.432  -0.965  1.00  0.00     0.196 HD
HETATM   13  C13 UNL     1      -4.058  32.007  -2.700  1.00  0.00     0.159 A 
HETATM   14  N3  UNL     1      -3.651  30.717  -3.149  1.00  0.00    -0.325 N 
ATOM     15  H3  UNL     1      -3.847  29.947  -2.510  1.00  0.00     0.169 HD
ENDROOT
BRANCH   1  16
HETATM   16  C5  UNL     1      -1.745  30.745  -7.793  1.00  0.00     0.043 C 
BRANCH  16  17
HETATM   17  C4  UNL     1      -1.765  29.478  -8.656  1.00  0.00     0.031 C 
BRANCH  17  18
HETATM   18  C3  UNL     1      -2.714  29.713  -9.842  1.00  0.00     0.167 C 
BRANCH  18  19
HETATM   19  O1  UNL     1      -1.919  29.802 -10.947  1.00  0.00    -0.391 OA
BRANCH  19  20
HETATM   20  C2  UNL     1      -2.495  30.217 -12.110  1.00  0.00     0.163 C 
HETATM   21  C1  UNL     1      -3.948  30.500 -12.052  1.00  0.00     0.033 C 
ENDBRANCH  19  20
ENDBRANCH  18  19
ENDBRANCH  17  18
ENDBRANCH  16  17
ENDBRANCH   1  16
TORSDOF 5
ENDMDL
