MODEL 1
REMARK VINA RESULT: -7.285798198      0.000      0.000
REMARK  7 active torsions:
REMARK  status: ('A' for Active; 'I' for Inactive)
REMARK    1  A    between atoms: N1_2  and  C3_4 
REMARK    2  A    between atoms: C3_4  and  C4_6 
REMARK    3  A    between atoms: C5_7  and  O1_8 
REMARK    4  A    between atoms: C6_12  and  S2_13 
REMARK    5  A    between atoms: S2_13  and  C7_14 
REMARK    6  A    between atoms: C7_14  and  C8_15 
REMARK    7  A    between atoms: C11_27  and  N8_28 
ROOT
HETATM    1  C8  UNL     1      57.054 -17.205  52.473  1.00  0.00     0.107 A 
HETATM    2  N3  UNL     1      57.182 -18.541  52.321  1.00  0.00    -0.286 N 
ATOM      3  H3  UNL     1      56.518 -19.146  51.838  1.00  0.00     0.188 HD
HETATM    4  N4  UNL     1      58.316 -18.945  52.902  1.00  0.00    -0.275 N 
ATOM      5  H4  UNL     1      58.659 -19.906  52.937  1.00  0.00     0.189 HD
HETATM    6  C9  UNL     1      58.928 -17.870  53.433  1.00  0.00     0.204 A 
HETATM    7  C10 UNL     1      60.188 -17.868  54.154  1.00  0.00     0.138 C 
HETATM    8  N5  UNL     1      61.200 -17.859  54.721  1.00  0.00    -0.188 NA
HETATM    9  N6  UNL     1      58.138 -16.811  53.160  1.00  0.00    -0.320 N 
ATOM     10  H6  UNL     1      58.337 -15.850  53.437  1.00  0.00     0.169 HD
ENDROOT
BRANCH   1  11
HETATM   11  C7  UNL     1      55.944 -16.347  51.983  1.00  0.00     0.160 C 
BRANCH  11  12
HETATM   12  S2  UNL     1      56.572 -14.837  51.180  1.00  0.00    -0.086 SA
BRANCH  12  13
HETATM   13  C6  UNL     1      55.992 -13.450  52.126  1.00  0.00     0.148 A 
HETATM   14  N2  UNL     1      56.424 -12.220  51.805  1.00  0.00    -0.317 N 
HETATM   15  C5  UNL     1      56.021 -11.130  52.484  1.00  0.00     0.159 A 
ATOM     16  H2  UNL     1      57.074 -12.109  51.027  1.00  0.00     0.170 HD
HETATM   17  C4  UNL     1      55.146 -11.305  53.527  1.00  0.00     0.096 A 
HETATM   18  C11 UNL     1      54.684 -12.579  53.877  1.00  0.00     0.118 A 
HETATM   19  N7  UNL     1      55.137 -13.636  53.142  1.00  0.00    -0.322 N 
ATOM     20  H7  UNL     1      54.822 -14.579  53.369  1.00  0.00     0.169 HD
BRANCH  15  21
HETATM   21  O1  UNL     1      56.458  -9.863  52.164  1.00  0.00    -0.345 OA
ATOM     22  H1  UNL     1      56.992  -9.379  52.783  1.00  0.00     0.219 HD
ENDBRANCH  15  21
BRANCH  17  23
HETATM   23  C3  UNL     1      54.696 -10.158  54.274  1.00  0.00     0.116 C 
HETATM   24  S1  UNL     1      53.380  -9.351  53.746  1.00  0.00    -0.059 SA
BRANCH  23  25
HETATM   25  N1  UNL     1      55.391  -9.742  55.454  1.00  0.00    -0.380 N 
HETATM   26  C1  UNL     1      56.746 -10.164  55.709  1.00  0.00     0.150 C 
HETATM   27  C2  UNL     1      54.729  -8.885  56.407  1.00  0.00     0.150 C 
ENDBRANCH  23  25
ENDBRANCH  17  23
BRANCH  18  28
HETATM   28  N8  UNL     1      53.863 -12.726  54.859  1.00  0.00    -0.385 N 
ATOM     29  H82 UNL     1      52.997 -13.259  54.769  1.00  0.00     0.157 HD
ATOM     30  H81 UNL     1      54.065 -12.306  55.766  1.00  0.00     0.157 HD
ENDBRANCH  18  28
ENDBRANCH  12  13
ENDBRANCH  11  12
ENDBRANCH   1  11
TORSDOF 7
ENDMDL
MODEL 2
REMARK VINA RESULT: -7.156400416      3.012      7.949
REMARK  7 active torsions:
REMARK  status: ('A' for Active; 'I' for Inactive)
REMARK    1  A    between atoms: N1_2  and  C3_4 
REMARK    2  A    between atoms: C3_4  and  C4_6 
REMARK    3  A    between atoms: C5_7  and  O1_8 
REMARK    4  A    between atoms: C6_12  and  S2_13 
REMARK    5  A    between atoms: S2_13  and  C7_14 
REMARK    6  A    between atoms: C7_14  and  C8_15 
REMARK    7  A    between atoms: C11_27  and  N8_28 
ROOT
HETATM    1  C8  UNL     1      56.669  -9.742  55.886  1.00  0.00     0.107 A 
HETATM    2  N3  UNL     1      55.551 -10.457  56.138  1.00  0.00    -0.286 N 
ATOM      3  H3  UNL     1      55.449 -11.461  55.996  1.00  0.00     0.188 HD
HETATM    4  N4  UNL     1      54.599  -9.641  56.602  1.00  0.00    -0.275 N 
ATOM      5  H4  UNL     1      53.655  -9.918  56.871  1.00  0.00     0.189 HD
HETATM    6  C9  UNL     1      55.098  -8.391  56.653  1.00  0.00     0.204 A 
HETATM    7  C10 UNL     1      54.395  -7.203  57.100  1.00  0.00     0.138 C 
HETATM    8  N5  UNL     1      53.842  -6.252  57.467  1.00  0.00    -0.188 NA
HETATM    9  N6  UNL     1      56.370  -8.473  56.209  1.00  0.00    -0.320 N 
ATOM     10  H6  UNL     1      57.012  -7.684  56.131  1.00  0.00     0.169 HD
ENDROOT
BRANCH   1  11
HETATM   11  C7  UNL     1      57.961 -10.251  55.359  1.00  0.00     0.160 C 
BRANCH  11  12
HETATM   12  S2  UNL     1      57.899 -10.494  53.555  1.00  0.00    -0.086 SA
BRANCH  12  13
HETATM   13  C6  UNL     1      57.717 -12.236  53.259  1.00  0.00     0.148 A 
HETATM   14  N2  UNL     1      57.288 -13.022  54.260  1.00  0.00    -0.317 N 
HETATM   15  C5  UNL     1      57.130 -14.349  54.098  1.00  0.00     0.159 A 
ATOM     16  H2  UNL     1      57.076 -12.603  55.165  1.00  0.00     0.170 HD
HETATM   17  C4  UNL     1      57.422 -14.890  52.870  1.00  0.00     0.096 A 
HETATM   18  C11 UNL     1      57.870 -14.087  51.815  1.00  0.00     0.118 A 
HETATM   19  N7  UNL     1      58.005 -12.750  52.055  1.00  0.00    -0.322 N 
ATOM     20  H7  UNL     1      58.330 -12.135  51.309  1.00  0.00     0.169 HD
BRANCH  15  21
HETATM   21  O1  UNL     1      56.691 -15.166  55.117  1.00  0.00    -0.345 OA
ATOM     22  H1  UNL     1      57.274 -15.823  55.479  1.00  0.00     0.219 HD
ENDBRANCH  15  21
BRANCH  17  23
HETATM   23  C3  UNL     1      57.264 -16.307  52.664  1.00  0.00     0.116 C 
HETATM   24  S1  UNL     1      58.525 -17.289  52.993  1.00  0.00    -0.059 SA
BRANCH  23  25
HETATM   25  N1  UNL     1      56.023 -16.836  52.183  1.00  0.00    -0.380 N 
HETATM   26  C1  UNL     1      55.824 -18.257  52.044  1.00  0.00     0.150 C 
HETATM   27  C2  UNL     1      54.953 -15.935  51.830  1.00  0.00     0.150 C 
ENDBRANCH  23  25
ENDBRANCH  17  23
BRANCH  18  28
HETATM   28  N8  UNL     1      58.140 -14.610  50.669  1.00  0.00    -0.385 N 
ATOM     29  H82 UNL     1      57.425 -14.755  49.956  1.00  0.00     0.157 HD
ATOM     30  H81 UNL     1      59.093 -14.895  50.445  1.00  0.00     0.157 HD
ENDBRANCH  18  28
ENDBRANCH  12  13
ENDBRANCH  11  12
ENDBRANCH   1  11
TORSDOF 7
ENDMDL
MODEL 3
REMARK VINA RESULT: -7.150461474      1.423      1.976
REMARK  7 active torsions:
REMARK  status: ('A' for Active; 'I' for Inactive)
REMARK    1  A    between atoms: N1_2  and  C3_4 
REMARK    2  A    between atoms: C3_4  and  C4_6 
REMARK    3  A    between atoms: C5_7  and  O1_8 
REMARK    4  A    between atoms: C6_12  and  S2_13 
REMARK    5  A    between atoms: S2_13  and  C7_14 
REMARK    6  A    between atoms: C7_14  and  C8_15 
REMARK    7  A    between atoms: C11_27  and  N8_28 
ROOT
HETATM    1  C8  UNL     1      57.283 -16.910  51.839  1.00  0.00     0.107 A 
HETATM    2  N3  UNL     1      57.004 -18.208  52.087  1.00  0.00    -0.286 N 
ATOM      3  H3  UNL     1      56.206 -18.721  51.713  1.00  0.00     0.188 HD
HETATM    4  N4  UNL     1      57.937 -18.714  52.899  1.00  0.00    -0.275 N 
ATOM      5  H4  UNL     1      57.969 -19.673  53.247  1.00  0.00     0.189 HD
HETATM    6  C9  UNL     1      58.827 -17.744  53.181  1.00  0.00     0.204 A 
HETATM    7  C10 UNL     1      59.999 -17.872  54.027  1.00  0.00     0.138 C 
HETATM    8  N5  UNL     1      60.943 -17.973  54.694  1.00  0.00    -0.188 NA
HETATM    9  N6  UNL     1      58.409 -16.644  52.522  1.00  0.00    -0.320 N 
ATOM     10  H6  UNL     1      58.880 -15.739  52.539  1.00  0.00     0.169 HD
ENDROOT
BRANCH   1  11
HETATM   11  C7  UNL     1      56.508 -15.970  50.989  1.00  0.00     0.160 C 
BRANCH  11  12
HETATM   12  S2  UNL     1      54.970 -15.441  51.810  1.00  0.00    -0.086 SA
BRANCH  12  13
HETATM   13  C6  UNL     1      55.243 -13.806  52.448  1.00  0.00     0.148 A 
HETATM   14  N2  UNL     1      54.591 -13.427  53.559  1.00  0.00    -0.317 N 
HETATM   15  C5  UNL     1      54.756 -12.201  54.091  1.00  0.00     0.159 A 
ATOM     16  H2  UNL     1      53.956 -14.084  54.012  1.00  0.00     0.170 HD
HETATM   17  C4  UNL     1      55.616 -11.334  53.464  1.00  0.00     0.096 A 
HETATM   18  C11 UNL     1      56.305 -11.711  52.305  1.00  0.00     0.118 A 
HETATM   19  N7  UNL     1      56.086 -12.970  51.825  1.00  0.00    -0.322 N 
ATOM     20  H7  UNL     1      56.571 -13.279  50.983  1.00  0.00     0.169 HD
BRANCH  15  21
HETATM   21  O1  UNL     1      54.093 -11.800  55.230  1.00  0.00    -0.345 OA
ATOM     22  H1  UNL     1      53.172 -12.007  55.337  1.00  0.00     0.219 HD
ENDBRANCH  15  21
BRANCH  17  23
HETATM   23  C3  UNL     1      55.814 -10.015  54.008  1.00  0.00     0.116 C 
HETATM   24  S1  UNL     1      54.843  -8.806  53.499  1.00  0.00    -0.059 SA
BRANCH  23  25
HETATM   25  N1  UNL     1      56.843  -9.776  54.975  1.00  0.00    -0.380 N 
HETATM   26  C1  UNL     1      57.721 -10.835  55.406  1.00  0.00     0.150 C 
HETATM   27  C2  UNL     1      57.006  -8.454  55.530  1.00  0.00     0.150 C 
ENDBRANCH  23  25
ENDBRANCH  17  23
BRANCH  18  28
HETATM   28  N8  UNL     1      57.108 -10.886  51.728  1.00  0.00    -0.385 N 
ATOM     29  H82 UNL     1      56.863  -9.908  51.571  1.00  0.00     0.157 HD
ATOM     30  H81 UNL     1      58.026 -11.198  51.411  1.00  0.00     0.157 HD
ENDBRANCH  18  28
ENDBRANCH  12  13
ENDBRANCH  11  12
ENDBRANCH   1  11
TORSDOF 7
ENDMDL
MODEL 4
REMARK VINA RESULT: -7.140581488      2.166      2.571
REMARK  7 active torsions:
REMARK  status: ('A' for Active; 'I' for Inactive)
REMARK    1  A    between atoms: N1_2  and  C3_4 
REMARK    2  A    between atoms: C3_4  and  C4_6 
REMARK    3  A    between atoms: C5_7  and  O1_8 
REMARK    4  A    between atoms: C6_12  and  S2_13 
REMARK    5  A    between atoms: S2_13  and  C7_14 
REMARK    6  A    between atoms: C7_14  and  C8_15 
REMARK    7  A    between atoms: C11_27  and  N8_28 
ROOT
HETATM    1  C8  UNL     1      56.217 -17.998  51.538  1.00  0.00     0.107 A 
HETATM    2  N3  UNL     1      56.144 -19.224  52.101  1.00  0.00    -0.286 N 
ATOM      3  H3  UNL     1      55.378 -19.885  51.975  1.00  0.00     0.188 HD
HETATM    4  N4  UNL     1      57.232 -19.433  52.849  1.00  0.00    -0.275 N 
ATOM      5  H4  UNL     1      57.433 -20.276  53.386  1.00  0.00     0.189 HD
HETATM    6  C9  UNL     1      58.016 -18.341  52.772  1.00  0.00     0.204 A 
HETATM    7  C10 UNL     1      59.294 -18.154  53.434  1.00  0.00     0.138 C 
HETATM    8  N5  UNL     1      60.321 -18.003  53.952  1.00  0.00    -0.188 NA
HETATM    9  N6  UNL     1      57.377 -17.471  51.964  1.00  0.00    -0.320 N 
ATOM     10  H6  UNL     1      57.725 -16.546  51.712  1.00  0.00     0.169 HD
ENDROOT
BRANCH   1  11
HETATM   11  C7  UNL     1      55.223 -17.362  50.636  1.00  0.00     0.160 C 
BRANCH  11  12
HETATM   12  S2  UNL     1      54.011 -16.373  51.569  1.00  0.00    -0.086 SA
BRANCH  12  13
HETATM   13  C6  UNL     1      54.831 -14.889  52.100  1.00  0.00     0.148 A 
HETATM   14  N2  UNL     1      55.680 -14.954  53.137  1.00  0.00    -0.317 N 
HETATM   15  C5  UNL     1      56.331 -13.864  53.585  1.00  0.00     0.159 A 
ATOM     16  H2  UNL     1      55.836 -15.850  53.597  1.00  0.00     0.170 HD
HETATM   17  C4  UNL     1      56.105 -12.668  52.950  1.00  0.00     0.096 A 
HETATM   18  C11 UNL     1      55.224 -12.581  51.866  1.00  0.00     0.118 A 
HETATM   19  N7  UNL     1      54.600 -13.728  51.469  1.00  0.00    -0.322 N 
ATOM     20  H7  UNL     1      53.951 -13.702  50.683  1.00  0.00     0.169 HD
BRANCH  15  21
HETATM   21  O1  UNL     1      57.205 -13.918  54.649  1.00  0.00    -0.345 OA
ATOM     22  H1  UNL     1      57.333 -13.149  55.193  1.00  0.00     0.219 HD
ENDBRANCH  15  21
BRANCH  17  23
HETATM   23  C3  UNL     1      56.787 -11.484  53.406  1.00  0.00     0.116 C 
HETATM   24  S1  UNL     1      58.110 -10.983  52.593  1.00  0.00    -0.059 SA
BRANCH  23  25
HETATM   25  N1  UNL     1      56.308 -10.765  54.548  1.00  0.00    -0.380 N 
HETATM   26  C1  UNL     1      54.903 -10.491  54.720  1.00  0.00     0.150 C 
HETATM   27  C2  UNL     1      57.244 -10.306  55.545  1.00  0.00     0.150 C 
ENDBRANCH  23  25
ENDBRANCH  17  23
BRANCH  18  28
HETATM   28  N8  UNL     1      55.022 -11.451  51.281  1.00  0.00    -0.385 N 
ATOM     29  H82 UNL     1      55.139 -10.560  51.764  1.00  0.00     0.157 HD
ATOM     30  H81 UNL     1      54.736 -11.422  50.303  1.00  0.00     0.157 HD
ENDBRANCH  18  28
ENDBRANCH  12  13
ENDBRANCH  11  12
ENDBRANCH   1  11
TORSDOF 7
ENDMDL
MODEL 5
REMARK VINA RESULT: -7.121126102      1.083      1.083
REMARK  7 active torsions:
REMARK  status: ('A' for Active; 'I' for Inactive)
REMARK    1  A    between atoms: N1_2  and  C3_4 
REMARK    2  A    between atoms: C3_4  and  C4_6 
REMARK    3  A    between atoms: C5_7  and  O1_8 
REMARK    4  A    between atoms: C6_12  and  S2_13 
REMARK    5  A    between atoms: S2_13  and  C7_14 
REMARK    6  A    between atoms: C7_14  and  C8_15 
REMARK    7  A    between atoms: C11_27  and  N8_28 
ROOT
HETATM    1  C8  UNL     1      57.289 -16.901  51.826  1.00  0.00     0.107 A 
HETATM    2  N3  UNL     1      57.028 -18.208  52.046  1.00  0.00    -0.286 N 
ATOM      3  H3  UNL     1      56.241 -18.725  51.656  1.00  0.00     0.188 HD
HETATM    4  N4  UNL     1      57.964 -18.717  52.853  1.00  0.00    -0.275 N 
ATOM      5  H4  UNL     1      58.009 -19.682  53.181  1.00  0.00     0.189 HD
HETATM    6  C9  UNL     1      58.837 -17.739  53.161  1.00  0.00     0.204 A 
HETATM    7  C10 UNL     1      60.006 -17.868  54.013  1.00  0.00     0.138 C 
HETATM    8  N5  UNL     1      60.947 -17.967  54.683  1.00  0.00    -0.188 NA
HETATM    9  N6  UNL     1      58.407 -16.632  52.522  1.00  0.00    -0.320 N 
ATOM     10  H6  UNL     1      58.864 -15.721  52.561  1.00  0.00     0.169 HD
ENDROOT
BRANCH   1  11
HETATM   11  C7  UNL     1      56.505 -15.955  50.991  1.00  0.00     0.160 C 
BRANCH  11  12
HETATM   12  S2  UNL     1      54.949 -15.476  51.807  1.00  0.00    -0.086 SA
BRANCH  12  13
HETATM   13  C6  UNL     1      55.175 -13.840  52.464  1.00  0.00     0.148 A 
HETATM   14  N2  UNL     1      56.027 -13.006  51.847  1.00  0.00    -0.317 N 
HETATM   15  C5  UNL     1      56.240 -11.756  52.296  1.00  0.00     0.159 A 
ATOM     16  H2  UNL     1      56.525 -13.329  51.018  1.00  0.00     0.170 HD
HETATM   17  C4  UNL     1      55.559 -11.345  53.415  1.00  0.00     0.096 A 
HETATM   18  C11 UNL     1      54.665 -12.199  54.071  1.00  0.00     0.118 A 
HETATM   19  N7  UNL     1      54.501 -13.453  53.557  1.00  0.00    -0.322 N 
ATOM     20  H7  UNL     1      53.859 -14.103  54.009  1.00  0.00     0.169 HD
BRANCH  15  21
HETATM   21  O1  UNL     1      57.112 -10.891  51.672  1.00  0.00    -0.345 OA
ATOM     22  H1  UNL     1      58.050 -11.024  51.758  1.00  0.00     0.219 HD
ENDBRANCH  15  21
BRANCH  17  23
HETATM   23  C3  UNL     1      55.765 -10.012  53.921  1.00  0.00     0.116 C 
HETATM   24  S1  UNL     1      54.815  -8.808  53.361  1.00  0.00    -0.059 SA
BRANCH  23  25
HETATM   25  N1  UNL     1      56.782  -9.755  54.895  1.00  0.00    -0.380 N 
HETATM   26  C1  UNL     1      57.677 -10.798  55.331  1.00  0.00     0.150 C 
HETATM   27  C2  UNL     1      56.918  -8.431  55.452  1.00  0.00     0.150 C 
ENDBRANCH  23  25
ENDBRANCH  17  23
BRANCH  18  28
HETATM   28  N8  UNL     1      54.033 -11.799  55.120  1.00  0.00    -0.385 N 
ATOM     29  H82 UNL     1      54.063 -10.829  55.435  1.00  0.00     0.157 HD
ATOM     30  H81 UNL     1      53.478 -12.455  55.668  1.00  0.00     0.157 HD
ENDBRANCH  18  28
ENDBRANCH  12  13
ENDBRANCH  11  12
ENDBRANCH   1  11
TORSDOF 7
ENDMDL
