MODEL 1
REMARK VINA RESULT: -8.992063771      0.000      0.000
REMARK  6 active torsions:
REMARK  status: ('A' for Active; 'I' for Inactive)
REMARK    1  A    between atoms: C2_5  and  N3_6 
REMARK    2  A    between atoms: C2_5  and  C8_19 
REMARK    3  A    between atoms: N3_6  and  N4_8 
REMARK    4  A    between atoms: C3_10  and  C4_11 
REMARK    5  A    between atoms: C7_14  and  N5_15 
REMARK    6  A    between atoms: C9_20  and  O4_21 
ROOT
HETATM    1  N1  UNL     1      59.814 -10.167  52.027  1.00  0.00    -0.172 NA
HETATM    2  C1  UNL     1      59.064 -11.063  51.874  1.00  0.00     0.183 C 
HETATM    3  N2  UNL     1      58.177 -12.121  51.670  1.00  0.00    -0.277 N 
ATOM      4  H2  UNL     1      57.708 -12.222  50.770  1.00  0.00     0.179 HD
HETATM    5  C2  UNL     1      57.949 -12.964  52.604  1.00  0.00     0.149 C 
ENDROOT
BRANCH   5   6
HETATM    6  N3  UNL     1      58.607 -12.805  53.835  1.00  0.00    -0.284 N 
ATOM      7  H3  UNL     1      59.081 -13.605  54.255  1.00  0.00     0.188 HD
BRANCH   6   8
HETATM    8  N4  UNL     1      58.626 -11.584  54.492  1.00  0.00    -0.308 N 
HETATM    9  C3  UNL     1      57.664 -11.139  55.217  1.00  0.00     0.144 C 
ATOM     10  H4  UNL     1      59.457 -11.002  54.394  1.00  0.00     0.186 HD
BRANCH   9  11
HETATM   11  C4  UNL     1      57.805  -9.838  55.855  1.00  0.00     0.095 A 
HETATM   12  C5  UNL     1      56.789  -8.910  56.055  1.00  0.00     0.043 A 
HETATM   13  C6  UNL     1      57.340  -7.824  56.685  1.00  0.00     0.065 A 
HETATM   14  C7  UNL     1      58.680  -8.130  56.848  1.00  0.00     0.215 A 
HETATM   15  O3  UNL     1      58.902  -9.311  56.350  1.00  0.00    -0.287 OA
BRANCH  14  16
HETATM   16  N5  UNL     1      59.641  -7.295  57.456  1.00  0.00    -0.090 N 
HETATM   17  O1  UNL     1      60.852  -7.478  57.251  1.00  0.00    -0.530 OA
HETATM   18  O2  UNL     1      59.257  -6.278  58.275  1.00  0.00    -0.530 OA
ENDBRANCH  14  16
ENDBRANCH   9  11
ENDBRANCH   6   8
ENDBRANCH   5   6
BRANCH   5  19
HETATM   19  C8  UNL     1      57.018 -14.050  52.348  1.00  0.00     0.129 A 
HETATM   20  C9  UNL     1      57.365 -15.207  51.683  1.00  0.00     0.163 A 
HETATM   21  N6  UNL     1      56.488 -16.196  51.458  1.00  0.00    -0.288 N 
HETATM   22  C10 UNL     1      55.216 -16.107  51.876  1.00  0.00     0.329 A 
ATOM     23  H6  UNL     1      56.793 -17.032  50.960  1.00  0.00     0.172 HD
HETATM   24  O5  UNL     1      54.380 -17.051  51.662  1.00  0.00    -0.247 OA
HETATM   25  N7  UNL     1      54.846 -14.992  52.529  1.00  0.00    -0.275 N 
HETATM   26  C11 UNL     1      55.699 -13.984  52.769  1.00  0.00     0.267 A 
ATOM     27  H7  UNL     1      53.882 -14.909  52.853  1.00  0.00     0.173 HD
HETATM   28  O6  UNL     1      55.361 -12.930  53.381  1.00  0.00    -0.267 OA
BRANCH  20  29
HETATM   29  O4  UNL     1      58.700 -15.301  51.244  1.00  0.00    -0.345 OA
ATOM     30  H4  UNL     1      59.358 -14.903  51.802  1.00  0.00     0.219 HD
ENDBRANCH  20  29
ENDBRANCH   5  19
TORSDOF 6
ENDMDL
MODEL 2
REMARK VINA RESULT: -8.987870691      2.461      8.319
REMARK  6 active torsions:
REMARK  status: ('A' for Active; 'I' for Inactive)
REMARK    1  A    between atoms: C2_5  and  N3_6 
REMARK    2  A    between atoms: C2_5  and  C8_19 
REMARK    3  A    between atoms: N3_6  and  N4_8 
REMARK    4  A    between atoms: C3_10  and  C4_11 
REMARK    5  A    between atoms: C7_14  and  N5_15 
REMARK    6  A    between atoms: C9_20  and  O4_21 
ROOT
HETATM    1  N1  UNL     1      52.015 -12.238  54.558  1.00  0.00    -0.172 NA
HETATM    2  C1  UNL     1      52.989 -11.723  54.975  1.00  0.00     0.183 C 
HETATM    3  N2  UNL     1      54.137 -11.116  55.488  1.00  0.00    -0.277 N 
ATOM      4  H2  UNL     1      54.155 -10.810  56.461  1.00  0.00     0.179 HD
HETATM    5  C2  UNL     1      55.165 -10.943  54.748  1.00  0.00     0.149 C 
ENDROOT
BRANCH   5   6
HETATM    6  N3  UNL     1      55.117 -11.373  53.411  1.00  0.00    -0.284 N 
ATOM      7  H3  UNL     1      55.009 -10.683  52.668  1.00  0.00     0.188 HD
BRANCH   6   8
HETATM    8  N4  UNL     1      55.213 -12.717  53.080  1.00  0.00    -0.308 N 
HETATM    9  C3  UNL     1      55.895 -13.170  52.091  1.00  0.00     0.144 C 
ATOM     10  H4  UNL     1      54.710 -13.388  53.660  1.00  0.00     0.186 HD
BRANCH   9  11
HETATM   11  C4  UNL     1      55.916 -14.604  51.847  1.00  0.00     0.095 A 
HETATM   12  C5  UNL     1      56.976 -15.328  51.313  1.00  0.00     0.043 A 
HETATM   13  C6  UNL     1      56.588 -16.642  51.248  1.00  0.00     0.065 A 
HETATM   14  C7  UNL     1      55.298 -16.672  51.747  1.00  0.00     0.215 A 
HETATM   15  O3  UNL     1      54.951 -15.464  52.082  1.00  0.00    -0.287 OA
BRANCH  14  16
HETATM   16  N5  UNL     1      54.496 -17.827  51.869  1.00  0.00    -0.090 N 
HETATM   17  O1  UNL     1      53.334 -17.834  51.433  1.00  0.00    -0.530 OA
HETATM   18  O2  UNL     1      54.983 -18.949  52.467  1.00  0.00    -0.530 OA
ENDBRANCH  14  16
ENDBRANCH   9  11
ENDBRANCH   6   8
ENDBRANCH   5   6
BRANCH   5  19
HETATM   19  C8  UNL     1      56.338 -10.307  55.324  1.00  0.00     0.129 A 
HETATM   20  C9  UNL     1      57.565 -10.926  55.421  1.00  0.00     0.163 A 
HETATM   21  N6  UNL     1      58.635 -10.320  55.958  1.00  0.00    -0.288 N 
HETATM   22  C10 UNL     1      58.559  -9.066  56.430  1.00  0.00     0.329 A 
ATOM     23  H6  UNL     1      59.522 -10.821  56.008  1.00  0.00     0.172 HD
HETATM   24  O5  UNL     1      59.580  -8.488  56.941  1.00  0.00    -0.247 OA
HETATM   25  N7  UNL     1      57.376  -8.434  56.349  1.00  0.00    -0.275 N 
HETATM   26  C11 UNL     1      56.287  -9.014  55.819  1.00  0.00     0.267 A 
ATOM     27  H7  UNL     1      57.302  -7.481  56.704  1.00  0.00     0.173 HD
HETATM   28  O6  UNL     1      55.169  -8.429  55.739  1.00  0.00    -0.267 OA
BRANCH  20  29
HETATM   29  O4  UNL     1      57.646 -12.242  54.925  1.00  0.00    -0.345 OA
ATOM     30  H4  UNL     1      58.400 -12.752  55.198  1.00  0.00     0.219 HD
ENDBRANCH  20  29
ENDBRANCH   5  19
TORSDOF 6
ENDMDL
MODEL 3
REMARK VINA RESULT: -8.944516206      2.432      8.474
REMARK  6 active torsions:
REMARK  status: ('A' for Active; 'I' for Inactive)
REMARK    1  A    between atoms: C2_5  and  N3_6 
REMARK    2  A    between atoms: C2_5  and  C8_19 
REMARK    3  A    between atoms: N3_6  and  N4_8 
REMARK    4  A    between atoms: C3_10  and  C4_11 
REMARK    5  A    between atoms: C7_14  and  N5_15 
REMARK    6  A    between atoms: C9_20  and  O4_21 
ROOT
HETATM    1  N1  UNL     1      52.157 -12.331  54.556  1.00  0.00    -0.172 NA
HETATM    2  C1  UNL     1      53.112 -11.785  54.980  1.00  0.00     0.183 C 
HETATM    3  N2  UNL     1      54.235 -11.143  55.503  1.00  0.00    -0.277 N 
ATOM      4  H2  UNL     1      54.235 -10.834  56.475  1.00  0.00     0.179 HD
HETATM    5  C2  UNL     1      55.264 -10.939  54.772  1.00  0.00     0.149 C 
ENDROOT
BRANCH   5   6
HETATM    6  N3  UNL     1      55.242 -11.373  53.435  1.00  0.00    -0.284 N 
ATOM      7  H3  UNL     1      55.160 -10.685  52.688  1.00  0.00     0.188 HD
BRANCH   6   8
HETATM    8  N4  UNL     1      55.329 -12.719  53.111  1.00  0.00    -0.308 N 
HETATM    9  C3  UNL     1      55.908 -13.172  52.058  1.00  0.00     0.144 C 
ATOM     10  H4  UNL     1      54.907 -13.392  53.750  1.00  0.00     0.186 HD
BRANCH   9  11
HETATM   11  C4  UNL     1      55.932 -14.609  51.829  1.00  0.00     0.095 A 
HETATM   12  C5  UNL     1      56.993 -15.336  51.302  1.00  0.00     0.043 A 
HETATM   13  C6  UNL     1      56.608 -16.651  51.251  1.00  0.00     0.065 A 
HETATM   14  C7  UNL     1      55.318 -16.679  51.752  1.00  0.00     0.215 A 
HETATM   15  O3  UNL     1      54.969 -15.469  52.075  1.00  0.00    -0.287 OA
BRANCH  14  16
HETATM   16  N5  UNL     1      54.519 -17.834  51.888  1.00  0.00    -0.090 N 
HETATM   17  O1  UNL     1      53.351 -17.843  51.467  1.00  0.00    -0.530 OA
HETATM   18  O2  UNL     1      55.015 -18.954  52.482  1.00  0.00    -0.530 OA
ENDBRANCH  14  16
ENDBRANCH   9  11
ENDBRANCH   6   8
ENDBRANCH   5   6
BRANCH   5  19
HETATM   19  C8  UNL     1      56.411 -10.266  55.357  1.00  0.00     0.129 A 
HETATM   20  C9  UNL     1      56.345  -9.017  55.936  1.00  0.00     0.163 A 
HETATM   21  N6  UNL     1      57.419  -8.416  56.470  1.00  0.00    -0.288 N 
HETATM   22  C10 UNL     1      58.622  -9.009  56.467  1.00  0.00     0.329 A 
ATOM     23  H6  UNL     1      57.319  -7.489  56.885  1.00  0.00     0.172 HD
HETATM   24  O5  UNL     1      59.646  -8.435  56.976  1.00  0.00    -0.247 OA
HETATM   25  N7  UNL     1      58.720 -10.229  55.911  1.00  0.00    -0.275 N 
HETATM   26  C11 UNL     1      57.665 -10.857  55.367  1.00  0.00     0.267 A 
ATOM     27  H7  UNL     1      59.628 -10.693  55.900  1.00  0.00     0.173 HD
HETATM   28  O6  UNL     1      57.746 -12.003  54.840  1.00  0.00    -0.267 OA
BRANCH  20  29
HETATM   29  O4  UNL     1      55.082  -8.394  55.940  1.00  0.00    -0.345 OA
ATOM     30  H4  UNL     1      55.030  -7.540  55.526  1.00  0.00     0.219 HD
ENDBRANCH  20  29
ENDBRANCH   5  19
TORSDOF 6
ENDMDL
MODEL 4
REMARK VINA RESULT: -8.886768163      2.315      2.983
REMARK  6 active torsions:
REMARK  status: ('A' for Active; 'I' for Inactive)
REMARK    1  A    between atoms: C2_5  and  N3_6 
REMARK    2  A    between atoms: C2_5  and  C8_19 
REMARK    3  A    between atoms: N3_6  and  N4_8 
REMARK    4  A    between atoms: C3_10  and  C4_11 
REMARK    5  A    between atoms: C7_14  and  N5_15 
REMARK    6  A    between atoms: C9_20  and  O4_21 
ROOT
HETATM    1  N1  UNL     1      53.607 -11.304  51.390  1.00  0.00    -0.172 NA
HETATM    2  C1  UNL     1      54.283 -12.264  51.481  1.00  0.00     0.183 C 
HETATM    3  N2  UNL     1      55.091 -13.399  51.567  1.00  0.00    -0.277 N 
ATOM      4  H2  UNL     1      55.388 -13.875  50.715  1.00  0.00     0.179 HD
HETATM    5  C2  UNL     1      55.462 -13.845  52.707  1.00  0.00     0.149 C 
ENDROOT
BRANCH   5   6
HETATM    6  N3  UNL     1      55.042 -13.172  53.867  1.00  0.00    -0.284 N 
ATOM      7  H3  UNL     1      54.218 -13.506  54.367  1.00  0.00     0.188 HD
BRANCH   6   8
HETATM    8  N4  UNL     1      55.724 -12.064  54.347  1.00  0.00    -0.308 N 
HETATM    9  C3  UNL     1      55.154 -11.000  54.785  1.00  0.00     0.144 C 
ATOM     10  H4  UNL     1      56.743 -12.097  54.353  1.00  0.00     0.186 HD
BRANCH   9  11
HETATM   11  C4  UNL     1      55.983  -9.903  55.262  1.00  0.00     0.095 A 
HETATM   12  C5  UNL     1      55.900  -8.577  54.852  1.00  0.00     0.043 A 
HETATM   13  C6  UNL     1      56.854  -7.871  55.541  1.00  0.00     0.065 A 
HETATM   14  C7  UNL     1      57.487  -8.798  56.350  1.00  0.00     0.215 A 
HETATM   15  O3  UNL     1      56.947  -9.964  56.153  1.00  0.00    -0.287 OA
BRANCH  14  16
HETATM   16  N5  UNL     1      58.545  -8.517  57.241  1.00  0.00    -0.090 N 
HETATM   17  O1  UNL     1      59.722  -8.550  56.848  1.00  0.00    -0.530 OA
HETATM   18  O2  UNL     1      58.292  -8.205  58.541  1.00  0.00    -0.530 OA
ENDBRANCH  14  16
ENDBRANCH   9  11
ENDBRANCH   6   8
ENDBRANCH   5   6
BRANCH   5  19
HETATM   19  C8  UNL     1      56.303 -15.029  52.750  1.00  0.00     0.129 A 
HETATM   20  C9  UNL     1      57.582 -15.034  53.264  1.00  0.00     0.163 A 
HETATM   21  N6  UNL     1      58.340 -16.140  53.293  1.00  0.00    -0.288 N 
HETATM   22  C10 UNL     1      57.883 -17.309  52.818  1.00  0.00     0.329 A 
ATOM     23  H6  UNL     1      59.282 -16.091  53.682  1.00  0.00     0.172 HD
HETATM   24  O5  UNL     1      58.607 -18.364  52.846  1.00  0.00    -0.247 OA
HETATM   25  N7  UNL     1      56.639 -17.338  52.311  1.00  0.00    -0.275 N 
HETATM   26  C11 UNL     1      55.856 -16.249  52.266  1.00  0.00     0.267 A 
ATOM     27  H7  UNL     1      56.278 -18.219  51.946  1.00  0.00     0.173 HD
HETATM   28  O6  UNL     1      54.685 -16.265  51.791  1.00  0.00    -0.267 OA
BRANCH  20  29
HETATM   29  O4  UNL     1      58.062 -13.807  53.763  1.00  0.00    -0.345 OA
ATOM     30  H4  UNL     1      57.770 -13.024  53.312  1.00  0.00     0.219 HD
ENDBRANCH  20  29
ENDBRANCH   5  19
TORSDOF 6
ENDMDL
MODEL 5
REMARK VINA RESULT: -8.791140094      3.637      7.724
REMARK  6 active torsions:
REMARK  status: ('A' for Active; 'I' for Inactive)
REMARK    1  A    between atoms: C2_5  and  N3_6 
REMARK    2  A    between atoms: C2_5  and  C8_19 
REMARK    3  A    between atoms: N3_6  and  N4_8 
REMARK    4  A    between atoms: C3_10  and  C4_11 
REMARK    5  A    between atoms: C7_14  and  N5_15 
REMARK    6  A    between atoms: C9_20  and  O4_21 
ROOT
HETATM    1  N1  UNL     1      55.453 -19.076  51.939  1.00  0.00    -0.172 NA
HETATM    2  C1  UNL     1      56.092 -18.101  52.115  1.00  0.00     0.183 C 
HETATM    3  N2  UNL     1      56.866 -16.957  52.315  1.00  0.00    -0.277 N 
ATOM      4  H2  UNL     1      57.883 -17.030  52.325  1.00  0.00     0.179 HD
HETATM    5  C2  UNL     1      56.308 -15.819  52.485  1.00  0.00     0.149 C 
ENDROOT
BRANCH   5   6
HETATM    6  N3  UNL     1      54.905 -15.743  52.466  1.00  0.00    -0.284 N 
ATOM      7  H3  UNL     1      54.360 -16.447  52.965  1.00  0.00     0.188 HD
BRANCH   6   8
HETATM    8  N4  UNL     1      54.244 -14.732  51.785  1.00  0.00    -0.308 N 
HETATM    9  C3  UNL     1      54.340 -14.532  50.520  1.00  0.00     0.144 C 
ATOM     10  H4  UNL     1      53.645 -14.107  52.323  1.00  0.00     0.186 HD
BRANCH   9  11
HETATM   11  C4  UNL     1      53.596 -13.433  49.922  1.00  0.00     0.095 A 
HETATM   12  C5  UNL     1      52.421 -12.876  50.415  1.00  0.00     0.043 A 
HETATM   13  C6  UNL     1      52.049 -11.872  49.559  1.00  0.00     0.065 A 
HETATM   14  C7  UNL     1      53.015 -11.852  48.569  1.00  0.00     0.215 A 
HETATM   15  O3  UNL     1      53.893 -12.777  48.823  1.00  0.00    -0.287 OA
BRANCH  14  16
HETATM   16  N5  UNL     1      53.038 -10.971  47.467  1.00  0.00    -0.090 N 
HETATM   17  O1  UNL     1      54.053 -10.299  47.221  1.00  0.00    -0.530 OA
HETATM   18  O2  UNL     1      51.951 -10.843  46.658  1.00  0.00    -0.530 OA
ENDBRANCH  14  16
ENDBRANCH   9  11
ENDBRANCH   6   8
ENDBRANCH   5   6
BRANCH   5  19
HETATM   19  C8  UNL     1      57.152 -14.655  52.689  1.00  0.00     0.129 A 
HETATM   20  C9  UNL     1      57.272 -14.007  53.901  1.00  0.00     0.163 A 
HETATM   21  N6  UNL     1      58.058 -12.933  54.066  1.00  0.00    -0.288 N 
HETATM   22  C10 UNL     1      58.774 -12.431  53.047  1.00  0.00     0.329 A 
ATOM     23  H6  UNL     1      58.111 -12.488  54.982  1.00  0.00     0.172 HD
HETATM   24  O5  UNL     1      59.523 -11.407  53.206  1.00  0.00    -0.247 OA
HETATM   25  N7  UNL     1      58.679 -13.040  51.853  1.00  0.00    -0.275 N 
HETATM   26  C11 UNL     1      57.902 -14.117  51.655  1.00  0.00     0.267 A 
ATOM     27  H7  UNL     1      59.218 -12.671  51.069  1.00  0.00     0.173 HD
HETATM   28  O6  UNL     1      57.805 -14.697  50.536  1.00  0.00    -0.267 OA
BRANCH  20  29
HETATM   29  O4  UNL     1      56.521 -14.533  54.970  1.00  0.00    -0.345 OA
ATOM     30  H4  UNL     1      55.586 -14.624  54.826  1.00  0.00     0.219 HD
ENDBRANCH  20  29
ENDBRANCH   5  19
TORSDOF 6
ENDMDL
