MODEL 1
REMARK VINA RESULT: -8.718934036      0.000      0.000
REMARK  7 active torsions:
REMARK  status: ('A' for Active; 'I' for Inactive)
REMARK       I    between atoms: C1_2  and  N1_3 
REMARK    1  A    between atoms: C1_2  and  C8_22 
REMARK    2  A    between atoms: N1_3  and  N2_5 
REMARK    3  A    between atoms: N2_5  and  C2_7 
REMARK    4  A    between atoms: C2_7  and  N3_9 
REMARK    5  A    between atoms: N3_9  and  N4_11 
REMARK    6  A    between atoms: C3_13  and  C4_14 
REMARK    7  A    between atoms: C7_17  and  N5_18 
ROOT
HETATM    1  C2  UNL     1      57.884 -13.092  52.525  1.00  0.00     0.205 C 
HETATM    2  S1  UNL     1      56.535 -12.211  52.282  1.00  0.00    -0.038 SA
ENDROOT
BRANCH   1   3
HETATM    3  N2  UNL     1      58.200 -14.161  51.670  1.00  0.00    -0.272 N 
ATOM      4  H2  UNL     1      58.602 -13.978  50.750  1.00  0.00     0.189 HD
BRANCH   3   5
HETATM    5  N1  UNL     1      57.960 -15.496  52.087  1.00  0.00    -0.262 N 
HETATM    6  C1  UNL     1      56.768 -16.112  51.675  1.00  0.00     0.294 C 
HETATM    7  O1  UNL     1      55.959 -15.478  50.961  1.00  0.00    -0.264 OA
ATOM      8  H1  UNL     1      58.634 -15.993  52.669  1.00  0.00     0.190 HD
BRANCH   6   9
HETATM    9  C8  UNL     1      56.433 -17.476  52.051  1.00  0.00     0.195 A 
HETATM   10  N6  UNL     1      55.176 -18.032  52.005  1.00  0.00    -0.231 N 
HETATM   11  O5  UNL     1      55.219 -19.264  52.405  1.00  0.00    -0.153 OA
ATOM     12  H6  UNL     1      54.333 -17.546  51.700  1.00  0.00     0.197 HD
HETATM   13  N7  UNL     1      56.430 -19.595  52.725  1.00  0.00    -0.204 N 
HETATM   14  C9  UNL     1      57.224 -18.503  52.517  1.00  0.00     0.301 A 
ATOM     15  H7  UNL     1      56.736 -20.505  53.069  1.00  0.00     0.200 HD
HETATM   16  O6  UNL     1      58.459 -18.464  52.724  1.00  0.00    -0.264 OA
ENDBRANCH   6   9
ENDBRANCH   3   5
ENDBRANCH   1   3
BRANCH   1  17
HETATM   17  N3  UNL     1      58.743 -12.780  53.603  1.00  0.00    -0.275 N 
ATOM     18  H3  UNL     1      59.418 -13.475  53.921  1.00  0.00     0.189 HD
BRANCH  17  19
HETATM   19  N4  UNL     1      58.688 -11.545  54.237  1.00  0.00    -0.307 N 
HETATM   20  C3  UNL     1      58.001 -11.319  55.294  1.00  0.00     0.144 C 
ATOM     21  H4  UNL     1      59.224 -10.775  53.838  1.00  0.00     0.186 HD
BRANCH  20  22
HETATM   22  C4  UNL     1      58.027  -9.964  55.869  1.00  0.00     0.095 A 
HETATM   23  C5  UNL     1      56.972  -9.077  55.943  1.00  0.00     0.043 A 
HETATM   24  C6  UNL     1      57.407  -7.919  56.552  1.00  0.00     0.065 A 
HETATM   25  C7  UNL     1      58.748  -8.163  56.830  1.00  0.00     0.215 A 
HETATM   26  O4  UNL     1      59.058  -9.358  56.415  1.00  0.00    -0.287 OA
BRANCH  25  27
HETATM   27  N5  UNL     1      59.627  -7.226  57.472  1.00  0.00    -0.090 N 
HETATM   28  O2  UNL     1      59.134  -6.326  58.170  1.00  0.00    -0.530 OA
HETATM   29  O3  UNL     1      60.986  -7.337  57.306  1.00  0.00    -0.530 OA
ENDBRANCH  25  27
ENDBRANCH  20  22
ENDBRANCH  17  19
ENDBRANCH   1  17
TORSDOF 7
ENDMDL
MODEL 2
REMARK VINA RESULT: -8.549620951      4.948      6.752
REMARK  7 active torsions:
REMARK  status: ('A' for Active; 'I' for Inactive)
REMARK       I    between atoms: C1_2  and  N1_3 
REMARK    1  A    between atoms: C1_2  and  C8_22 
REMARK    2  A    between atoms: N1_3  and  N2_5 
REMARK    3  A    between atoms: N2_5  and  C2_7 
REMARK    4  A    between atoms: C2_7  and  N3_9 
REMARK    5  A    between atoms: N3_9  and  N4_11 
REMARK    6  A    between atoms: C3_13  and  C4_14 
REMARK    7  A    between atoms: C7_17  and  N5_18 
ROOT
HETATM    1  C2  UNL     1      57.607 -13.022  52.711  1.00  0.00     0.205 C 
HETATM    2  S1  UNL     1      58.607 -12.120  53.628  1.00  0.00    -0.038 SA
ENDROOT
BRANCH   1   3
HETATM    3  N2  UNL     1      58.112 -14.075  51.930  1.00  0.00    -0.272 N 
ATOM      4  H2  UNL     1      58.653 -13.874  51.089  1.00  0.00     0.189 HD
BRANCH   3   5
HETATM    5  N1  UNL     1      57.870 -15.420  52.313  1.00  0.00    -0.262 N 
HETATM    6  C1  UNL     1      56.757 -16.073  51.762  1.00  0.00     0.294 C 
HETATM    7  O1  UNL     1      56.017 -15.461  50.958  1.00  0.00    -0.264 OA
ATOM      8  H1  UNL     1      58.487 -15.898  52.970  1.00  0.00     0.190 HD
BRANCH   6   9
HETATM    9  C8  UNL     1      56.426 -17.449  52.093  1.00  0.00     0.195 A 
HETATM   10  N6  UNL     1      55.169 -18.005  52.039  1.00  0.00    -0.231 N 
HETATM   11  O5  UNL     1      55.216 -19.250  52.394  1.00  0.00    -0.153 OA
ATOM     12  H6  UNL     1      54.323 -17.509  51.759  1.00  0.00     0.197 HD
HETATM   13  N7  UNL     1      56.431 -19.591  52.692  1.00  0.00    -0.204 N 
HETATM   14  C9  UNL     1      57.222 -18.491  52.516  1.00  0.00     0.301 A 
ATOM     15  H7  UNL     1      56.740 -20.512  53.001  1.00  0.00     0.200 HD
HETATM   16  O6  UNL     1      58.459 -18.458  52.712  1.00  0.00    -0.264 OA
ENDBRANCH   6   9
ENDBRANCH   3   5
ENDBRANCH   1   3
BRANCH   1  17
HETATM   17  N3  UNL     1      56.221 -12.743  52.698  1.00  0.00    -0.275 N 
ATOM     18  H3  UNL     1      55.724 -12.643  53.583  1.00  0.00     0.189 HD
BRANCH  17  19
HETATM   19  N4  UNL     1      55.524 -12.603  51.505  1.00  0.00    -0.307 N 
HETATM   20  C3  UNL     1      54.272 -12.340  51.439  1.00  0.00     0.144 C 
ATOM     21  H4  UNL     1      56.038 -12.716  50.631  1.00  0.00     0.186 HD
BRANCH  20  22
HETATM   22  C4  UNL     1      53.651 -12.216  50.110  1.00  0.00     0.095 A 
HETATM   23  C5  UNL     1      53.008 -13.212  49.403  1.00  0.00     0.043 A 
HETATM   24  C6  UNL     1      52.567 -12.691  48.204  1.00  0.00     0.065 A 
HETATM   25  C7  UNL     1      52.975 -11.362  48.240  1.00  0.00     0.215 A 
HETATM   26  O4  UNL     1      53.597 -11.137  49.361  1.00  0.00    -0.287 OA
BRANCH  25  27
HETATM   27  N5  UNL     1      52.734 -10.412  47.190  1.00  0.00    -0.090 N 
HETATM   28  O2  UNL     1      51.711 -10.532  46.498  1.00  0.00    -0.530 OA
HETATM   29  O3  UNL     1      53.630  -9.394  46.968  1.00  0.00    -0.530 OA
ENDBRANCH  25  27
ENDBRANCH  20  22
ENDBRANCH  17  19
ENDBRANCH   1  17
TORSDOF 7
ENDMDL
MODEL 3
REMARK VINA RESULT: -8.543890337      2.196      2.653
REMARK  7 active torsions:
REMARK  status: ('A' for Active; 'I' for Inactive)
REMARK       I    between atoms: C1_2  and  N1_3 
REMARK    1  A    between atoms: C1_2  and  C8_22 
REMARK    2  A    between atoms: N1_3  and  N2_5 
REMARK    3  A    between atoms: N2_5  and  C2_7 
REMARK    4  A    between atoms: C2_7  and  N3_9 
REMARK    5  A    between atoms: N3_9  and  N4_11 
REMARK    6  A    between atoms: C3_13  and  C4_14 
REMARK    7  A    between atoms: C7_17  and  N5_18 
ROOT
HETATM    1  C2  UNL     1      54.919 -13.504  51.575  1.00  0.00     0.205 C 
HETATM    2  S1  UNL     1      53.900 -13.455  50.305  1.00  0.00    -0.038 SA
ENDROOT
BRANCH   1   3
HETATM    3  N2  UNL     1      54.785 -14.498  52.559  1.00  0.00    -0.272 N 
ATOM      4  H2  UNL     1      54.123 -14.371  53.325  1.00  0.00     0.189 HD
BRANCH   3   5
HETATM    5  N1  UNL     1      55.569 -15.678  52.486  1.00  0.00    -0.262 N 
HETATM    6  C1  UNL     1      56.842 -15.662  53.078  1.00  0.00     0.294 C 
HETATM    7  O1  UNL     1      57.247 -14.622  53.646  1.00  0.00    -0.264 OA
ATOM      8  H1  UNL     1      55.218 -16.513  52.018  1.00  0.00     0.190 HD
BRANCH   6   9
HETATM    9  C8  UNL     1      57.719 -16.821  53.055  1.00  0.00     0.195 A 
HETATM   10  N6  UNL     1      58.940 -16.912  53.681  1.00  0.00    -0.231 N 
HETATM   11  O5  UNL     1      59.466 -18.077  53.466  1.00  0.00    -0.153 OA
ATOM     12  H6  UNL     1      59.369 -16.171  54.235  1.00  0.00     0.197 HD
HETATM   13  N7  UNL     1      58.682 -18.799  52.728  1.00  0.00    -0.204 N 
HETATM   14  C9  UNL     1      57.575 -18.049  52.448  1.00  0.00     0.301 A 
ATOM     15  H7  UNL     1      58.859 -19.752  52.414  1.00  0.00     0.200 HD
HETATM   16  O6  UNL     1      56.604 -18.434  51.755  1.00  0.00    -0.264 OA
ENDBRANCH   6   9
ENDBRANCH   3   5
ENDBRANCH   1   3
BRANCH   1  17
HETATM   17  N3  UNL     1      55.947 -12.540  51.690  1.00  0.00    -0.275 N 
ATOM     18  H3  UNL     1      56.595 -12.406  50.914  1.00  0.00     0.189 HD
BRANCH  17  19
HETATM   19  N4  UNL     1      56.092 -11.772  52.838  1.00  0.00    -0.307 N 
HETATM   20  C3  UNL     1      57.104 -11.023  53.070  1.00  0.00     0.144 C 
ATOM     21  H4  UNL     1      55.349 -11.806  53.537  1.00  0.00     0.186 HD
BRANCH  20  22
HETATM   22  C4  UNL     1      57.136 -10.257  54.327  1.00  0.00     0.095 A 
HETATM   23  C5  UNL     1      56.053  -9.899  55.104  1.00  0.00     0.043 A 
HETATM   24  C6  UNL     1      56.506  -9.190  56.197  1.00  0.00     0.065 A 
HETATM   25  C7  UNL     1      57.887  -9.149  56.028  1.00  0.00     0.215 A 
HETATM   26  O4  UNL     1      58.200  -9.779  54.933  1.00  0.00    -0.287 OA
BRANCH  25  27
HETATM   27  N5  UNL     1      58.795  -8.505  56.935  1.00  0.00    -0.090 N 
HETATM   28  O2  UNL     1      59.873  -8.074  56.496  1.00  0.00    -0.530 OA
HETATM   29  O3  UNL     1      58.463  -8.375  58.261  1.00  0.00    -0.530 OA
ENDBRANCH  25  27
ENDBRANCH  20  22
ENDBRANCH  17  19
ENDBRANCH   1  17
TORSDOF 7
ENDMDL
MODEL 4
REMARK VINA RESULT: -8.391370942      4.283      5.253
REMARK  7 active torsions:
REMARK  status: ('A' for Active; 'I' for Inactive)
REMARK       I    between atoms: C1_2  and  N1_3 
REMARK    1  A    between atoms: C1_2  and  C8_22 
REMARK    2  A    between atoms: N1_3  and  N2_5 
REMARK    3  A    between atoms: N2_5  and  C2_7 
REMARK    4  A    between atoms: C2_7  and  N3_9 
REMARK    5  A    between atoms: N3_9  and  N4_11 
REMARK    6  A    between atoms: C3_13  and  C4_14 
REMARK    7  A    between atoms: C7_17  and  N5_18 
ROOT
HETATM    1  C2  UNL     1      53.465 -12.309  54.690  1.00  0.00     0.205 C 
HETATM    2  S1  UNL     1      52.053 -12.291  53.878  1.00  0.00    -0.038 SA
ENDROOT
BRANCH   1   3
HETATM    3  N2  UNL     1      54.560 -13.041  54.200  1.00  0.00    -0.272 N 
ATOM      4  H2  UNL     1      54.774 -13.960  54.587  1.00  0.00     0.189 HD
BRANCH   3   5
HETATM    5  N1  UNL     1      55.367 -12.501  53.166  1.00  0.00    -0.262 N 
HETATM    6  C1  UNL     1      56.528 -11.802  53.532  1.00  0.00     0.294 C 
HETATM    7  O1  UNL     1      56.817 -11.675  54.743  1.00  0.00    -0.264 OA
ATOM      8  H1  UNL     1      55.111 -12.617  52.185  1.00  0.00     0.190 HD
BRANCH   6   9
HETATM    9  C8  UNL     1      57.418 -11.212  52.545  1.00  0.00     0.195 A 
HETATM   10  N6  UNL     1      57.024 -10.497  51.438  1.00  0.00    -0.231 N 
HETATM   11  O5  UNL     1      58.061 -10.110  50.765  1.00  0.00    -0.153 OA
ATOM     12  H6  UNL     1      56.056 -10.300  51.185  1.00  0.00     0.197 HD
HETATM   13  N7  UNL     1      59.151 -10.513  51.339  1.00  0.00    -0.204 N 
HETATM   14  C9  UNL     1      58.793 -11.208  52.459  1.00  0.00     0.301 A 
ATOM     15  H7  UNL     1      60.103 -10.344  51.014  1.00  0.00     0.200 HD
HETATM   16  O6  UNL     1      59.596 -11.743  53.259  1.00  0.00    -0.264 OA
ENDBRANCH   6   9
ENDBRANCH   3   5
ENDBRANCH   1   3
BRANCH   1  17
HETATM   17  N3  UNL     1      53.592 -11.585  55.897  1.00  0.00    -0.275 N 
ATOM     18  H3  UNL     1      52.946 -11.775  56.664  1.00  0.00     0.189 HD
BRANCH  17  19
HETATM   19  N4  UNL     1      54.577 -10.620  56.061  1.00  0.00    -0.307 N 
HETATM   20  C3  UNL     1      54.386  -9.368  55.867  1.00  0.00     0.144 C 
ATOM     21  H4  UNL     1      55.506 -10.925  56.351  1.00  0.00     0.186 HD
BRANCH  20  22
HETATM   22  C4  UNL     1      55.515  -8.447  56.075  1.00  0.00     0.095 A 
HETATM   23  C5  UNL     1      55.549  -7.101  55.773  1.00  0.00     0.043 A 
HETATM   24  C6  UNL     1      56.786  -6.599  56.121  1.00  0.00     0.065 A 
HETATM   25  C7  UNL     1      57.468  -7.697  56.634  1.00  0.00     0.215 A 
HETATM   26  O4  UNL     1      56.690  -8.741  56.586  1.00  0.00    -0.287 OA
BRANCH  25  27
HETATM   27  N5  UNL     1      58.815  -7.656  57.131  1.00  0.00    -0.090 N 
HETATM   28  O2  UNL     1      59.547  -8.643  56.955  1.00  0.00    -0.530 OA
HETATM   29  O3  UNL     1      59.269  -6.538  57.786  1.00  0.00    -0.530 OA
ENDBRANCH  25  27
ENDBRANCH  20  22
ENDBRANCH  17  19
ENDBRANCH   1  17
TORSDOF 7
ENDMDL
MODEL 5
REMARK VINA RESULT: -8.281346059      1.747      2.195
REMARK  7 active torsions:
REMARK  status: ('A' for Active; 'I' for Inactive)
REMARK       I    between atoms: C1_2  and  N1_3 
REMARK    1  A    between atoms: C1_2  and  C8_22 
REMARK    2  A    between atoms: N1_3  and  N2_5 
REMARK    3  A    between atoms: N2_5  and  C2_7 
REMARK    4  A    between atoms: C2_7  and  N3_9 
REMARK    5  A    between atoms: N3_9  and  N4_11 
REMARK    6  A    between atoms: C3_13  and  C4_14 
REMARK    7  A    between atoms: C7_17  and  N5_18 
ROOT
HETATM    1  C2  UNL     1      55.300 -13.379  51.560  1.00  0.00     0.205 C 
HETATM    2  S1  UNL     1      53.908 -12.869  52.235  1.00  0.00    -0.038 SA
ENDROOT
BRANCH   1   3
HETATM    3  N2  UNL     1      55.313 -14.500  50.714  1.00  0.00    -0.272 N 
ATOM      4  H2  UNL     1      55.286 -14.376  49.702  1.00  0.00     0.189 HD
BRANCH   3   5
HETATM    5  N1  UNL     1      55.365 -15.806  51.268  1.00  0.00    -0.262 N 
HETATM    6  C1  UNL     1      56.626 -16.357  51.542  1.00  0.00     0.294 C 
HETATM    7  O1  UNL     1      57.658 -15.693  51.295  1.00  0.00    -0.264 OA
ATOM      8  H1  UNL     1      54.510 -16.328  51.461  1.00  0.00     0.190 HD
BRANCH   6   9
HETATM    9  C8  UNL     1      56.782 -17.686  52.110  1.00  0.00     0.195 A 
HETATM   10  N6  UNL     1      57.879 -18.135  52.806  1.00  0.00    -0.231 N 
HETATM   11  O5  UNL     1      57.701 -19.364  53.176  1.00  0.00    -0.153 OA
ATOM     12  H6  UNL     1      58.713 -17.581  53.002  1.00  0.00     0.197 HD
HETATM   13  N7  UNL     1      56.544 -19.794  52.778  1.00  0.00    -0.204 N 
HETATM   14  C9  UNL     1      55.935 -18.773  52.106  1.00  0.00     0.301 A 
ATOM     15  H7  UNL     1      56.159 -20.725  52.937  1.00  0.00     0.200 HD
HETATM   16  O6  UNL     1      54.798 -18.836  51.582  1.00  0.00    -0.264 OA
ENDBRANCH   6   9
ENDBRANCH   3   5
ENDBRANCH   1   3
BRANCH   1  17
HETATM   17  N3  UNL     1      56.505 -12.690  51.829  1.00  0.00    -0.275 N 
ATOM     18  H3  UNL     1      57.341 -12.917  51.289  1.00  0.00     0.189 HD
BRANCH  17  19
HETATM   19  N4  UNL     1      56.574 -11.710  52.811  1.00  0.00    -0.307 N 
HETATM   20  C3  UNL     1      57.383 -11.753  53.802  1.00  0.00     0.144 C 
ATOM     21  H4  UNL     1      55.944 -10.911  52.739  1.00  0.00     0.186 HD
BRANCH  20  22
HETATM   22  C4  UNL     1      57.357 -10.649  54.776  1.00  0.00     0.095 A 
HETATM   23  C5  UNL     1      56.261  -9.892  55.137  1.00  0.00     0.043 A 
HETATM   24  C6  UNL     1      56.654  -8.962  56.076  1.00  0.00     0.065 A 
HETATM   25  C7  UNL     1      58.013  -9.204  56.249  1.00  0.00     0.215 A 
HETATM   26  O4  UNL     1      58.371 -10.188  55.475  1.00  0.00    -0.287 OA
BRANCH  25  27
HETATM   27  N5  UNL     1      58.861  -8.468  57.145  1.00  0.00    -0.090 N 
HETATM   28  O2  UNL     1      60.009  -8.175  56.775  1.00  0.00    -0.530 OA
HETATM   29  O3  UNL     1      58.395  -8.104  58.384  1.00  0.00    -0.530 OA
ENDBRANCH  25  27
ENDBRANCH  20  22
ENDBRANCH  17  19
ENDBRANCH   1  17
TORSDOF 7
ENDMDL
