MODEL 1
REMARK VINA RESULT: -8.557597610      0.000      0.000
REMARK  6 active torsions:
REMARK  status: ('A' for Active; 'I' for Inactive)
REMARK       I    between atoms: C2_2  and  N1_4 
REMARK    1  A    between atoms: N1_4  and  C3_6 
REMARK    2  A    between atoms: C4_7  and  C5_8 
REMARK    3  A    between atoms: C6_13  and  N4_14 
REMARK    4  A    between atoms: N4_14  and  N5_16 
REMARK    5  A    between atoms: N8_27  and  C11_28 
REMARK    6  A    between atoms: C12_30  and  O4_31 
ROOT
HETATM    1  C5  UNL     1      57.622 -12.334  54.227  1.00  0.00     0.148 A 
HETATM    2  N2  UNL     1      57.015 -13.473  54.525  1.00  0.00    -0.279 N 
ATOM      3  H2  UNL     1      56.430 -13.535  55.359  1.00  0.00     0.188 HD
HETATM    4  N3  UNL     1      57.166 -14.537  53.737  1.00  0.00    -0.130 N 
ATOM      5  H3  UNL     1      56.689 -15.403  53.988  1.00  0.00     0.205 HD
HETATM    6  C6  UNL     1      57.917 -14.517  52.635  1.00  0.00     0.714 A 
HETATM    7  N6  UNL     1      58.545 -13.373  52.310  1.00  0.00    -0.151 N 
ATOM      8  H6  UNL     1      59.126 -13.329  51.472  1.00  0.00     0.188 HD
HETATM    9  C10 UNL     1      58.405 -12.284  53.094  1.00  0.00     0.290 A 
HETATM   10  O2  UNL     1      59.014 -11.213  52.758  1.00  0.00    -0.265 OA
ENDROOT
BRANCH   1  11
HETATM   11  C4  UNL     1      57.486 -11.127  55.068  1.00  0.00     0.113 A 
HETATM   12  C3  UNL     1      56.317 -10.511  55.427  1.00  0.00     0.119 A 
HETATM   13  C12 UNL     1      56.696  -9.427  56.213  1.00  0.00     0.194 A 
HETATM   14  N8  UNL     1      58.048  -9.401  56.317  1.00  0.00    -0.206 N 
HETATM   15  N7  UNL     1      58.475 -10.437  55.615  1.00  0.00    -0.285 N 
ATOM     16  H7  UNL     1      59.459 -10.679  55.507  1.00  0.00     0.188 HD
BRANCH  12  17
HETATM   17  N1  UNL     1      55.018 -10.911  55.063  1.00  0.00    -0.322 N 
HETATM   18  C2  UNL     1      54.394 -10.503  53.842  1.00  0.00     0.218 C 
HETATM   19  C1  UNL     1      53.020 -10.945  53.492  1.00  0.00     0.117 C 
HETATM   20  O1  UNL     1      54.983  -9.761  53.029  1.00  0.00    -0.274 OA
ATOM     21  H1  UNL     1      54.498 -11.517  55.697  1.00  0.00     0.169 HD
ENDBRANCH  12  17
BRANCH  13  22
HETATM   22  O4  UNL     1      55.836  -8.519  56.798  1.00  0.00    -0.343 OA
ATOM     23  H4  UNL     1      55.880  -7.575  56.700  1.00  0.00     0.219 HD
ENDBRANCH  13  22
BRANCH  14  24
HETATM   24  C11 UNL     1      58.814  -8.454  57.032  1.00  0.00     0.378 C 
HETATM   25  O3  UNL     1      58.518  -8.162  58.207  1.00  0.00    -0.281 OA
ENDBRANCH  14  24
ENDBRANCH   1  11
BRANCH   6  26
HETATM   26  N4  UNL     1      58.057 -15.551  51.881  1.00  0.00    -0.131 N 
ATOM     27  H4  UNL     1      58.884 -15.598  51.287  1.00  0.00     0.205 HD
BRANCH  26  28
HETATM   28  N5  UNL     1      57.165 -16.599  51.821  1.00  0.00    -0.295 N 
HETATM   29  C7  UNL     1      57.446 -17.747  52.316  1.00  0.00    -0.004 C 
HETATM   30  C8  UNL     1      58.739 -18.018  52.982  1.00  0.00     0.064 C 
HETATM   31  C9  UNL     1      56.443 -18.830  52.217  1.00  0.00     0.064 C 
ATOM     32  H5  UNL     1      56.260 -16.458  51.372  1.00  0.00     0.186 HD
ENDBRANCH  26  28
ENDBRANCH   6  26
TORSDOF 6
ENDMDL
MODEL 2
REMARK VINA RESULT: -8.416282822      1.855      2.082
REMARK  6 active torsions:
REMARK  status: ('A' for Active; 'I' for Inactive)
REMARK       I    between atoms: C2_2  and  N1_4 
REMARK    1  A    between atoms: N1_4  and  C3_6 
REMARK    2  A    between atoms: C4_7  and  C5_8 
REMARK    3  A    between atoms: C6_13  and  N4_14 
REMARK    4  A    between atoms: N4_14  and  N5_16 
REMARK    5  A    between atoms: N8_27  and  C11_28 
REMARK    6  A    between atoms: C12_30  and  O4_31 
ROOT
HETATM    1  C5  UNL     1      56.028 -12.412  53.679  1.00  0.00     0.148 A 
HETATM    2  N2  UNL     1      55.970 -13.664  54.109  1.00  0.00    -0.279 N 
ATOM      3  H2  UNL     1      56.006 -13.861  55.109  1.00  0.00     0.188 HD
HETATM    4  N3  UNL     1      55.864 -14.665  53.236  1.00  0.00    -0.130 N 
ATOM      5  H3  UNL     1      55.821 -15.620  53.591  1.00  0.00     0.205 HD
HETATM    6  C6  UNL     1      55.812 -14.471  51.917  1.00  0.00     0.714 A 
HETATM    7  N6  UNL     1      55.869 -13.210  51.455  1.00  0.00    -0.151 N 
ATOM      8  H6  UNL     1      55.832 -13.031  50.451  1.00  0.00     0.188 HD
HETATM    9  C10 UNL     1      55.977 -12.180  52.322  1.00  0.00     0.290 A 
HETATM   10  O2  UNL     1      56.029 -10.994  51.850  1.00  0.00    -0.265 OA
ENDROOT
BRANCH   1  11
HETATM   11  C4  UNL     1      56.145 -11.267  54.605  1.00  0.00     0.113 A 
HETATM   12  C3  UNL     1      55.164 -10.778  55.425  1.00  0.00     0.119 A 
HETATM   13  C12 UNL     1      55.744  -9.707  56.098  1.00  0.00     0.194 A 
HETATM   14  N8  UNL     1      57.029  -9.564  55.689  1.00  0.00    -0.206 N 
HETATM   15  N7  UNL     1      57.222 -10.521  54.796  1.00  0.00    -0.285 N 
ATOM     16  H7  UNL     1      58.104 -10.668  54.307  1.00  0.00     0.188 HD
BRANCH  12  17
HETATM   17  N1  UNL     1      53.852 -11.273  55.544  1.00  0.00    -0.322 N 
HETATM   18  C2  UNL     1      52.804 -10.918  54.637  1.00  0.00     0.218 C 
HETATM   19  C1  UNL     1      51.431 -11.461  54.793  1.00  0.00     0.117 C 
HETATM   20  O1  UNL     1      53.009 -10.139  53.683  1.00  0.00    -0.274 OA
ATOM     21  H1  UNL     1      53.639 -11.912  56.309  1.00  0.00     0.169 HD
ENDBRANCH  12  17
BRANCH  13  22
HETATM   22  O4  UNL     1      55.115  -8.911  57.035  1.00  0.00    -0.343 OA
ATOM     23  H4  UNL     1      55.300  -8.904  57.967  1.00  0.00     0.219 HD
ENDBRANCH  13  22
BRANCH  14  24
HETATM   24  C11 UNL     1      57.948  -8.591  56.140  1.00  0.00     0.378 C 
HETATM   25  O3  UNL     1      59.161  -8.864  56.230  1.00  0.00    -0.281 OA
ENDBRANCH  14  24
ENDBRANCH   1  11
BRANCH   6  26
HETATM   26  N4  UNL     1      55.710 -15.446  51.084  1.00  0.00    -0.131 N 
ATOM     27  H4  UNL     1      55.267 -15.258  50.184  1.00  0.00     0.205 HD
BRANCH  26  28
HETATM   28  N5  UNL     1      56.156 -16.727  51.322  1.00  0.00    -0.295 N 
HETATM   29  C7  UNL     1      55.339 -17.702  51.480  1.00  0.00    -0.004 C 
HETATM   30  C8  UNL     1      53.873 -17.515  51.416  1.00  0.00     0.064 C 
HETATM   31  C9  UNL     1      55.884 -19.054  51.735  1.00  0.00     0.064 C 
ATOM     32  H5  UNL     1      57.159 -16.904  51.375  1.00  0.00     0.186 HD
ENDBRANCH  26  28
ENDBRANCH   6  26
TORSDOF 6
ENDMDL
MODEL 3
REMARK VINA RESULT: -8.407217882      0.800      1.020
REMARK  6 active torsions:
REMARK  status: ('A' for Active; 'I' for Inactive)
REMARK       I    between atoms: C2_2  and  N1_4 
REMARK    1  A    between atoms: N1_4  and  C3_6 
REMARK    2  A    between atoms: C4_7  and  C5_8 
REMARK    3  A    between atoms: C6_13  and  N4_14 
REMARK    4  A    between atoms: N4_14  and  N5_16 
REMARK    5  A    between atoms: N8_27  and  C11_28 
REMARK    6  A    between atoms: C12_30  and  O4_31 
ROOT
HETATM    1  C5  UNL     1      57.705 -11.761  54.241  1.00  0.00     0.148 A 
HETATM    2  N2  UNL     1      57.194 -12.949  54.530  1.00  0.00    -0.279 N 
ATOM      3  H2  UNL     1      56.671 -13.081  55.396  1.00  0.00     0.188 HD
HETATM    4  N3  UNL     1      57.361 -13.971  53.691  1.00  0.00    -0.130 N 
ATOM      5  H3  UNL     1      56.959 -14.875  53.936  1.00  0.00     0.205 HD
HETATM    6  C6  UNL     1      58.034 -13.860  52.545  1.00  0.00     0.714 A 
HETATM    7  N6  UNL     1      58.563 -12.665  52.227  1.00  0.00    -0.151 N 
ATOM      8  H6  UNL     1      59.082 -12.551  51.356  1.00  0.00     0.188 HD
HETATM    9  C10 UNL     1      58.405 -11.617  53.063  1.00  0.00     0.290 A 
HETATM   10  O2  UNL     1      58.919 -10.495  52.732  1.00  0.00    -0.265 OA
ENDROOT
BRANCH   1  11
HETATM   11  C4  UNL     1      57.547 -10.597  55.137  1.00  0.00     0.113 A 
HETATM   12  C3  UNL     1      56.388  -9.912  55.387  1.00  0.00     0.119 A 
HETATM   13  C12 UNL     1      56.738  -8.909  56.285  1.00  0.00     0.194 A 
HETATM   14  N8  UNL     1      58.063  -8.997  56.560  1.00  0.00    -0.206 N 
HETATM   15  N7  UNL     1      58.502 -10.022  55.849  1.00  0.00    -0.285 N 
ATOM     16  H7  UNL     1      59.472 -10.335  55.850  1.00  0.00     0.188 HD
BRANCH  12  17
HETATM   17  N1  UNL     1      55.122 -10.185  54.836  1.00  0.00    -0.322 N 
HETATM   18  C2  UNL     1      54.705  -9.683  53.563  1.00  0.00     0.218 C 
HETATM   19  C1  UNL     1      53.360  -9.993  53.014  1.00  0.00     0.117 C 
HETATM   20  O1  UNL     1      55.457  -8.967  52.870  1.00  0.00    -0.274 OA
ATOM     21  H1  UNL     1      54.474 -10.766  55.367  1.00  0.00     0.169 HD
ENDBRANCH  12  17
BRANCH  13  22
HETATM   22  O4  UNL     1      55.876  -7.971  56.817  1.00  0.00    -0.343 OA
ATOM     23  H4  UNL     1      55.707  -7.838  57.743  1.00  0.00     0.219 HD
ENDBRANCH  13  22
BRANCH  14  24
HETATM   24  C11 UNL     1      58.795  -8.156  57.428  1.00  0.00     0.378 C 
HETATM   25  O3  UNL     1      58.357  -7.889  58.564  1.00  0.00    -0.281 OA
ENDBRANCH  14  24
ENDBRANCH   1  11
BRANCH   6  26
HETATM   26  N4  UNL     1      58.190 -14.854  51.742  1.00  0.00    -0.131 N 
ATOM     27  H4  UNL     1      58.268 -14.652  50.745  1.00  0.00     0.205 HD
BRANCH  26  28
HETATM   28  N5  UNL     1      58.257 -16.172  52.135  1.00  0.00    -0.295 N 
HETATM   29  C7  UNL     1      57.280 -16.979  51.944  1.00  0.00    -0.004 C 
HETATM   30  C8  UNL     1      56.024 -16.548  51.291  1.00  0.00     0.064 C 
HETATM   31  C9  UNL     1      57.416 -18.382  52.392  1.00  0.00     0.064 C 
ATOM     32  H5  UNL     1      59.104 -16.514  52.589  1.00  0.00     0.186 HD
ENDBRANCH  26  28
ENDBRANCH   6  26
TORSDOF 6
ENDMDL
MODEL 4
REMARK VINA RESULT: -8.237795402      1.347      1.519
REMARK  6 active torsions:
REMARK  status: ('A' for Active; 'I' for Inactive)
REMARK       I    between atoms: C2_2  and  N1_4 
REMARK    1  A    between atoms: N1_4  and  C3_6 
REMARK    2  A    between atoms: C4_7  and  C5_8 
REMARK    3  A    between atoms: C6_13  and  N4_14 
REMARK    4  A    between atoms: N4_14  and  N5_16 
REMARK    5  A    between atoms: N8_27  and  C11_28 
REMARK    6  A    between atoms: C12_30  and  O4_31 
ROOT
HETATM    1  C5  UNL     1      57.195 -12.726  53.747  1.00  0.00     0.148 A 
HETATM    2  N2  UNL     1      56.396 -13.732  54.074  1.00  0.00    -0.279 N 
ATOM      3  H2  UNL     1      55.711 -13.615  54.821  1.00  0.00     0.188 HD
HETATM    4  N3  UNL     1      56.488 -14.894  53.429  1.00  0.00    -0.130 N 
ATOM      5  H3  UNL     1      55.862 -15.653  53.700  1.00  0.00     0.205 HD
HETATM    6  C6  UNL     1      57.363 -15.107  52.446  1.00  0.00     0.714 A 
HETATM    7  N6  UNL     1      58.185 -14.103  52.094  1.00  0.00    -0.151 N 
ATOM      8  H6  UNL     1      58.864 -14.238  51.344  1.00  0.00     0.188 HD
HETATM    9  C10 UNL     1      58.109 -12.917  52.734  1.00  0.00     0.290 A 
HETATM   10  O2  UNL     1      58.904 -11.984  52.375  1.00  0.00    -0.265 OA
ENDROOT
BRANCH   1  11
HETATM   11  C4  UNL     1      57.134 -11.418  54.430  1.00  0.00     0.113 A 
HETATM   12  C3  UNL     1      56.217 -10.425  54.210  1.00  0.00     0.119 A 
HETATM   13  C12 UNL     1      56.566  -9.400  55.082  1.00  0.00     0.194 A 
HETATM   14  N8  UNL     1      57.655  -9.772  55.798  1.00  0.00    -0.206 N 
HETATM   15  N7  UNL     1      57.957 -10.987  55.372  1.00  0.00    -0.285 N 
ATOM     16  H7  UNL     1      58.741 -11.533  55.730  1.00  0.00     0.188 HD
BRANCH  12  17
HETATM   17  N1  UNL     1      55.155 -10.460  53.287  1.00  0.00    -0.322 N 
HETATM   18  C2  UNL     1      55.328 -10.185  51.894  1.00  0.00     0.218 C 
HETATM   19  C1  UNL     1      54.182 -10.232  50.950  1.00  0.00     0.117 C 
HETATM   20  O1  UNL     1      56.448  -9.895  51.425  1.00  0.00    -0.274 OA
ATOM     21  H1  UNL     1      54.221 -10.692  53.626  1.00  0.00     0.169 HD
ENDBRANCH  12  17
BRANCH  13  22
HETATM   22  O4  UNL     1      55.909  -8.191  55.205  1.00  0.00    -0.343 OA
ATOM     23  H4  UNL     1      55.449  -7.889  55.979  1.00  0.00     0.219 HD
ENDBRANCH  13  22
BRANCH  14  24
HETATM   24  C11 UNL     1      58.310  -9.004  56.787  1.00  0.00     0.378 C 
HETATM   25  O3  UNL     1      59.549  -8.870  56.762  1.00  0.00    -0.281 OA
ENDBRANCH  14  24
ENDBRANCH   1  11
BRANCH   6  26
HETATM   26  N4  UNL     1      57.442 -16.235  51.830  1.00  0.00    -0.131 N 
ATOM     27  H4  UNL     1      57.452 -16.219  50.810  1.00  0.00     0.205 HD
BRANCH  26  28
HETATM   28  N5  UNL     1      57.512 -17.461  52.453  1.00  0.00    -0.295 N 
HETATM   29  C7  UNL     1      56.601 -18.348  52.290  1.00  0.00    -0.004 C 
HETATM   30  C8  UNL     1      55.423 -18.113  51.426  1.00  0.00     0.064 C 
HETATM   31  C9  UNL     1      56.736 -19.645  52.989  1.00  0.00     0.064 C 
ATOM     32  H5  UNL     1      58.307 -17.668  53.057  1.00  0.00     0.186 HD
ENDBRANCH  26  28
ENDBRANCH   6  26
TORSDOF 6
ENDMDL
MODEL 5
REMARK VINA RESULT: -8.234331572      1.171      1.209
REMARK  6 active torsions:
REMARK  status: ('A' for Active; 'I' for Inactive)
REMARK       I    between atoms: C2_2  and  N1_4 
REMARK    1  A    between atoms: N1_4  and  C3_6 
REMARK    2  A    between atoms: C4_7  and  C5_8 
REMARK    3  A    between atoms: C6_13  and  N4_14 
REMARK    4  A    between atoms: N4_14  and  N5_16 
REMARK    5  A    between atoms: N8_27  and  C11_28 
REMARK    6  A    between atoms: C12_30  and  O4_31 
ROOT
HETATM    1  C5  UNL     1      57.431 -11.996  54.206  1.00  0.00     0.148 A 
HETATM    2  N2  UNL     1      56.440 -12.843  54.446  1.00  0.00    -0.279 N 
ATOM      3  H2  UNL     1      55.691 -12.582  55.087  1.00  0.00     0.188 HD
HETATM    4  N3  UNL     1      56.422 -14.035  53.850  1.00  0.00    -0.130 N 
ATOM      5  H3  UNL     1      55.649 -14.670  54.051  1.00  0.00     0.205 HD
HETATM    6  C6  UNL     1      57.373 -14.432  53.003  1.00  0.00     0.714 A 
HETATM    7  N6  UNL     1      58.389 -13.592  52.743  1.00  0.00    -0.151 N 
ATOM      8  H6  UNL     1      59.130 -13.869  52.098  1.00  0.00     0.188 HD
HETATM    9  C10 UNL     1      58.427 -12.380  53.336  1.00  0.00     0.290 A 
HETATM   10  O2  UNL     1      59.406 -11.604  53.067  1.00  0.00    -0.265 OA
ENDROOT
BRANCH   1  11
HETATM   11  C4  UNL     1      57.497 -10.663  54.841  1.00  0.00     0.113 A 
HETATM   12  C3  UNL     1      56.681  -9.595  54.580  1.00  0.00     0.119 A 
HETATM   13  C12 UNL     1      57.128  -8.576  55.416  1.00  0.00     0.194 A 
HETATM   14  N8  UNL     1      58.175  -9.026  56.150  1.00  0.00    -0.206 N 
HETATM   15  N7  UNL     1      58.358 -10.280  55.770  1.00  0.00    -0.285 N 
ATOM     16  H7  UNL     1      59.084 -10.885  56.151  1.00  0.00     0.188 HD
BRANCH  12  17
HETATM   17  N1  UNL     1      55.621  -9.561  53.655  1.00  0.00    -0.322 N 
HETATM   18  C2  UNL     1      54.333 -10.119  53.931  1.00  0.00     0.218 C 
HETATM   19  C1  UNL     1      53.237 -10.064  52.929  1.00  0.00     0.117 C 
HETATM   20  O1  UNL     1      54.086 -10.673  55.022  1.00  0.00    -0.274 OA
ATOM     21  H1  UNL     1      55.777  -9.119  52.750  1.00  0.00     0.169 HD
ENDBRANCH  12  17
BRANCH  13  22
HETATM   22  O4  UNL     1      56.592  -7.306  55.491  1.00  0.00    -0.343 OA
ATOM     23  H4  UNL     1      57.025  -6.506  55.217  1.00  0.00     0.219 HD
ENDBRANCH  13  22
BRANCH  14  24
HETATM   24  C11 UNL     1      58.901  -8.289  57.112  1.00  0.00     0.378 C 
HETATM   25  O3  UNL     1      60.138  -8.170  57.012  1.00  0.00    -0.281 OA
ENDBRANCH  14  24
ENDBRANCH   1  11
BRANCH   6  26
HETATM   26  N4  UNL     1      57.345 -15.587  52.433  1.00  0.00    -0.131 N 
ATOM     27  H4  UNL     1      58.237 -16.038  52.231  1.00  0.00     0.205 HD
BRANCH  26  28
HETATM   28  N5  UNL     1      56.194 -16.254  52.078  1.00  0.00    -0.295 N 
HETATM   29  C7  UNL     1      56.167 -17.530  51.966  1.00  0.00    -0.004 C 
HETATM   30  C8  UNL     1      57.364 -18.364  52.212  1.00  0.00     0.064 C 
HETATM   31  C9  UNL     1      54.898 -18.185  51.580  1.00  0.00     0.064 C 
ATOM     32  H5  UNL     1      55.343 -15.720  51.899  1.00  0.00     0.186 HD
ENDBRANCH  26  28
ENDBRANCH   6  26
TORSDOF 6
ENDMDL
