MODEL 1
REMARK VINA RESULT: -7.787580352      0.000      0.000
REMARK  5 active torsions:
REMARK  status: ('A' for Active; 'I' for Inactive)
REMARK    1  A    between atoms: C2_7  and  C3_8 
REMARK    2  A    between atoms: C3_8  and  S1_9 
REMARK    3  A    between atoms: S1_9  and  C4_10 
REMARK    4  A    between atoms: C6_16  and  N6_17 
REMARK    5  A    between atoms: C7_22  and  N8_23 
ROOT
HETATM    1  C4  UNL     1      54.375 -11.451  52.567  1.00  0.00     0.146 A 
HETATM    2  N4  UNL     1      55.271 -10.466  52.547  1.00  0.00    -0.321 N 
ATOM      3  H4  UNL     1      55.046  -9.475  52.627  1.00  0.00     0.169 HD
HETATM    4  C5  UNL     1      56.519 -10.960  52.407  1.00  0.00     0.153 A 
HETATM    5  N5  UNL     1      57.735 -10.453  52.322  1.00  0.00    -0.174 N 
ATOM      6  H5  UNL     1      57.829  -9.439  52.374  1.00  0.00     0.186 HD
HETATM    7  C6  UNL     1      58.852 -11.170  52.171  1.00  0.00     0.679 A 
HETATM    8  N7  UNL     1      58.724 -12.501  52.103  1.00  0.00    -0.175 N 
ATOM      9  H7  UNL     1      59.560 -13.073  51.987  1.00  0.00     0.186 HD
HETATM   10  C7  UNL     1      57.512 -13.109  52.183  1.00  0.00     0.150 A 
HETATM   11  C12 UNL     1      56.357 -12.348  52.339  1.00  0.00     0.124 A 
HETATM   12  N9  UNL     1      55.051 -12.633  52.435  1.00  0.00    -0.331 N 
ATOM     13  H9  UNL     1      54.635 -13.564  52.414  1.00  0.00     0.168 HD
ENDROOT
BRANCH   1  14
HETATM   14  S1  UNL     1      52.599 -11.392  52.722  1.00  0.00    -0.086 SA
BRANCH  14  15
HETATM   15  C3  UNL     1      52.118 -11.263  54.465  1.00  0.00     0.161 C 
BRANCH  15  16
HETATM   16  C2  UNL     1      53.200 -10.598  55.229  1.00  0.00     0.122 A 
HETATM   17  N3  UNL     1      54.202 -11.224  55.861  1.00  0.00    -0.271 N 
HETATM   18  N2  UNL     1      54.988 -10.336  56.442  1.00  0.00    -0.225 N 
ATOM     19  H3  UNL     1      54.337 -12.235  55.890  1.00  0.00     0.190 HD
HETATM   20  N1  UNL     1      54.504  -9.145  56.189  1.00  0.00    -0.223 N 
ATOM     21  H2  UNL     1      55.825 -10.541  56.989  1.00  0.00     0.210 HD
HETATM   22  C1  UNL     1      55.058  -7.857  56.639  1.00  0.00     0.202 C 
HETATM   23  N10 UNL     1      53.416  -9.291  55.452  1.00  0.00    -0.270 N 
ATOM     24  H10 UNL     1      52.832  -8.529  55.107  1.00  0.00     0.190 HD
ENDBRANCH  15  16
ENDBRANCH  14  15
ENDBRANCH   1  14
BRANCH  10  25
HETATM   25  N8  UNL     1      57.443 -14.523  52.088  1.00  0.00    -0.365 N 
HETATM   26  C8  UNL     1      57.721 -15.433  51.008  1.00  0.00     0.124 C 
HETATM   27  C9  UNL     1      56.965 -16.727  51.289  1.00  0.00     0.021 C 
HETATM   28  C10 UNL     1      56.100 -16.352  52.455  1.00  0.00     0.021 C 
HETATM   29  C11 UNL     1      57.070 -15.420  53.196  1.00  0.00     0.124 C 
ENDBRANCH  10  25
BRANCH   7  30
HETATM   30  N6  UNL     1      60.032 -10.598  52.092  1.00  0.00    -0.234 N 
ATOM     31  H62 UNL     1      60.134  -9.654  51.720  1.00  0.00     0.174 HD
ATOM     32  H61 UNL     1      60.879 -11.075  52.399  1.00  0.00     0.174 HD
ENDBRANCH   7  30
TORSDOF 5
ENDMDL
MODEL 2
REMARK VINA RESULT: -7.740631426      4.326      6.152
REMARK  5 active torsions:
REMARK  status: ('A' for Active; 'I' for Inactive)
REMARK    1  A    between atoms: C2_7  and  C3_8 
REMARK    2  A    between atoms: C3_8  and  S1_9 
REMARK    3  A    between atoms: S1_9  and  C4_10 
REMARK    4  A    between atoms: C6_16  and  N6_17 
REMARK    5  A    between atoms: C7_22  and  N8_23 
ROOT
HETATM    1  C4  UNL     1      53.083 -12.698  49.917  1.00  0.00     0.146 A 
HETATM    2  N4  UNL     1      52.487 -12.098  50.946  1.00  0.00    -0.321 N 
ATOM      3  H4  UNL     1      51.634 -11.544  50.880  1.00  0.00     0.169 HD
HETATM    4  C5  UNL     1      53.168 -12.325  52.088  1.00  0.00     0.153 A 
HETATM    5  N5  UNL     1      53.037 -11.977  53.356  1.00  0.00    -0.174 N 
ATOM      6  H5  UNL     1      52.237 -11.395  53.605  1.00  0.00     0.186 HD
HETATM    7  C6  UNL     1      53.874 -12.329  54.334  1.00  0.00     0.679 A 
HETATM    8  N7  UNL     1      54.922 -13.092  54.002  1.00  0.00    -0.175 N 
ATOM      9  H7  UNL     1      55.579 -13.376  54.729  1.00  0.00     0.186 HD
HETATM   10  C7  UNL     1      55.136 -13.499  52.724  1.00  0.00     0.150 A 
HETATM   11  C12 UNL     1      54.255 -13.122  51.714  1.00  0.00     0.124 A 
HETATM   12  N9  UNL     1      54.193 -13.340  50.393  1.00  0.00    -0.331 N 
ATOM     13  H9  UNL     1      54.854 -13.887  49.841  1.00  0.00     0.168 HD
ENDROOT
BRANCH   1  14
HETATM   14  S1  UNL     1      52.638 -12.737  48.190  1.00  0.00    -0.086 SA
BRANCH  14  15
HETATM   15  C3  UNL     1      53.074 -11.172  47.386  1.00  0.00     0.161 C 
BRANCH  15  16
HETATM   16  C2  UNL     1      51.840 -10.408  47.090  1.00  0.00     0.122 A 
HETATM   17  N3  UNL     1      51.689  -9.535  46.084  1.00  0.00    -0.271 N 
HETATM   18  N2  UNL     1      50.468  -9.032  46.108  1.00  0.00    -0.225 N 
ATOM     19  H3  UNL     1      52.409  -9.296  45.402  1.00  0.00     0.190 HD
HETATM   20  N1  UNL     1      49.832  -9.571  47.118  1.00  0.00    -0.223 N 
ATOM     21  H2  UNL     1      50.089  -8.346  45.455  1.00  0.00     0.210 HD
HETATM   22  C1  UNL     1      48.442  -9.304  47.526  1.00  0.00     0.202 C 
HETATM   23  N10 UNL     1      50.655 -10.410  47.724  1.00  0.00    -0.270 N 
ATOM     24  H10 UNL     1      50.426 -10.971  48.544  1.00  0.00     0.190 HD
ENDBRANCH  15  16
ENDBRANCH  14  15
ENDBRANCH   1  14
BRANCH  10  25
HETATM   25  N8  UNL     1      56.275 -14.294  52.435  1.00  0.00    -0.365 N 
HETATM   26  C8  UNL     1      57.580 -13.962  51.926  1.00  0.00     0.124 C 
HETATM   27  C9  UNL     1      58.170 -15.227  51.312  1.00  0.00     0.021 C 
HETATM   28  C10 UNL     1      57.005 -16.171  51.327  1.00  0.00     0.021 C 
HETATM   29  C11 UNL     1      56.359 -15.749  52.655  1.00  0.00     0.124 C 
ENDBRANCH  10  25
BRANCH   7  30
HETATM   30  N6  UNL     1      53.682 -11.945  55.576  1.00  0.00    -0.234 N 
ATOM     31  H62 UNL     1      53.231 -11.055  55.787  1.00  0.00     0.174 HD
ATOM     32  H61 UNL     1      53.975 -12.521  56.365  1.00  0.00     0.174 HD
ENDBRANCH   7  30
TORSDOF 5
ENDMDL
MODEL 3
REMARK VINA RESULT: -7.731552065      2.458      4.155
REMARK  5 active torsions:
REMARK  status: ('A' for Active; 'I' for Inactive)
REMARK    1  A    between atoms: C2_7  and  C3_8 
REMARK    2  A    between atoms: C3_8  and  S1_9 
REMARK    3  A    between atoms: S1_9  and  C4_10 
REMARK    4  A    between atoms: C6_16  and  N6_17 
REMARK    5  A    between atoms: C7_22  and  N8_23 
ROOT
HETATM    1  C4  UNL     1      57.506 -12.378  53.439  1.00  0.00     0.146 A 
HETATM    2  N4  UNL     1      58.209 -13.485  53.670  1.00  0.00    -0.321 N 
ATOM      3  H4  UNL     1      59.097 -13.514  54.170  1.00  0.00     0.169 HD
HETATM    4  C5  UNL     1      57.585 -14.562  53.150  1.00  0.00     0.153 A 
HETATM    5  N5  UNL     1      57.830 -15.858  53.081  1.00  0.00    -0.174 N 
ATOM      6  H5  UNL     1      58.687 -16.201  53.515  1.00  0.00     0.186 HD
HETATM    7  C6  UNL     1      57.039 -16.753  52.485  1.00  0.00     0.679 A 
HETATM    8  N7  UNL     1      55.915 -16.299  51.916  1.00  0.00    -0.175 N 
ATOM      9  H7  UNL     1      55.293 -16.961  51.453  1.00  0.00     0.186 HD
HETATM   10  C7  UNL     1      55.582 -14.983  51.939  1.00  0.00     0.150 A 
HETATM   11  C12 UNL     1      56.418 -14.061  52.564  1.00  0.00     0.124 A 
HETATM   12  N9  UNL     1      56.382 -12.733  52.745  1.00  0.00    -0.331 N 
ATOM     13  H9  UNL     1      55.649 -12.102  52.423  1.00  0.00     0.168 HD
ENDROOT
BRANCH   1  14
HETATM   14  S1  UNL     1      57.843 -10.683  53.884  1.00  0.00    -0.086 SA
BRANCH  14  15
HETATM   15  C3  UNL     1      57.786 -10.475  55.683  1.00  0.00     0.161 C 
BRANCH  15  16
HETATM   16  C2  UNL     1      56.531  -9.784  56.060  1.00  0.00     0.122 A 
HETATM   17  N3  UNL     1      55.345 -10.379  56.259  1.00  0.00    -0.271 N 
HETATM   18  N2  UNL     1      54.440  -9.474  56.582  1.00  0.00    -0.225 N 
ATOM     19  H3  UNL     1      55.170 -11.380  56.172  1.00  0.00     0.190 HD
HETATM   20  N1  UNL     1      55.028  -8.304  56.594  1.00  0.00    -0.223 N 
ATOM     21  H2  UNL     1      53.456  -9.655  56.786  1.00  0.00     0.210 HD
HETATM   22  C1  UNL     1      54.401  -7.007  56.903  1.00  0.00     0.202 C 
HETATM   23  N10 UNL     1      56.300  -8.479  56.279  1.00  0.00    -0.270 N 
ATOM     24  H10 UNL     1      56.998  -7.738  56.213  1.00  0.00     0.190 HD
ENDBRANCH  15  16
ENDBRANCH  14  15
ENDBRANCH   1  14
BRANCH  10  25
HETATM   25  N8  UNL     1      54.384 -14.564  51.304  1.00  0.00    -0.365 N 
HETATM   26  C8  UNL     1      54.140 -13.717  50.167  1.00  0.00     0.124 C 
HETATM   27  C9  UNL     1      52.715 -13.189  50.283  1.00  0.00     0.021 C 
HETATM   28  C10 UNL     1      52.316 -13.626  51.661  1.00  0.00     0.021 C 
HETATM   29  C11 UNL     1      53.031 -14.984  51.708  1.00  0.00     0.124 C 
ENDBRANCH  10  25
BRANCH   7  30
HETATM   30  N6  UNL     1      57.345 -18.030  52.454  1.00  0.00    -0.234 N 
ATOM     31  H62 UNL     1      58.132 -18.368  51.899  1.00  0.00     0.174 HD
ATOM     32  H61 UNL     1      56.811 -18.722  52.979  1.00  0.00     0.174 HD
ENDBRANCH   7  30
TORSDOF 5
ENDMDL
MODEL 4
REMARK VINA RESULT: -7.695118511      2.542      4.722
REMARK  5 active torsions:
REMARK  status: ('A' for Active; 'I' for Inactive)
REMARK    1  A    between atoms: C2_7  and  C3_8 
REMARK    2  A    between atoms: C3_8  and  S1_9 
REMARK    3  A    between atoms: S1_9  and  C4_10 
REMARK    4  A    between atoms: C6_16  and  N6_17 
REMARK    5  A    between atoms: C7_22  and  N8_23 
ROOT
HETATM    1  C4  UNL     1      57.575 -13.599  53.382  1.00  0.00     0.146 A 
HETATM    2  N4  UNL     1      57.953 -14.875  53.431  1.00  0.00    -0.321 N 
ATOM      3  H4  UNL     1      58.804 -15.210  53.881  1.00  0.00     0.169 HD
HETATM    4  C5  UNL     1      57.054 -15.662  52.805  1.00  0.00     0.153 A 
HETATM    5  N5  UNL     1      56.935 -16.953  52.555  1.00  0.00    -0.174 N 
ATOM      6  H5  UNL     1      57.671 -17.570  52.899  1.00  0.00     0.186 HD
HETATM    7  C6  UNL     1      55.925 -17.511  51.884  1.00  0.00     0.679 A 
HETATM    8  N7  UNL     1      54.962 -16.698  51.433  1.00  0.00    -0.175 N 
ATOM      9  H7  UNL     1      54.179 -17.097  50.916  1.00  0.00     0.186 HD
HETATM   10  C7  UNL     1      55.000 -15.357  51.644  1.00  0.00     0.150 A 
HETATM   11  C12 UNL     1      56.062 -14.789  52.345  1.00  0.00     0.124 A 
HETATM   12  N9  UNL     1      56.391 -13.539  52.700  1.00  0.00    -0.331 N 
ATOM     13  H9  UNL     1      55.854 -12.696  52.499  1.00  0.00     0.168 HD
ENDROOT
BRANCH   1  14
HETATM   14  S1  UNL     1      58.365 -12.136  54.028  1.00  0.00    -0.086 SA
BRANCH  14  15
HETATM   15  C3  UNL     1      57.385 -10.661  53.643  1.00  0.00     0.161 C 
BRANCH  15  16
HETATM   16  C2  UNL     1      56.203 -10.606  54.535  1.00  0.00     0.122 A 
HETATM   17  N3  UNL     1      56.241 -10.463  55.867  1.00  0.00    -0.271 N 
HETATM   18  N2  UNL     1      55.013 -10.454  56.351  1.00  0.00    -0.225 N 
ATOM     19  H3  UNL     1      57.092 -10.374  56.423  1.00  0.00     0.190 HD
HETATM   20  N1  UNL     1      54.184 -10.590  55.346  1.00  0.00    -0.223 N 
ATOM     21  H2  UNL     1      54.755 -10.358  57.334  1.00  0.00     0.210 HD
HETATM   22  C1  UNL     1      52.714 -10.633  55.417  1.00  0.00     0.202 C 
HETATM   23  N10 UNL     1      54.895 -10.683  54.236  1.00  0.00    -0.270 N 
ATOM     24  H10 UNL     1      54.511 -10.796  53.298  1.00  0.00     0.190 HD
ENDBRANCH  15  16
ENDBRANCH  14  15
ENDBRANCH   1  14
BRANCH  10  25
HETATM   25  N8  UNL     1      53.956 -14.547  51.127  1.00  0.00    -0.365 N 
HETATM   26  C8  UNL     1      53.906 -13.624  50.024  1.00  0.00     0.124 C 
HETATM   27  C9  UNL     1      52.747 -12.667  50.276  1.00  0.00     0.021 C 
HETATM   28  C10 UNL     1      52.346 -13.003  51.681  1.00  0.00     0.021 C 
HETATM   29  C11 UNL     1      52.579 -14.520  51.651  1.00  0.00     0.124 C 
ENDBRANCH  10  25
BRANCH   7  30
HETATM   30  N6  UNL     1      55.872 -18.806  51.671  1.00  0.00    -0.234 N 
ATOM     31  H62 UNL     1      56.521 -19.442  52.135  1.00  0.00     0.174 HD
ATOM     32  H61 UNL     1      55.185 -19.217  51.039  1.00  0.00     0.174 HD
ENDBRANCH   7  30
TORSDOF 5
ENDMDL
MODEL 5
REMARK VINA RESULT: -7.675243586      3.976      6.286
REMARK  5 active torsions:
REMARK  status: ('A' for Active; 'I' for Inactive)
REMARK    1  A    between atoms: C2_7  and  C3_8 
REMARK    2  A    between atoms: C3_8  and  S1_9 
REMARK    3  A    between atoms: S1_9  and  C4_10 
REMARK    4  A    between atoms: C6_16  and  N6_17 
REMARK    5  A    between atoms: C7_22  and  N8_23 
ROOT
HETATM    1  C4  UNL     1      54.123 -13.583  50.654  1.00  0.00     0.146 A 
HETATM    2  N4  UNL     1      54.325 -14.899  50.623  1.00  0.00    -0.321 N 
ATOM      3  H4  UNL     1      53.712 -15.569  50.160  1.00  0.00     0.169 HD
HETATM    4  C5  UNL     1      55.452 -15.224  51.289  1.00  0.00     0.153 A 
HETATM    5  N5  UNL     1      56.099 -16.340  51.571  1.00  0.00    -0.174 N 
ATOM      6  H5  UNL     1      55.707 -17.214  51.222  1.00  0.00     0.186 HD
HETATM    7  C6  UNL     1      57.229 -16.409  52.280  1.00  0.00     0.679 A 
HETATM    8  N7  UNL     1      57.740 -15.260  52.736  1.00  0.00    -0.175 N 
ATOM      9  H7  UNL     1      58.602 -15.283  53.281  1.00  0.00     0.186 HD
HETATM   10  C7  UNL     1      57.144 -14.064  52.494  1.00  0.00     0.150 A 
HETATM   11  C12 UNL     1      55.965 -14.008  51.754  1.00  0.00     0.124 A 
HETATM   12  N9  UNL     1      55.148 -13.020  51.363  1.00  0.00    -0.331 N 
ATOM     13  H9  UNL     1      55.269 -12.026  51.559  1.00  0.00     0.168 HD
ENDROOT
BRANCH   1  14
HETATM   14  S1  UNL     1      52.808 -12.601  49.955  1.00  0.00    -0.086 SA
BRANCH  14  15
HETATM   15  C3  UNL     1      52.804 -12.740  48.148  1.00  0.00     0.161 C 
BRANCH  15  16
HETATM   16  C2  UNL     1      52.108 -11.569  47.564  1.00  0.00     0.122 A 
HETATM   17  N3  UNL     1      52.481 -10.919  46.452  1.00  0.00    -0.271 N 
HETATM   18  N2  UNL     1      51.645  -9.925  46.214  1.00  0.00    -0.225 N 
ATOM     19  H3  UNL     1      53.289 -11.156  45.877  1.00  0.00     0.190 HD
HETATM   20  N1  UNL     1      50.738  -9.928  47.160  1.00  0.00    -0.223 N 
ATOM     21  H2  UNL     1      51.696  -9.271  45.433  1.00  0.00     0.210 HD
HETATM   22  C1  UNL     1      49.606  -8.996  47.296  1.00  0.00     0.202 C 
HETATM   23  N10 UNL     1      51.008 -10.923  47.987  1.00  0.00    -0.270 N 
ATOM     24  H10 UNL     1      50.466 -11.164  48.816  1.00  0.00     0.190 HD
ENDBRANCH  15  16
ENDBRANCH  14  15
ENDBRANCH   1  14
BRANCH  10  25
HETATM   25  N8  UNL     1      57.728 -12.883  53.019  1.00  0.00    -0.365 N 
HETATM   26  C8  UNL     1      57.553 -12.192  54.269  1.00  0.00     0.124 C 
HETATM   27  C9  UNL     1      57.990 -10.746  54.062  1.00  0.00     0.021 C 
HETATM   28  C10 UNL     1      58.183 -10.673  52.577  1.00  0.00     0.021 C 
HETATM   29  C11 UNL     1      58.753 -12.077  52.330  1.00  0.00     0.124 C 
ENDBRANCH  10  25
BRANCH   7  30
HETATM   30  N6  UNL     1      57.820 -17.557  52.523  1.00  0.00    -0.234 N 
ATOM     31  H62 UNL     1      58.807 -17.597  52.775  1.00  0.00     0.174 HD
ATOM     32  H61 UNL     1      57.313 -18.441  52.470  1.00  0.00     0.174 HD
ENDBRANCH   7  30
TORSDOF 5
ENDMDL
