MODEL 1
REMARK VINA RESULT: -9.176859443      0.000      0.000
REMARK  16 active torsions:
REMARK  status: ('A' for Active; 'I' for Inactive)
REMARK    1  A    between atoms: C2_2  and  N1_3 
REMARK    2  A    between atoms: N1_3  and  C3_4 
REMARK    3  A    between atoms: N1_3  and  C23_43 
REMARK    4  A    between atoms: C3_4  and  C4_5 
REMARK    5  A    between atoms: C4_5  and  C5_6 
REMARK    6  A    between atoms: C5_6  and  C6_7 
REMARK    7  A    between atoms: C6_7  and  S1_8 
REMARK    8  A    between atoms: S1_8  and  C7_9 
REMARK    9  A    between atoms: C8_12  and  N3_13 
REMARK   10  A    between atoms: N3_13  and  C9_15 
REMARK   11  A    between atoms: C9_15  and  C10_16 
REMARK   12  A    between atoms: C10_16  and  C11_17 
REMARK   13  A    between atoms: C11_17  and  N4_18 
REMARK   14  A    between atoms: N4_18  and  C12_20 
REMARK   15  A    between atoms: C13_23  and  N6_24 
REMARK   16  A    between atoms: C23_43  and  C24_44 
ROOT
HETATM    1  C12 UNL     1      49.693  25.718  31.015  1.00  0.00     0.141 A 
HETATM    2  N5  UNL     1      50.871  25.935  30.422  1.00  0.00    -0.176 N 
ATOM      3  H5  UNL     1      51.043  26.848  30.000  1.00  0.00     0.186 HD
HETATM    4  C13 UNL     1      51.849  24.993  30.356  1.00  0.00     0.678 A 
HETATM    5  N7  UNL     1      51.618  23.804  30.910  1.00  0.00    -0.177 N 
ATOM      6  H7  UNL     1      52.343  23.088  30.868  1.00  0.00     0.185 HD
HETATM    7  C14 UNL     1      50.439  23.516  31.531  1.00  0.00     0.156 A 
HETATM    8  N8  UNL     1      50.215  22.246  32.112  1.00  0.00    -0.080 NA
HETATM    9  C15 UNL     1      49.468  24.469  31.588  1.00  0.00     0.130 A 
HETATM   10  C16 UNL     1      48.206  24.210  32.239  1.00  0.00     0.107 C 
HETATM   11  N9  UNL     1      47.205  24.002  32.776  1.00  0.00    -0.191 NA
ENDROOT
BRANCH   1  12
HETATM   12  N4  UNL     1      48.746  26.563  31.108  1.00  0.00    -0.374 N 
ATOM     13  H4  UNL     1      47.864  26.204  31.472  1.00  0.00     0.161 HD
BRANCH  12  14
HETATM   14  C11 UNL     1      48.757  27.935  30.772  1.00  0.00     0.123 C 
BRANCH  14  15
HETATM   15  C10 UNL     1      48.980  28.874  31.946  1.00  0.00     0.039 C 
BRANCH  15  16
HETATM   16  C9  UNL     1      50.148  29.821  31.651  1.00  0.00     0.123 C 
BRANCH  16  17
HETATM   17  N3  UNL     1      50.272  30.801  32.712  1.00  0.00    -0.375 N 
ATOM     18  H3  UNL     1      51.048  30.765  33.373  1.00  0.00     0.161 HD
BRANCH  17  19
HETATM   19  C8  UNL     1      49.370  31.718  32.791  1.00  0.00     0.115 A 
HETATM   20  N2  UNL     1      48.919  32.410  31.727  1.00  0.00    -0.322 N 
HETATM   21  C7  UNL     1      47.946  33.373  31.841  1.00  0.00     0.146 A 
ATOM     22  H2  UNL     1      49.313  32.212  30.807  1.00  0.00     0.169 HD
HETATM   23  N10 UNL     1      47.441  33.617  33.057  1.00  0.00    -0.336 N 
HETATM   24  C22 UNL     1      47.843  32.960  34.184  1.00  0.00     0.048 A 
ATOM     25  H10 UNL     1      46.718  34.330  33.145  1.00  0.00     0.168 HD
HETATM   26  C17 UNL     1      48.820  32.005  34.023  1.00  0.00     0.036 A 
HETATM   27  C21 UNL     1      47.287  33.250  35.410  1.00  0.00     0.032 A 
HETATM   28  C18 UNL     1      49.271  31.300  35.121  1.00  0.00     0.041 A 
HETATM   29  C19 UNL     1      48.710  31.596  36.345  1.00  0.00     0.035 A 
HETATM   30 CL1  UNL     1      49.312  30.677  37.715  1.00  0.00    -0.084 Cl
HETATM   31  C20 UNL     1      47.727  32.556  36.510  1.00  0.00     0.026 A 
BRANCH  21  32
HETATM   32  S1  UNL     1      47.415  34.272  30.385  1.00  0.00    -0.094 SA
BRANCH  32  33
HETATM   33  C6  UNL     1      46.426  33.180  29.335  1.00  0.00     0.082 C 
BRANCH  33  34
HETATM   34  C5  UNL     1      46.014  31.984  30.109  1.00  0.00     0.012 C 
BRANCH  34  35
HETATM   35  C4  UNL     1      46.688  30.681  29.625  1.00  0.00     0.031 C 
BRANCH  35  36
HETATM   36  C3  UNL     1      47.477  30.987  28.438  1.00  0.00     0.272 C 
BRANCH  36  37
HETATM   37  N1  UNL     1      48.923  30.903  28.483  1.00  0.00     0.096 N 
BRANCH  37  38
HETATM   38  C2  UNL     1      49.138  29.721  27.546  1.00  0.00     0.268 C 
HETATM   39  C1  UNL     1      50.430  29.049  27.881  1.00  0.00     0.037 C 
ENDBRANCH  37  38
BRANCH  37  40
HETATM   40  C23 UNL     1      49.652  31.942  27.853  1.00  0.00     0.389 C 
BRANCH  40  41
HETATM   41  C24 UNL     1      50.840  32.497  28.576  1.00  0.00     0.413 C 
HETATM   42  F1  UNL     1      50.652  33.882  28.784  1.00  0.00    -0.169 F 
HETATM   43  F2  UNL     1      51.280  31.887  29.681  1.00  0.00    -0.169 F 
HETATM   44  F3  UNL     1      51.961  32.505  27.691  1.00  0.00    -0.169 F 
ENDBRANCH  40  41
ENDBRANCH  37  40
ENDBRANCH  36  37
ENDBRANCH  35  36
ENDBRANCH  34  35
ENDBRANCH  33  34
ENDBRANCH  32  33
ENDBRANCH  21  32
ENDBRANCH  17  19
ENDBRANCH  16  17
ENDBRANCH  15  16
ENDBRANCH  14  15
ENDBRANCH  12  14
ENDBRANCH   1  12
BRANCH   4  45
HETATM   45  N6  UNL     1      52.976  25.256  29.770  1.00  0.00    -0.234 N 
ATOM     46  H62 UNL     1      53.101  26.106  29.220  1.00  0.00     0.174 HD
ATOM     47  H61 UNL     1      53.761  24.610  29.848  1.00  0.00     0.174 HD
ENDBRANCH   4  45
TORSDOF 16
ENDMDL
MODEL 2
REMARK VINA RESULT: -8.792636559      3.378      5.102
REMARK  16 active torsions:
REMARK  status: ('A' for Active; 'I' for Inactive)
REMARK    1  A    between atoms: C2_2  and  N1_3 
REMARK    2  A    between atoms: N1_3  and  C3_4 
REMARK    3  A    between atoms: N1_3  and  C23_43 
REMARK    4  A    between atoms: C3_4  and  C4_5 
REMARK    5  A    between atoms: C4_5  and  C5_6 
REMARK    6  A    between atoms: C5_6  and  C6_7 
REMARK    7  A    between atoms: C6_7  and  S1_8 
REMARK    8  A    between atoms: S1_8  and  C7_9 
REMARK    9  A    between atoms: C8_12  and  N3_13 
REMARK   10  A    between atoms: N3_13  and  C9_15 
REMARK   11  A    between atoms: C9_15  and  C10_16 
REMARK   12  A    between atoms: C10_16  and  C11_17 
REMARK   13  A    between atoms: C11_17  and  N4_18 
REMARK   14  A    between atoms: N4_18  and  C12_20 
REMARK   15  A    between atoms: C13_23  and  N6_24 
REMARK   16  A    between atoms: C23_43  and  C24_44 
ROOT
HETATM    1  C12 UNL     1      54.958  29.296  30.329  1.00  0.00     0.141 A 
HETATM    2  N5  UNL     1      55.784  28.280  30.597  1.00  0.00    -0.176 N 
ATOM      3  H5  UNL     1      55.615  27.723  31.434  1.00  0.00     0.186 HD
HETATM    4  C13 UNL     1      56.840  27.957  29.802  1.00  0.00     0.678 A 
HETATM    5  N7  UNL     1      57.054  28.688  28.710  1.00  0.00    -0.177 N 
ATOM      6  H7  UNL     1      57.842  28.457  28.105  1.00  0.00     0.185 HD
HETATM    7  C14 UNL     1      56.249  29.738  28.377  1.00  0.00     0.156 A 
HETATM    8  N8  UNL     1      56.496  30.501  27.211  1.00  0.00    -0.080 NA
HETATM    9  C15 UNL     1      55.197  30.050  29.182  1.00  0.00     0.130 A 
HETATM   10  C16 UNL     1      54.317  31.150  28.867  1.00  0.00     0.107 C 
HETATM   11  N9  UNL     1      53.606  32.021  28.600  1.00  0.00    -0.191 NA
ENDROOT
BRANCH   1  12
HETATM   12  N4  UNL     1      53.956  29.639  31.034  1.00  0.00    -0.374 N 
ATOM     13  H4  UNL     1      53.054  29.267  30.734  1.00  0.00     0.161 HD
BRANCH  12  14
HETATM   14  C11 UNL     1      53.929  30.467  32.178  1.00  0.00     0.123 C 
BRANCH  14  15
HETATM   15  C10 UNL     1      52.707  31.364  32.282  1.00  0.00     0.039 C 
BRANCH  15  16
HETATM   16  C9  UNL     1      51.468  30.632  31.757  1.00  0.00     0.123 C 
BRANCH  16  17
HETATM   17  N3  UNL     1      50.460  30.556  32.795  1.00  0.00    -0.375 N 
ATOM     18  H3  UNL     1      50.492  29.827  33.509  1.00  0.00     0.161 HD
BRANCH  17  19
HETATM   19  C8  UNL     1      49.520  31.439  32.786  1.00  0.00     0.115 A 
HETATM   20  N2  UNL     1      49.073  32.035  31.664  1.00  0.00    -0.322 N 
HETATM   21  C7  UNL     1      48.061  32.964  31.685  1.00  0.00     0.146 A 
ATOM     22  H2  UNL     1      49.499  31.790  30.771  1.00  0.00     0.169 HD
HETATM   23  N10 UNL     1      47.512  33.271  32.867  1.00  0.00    -0.336 N 
HETATM   24  C22 UNL     1      47.908  32.712  34.048  1.00  0.00     0.048 A 
ATOM     25  H10 UNL     1      46.760  33.959  32.887  1.00  0.00     0.168 HD
HETATM   26  C17 UNL     1      48.925  31.789  33.980  1.00  0.00     0.036 A 
HETATM   27  C21 UNL     1      47.307  33.064  35.236  1.00  0.00     0.032 A 
HETATM   28  C18 UNL     1      49.373  31.182  35.136  1.00  0.00     0.041 A 
HETATM   29  C19 UNL     1      48.767  31.539  36.322  1.00  0.00     0.035 A 
HETATM   30 CL1  UNL     1      49.366  30.745  37.769  1.00  0.00    -0.084 Cl
HETATM   31  C20 UNL     1      47.743  32.468  36.394  1.00  0.00     0.026 A 
BRANCH  21  32
HETATM   32  S1  UNL     1      47.535  33.736  30.156  1.00  0.00    -0.094 SA
BRANCH  32  33
HETATM   33  C6  UNL     1      46.683  32.514  29.131  1.00  0.00     0.082 C 
BRANCH  33  34
HETATM   34  C5  UNL     1      45.816  31.665  29.984  1.00  0.00     0.012 C 
BRANCH  34  35
HETATM   35  C4  UNL     1      46.256  30.185  30.019  1.00  0.00     0.031 C 
BRANCH  35  36
HETATM   36  C3  UNL     1      47.226  29.969  28.953  1.00  0.00     0.272 C 
BRANCH  36  37
HETATM   37  N1  UNL     1      48.279  28.987  29.113  1.00  0.00     0.096 N 
BRANCH  37  38
HETATM   38  C2  UNL     1      49.489  29.859  28.803  1.00  0.00     0.268 C 
HETATM   39  C1  UNL     1      50.512  29.050  28.074  1.00  0.00     0.037 C 
ENDBRANCH  37  38
BRANCH  37  40
HETATM   40  C23 UNL     1      48.546  28.533  30.429  1.00  0.00     0.389 C 
BRANCH  40  41
HETATM   41  C24 UNL     1      48.737  27.061  30.632  1.00  0.00     0.413 C 
HETATM   42  F1  UNL     1      47.862  26.357  29.775  1.00  0.00    -0.169 F 
HETATM   43  F2  UNL     1      49.971  26.549  30.606  1.00  0.00    -0.169 F 
HETATM   44  F3  UNL     1      48.216  26.698  31.911  1.00  0.00    -0.169 F 
ENDBRANCH  40  41
ENDBRANCH  37  40
ENDBRANCH  36  37
ENDBRANCH  35  36
ENDBRANCH  34  35
ENDBRANCH  33  34
ENDBRANCH  32  33
ENDBRANCH  21  32
ENDBRANCH  17  19
ENDBRANCH  16  17
ENDBRANCH  15  16
ENDBRANCH  14  15
ENDBRANCH  12  14
ENDBRANCH   1  12
BRANCH   4  45
HETATM   45  N6  UNL     1      57.610  26.960  30.107  1.00  0.00    -0.234 N 
ATOM     46  H62 UNL     1      57.408  26.359  30.906  1.00  0.00     0.174 HD
ATOM     47  H61 UNL     1      58.440  26.760  29.549  1.00  0.00     0.174 HD
ENDBRANCH   4  45
TORSDOF 16
ENDMDL
MODEL 3
REMARK VINA RESULT: -8.568520530      5.186      8.383
REMARK  16 active torsions:
REMARK  status: ('A' for Active; 'I' for Inactive)
REMARK    1  A    between atoms: C2_2  and  N1_3 
REMARK    2  A    between atoms: N1_3  and  C3_4 
REMARK    3  A    between atoms: N1_3  and  C23_43 
REMARK    4  A    between atoms: C3_4  and  C4_5 
REMARK    5  A    between atoms: C4_5  and  C5_6 
REMARK    6  A    between atoms: C5_6  and  C6_7 
REMARK    7  A    between atoms: C6_7  and  S1_8 
REMARK    8  A    between atoms: S1_8  and  C7_9 
REMARK    9  A    between atoms: C8_12  and  N3_13 
REMARK   10  A    between atoms: N3_13  and  C9_15 
REMARK   11  A    between atoms: C9_15  and  C10_16 
REMARK   12  A    between atoms: C10_16  and  C11_17 
REMARK   13  A    between atoms: C11_17  and  N4_18 
REMARK   14  A    between atoms: N4_18  and  C12_20 
REMARK   15  A    between atoms: C13_23  and  N6_24 
REMARK   16  A    between atoms: C23_43  and  C24_44 
ROOT
HETATM    1  C12 UNL     1      40.545  29.507  29.431  1.00  0.00     0.141 A 
HETATM    2  N5  UNL     1      40.270  28.458  30.212  1.00  0.00    -0.176 N 
ATOM      3  H5  UNL     1      40.996  28.114  30.841  1.00  0.00     0.186 HD
HETATM    4  C13 UNL     1      39.065  27.827  30.204  1.00  0.00     0.678 A 
HETATM    5  N7  UNL     1      38.121  28.281  29.380  1.00  0.00    -0.177 N 
ATOM      6  H7  UNL     1      37.213  27.817  29.364  1.00  0.00     0.185 HD
HETATM    7  C14 UNL     1      38.335  29.347  28.558  1.00  0.00     0.156 A 
HETATM    8  N8  UNL     1      37.318  29.811  27.692  1.00  0.00    -0.080 NA
HETATM    9  C15 UNL     1      39.546  29.968  28.576  1.00  0.00     0.130 A 
HETATM   10  C16 UNL     1      39.816  31.102  27.726  1.00  0.00     0.107 C 
HETATM   11  N9  UNL     1      40.020  32.021  27.055  1.00  0.00    -0.191 NA
ENDROOT
BRANCH   1  12
HETATM   12  N4  UNL     1      41.651  30.135  29.401  1.00  0.00    -0.374 N 
ATOM     13  H4  UNL     1      41.602  31.106  29.092  1.00  0.00     0.161 HD
BRANCH  12  14
HETATM   14  C11 UNL     1      42.939  29.663  29.740  1.00  0.00     0.123 C 
BRANCH  14  15
HETATM   15  C10 UNL     1      43.837  30.693  30.402  1.00  0.00     0.039 C 
BRANCH  15  16
HETATM   16  C9  UNL     1      45.195  30.744  29.694  1.00  0.00     0.123 C 
BRANCH  16  17
HETATM   17  N3  UNL     1      46.243  30.313  30.598  1.00  0.00    -0.375 N 
ATOM     18  H3  UNL     1      46.030  29.749  31.421  1.00  0.00     0.161 HD
BRANCH  17  19
HETATM   19  C8  UNL     1      47.452  30.667  30.326  1.00  0.00     0.115 A 
HETATM   20  N2  UNL     1      47.858  31.950  30.281  1.00  0.00    -0.322 N 
HETATM   21  C7  UNL     1      49.158  32.295  30.001  1.00  0.00     0.146 A 
ATOM     22  H2  UNL     1      47.178  32.689  30.459  1.00  0.00     0.169 HD
HETATM   23  N10 UNL     1      50.036  31.311  29.771  1.00  0.00    -0.336 N 
HETATM   24  C22 UNL     1      49.705  29.987  29.799  1.00  0.00     0.048 A 
ATOM     25  H10 UNL     1      51.002  31.563  29.565  1.00  0.00     0.168 HD
HETATM   26  C17 UNL     1      48.392  29.687  30.081  1.00  0.00     0.036 A 
HETATM   27  C21 UNL     1      50.650  29.015  29.557  1.00  0.00     0.032 A 
HETATM   28  C18 UNL     1      47.989  28.368  30.129  1.00  0.00     0.041 A 
HETATM   29  C19 UNL     1      48.940  27.400  29.885  1.00  0.00     0.035 A 
HETATM   30 CL1  UNL     1      48.387  25.735  29.954  1.00  0.00    -0.084 Cl
HETATM   31  C20 UNL     1      50.262  27.698  29.601  1.00  0.00     0.026 A 
BRANCH  21  32
HETATM   32  S1  UNL     1      49.619  34.025  29.931  1.00  0.00    -0.094 SA
BRANCH  32  33
HETATM   33  C6  UNL     1      48.212  35.042  30.439  1.00  0.00     0.082 C 
BRANCH  33  34
HETATM   34  C5  UNL     1      48.536  35.745  31.704  1.00  0.00     0.012 C 
BRANCH  34  35
HETATM   35  C4  UNL     1      49.257  34.848  32.734  1.00  0.00     0.031 C 
BRANCH  35  36
HETATM   36  C3  UNL     1      48.248  34.174  33.541  1.00  0.00     0.272 C 
BRANCH  36  37
HETATM   37  N1  UNL     1      48.606  33.016  34.336  1.00  0.00     0.096 N 
BRANCH  37  38
HETATM   38  C2  UNL     1      47.376  32.934  35.232  1.00  0.00     0.268 C 
HETATM   39  C1  UNL     1      47.765  32.377  36.562  1.00  0.00     0.037 C 
ENDBRANCH  37  38
BRANCH  37  40
HETATM   40  C23 UNL     1      48.605  31.758  33.685  1.00  0.00     0.389 C 
BRANCH  40  41
HETATM   41  C24 UNL     1      49.797  30.872  33.882  1.00  0.00     0.413 C 
HETATM   42  F1  UNL     1      50.849  31.319  33.050  1.00  0.00    -0.169 F 
HETATM   43  F2  UNL     1      50.224  30.611  35.121  1.00  0.00    -0.169 F 
HETATM   44  F3  UNL     1      49.524  29.592  33.310  1.00  0.00    -0.169 F 
ENDBRANCH  40  41
ENDBRANCH  37  40
ENDBRANCH  36  37
ENDBRANCH  35  36
ENDBRANCH  34  35
ENDBRANCH  33  34
ENDBRANCH  32  33
ENDBRANCH  21  32
ENDBRANCH  17  19
ENDBRANCH  16  17
ENDBRANCH  15  16
ENDBRANCH  14  15
ENDBRANCH  12  14
ENDBRANCH   1  12
BRANCH   4  45
HETATM   45  N6  UNL     1      38.849  26.813  30.983  1.00  0.00    -0.234 N 
ATOM     46  H62 UNL     1      38.567  26.943  31.955  1.00  0.00     0.174 HD
ATOM     47  H61 UNL     1      38.960  25.861  30.634  1.00  0.00     0.174 HD
ENDBRANCH   4  45
TORSDOF 16
ENDMDL
MODEL 4
REMARK VINA RESULT: -8.559902149      3.640      7.774
REMARK  16 active torsions:
REMARK  status: ('A' for Active; 'I' for Inactive)
REMARK    1  A    between atoms: C2_2  and  N1_3 
REMARK    2  A    between atoms: N1_3  and  C3_4 
REMARK    3  A    between atoms: N1_3  and  C23_43 
REMARK    4  A    between atoms: C3_4  and  C4_5 
REMARK    5  A    between atoms: C4_5  and  C5_6 
REMARK    6  A    between atoms: C5_6  and  C6_7 
REMARK    7  A    between atoms: C6_7  and  S1_8 
REMARK    8  A    between atoms: S1_8  and  C7_9 
REMARK    9  A    between atoms: C8_12  and  N3_13 
REMARK   10  A    between atoms: N3_13  and  C9_15 
REMARK   11  A    between atoms: C9_15  and  C10_16 
REMARK   12  A    between atoms: C10_16  and  C11_17 
REMARK   13  A    between atoms: C11_17  and  N4_18 
REMARK   14  A    between atoms: N4_18  and  C12_20 
REMARK   15  A    between atoms: C13_23  and  N6_24 
REMARK   16  A    between atoms: C23_43  and  C24_44 
ROOT
HETATM    1  C12 UNL     1      45.352  35.218  27.223  1.00  0.00     0.141 A 
HETATM    2  N5  UNL     1      45.456  36.401  26.610  1.00  0.00    -0.176 N 
ATOM      3  H5  UNL     1      45.702  37.219  27.167  1.00  0.00     0.186 HD
HETATM    4  C13 UNL     1      45.248  36.562  25.276  1.00  0.00     0.678 A 
HETATM    5  N7  UNL     1      44.927  35.490  24.553  1.00  0.00    -0.177 N 
ATOM      6  H7  UNL     1      44.768  35.596  23.552  1.00  0.00     0.185 HD
HETATM    7  C14 UNL     1      44.806  34.253  25.115  1.00  0.00     0.156 A 
HETATM    8  N8  UNL     1      44.464  33.128  24.329  1.00  0.00    -0.080 NA
HETATM    9  C15 UNL     1      45.016  34.107  26.452  1.00  0.00     0.130 A 
HETATM   10  C16 UNL     1      44.902  32.817  27.090  1.00  0.00     0.107 C 
HETATM   11  N9  UNL     1      44.826  31.779  27.590  1.00  0.00    -0.191 NA
ENDROOT
BRANCH   1  12
HETATM   12  N4  UNL     1      45.540  35.011  28.464  1.00  0.00    -0.374 N 
ATOM     13  H4  UNL     1      45.553  34.033  28.754  1.00  0.00     0.161 HD
BRANCH  12  14
HETATM   14  C11 UNL     1      45.731  35.959  29.494  1.00  0.00     0.123 C 
BRANCH  14  15
HETATM   15  C10 UNL     1      46.909  35.671  30.410  1.00  0.00     0.039 C 
BRANCH  15  16
HETATM   16  C9  UNL     1      46.798  34.255  30.984  1.00  0.00     0.123 C 
BRANCH  16  17
HETATM   17  N3  UNL     1      47.644  34.125  32.153  1.00  0.00    -0.375 N 
ATOM     18  H3  UNL     1      47.517  34.730  32.965  1.00  0.00     0.161 HD
BRANCH  17  19
HETATM   19  C8  UNL     1      48.561  33.220  32.133  1.00  0.00     0.115 A 
HETATM   20  N2  UNL     1      49.300  32.935  31.043  1.00  0.00    -0.322 N 
HETATM   21  C7  UNL     1      50.280  31.973  31.057  1.00  0.00     0.146 A 
ATOM     22  H2  UNL     1      49.125  33.450  30.181  1.00  0.00     0.169 HD
HETATM   23  N10 UNL     1      50.495  31.308  32.199  1.00  0.00    -0.336 N 
HETATM   24  C22 UNL     1      49.790  31.537  33.346  1.00  0.00     0.048 A 
ATOM     25  H10 UNL     1      51.222  30.594  32.214  1.00  0.00     0.168 HD
HETATM   26  C17 UNL     1      48.818  32.508  33.287  1.00  0.00     0.036 A 
HETATM   27  C21 UNL     1      50.055  30.825  34.495  1.00  0.00     0.032 A 
HETATM   28  C18 UNL     1      48.070  32.793  34.411  1.00  0.00     0.041 A 
HETATM   29  C19 UNL     1      48.340  32.076  35.557  1.00  0.00     0.035 A 
HETATM   30 CL1  UNL     1      47.366  32.469  36.965  1.00  0.00    -0.084 Cl
HETATM   31  C20 UNL     1      49.317  31.098  35.621  1.00  0.00     0.026 A 
BRANCH  21  32
HETATM   32  S1  UNL     1      51.205  31.629  29.561  1.00  0.00    -0.094 SA
BRANCH  32  33
HETATM   33  C6  UNL     1      50.128  31.857  28.126  1.00  0.00     0.082 C 
BRANCH  33  34
HETATM   34  C5  UNL     1      50.362  30.766  27.149  1.00  0.00     0.012 C 
BRANCH  34  35
HETATM   35  C4  UNL     1      50.490  29.374  27.808  1.00  0.00     0.031 C 
BRANCH  35  36
HETATM   36  C3  UNL     1      49.150  28.854  28.046  1.00  0.00     0.272 C 
BRANCH  36  37
HETATM   37  N1  UNL     1      48.616  28.803  29.392  1.00  0.00     0.096 N 
BRANCH  37  38
HETATM   38  C2  UNL     1      47.317  29.570  29.180  1.00  0.00     0.268 C 
HETATM   39  C1  UNL     1      46.927  30.250  30.451  1.00  0.00     0.037 C 
ENDBRANCH  37  38
BRANCH  37  40
HETATM   40  C23 UNL     1      48.166  27.545  29.864  1.00  0.00     0.389 C 
BRANCH  40  41
HETATM   41  C24 UNL     1      48.718  27.051  31.165  1.00  0.00     0.413 C 
HETATM   42  F1  UNL     1      49.179  28.152  31.922  1.00  0.00    -0.169 F 
HETATM   43  F2  UNL     1      47.993  26.210  31.909  1.00  0.00    -0.169 F 
HETATM   44  F3  UNL     1      49.943  26.359  30.918  1.00  0.00    -0.169 F 
ENDBRANCH  40  41
ENDBRANCH  37  40
ENDBRANCH  36  37
ENDBRANCH  35  36
ENDBRANCH  34  35
ENDBRANCH  33  34
ENDBRANCH  32  33
ENDBRANCH  21  32
ENDBRANCH  17  19
ENDBRANCH  16  17
ENDBRANCH  15  16
ENDBRANCH  14  15
ENDBRANCH  12  14
ENDBRANCH   1  12
BRANCH   4  45
HETATM   45  N6  UNL     1      45.362  37.732  24.729  1.00  0.00    -0.234 N 
ATOM     46  H62 UNL     1      44.598  38.144  24.193  1.00  0.00     0.174 HD
ATOM     47  H61 UNL     1      46.227  38.265  24.826  1.00  0.00     0.174 HD
ENDBRANCH   4  45
TORSDOF 16
ENDMDL
MODEL 5
REMARK VINA RESULT: -8.553891738      3.411      6.515
REMARK  16 active torsions:
REMARK  status: ('A' for Active; 'I' for Inactive)
REMARK    1  A    between atoms: C2_2  and  N1_3 
REMARK    2  A    between atoms: N1_3  and  C3_4 
REMARK    3  A    between atoms: N1_3  and  C23_43 
REMARK    4  A    between atoms: C3_4  and  C4_5 
REMARK    5  A    between atoms: C4_5  and  C5_6 
REMARK    6  A    between atoms: C5_6  and  C6_7 
REMARK    7  A    between atoms: C6_7  and  S1_8 
REMARK    8  A    between atoms: S1_8  and  C7_9 
REMARK    9  A    between atoms: C8_12  and  N3_13 
REMARK   10  A    between atoms: N3_13  and  C9_15 
REMARK   11  A    between atoms: C9_15  and  C10_16 
REMARK   12  A    between atoms: C10_16  and  C11_17 
REMARK   13  A    between atoms: C11_17  and  N4_18 
REMARK   14  A    between atoms: N4_18  and  C12_20 
REMARK   15  A    between atoms: C13_23  and  N6_24 
REMARK   16  A    between atoms: C23_43  and  C24_44 
ROOT
HETATM    1  C12 UNL     1      51.149  29.334  29.014  1.00  0.00     0.141 A 
HETATM    2  N5  UNL     1      50.396  29.606  27.944  1.00  0.00    -0.176 N 
ATOM      3  H5  UNL     1      49.603  28.997  27.738  1.00  0.00     0.186 HD
HETATM    4  C13 UNL     1      50.639  30.659  27.118  1.00  0.00     0.678 A 
HETATM    5  N7  UNL     1      51.674  31.450  27.393  1.00  0.00    -0.177 N 
ATOM      6  H7  UNL     1      51.868  32.244  26.782  1.00  0.00     0.185 HD
HETATM    7  C14 UNL     1      52.482  31.230  28.469  1.00  0.00     0.156 A 
HETATM    8  N8  UNL     1      53.577  32.084  28.742  1.00  0.00    -0.080 NA
HETATM    9  C15 UNL     1      52.227  30.172  29.287  1.00  0.00     0.130 A 
HETATM   10  C16 UNL     1      53.054  29.903  30.439  1.00  0.00     0.107 C 
HETATM   11  N9  UNL     1      53.709  29.703  31.369  1.00  0.00    -0.191 NA
ENDROOT
BRANCH   1  12
HETATM   12  N4  UNL     1      50.964  28.367  29.820  1.00  0.00    -0.374 N 
ATOM     13  H4  UNL     1      51.443  28.440  30.718  1.00  0.00     0.161 HD
BRANCH  12  14
HETATM   14  C11 UNL     1      50.183  27.205  29.634  1.00  0.00     0.123 C 
BRANCH  14  15
HETATM   15  C10 UNL     1      48.736  27.336  30.079  1.00  0.00     0.039 C 
BRANCH  15  16
HETATM   16  C9  UNL     1      48.631  28.315  31.252  1.00  0.00     0.123 C 
BRANCH  16  17
HETATM   17  N3  UNL     1      47.464  29.160  31.090  1.00  0.00    -0.375 N 
ATOM     18  H3  UNL     1      46.556  28.882  31.463  1.00  0.00     0.161 HD
BRANCH  17  19
HETATM   19  C8  UNL     1      47.613  30.274  30.459  1.00  0.00     0.115 A 
HETATM   20  N2  UNL     1      48.658  31.101  30.648  1.00  0.00    -0.322 N 
HETATM   21  C7  UNL     1      48.795  32.277  29.950  1.00  0.00     0.146 A 
ATOM     22  H2  UNL     1      49.371  30.847  31.331  1.00  0.00     0.169 HD
HETATM   23  N10 UNL     1      47.849  32.593  29.057  1.00  0.00    -0.336 N 
HETATM   24  C22 UNL     1      46.760  31.809  28.806  1.00  0.00     0.048 A 
ATOM     25  H10 UNL     1      47.948  33.464  28.536  1.00  0.00     0.168 HD
HETATM   26  C17 UNL     1      46.663  30.643  29.528  1.00  0.00     0.036 A 
HETATM   27  C21 UNL     1      45.818  32.182  27.873  1.00  0.00     0.032 A 
HETATM   28  C18 UNL     1      45.588  29.802  29.323  1.00  0.00     0.041 A 
HETATM   29  C19 UNL     1      44.648  30.182  28.388  1.00  0.00     0.035 A 
HETATM   30 CL1  UNL     1      43.296  29.084  28.158  1.00  0.00    -0.084 Cl
HETATM   31  C20 UNL     1      44.743  31.355  27.660  1.00  0.00     0.026 A 
BRANCH  21  32
HETATM   32  S1  UNL     1      50.200  33.340  30.274  1.00  0.00    -0.094 SA
BRANCH  32  33
HETATM   33  C6  UNL     1      49.652  35.064  30.300  1.00  0.00     0.082 C 
BRANCH  33  34
HETATM   34  C5  UNL     1      48.829  35.307  31.509  1.00  0.00     0.012 C 
BRANCH  34  35
HETATM   35  C4  UNL     1      49.420  34.674  32.788  1.00  0.00     0.031 C 
BRANCH  35  36
HETATM   36  C3  UNL     1      48.331  34.080  33.552  1.00  0.00     0.272 C 
BRANCH  36  37
HETATM   37  N1  UNL     1      48.593  32.985  34.464  1.00  0.00     0.096 N 
BRANCH  37  38
HETATM   38  C2  UNL     1      47.300  33.011  35.270  1.00  0.00     0.268 C 
HETATM   39  C1  UNL     1      47.587  32.625  36.685  1.00  0.00     0.037 C 
ENDBRANCH  37  38
BRANCH  37  40
HETATM   40  C23 UNL     1      48.598  31.676  33.920  1.00  0.00     0.389 C 
BRANCH  40  41
HETATM   41  C24 UNL     1      49.814  30.832  34.151  1.00  0.00     0.413 C 
HETATM   42  F1  UNL     1      49.474  29.471  33.973  1.00  0.00    -0.169 F 
HETATM   43  F2  UNL     1      50.956  31.141  33.528  1.00  0.00    -0.169 F 
HETATM   44  F3  UNL     1      50.137  30.852  35.542  1.00  0.00    -0.169 F 
ENDBRANCH  40  41
ENDBRANCH  37  40
ENDBRANCH  36  37
ENDBRANCH  35  36
ENDBRANCH  34  35
ENDBRANCH  33  34
ENDBRANCH  32  33
ENDBRANCH  21  32
ENDBRANCH  17  19
ENDBRANCH  16  17
ENDBRANCH  15  16
ENDBRANCH  14  15
ENDBRANCH  12  14
ENDBRANCH   1  12
BRANCH   4  45
HETATM   45  N6  UNL     1      49.876  30.880  26.093  1.00  0.00    -0.234 N 
ATOM     46  H62 UNL     1      50.231  31.350  25.260  1.00  0.00     0.174 HD
ATOM     47  H61 UNL     1      48.899  30.586  26.104  1.00  0.00     0.174 HD
ENDBRANCH   4  45
TORSDOF 16
ENDMDL
