MODEL 1
REMARK VINA RESULT: -9.866245841      0.000      0.000
REMARK  13 active torsions:
REMARK  status: ('A' for Active; 'I' for Inactive)
REMARK    1  A    between atoms: C2_5  and  C3_6 
REMARK    2  A    between atoms: C3_6  and  N2_7 
REMARK    3  A    between atoms: N2_7  and  C4_10 
REMARK    4  A    between atoms: C4_10  and  C5_11 
REMARK    5  A    between atoms: C16_31  and  O3_32 
REMARK    6  A    between atoms: O3_32  and  C17_33 
REMARK    7  A    between atoms: C17_33  and  C18_34 
REMARK    8  A    between atoms: C18_34  and  C19_35 
REMARK    9  A    between atoms: C19_35  and  C20_36 
REMARK   10  A    between atoms: C20_36  and  C21_37 
REMARK   11  A    between atoms: C21_37  and  C22_38 
REMARK   12  A    between atoms: C22_38  and  O4_39 
REMARK   13  A    between atoms: N5_41  and  O5_43 
ROOT
HETATM    1  O1  UNL     1      47.810  29.522  31.661  1.00  0.00    -0.267 OA
HETATM    2  C1  UNL     1      47.834  30.658  31.221  1.00  0.00     0.258 C 
HETATM    3  N1  UNL     1      47.480  31.776  32.068  1.00  0.00    -0.350 N 
ATOM      4  H1  UNL     1      46.887  31.528  32.861  1.00  0.00     0.163 HD
HETATM    5  C2  UNL     1      47.814  33.183  31.994  1.00  0.00     0.114 C 
HETATM    6  C6  UNL     1      46.988  34.050  31.152  1.00  0.00     0.069 C 
HETATM    7  C7  UNL     1      46.824  33.767  29.719  1.00  0.00    -0.003 A 
HETATM    8  C8  UNL     1      47.194  32.818  28.758  1.00  0.00     0.004 A 
HETATM    9  C9  UNL     1      46.773  32.848  27.459  1.00  0.00     0.058 A 
HETATM   10  C10 UNL     1      45.943  33.872  27.068  1.00  0.00     0.142 A 
HETATM   11  F3  UNL     1      45.520  33.922  25.796  1.00  0.00    -0.204 F 
HETATM   12  C11 UNL     1      45.550  34.834  27.968  1.00  0.00     0.111 A 
HETATM   13 CL1  UNL     1      44.480  36.142  27.427  1.00  0.00    -0.078 Cl
HETATM   14  C12 UNL     1      45.978  34.783  29.256  1.00  0.00     0.148 A 
HETATM   15  F4  UNL     1      45.597  35.728  30.164  1.00  0.00    -0.204 F 
HETATM   16  C13 UNL     1      48.053  31.635  28.802  1.00  0.00     0.067 A 
HETATM   17  N3  UNL     1      48.599  31.558  27.602  1.00  0.00    -0.306 N 
ATOM     18  H3  UNL     1      48.439  32.267  26.887  1.00  0.00     0.171 HD
HETATM   19  C14 UNL     1      49.381  30.483  27.382  1.00  0.00     0.332 A 
HETATM   20  O2  UNL     1      49.923  30.357  26.258  1.00  0.00    -0.246 OA
HETATM   21  N4  UNL     1      49.592  29.537  28.350  1.00  0.00    -0.255 N 
HETATM   22  C15 UNL     1      50.312  28.402  28.355  1.00  0.00     0.159 A 
HETATM   23  C16 UNL     1      50.165  27.819  29.623  1.00  0.00     0.160 A 
HETATM   24  N6  UNL     1      49.356  28.613  30.368  1.00  0.00    -0.321 N 
ATOM     25  H6  UNL     1      49.058  28.463  31.333  1.00  0.00     0.169 HD
HETATM   26  C23 UNL     1      49.035  29.629  29.572  1.00  0.00     0.136 A 
HETATM   27  C24 UNL     1      48.250  30.698  29.811  1.00  0.00     0.104 A 
ENDROOT
BRANCH  23  28
HETATM   28  O3  UNL     1      50.770  26.630  29.989  1.00  0.00    -0.335 OA
BRANCH  28  29
HETATM   29  C17 UNL     1      50.013  25.644  30.621  1.00  0.00     0.177 C 
BRANCH  29  30
HETATM   30  C18 UNL     1      50.788  24.450  31.043  1.00  0.00     0.027 C 
BRANCH  30  31
HETATM   31  C19 UNL     1      50.067  23.581  31.994  1.00  0.00     0.002 C 
BRANCH  31  32
HETATM   32  C20 UNL     1      48.887  22.890  31.439  1.00  0.00     0.008 C 
BRANCH  32  33
HETATM   33  C21 UNL     1      49.221  22.004  30.259  1.00  0.00     0.086 C 
BRANCH  33  34
HETATM   34  C22 UNL     1      49.583  20.647  30.760  1.00  0.00     0.135 C 
HETATM   35  N5  UNL     1      50.817  20.285  30.703  1.00  0.00    -0.251 N 
ATOM     36  H5  UNL     1      51.078  19.359  31.043  1.00  0.00     0.196 HD
BRANCH  34  37
HETATM   37  O4  UNL     1      48.594  19.798  31.277  1.00  0.00    -0.348 OA
ATOM     38  H4  UNL     1      47.739  19.755  30.866  1.00  0.00     0.219 HD
ENDBRANCH  34  37
BRANCH  35  39
HETATM   39  O5  UNL     1      51.782  21.102  30.203  1.00  0.00    -0.288 OA
ATOM     40  H5  UNL     1      52.704  20.955  30.379  1.00  0.00     0.244 HD
ENDBRANCH  35  39
ENDBRANCH  33  34
ENDBRANCH  32  33
ENDBRANCH  31  32
ENDBRANCH  30  31
ENDBRANCH  29  30
ENDBRANCH  28  29
ENDBRANCH  23  28
BRANCH   5  41
HETATM   41  C3  UNL     1      47.992  33.751  33.403  1.00  0.00     0.257 C 
BRANCH  41  42
HETATM   42  N2  UNL     1      47.051  33.214  34.325  1.00  0.00    -0.068 N 
ATOM     43  H22 UNL     1      46.115  33.593  34.183  1.00  0.00     0.277 HD
ATOM     44  H21 UNL     1      46.844  32.234  34.134  1.00  0.00     0.277 HD
BRANCH  42  45
HETATM   45  C4  UNL     1      47.517  33.415  35.673  1.00  0.00     0.302 C 
BRANCH  45  46
HETATM   46  C5  UNL     1      47.892  32.131  36.370  1.00  0.00     0.378 C 
HETATM   47  F1  UNL     1      49.082  31.650  35.832  1.00  0.00    -0.213 F 
HETATM   48  F2  UNL     1      48.059  32.441  37.723  1.00  0.00    -0.213 F 
ENDBRANCH  45  46
ENDBRANCH  42  45
ENDBRANCH  41  42
ENDBRANCH   5  41
TORSDOF 13
ENDMDL
MODEL 2
REMARK VINA RESULT: -9.752419304      1.458      1.717
REMARK  13 active torsions:
REMARK  status: ('A' for Active; 'I' for Inactive)
REMARK    1  A    between atoms: C2_5  and  C3_6 
REMARK    2  A    between atoms: C3_6  and  N2_7 
REMARK    3  A    between atoms: N2_7  and  C4_10 
REMARK    4  A    between atoms: C4_10  and  C5_11 
REMARK    5  A    between atoms: C16_31  and  O3_32 
REMARK    6  A    between atoms: O3_32  and  C17_33 
REMARK    7  A    between atoms: C17_33  and  C18_34 
REMARK    8  A    between atoms: C18_34  and  C19_35 
REMARK    9  A    between atoms: C19_35  and  C20_36 
REMARK   10  A    between atoms: C20_36  and  C21_37 
REMARK   11  A    between atoms: C21_37  and  C22_38 
REMARK   12  A    between atoms: C22_38  and  O4_39 
REMARK   13  A    between atoms: N5_41  and  O5_43 
ROOT
HETATM    1  O1  UNL     1      47.588  29.715  31.779  1.00  0.00    -0.267 OA
HETATM    2  C1  UNL     1      47.664  30.825  31.282  1.00  0.00     0.258 C 
HETATM    3  N1  UNL     1      47.379  32.001  32.075  1.00  0.00    -0.350 N 
ATOM      4  H1  UNL     1      46.784  31.825  32.885  1.00  0.00     0.163 HD
HETATM    5  C2  UNL     1      47.784  33.384  31.925  1.00  0.00     0.114 C 
HETATM    6  C6  UNL     1      46.991  34.248  31.048  1.00  0.00     0.069 C 
HETATM    7  C7  UNL     1      46.794  33.903  29.633  1.00  0.00    -0.003 A 
HETATM    8  C8  UNL     1      47.102  32.889  28.719  1.00  0.00     0.004 A 
HETATM    9  C9  UNL     1      46.666  32.875  27.424  1.00  0.00     0.058 A 
HETATM   10  C10 UNL     1      45.885  33.919  26.990  1.00  0.00     0.142 A 
HETATM   11  F3  UNL     1      45.448  33.927  25.723  1.00  0.00    -0.204 F 
HETATM   12  C11 UNL     1      45.553  34.945  27.845  1.00  0.00     0.111 A 
HETATM   13 CL1  UNL     1      44.545  36.276  27.249  1.00  0.00    -0.078 Cl
HETATM   14  C12 UNL     1      45.995  34.936  29.129  1.00  0.00     0.148 A 
HETATM   15  F4  UNL     1      45.674  35.944  29.992  1.00  0.00    -0.204 F 
HETATM   16  C13 UNL     1      47.901  31.666  28.814  1.00  0.00     0.067 A 
HETATM   17  N3  UNL     1      48.426  31.501  27.614  1.00  0.00    -0.306 N 
ATOM     18  H3  UNL     1      48.293  32.180  26.865  1.00  0.00     0.171 HD
HETATM   19  C14 UNL     1      49.150  30.377  27.441  1.00  0.00     0.332 A 
HETATM   20  O2  UNL     1      49.669  30.168  26.318  1.00  0.00    -0.246 OA
HETATM   21  N4  UNL     1      49.324  29.472  28.453  1.00  0.00    -0.255 N 
HETATM   22  C15 UNL     1      49.986  28.303  28.508  1.00  0.00     0.159 A 
HETATM   23  C16 UNL     1      49.826  27.793  29.805  1.00  0.00     0.160 A 
HETATM   24  N6  UNL     1      49.069  28.664  30.518  1.00  0.00    -0.321 N 
ATOM     25  H6  UNL     1      48.777  28.579  31.492  1.00  0.00     0.169 HD
HETATM   26  C23 UNL     1      48.789  29.653  29.675  1.00  0.00     0.136 A 
HETATM   27  C24 UNL     1      48.063  30.773  29.867  1.00  0.00     0.104 A 
ENDROOT
BRANCH  23  28
HETATM   28  O3  UNL     1      50.375  26.595  30.226  1.00  0.00    -0.335 OA
BRANCH  28  29
HETATM   29  C17 UNL     1      51.630  26.213  29.752  1.00  0.00     0.177 C 
BRANCH  29  30
HETATM   30  C18 UNL     1      52.103  24.899  30.254  1.00  0.00     0.027 C 
BRANCH  30  31
HETATM   31  C19 UNL     1      51.184  24.267  31.222  1.00  0.00     0.002 C 
BRANCH  31  32
HETATM   32  C20 UNL     1      50.220  23.314  30.637  1.00  0.00     0.008 C 
BRANCH  32  33
HETATM   33  C21 UNL     1      48.779  23.696  30.896  1.00  0.00     0.086 C 
BRANCH  33  34
HETATM   34  C22 UNL     1      48.566  23.810  32.368  1.00  0.00     0.135 C 
HETATM   35  N5  UNL     1      48.165  24.937  32.842  1.00  0.00    -0.251 N 
ATOM     36  H5  UNL     1      48.016  25.028  33.846  1.00  0.00     0.196 HD
BRANCH  34  37
HETATM   37  O4  UNL     1      48.801  22.707  33.202  1.00  0.00    -0.348 OA
ATOM     38  H4  UNL     1      48.667  22.780  34.139  1.00  0.00     0.219 HD
ENDBRANCH  34  37
BRANCH  35  39
HETATM   39  O5  UNL     1      47.936  26.011  32.039  1.00  0.00    -0.288 OA
ATOM     40  H5  UNL     1      47.672  26.852  32.392  1.00  0.00     0.244 HD
ENDBRANCH  35  39
ENDBRANCH  33  34
ENDBRANCH  32  33
ENDBRANCH  31  32
ENDBRANCH  30  31
ENDBRANCH  29  30
ENDBRANCH  28  29
ENDBRANCH  23  28
BRANCH   5  41
HETATM   41  C3  UNL     1      48.009  34.012  33.302  1.00  0.00     0.257 C 
BRANCH  41  42
HETATM   42  N2  UNL     1      47.095  33.521  34.276  1.00  0.00    -0.068 N 
ATOM     43  H22 UNL     1      46.200  34.008  34.241  1.00  0.00     0.277 HD
ATOM     44  H21 UNL     1      46.762  32.584  34.051  1.00  0.00     0.277 HD
BRANCH  42  45
HETATM   45  C4  UNL     1      47.695  33.583  35.584  1.00  0.00     0.302 C 
BRANCH  45  46
HETATM   46  C5  UNL     1      47.838  32.232  36.236  1.00  0.00     0.378 C 
HETATM   47  F1  UNL     1      49.018  31.636  35.798  1.00  0.00    -0.213 F 
HETATM   48  F2  UNL     1      47.888  32.453  37.616  1.00  0.00    -0.213 F 
ENDBRANCH  45  46
ENDBRANCH  42  45
ENDBRANCH  41  42
ENDBRANCH   5  41
TORSDOF 13
ENDMDL
MODEL 3
REMARK VINA RESULT: -9.683913821      1.748      1.915
REMARK  13 active torsions:
REMARK  status: ('A' for Active; 'I' for Inactive)
REMARK    1  A    between atoms: C2_5  and  C3_6 
REMARK    2  A    between atoms: C3_6  and  N2_7 
REMARK    3  A    between atoms: N2_7  and  C4_10 
REMARK    4  A    between atoms: C4_10  and  C5_11 
REMARK    5  A    between atoms: C16_31  and  O3_32 
REMARK    6  A    between atoms: O3_32  and  C17_33 
REMARK    7  A    between atoms: C17_33  and  C18_34 
REMARK    8  A    between atoms: C18_34  and  C19_35 
REMARK    9  A    between atoms: C19_35  and  C20_36 
REMARK   10  A    between atoms: C20_36  and  C21_37 
REMARK   11  A    between atoms: C21_37  and  C22_38 
REMARK   12  A    between atoms: C22_38  and  O4_39 
REMARK   13  A    between atoms: N5_41  and  O5_43 
ROOT
HETATM    1  O1  UNL     1      47.368  29.858  31.658  1.00  0.00    -0.267 OA
HETATM    2  C1  UNL     1      47.862  30.963  31.511  1.00  0.00     0.258 C 
HETATM    3  N1  UNL     1      47.629  32.003  32.490  1.00  0.00    -0.350 N 
ATOM      4  H1  UNL     1      46.783  31.871  33.046  1.00  0.00     0.163 HD
HETATM    5  C2  UNL     1      48.378  33.197  32.823  1.00  0.00     0.114 C 
HETATM    6  C6  UNL     1      48.137  34.409  32.038  1.00  0.00     0.069 C 
HETATM    7  C7  UNL     1      48.324  34.408  30.580  1.00  0.00    -0.003 A 
HETATM    8  C8  UNL     1      48.656  33.535  29.537  1.00  0.00     0.004 A 
HETATM    9  C9  UNL     1      48.665  33.894  28.219  1.00  0.00     0.058 A 
HETATM   10  C10 UNL     1      48.336  35.189  27.896  1.00  0.00     0.142 A 
HETATM   11  F3  UNL     1      48.341  35.565  26.609  1.00  0.00    -0.204 F 
HETATM   12  C11 UNL     1      48.005  36.091  28.881  1.00  0.00     0.111 A 
HETATM   13 CL1  UNL     1      47.588  37.754  28.427  1.00  0.00    -0.078 Cl
HETATM   14  C12 UNL     1      47.999  35.711  30.184  1.00  0.00     0.148 A 
HETATM   15  F4  UNL     1      47.671  36.591  31.174  1.00  0.00    -0.204 F 
HETATM   16  C13 UNL     1      49.066  32.130  29.501  1.00  0.00     0.067 A 
HETATM   17  N3  UNL     1      49.890  32.036  28.474  1.00  0.00    -0.306 N 
ATOM     18  H3  UNL     1      50.169  32.849  27.925  1.00  0.00     0.171 HD
HETATM   19  C14 UNL     1      50.340  30.796  28.196  1.00  0.00     0.332 A 
HETATM   20  O2  UNL     1      51.124  30.648  27.228  1.00  0.00    -0.246 OA
HETATM   21  N4  UNL     1      49.962  29.711  28.940  1.00  0.00    -0.255 N 
HETATM   22  C15 UNL     1      50.271  28.406  28.846  1.00  0.00     0.159 A 
HETATM   23  C16 UNL     1      49.590  27.740  29.876  1.00  0.00     0.160 A 
HETATM   24  N6  UNL     1      48.877  28.655  30.580  1.00  0.00    -0.321 N 
ATOM     25  H6  UNL     1      48.278  28.485  31.389  1.00  0.00     0.169 HD
HETATM   26  C23 UNL     1      49.125  29.820  29.989  1.00  0.00     0.136 A 
HETATM   27  C24 UNL     1      48.666  31.052  30.283  1.00  0.00     0.104 A 
ENDROOT
BRANCH  23  28
HETATM   28  O3  UNL     1      49.673  26.375  30.086  1.00  0.00    -0.335 OA
BRANCH  28  29
HETATM   29  C17 UNL     1      48.545  25.681  30.522  1.00  0.00     0.177 C 
BRANCH  29  30
HETATM   30  C18 UNL     1      48.257  25.824  31.972  1.00  0.00     0.027 C 
BRANCH  30  31
HETATM   31  C19 UNL     1      48.260  24.543  32.707  1.00  0.00     0.002 C 
BRANCH  31  32
HETATM   32  C20 UNL     1      48.498  23.347  31.875  1.00  0.00     0.008 C 
BRANCH  32  33
HETATM   33  C21 UNL     1      49.854  22.720  32.114  1.00  0.00     0.086 C 
BRANCH  33  34
HETATM   34  C22 UNL     1      50.585  22.639  30.816  1.00  0.00     0.135 C 
HETATM   35  N5  UNL     1      51.425  23.570  30.531  1.00  0.00    -0.251 N 
ATOM     36  H5  UNL     1      51.932  23.527  29.646  1.00  0.00     0.196 HD
BRANCH  34  37
HETATM   37  O4  UNL     1      50.350  21.569  29.940  1.00  0.00    -0.348 OA
ATOM     38  H4  UNL     1      50.955  20.838  29.907  1.00  0.00     0.219 HD
ENDBRANCH  34  37
BRANCH  35  39
HETATM   39  O5  UNL     1      51.657  24.611  31.375  1.00  0.00    -0.288 OA
ATOM     40  H5  UNL     1      51.030  25.315  31.486  1.00  0.00     0.244 HD
ENDBRANCH  35  39
ENDBRANCH  33  34
ENDBRANCH  32  33
ENDBRANCH  31  32
ENDBRANCH  30  31
ENDBRANCH  29  30
ENDBRANCH  28  29
ENDBRANCH  23  28
BRANCH   5  41
HETATM   41  C3  UNL     1      48.297  33.460  34.327  1.00  0.00     0.257 C 
BRANCH  41  42
HETATM   42  N2  UNL     1      47.649  32.404  35.027  1.00  0.00    -0.068 N 
ATOM     43  H22 UNL     1      46.715  32.217  34.660  1.00  0.00     0.277 HD
ATOM     44  H21 UNL     1      48.070  31.497  34.826  1.00  0.00     0.277 HD
BRANCH  42  45
HETATM   45  C4  UNL     1      47.629  32.691  36.438  1.00  0.00     0.302 C 
BRANCH  45  46
HETATM   46  C5  UNL     1      48.227  31.591  37.277  1.00  0.00     0.378 C 
HETATM   47  F1  UNL     1      49.374  31.111  36.650  1.00  0.00    -0.213 F 
HETATM   48  F2  UNL     1      48.550  32.157  38.514  1.00  0.00    -0.213 F 
ENDBRANCH  45  46
ENDBRANCH  42  45
ENDBRANCH  41  42
ENDBRANCH   5  41
TORSDOF 13
ENDMDL
MODEL 4
REMARK VINA RESULT: -9.494132701      1.778      1.973
REMARK  13 active torsions:
REMARK  status: ('A' for Active; 'I' for Inactive)
REMARK    1  A    between atoms: C2_5  and  C3_6 
REMARK    2  A    between atoms: C3_6  and  N2_7 
REMARK    3  A    between atoms: N2_7  and  C4_10 
REMARK    4  A    between atoms: C4_10  and  C5_11 
REMARK    5  A    between atoms: C16_31  and  O3_32 
REMARK    6  A    between atoms: O3_32  and  C17_33 
REMARK    7  A    between atoms: C17_33  and  C18_34 
REMARK    8  A    between atoms: C18_34  and  C19_35 
REMARK    9  A    between atoms: C19_35  and  C20_36 
REMARK   10  A    between atoms: C20_36  and  C21_37 
REMARK   11  A    between atoms: C21_37  and  C22_38 
REMARK   12  A    between atoms: C22_38  and  O4_39 
REMARK   13  A    between atoms: N5_41  and  O5_43 
ROOT
HETATM    1  O1  UNL     1      47.561  29.455  30.902  1.00  0.00    -0.267 OA
HETATM    2  C1  UNL     1      47.541  30.645  30.642  1.00  0.00     0.258 C 
HETATM    3  N1  UNL     1      47.025  31.595  31.604  1.00  0.00    -0.350 N 
ATOM      4  H1  UNL     1      46.379  31.192  32.283  1.00  0.00     0.163 HD
HETATM    5  C2  UNL     1      47.258  33.014  31.776  1.00  0.00     0.114 C 
HETATM    6  C6  UNL     1      46.453  33.950  30.989  1.00  0.00     0.069 C 
HETATM    7  C7  UNL     1      46.448  33.885  29.521  1.00  0.00    -0.003 A 
HETATM    8  C8  UNL     1      46.979  33.121  28.474  1.00  0.00     0.004 A 
HETATM    9  C9  UNL     1      46.682  33.328  27.157  1.00  0.00     0.058 A 
HETATM   10  C10 UNL     1      45.819  34.349  26.837  1.00  0.00     0.142 A 
HETATM   11  F3  UNL     1      45.517  34.571  25.550  1.00  0.00    -0.204 F 
HETATM   12  C11 UNL     1      45.271  35.134  27.824  1.00  0.00     0.111 A 
HETATM   13 CL1  UNL     1      44.162  36.443  27.374  1.00  0.00    -0.078 Cl
HETATM   14  C12 UNL     1      45.576  34.908  29.128  1.00  0.00     0.148 A 
HETATM   15  F4  UNL     1      45.040  35.675  30.121  1.00  0.00    -0.204 F 
HETATM   16  C13 UNL     1      47.916  31.999  28.432  1.00  0.00     0.067 A 
HETATM   17  N3  UNL     1      48.579  32.142  27.299  1.00  0.00    -0.306 N 
ATOM     18  H3  UNL     1      48.435  32.943  26.684  1.00  0.00     0.171 HD
HETATM   19  C14 UNL     1      49.457  31.163  27.005  1.00  0.00     0.332 A 
HETATM   20  O2  UNL     1      50.111  31.247  25.938  1.00  0.00    -0.246 OA
HETATM   21  N4  UNL     1      49.644  30.092  27.838  1.00  0.00    -0.255 N 
HETATM   22  C15 UNL     1      50.444  29.016  27.750  1.00  0.00     0.159 A 
HETATM   23  C16 UNL     1      50.221  28.235  28.894  1.00  0.00     0.160 A 
HETATM   24  N6  UNL     1      49.287  28.853  29.660  1.00  0.00    -0.321 N 
ATOM     25  H6  UNL     1      48.911  28.537  30.554  1.00  0.00     0.169 HD
HETATM   26  C23 UNL     1      48.968  29.959  28.994  1.00  0.00     0.136 A 
HETATM   27  C24 UNL     1      48.086  30.930  29.306  1.00  0.00     0.104 A 
ENDROOT
BRANCH  23  28
HETATM   28  O3  UNL     1      50.876  27.042  29.141  1.00  0.00    -0.335 OA
BRANCH  28  29
HETATM   29  C17 UNL     1      50.568  26.319  30.294  1.00  0.00     0.177 C 
BRANCH  29  30
HETATM   30  C18 UNL     1      49.215  25.708  30.293  1.00  0.00     0.027 C 
BRANCH  30  31
HETATM   31  C19 UNL     1      48.604  25.619  31.635  1.00  0.00     0.002 C 
BRANCH  31  32
HETATM   32  C20 UNL     1      48.441  24.248  32.157  1.00  0.00     0.008 C 
BRANCH  32  33
HETATM   33  C21 UNL     1      49.758  23.532  32.363  1.00  0.00     0.086 C 
BRANCH  33  34
HETATM   34  C22 UNL     1      49.748  22.265  31.576  1.00  0.00     0.135 C 
HETATM   35  N5  UNL     1      50.674  22.081  30.702  1.00  0.00    -0.251 N 
ATOM     36  H5  UNL     1      50.678  21.219  30.158  1.00  0.00     0.196 HD
BRANCH  34  37
HETATM   37  O4  UNL     1      48.748  21.307  31.796  1.00  0.00    -0.348 OA
ATOM     38  H4  UNL     1      48.172  21.046  31.087  1.00  0.00     0.219 HD
ENDBRANCH  34  37
BRANCH  35  39
HETATM   39  O5  UNL     1      51.647  23.006  30.484  1.00  0.00    -0.288 OA
ATOM     40  H5  UNL     1      51.472  23.817  30.019  1.00  0.00     0.244 HD
ENDBRANCH  35  39
ENDBRANCH  33  34
ENDBRANCH  32  33
ENDBRANCH  31  32
ENDBRANCH  30  31
ENDBRANCH  29  30
ENDBRANCH  28  29
ENDBRANCH  23  28
BRANCH   5  41
HETATM   41  C3  UNL     1      47.257  33.364  33.265  1.00  0.00     0.257 C 
BRANCH  41  42
HETATM   42  N2  UNL     1      48.523  33.836  33.710  1.00  0.00    -0.068 N 
ATOM     43  H22 UNL     1      48.963  33.192  34.367  1.00  0.00     0.277 HD
ATOM     44  H21 UNL     1      49.227  33.798  32.973  1.00  0.00     0.277 HD
BRANCH  42  45
HETATM   45  C4  UNL     1      48.386  35.160  34.259  1.00  0.00     0.302 C 
BRANCH  45  46
HETATM   46  C5  UNL     1      49.055  36.222  33.424  1.00  0.00     0.378 C 
HETATM   47  F1  UNL     1      48.404  36.314  32.196  1.00  0.00    -0.213 F 
HETATM   48  F2  UNL     1      48.935  37.424  34.128  1.00  0.00    -0.213 F 
ENDBRANCH  45  46
ENDBRANCH  42  45
ENDBRANCH  41  42
ENDBRANCH   5  41
TORSDOF 13
ENDMDL
MODEL 5
REMARK VINA RESULT: -9.322245588      2.141      2.714
REMARK  13 active torsions:
REMARK  status: ('A' for Active; 'I' for Inactive)
REMARK    1  A    between atoms: C2_5  and  C3_6 
REMARK    2  A    between atoms: C3_6  and  N2_7 
REMARK    3  A    between atoms: N2_7  and  C4_10 
REMARK    4  A    between atoms: C4_10  and  C5_11 
REMARK    5  A    between atoms: C16_31  and  O3_32 
REMARK    6  A    between atoms: O3_32  and  C17_33 
REMARK    7  A    between atoms: C17_33  and  C18_34 
REMARK    8  A    between atoms: C18_34  and  C19_35 
REMARK    9  A    between atoms: C19_35  and  C20_36 
REMARK   10  A    between atoms: C20_36  and  C21_37 
REMARK   11  A    between atoms: C21_37  and  C22_38 
REMARK   12  A    between atoms: C22_38  and  O4_39 
REMARK   13  A    between atoms: N5_41  and  O5_43 
ROOT
HETATM    1  O1  UNL     1      47.825  29.560  31.484  1.00  0.00    -0.267 OA
HETATM    2  C1  UNL     1      47.825  30.713  31.090  1.00  0.00     0.258 C 
HETATM    3  N1  UNL     1      47.424  31.787  31.973  1.00  0.00    -0.350 N 
ATOM      4  H1  UNL     1      46.825  31.492  32.745  1.00  0.00     0.163 HD
HETATM    5  C2  UNL     1      47.720  33.205  31.961  1.00  0.00     0.114 C 
HETATM    6  C6  UNL     1      46.885  34.081  31.137  1.00  0.00     0.069 C 
HETATM    7  C7  UNL     1      46.754  33.851  29.691  1.00  0.00    -0.003 A 
HETATM    8  C8  UNL     1      47.167  32.951  28.701  1.00  0.00     0.004 A 
HETATM    9  C9  UNL     1      46.768  33.021  27.397  1.00  0.00     0.058 A 
HETATM   10  C10 UNL     1      45.917  34.036  27.031  1.00  0.00     0.142 A 
HETATM   11  F3  UNL     1      45.515  34.125  25.755  1.00  0.00    -0.204 F 
HETATM   12  C11 UNL     1      45.481  34.951  27.961  1.00  0.00     0.111 A 
HETATM   13 CL1  UNL     1      44.385  36.249  27.452  1.00  0.00    -0.078 Cl
HETATM   14  C12 UNL     1      45.888  34.861  29.254  1.00  0.00     0.148 A 
HETATM   15  F4  UNL     1      45.464  35.757  30.190  1.00  0.00    -0.204 F 
HETATM   16  C13 UNL     1      48.059  31.791  28.715  1.00  0.00     0.067 A 
HETATM   17  N3  UNL     1      48.627  31.777  27.523  1.00  0.00    -0.306 N 
ATOM     18  H3  UNL     1      48.460  32.509  26.834  1.00  0.00     0.171 HD
HETATM   19  C14 UNL     1      49.443  30.733  27.276  1.00  0.00     0.332 A 
HETATM   20  O2  UNL     1      50.008  30.668  26.158  1.00  0.00    -0.246 OA
HETATM   21  N4  UNL     1      49.664  29.756  28.210  1.00  0.00    -0.255 N 
HETATM   22  C15 UNL     1      50.415  28.642  28.184  1.00  0.00     0.159 A 
HETATM   23  C16 UNL     1      50.263  28.006  29.425  1.00  0.00     0.160 A 
HETATM   24  N6  UNL     1      49.419  28.747  30.186  1.00  0.00    -0.321 N 
ATOM     25  H6  UNL     1      49.109  28.551  31.138  1.00  0.00     0.169 HD
HETATM   26  C23 UNL     1      49.083  29.784  29.424  1.00  0.00     0.136 A 
HETATM   27  C24 UNL     1      48.264  30.821  29.690  1.00  0.00     0.104 A 
ENDROOT
BRANCH  23  28
HETATM   28  O3  UNL     1      50.895  26.820  29.756  1.00  0.00    -0.335 OA
BRANCH  28  29
HETATM   29  C17 UNL     1      50.162  25.802  30.365  1.00  0.00     0.177 C 
BRANCH  29  30
HETATM   30  C18 UNL     1      50.982  24.830  31.133  1.00  0.00     0.027 C 
BRANCH  30  31
HETATM   31  C19 UNL     1      52.007  24.145  30.319  1.00  0.00     0.002 C 
BRANCH  31  32
HETATM   32  C20 UNL     1      53.306  24.840  30.237  1.00  0.00     0.008 C 
BRANCH  32  33
HETATM   33  C21 UNL     1      54.382  24.007  29.577  1.00  0.00     0.086 C 
BRANCH  33  34
HETATM   34  C22 UNL     1      55.649  24.794  29.540  1.00  0.00     0.135 C 
HETATM   35  N5  UNL     1      56.697  24.241  29.038  1.00  0.00    -0.251 N 
ATOM     36  H5  UNL     1      57.569  24.768  29.007  1.00  0.00     0.196 HD
BRANCH  34  37
HETATM   37  O4  UNL     1      55.682  26.101  30.046  1.00  0.00    -0.348 OA
ATOM     38  H4  UNL     1      55.967  26.262  30.937  1.00  0.00     0.219 HD
ENDBRANCH  34  37
BRANCH  35  39
HETATM   39  O5  UNL     1      56.672  22.973  28.546  1.00  0.00    -0.288 OA
ATOM     40  H5  UNL     1      57.470  22.479  28.394  1.00  0.00     0.244 HD
ENDBRANCH  35  39
ENDBRANCH  33  34
ENDBRANCH  32  33
ENDBRANCH  31  32
ENDBRANCH  30  31
ENDBRANCH  29  30
ENDBRANCH  28  29
ENDBRANCH  23  28
BRANCH   5  41
HETATM   41  C3  UNL     1      47.857  33.720  33.394  1.00  0.00     0.257 C 
BRANCH  41  42
HETATM   42  N2  UNL     1      47.237  32.859  34.340  1.00  0.00    -0.068 N 
ATOM     43  H22 UNL     1      46.221  32.854  34.246  1.00  0.00     0.277 HD
ATOM     44  H21 UNL     1      47.409  31.875  34.133  1.00  0.00     0.277 HD
BRANCH  42  45
HETATM   45  C4  UNL     1      47.655  33.213  35.672  1.00  0.00     0.302 C 
BRANCH  45  46
HETATM   46  C5  UNL     1      47.988  32.017  36.528  1.00  0.00     0.378 C 
HETATM   47  F1  UNL     1      49.177  31.450  36.078  1.00  0.00    -0.213 F 
HETATM   48  F2  UNL     1      48.138  32.487  37.836  1.00  0.00    -0.213 F 
ENDBRANCH  45  46
ENDBRANCH  42  45
ENDBRANCH  41  42
ENDBRANCH   5  41
TORSDOF 13
ENDMDL
