MODEL 1
REMARK VINA RESULT: -8.529682351      0.000      0.000
REMARK  17 active torsions:
REMARK  status: ('A' for Active; 'I' for Inactive)
REMARK    1  A    between atoms: N1_1  and  C1_5 
REMARK    2  A    between atoms: C1_5  and  C2_6 
REMARK       I    between atoms: C2_6  and  N2_8 
REMARK    3  A    between atoms: N2_8  and  C3_10 
REMARK    4  A    between atoms: C3_10  and  C4_11 
REMARK    5  A    between atoms: C4_11  and  C5_12 
REMARK    6  A    between atoms: C5_12  and  C6_13 
REMARK    7  A    between atoms: C6_13  and  C7_14 
REMARK    8  A    between atoms: C7_14  and  C8_15 
REMARK    9  A    between atoms: C9_17  and  N3_18 
REMARK   10  A    between atoms: N3_18  and  C10_20 
REMARK   11  A    between atoms: C15_32  and  N6_33 
REMARK   12  A    between atoms: N6_33  and  C16_35 
REMARK   13  A    between atoms: C16_35  and  C17_36 
REMARK   14  A    between atoms: C17_36  and  C18_37 
REMARK   15  A    between atoms: C18_37  and  C19_38 
REMARK   16  A    between atoms: C19_38  and  O2_39 
REMARK   17  A    between atoms: C22_43  and  O3_44 
ROOT
HETATM    1  N3  UNL     1      47.498  31.596  31.656  1.00  0.00    -0.359 N 
ATOM      2  H3  UNL     1      46.534  31.411  31.379  1.00  0.00     0.162 HD
ENDROOT
BRANCH   1   3
HETATM    3  C9  UNL     1      48.528  30.842  31.030  1.00  0.00     0.180 C 
HETATM    4  S1  UNL     1      49.134  29.523  32.162  1.00  0.00    -0.130 SA
HETATM    5  C8  UNL     1      49.395  28.219  30.877  1.00  0.00     0.124 C 
HETATM    6  C23 UNL     1      49.157  29.020  29.671  1.00  0.00     0.283 C 
HETATM    7  C22 UNL     1      47.990  29.955  29.896  1.00  0.00     0.224 C 
HETATM    8  F2  UNL     1      50.265  29.876  29.522  1.00  0.00    -0.202 F 
HETATM    9  F3  UNL     1      49.080  28.335  28.492  1.00  0.00    -0.202 F 
BRANCH   5  10
HETATM   10  C7  UNL     1      48.519  27.079  31.178  1.00  0.00     0.021 C 
BRANCH  10  11
HETATM   11  C6  UNL     1      48.906  25.733  30.748  1.00  0.00     0.002 C 
BRANCH  11  12
HETATM   12  C5  UNL     1      50.356  25.561  30.370  1.00  0.00     0.005 C 
BRANCH  12  13
HETATM   13  C4  UNL     1      51.018  24.381  31.015  1.00  0.00     0.044 C 
BRANCH  13  14
HETATM   14  C3  UNL     1      50.257  23.868  32.182  1.00  0.00     0.064 C 
BRANCH  14  15
HETATM   15  N2  UNL     1      50.042  22.615  32.358  1.00  0.00    -0.339 N 
HETATM   16  C2  UNL     1      49.529  21.781  31.345  1.00  0.00     0.246 C 
HETATM   17  O1  UNL     1      48.326  21.861  31.025  1.00  0.00    -0.271 OA
ATOM     18  H2  UNL     1      50.252  22.206  33.268  1.00  0.00     0.167 HD
BRANCH  16  19
HETATM   19  C1  UNL     1      50.393  20.807  30.651  1.00  0.00     0.332 C 
BRANCH  19  20
HETATM   20  N1  UNL     1      50.033  20.753  29.266  1.00  0.00    -0.071 N 
ATOM     21  H13 UNL     1      49.846  19.801  28.953  1.00  0.00     0.274 HD
ATOM     22  H12 UNL     1      49.108  21.147  29.093  1.00  0.00     0.274 HD
ATOM     23  H11 UNL     1      50.758  21.207  28.710  1.00  0.00     0.274 HD
ENDBRANCH  19  20
ENDBRANCH  16  19
ENDBRANCH  14  15
ENDBRANCH  13  14
ENDBRANCH  12  13
ENDBRANCH  11  12
ENDBRANCH  10  11
ENDBRANCH   5  10
BRANCH   7  24
HETATM   24  O3  UNL     1      47.795  30.703  28.753  1.00  0.00    -0.387 OA
ATOM     25  H3  UNL     1      47.221  30.244  28.152  1.00  0.00     0.210 HD
ENDBRANCH   7  24
ENDBRANCH   1   3
BRANCH   1  26
HETATM   26  C10 UNL     1      47.704  32.486  32.539  1.00  0.00     0.117 A 
HETATM   27  N4  UNL     1      47.532  32.337  33.859  1.00  0.00    -0.318 N 
HETATM   28  C11 UNL     1      47.770  33.327  34.730  1.00  0.00     0.181 A 
ATOM     29  H4  UNL     1      47.208  31.438  34.214  1.00  0.00     0.170 HD
HETATM   30 CL1  UNL     1      47.512  33.024  36.432  1.00  0.00    -0.045 Cl
HETATM   31  N5  UNL     1      48.200  34.523  34.271  1.00  0.00    -0.330 N 
HETATM   32  C12 UNL     1      48.394  34.741  32.956  1.00  0.00     0.073 A 
ATOM     33  H5  UNL     1      48.381  35.276  34.934  1.00  0.00     0.168 HD
HETATM   34  C13 UNL     1      48.839  35.978  32.487  1.00  0.00     0.102 A 
HETATM   35  C21 UNL     1      48.149  33.725  32.059  1.00  0.00     0.039 A 
HETATM   36 CL2  UNL     1      49.153  37.279  33.617  1.00  0.00    -0.079 Cl
HETATM   37  C14 UNL     1      49.024  36.150  31.122  1.00  0.00     0.166 A 
HETATM   38  F1  UNL     1      49.456  37.345  30.649  1.00  0.00    -0.202 F 
HETATM   39  C15 UNL     1      48.788  35.151  30.204  1.00  0.00     0.070 A 
HETATM   40  C20 UNL     1      48.345  33.931  30.706  1.00  0.00     0.050 A 
BRANCH  39  41
HETATM   41  N6  UNL     1      48.975  35.320  28.813  1.00  0.00    -0.387 N 
ATOM     42  H6  UNL     1      49.740  35.909  28.483  1.00  0.00     0.159 HD
BRANCH  41  43
HETATM   43  C16 UNL     1      48.112  34.682  27.850  1.00  0.00     0.120 C 
BRANCH  43  44
HETATM   44  C17 UNL     1      46.896  35.536  27.538  1.00  0.00     0.022 C 
BRANCH  44  45
HETATM   45  C18 UNL     1      45.652  34.961  28.211  1.00  0.00     0.028 C 
BRANCH  45  46
HETATM   46  C19 UNL     1      45.275  35.896  29.344  1.00  0.00     0.164 C 
BRANCH  46  47
HETATM   47  O2  UNL     1      46.107  36.990  29.418  1.00  0.00    -0.401 OA
ATOM     48  H2  UNL     1      45.906  37.641  28.756  1.00  0.00     0.209 HD
ENDBRANCH  46  47
ENDBRANCH  45  46
ENDBRANCH  44  45
ENDBRANCH  43  44
ENDBRANCH  41  43
ENDBRANCH  39  41
ENDBRANCH   1  26
TORSDOF 17
ENDMDL
MODEL 2
REMARK VINA RESULT: -8.498149789      3.385      4.639
REMARK  17 active torsions:
REMARK  status: ('A' for Active; 'I' for Inactive)
REMARK    1  A    between atoms: N1_1  and  C1_5 
REMARK    2  A    between atoms: C1_5  and  C2_6 
REMARK       I    between atoms: C2_6  and  N2_8 
REMARK    3  A    between atoms: N2_8  and  C3_10 
REMARK    4  A    between atoms: C3_10  and  C4_11 
REMARK    5  A    between atoms: C4_11  and  C5_12 
REMARK    6  A    between atoms: C5_12  and  C6_13 
REMARK    7  A    between atoms: C6_13  and  C7_14 
REMARK    8  A    between atoms: C7_14  and  C8_15 
REMARK    9  A    between atoms: C9_17  and  N3_18 
REMARK   10  A    between atoms: N3_18  and  C10_20 
REMARK   11  A    between atoms: C15_32  and  N6_33 
REMARK   12  A    between atoms: N6_33  and  C16_35 
REMARK   13  A    between atoms: C16_35  and  C17_36 
REMARK   14  A    between atoms: C17_36  and  C18_37 
REMARK   15  A    between atoms: C18_37  and  C19_38 
REMARK   16  A    between atoms: C19_38  and  O2_39 
REMARK   17  A    between atoms: C22_43  and  O3_44 
ROOT
HETATM    1  N3  UNL     1      47.569  31.854  31.010  1.00  0.00    -0.359 N 
ATOM      2  H3  UNL     1      47.407  32.272  30.093  1.00  0.00     0.162 HD
ENDROOT
BRANCH   1   3
HETATM    3  C9  UNL     1      47.594  30.436  31.101  1.00  0.00     0.180 C 
HETATM    4  S1  UNL     1      47.109  29.682  29.492  1.00  0.00    -0.130 SA
HETATM    5  C8  UNL     1      48.286  28.257  29.542  1.00  0.00     0.124 C 
HETATM    6  C23 UNL     1      48.802  28.420  30.906  1.00  0.00     0.283 C 
HETATM    7  C22 UNL     1      49.026  29.886  31.200  1.00  0.00     0.224 C 
HETATM    8  F2  UNL     1      47.767  28.043  31.784  1.00  0.00    -0.202 F 
HETATM    9  F3  UNL     1      49.863  27.632  31.253  1.00  0.00    -0.202 F 
BRANCH   5  10
HETATM   10  C7  UNL     1      49.203  28.362  28.400  1.00  0.00     0.021 C 
BRANCH  10  11
HETATM   11  C6  UNL     1      49.103  29.508  27.492  1.00  0.00     0.002 C 
BRANCH  11  12
HETATM   12  C5  UNL     1      50.403  30.207  27.181  1.00  0.00     0.005 C 
BRANCH  12  13
HETATM   13  C4  UNL     1      50.591  31.501  27.913  1.00  0.00     0.044 C 
BRANCH  13  14
HETATM   14  C3  UNL     1      51.997  31.977  27.877  1.00  0.00     0.064 C 
BRANCH  14  15
HETATM   15  N2  UNL     1      52.931  31.392  28.535  1.00  0.00    -0.339 N 
HETATM   16  C2  UNL     1      53.100  31.554  29.925  1.00  0.00     0.246 C 
HETATM   17  O1  UNL     1      53.562  32.623  30.373  1.00  0.00    -0.271 OA
ATOM     18  H2  UNL     1      53.577  30.785  28.032  1.00  0.00     0.167 HD
BRANCH  16  19
HETATM   19  C1  UNL     1      52.740  30.476  30.865  1.00  0.00     0.332 C 
BRANCH  19  20
HETATM   20  N1  UNL     1      52.495  29.269  30.134  1.00  0.00    -0.071 N 
ATOM     21  H13 UNL     1      52.907  29.293  29.201  1.00  0.00     0.274 HD
ATOM     22  H12 UNL     1      53.021  28.479  30.505  1.00  0.00     0.274 HD
ATOM     23  H11 UNL     1      51.491  29.087  30.108  1.00  0.00     0.274 HD
ENDBRANCH  19  20
ENDBRANCH  16  19
ENDBRANCH  14  15
ENDBRANCH  13  14
ENDBRANCH  12  13
ENDBRANCH  11  12
ENDBRANCH  10  11
ENDBRANCH   5  10
BRANCH   7  24
HETATM   24  O3  UNL     1      49.499  30.012  32.490  1.00  0.00    -0.387 OA
ATOM     25  H3  UNL     1      48.976  30.640  32.973  1.00  0.00     0.210 HD
ENDBRANCH   7  24
ENDBRANCH   1   3
BRANCH   1  26
HETATM   26  C10 UNL     1      47.736  32.634  31.999  1.00  0.00     0.117 A 
HETATM   27  N4  UNL     1      47.486  32.340  33.282  1.00  0.00    -0.318 N 
HETATM   28  C11 UNL     1      47.687  33.221  34.272  1.00  0.00     0.181 A 
ATOM     29  H4  UNL     1      47.130  31.413  33.513  1.00  0.00     0.170 HD
HETATM   30 CL1  UNL     1      47.327  32.732  35.911  1.00  0.00    -0.045 Cl
HETATM   31  N5  UNL     1      48.158  34.452  33.976  1.00  0.00    -0.330 N 
HETATM   32  C12 UNL     1      48.431  34.813  32.708  1.00  0.00     0.073 A 
ATOM     33  H5  UNL     1      48.311  35.121  34.730  1.00  0.00     0.168 HD
HETATM   34  C13 UNL     1      48.918  36.086  32.409  1.00  0.00     0.102 A 
HETATM   35  C21 UNL     1      48.224  33.910  31.689  1.00  0.00     0.039 A 
HETATM   36 CL2  UNL     1      49.184  37.244  33.696  1.00  0.00    -0.079 Cl
HETATM   37  C14 UNL     1      49.184  36.408  31.085  1.00  0.00     0.166 A 
HETATM   38  F1  UNL     1      49.658  37.640  30.776  1.00  0.00    -0.202 F 
HETATM   39  C15 UNL     1      48.987  35.524  30.047  1.00  0.00     0.070 A 
HETATM   40  C20 UNL     1      48.500  34.264  30.382  1.00  0.00     0.050 A 
BRANCH  39  41
HETATM   41  N6  UNL     1      49.256  35.846  28.697  1.00  0.00    -0.387 N 
ATOM     42  H6  UNL     1      50.217  36.041  28.415  1.00  0.00     0.159 HD
BRANCH  41  43
HETATM   43  C16 UNL     1      48.207  35.905  27.710  1.00  0.00     0.120 C 
BRANCH  43  44
HETATM   44  C17 UNL     1      47.141  36.918  28.089  1.00  0.00     0.022 C 
BRANCH  44  45
HETATM   45  C18 UNL     1      45.747  36.330  27.885  1.00  0.00     0.028 C 
BRANCH  45  46
HETATM   46  C19 UNL     1      45.330  35.683  29.192  1.00  0.00     0.164 C 
BRANCH  46  47
HETATM   47  O2  UNL     1      45.639  36.465  30.283  1.00  0.00    -0.401 OA
ATOM     48  H2  UNL     1      45.901  35.946  31.035  1.00  0.00     0.209 HD
ENDBRANCH  46  47
ENDBRANCH  45  46
ENDBRANCH  44  45
ENDBRANCH  43  44
ENDBRANCH  41  43
ENDBRANCH  39  41
ENDBRANCH   1  26
TORSDOF 17
ENDMDL
MODEL 3
REMARK VINA RESULT: -8.363194104      2.803      4.889
REMARK  17 active torsions:
REMARK  status: ('A' for Active; 'I' for Inactive)
REMARK    1  A    between atoms: N1_1  and  C1_5 
REMARK    2  A    between atoms: C1_5  and  C2_6 
REMARK       I    between atoms: C2_6  and  N2_8 
REMARK    3  A    between atoms: N2_8  and  C3_10 
REMARK    4  A    between atoms: C3_10  and  C4_11 
REMARK    5  A    between atoms: C4_11  and  C5_12 
REMARK    6  A    between atoms: C5_12  and  C6_13 
REMARK    7  A    between atoms: C6_13  and  C7_14 
REMARK    8  A    between atoms: C7_14  and  C8_15 
REMARK    9  A    between atoms: C9_17  and  N3_18 
REMARK   10  A    between atoms: N3_18  and  C10_20 
REMARK   11  A    between atoms: C15_32  and  N6_33 
REMARK   12  A    between atoms: N6_33  and  C16_35 
REMARK   13  A    between atoms: C16_35  and  C17_36 
REMARK   14  A    between atoms: C17_36  and  C18_37 
REMARK   15  A    between atoms: C18_37  and  C19_38 
REMARK   16  A    between atoms: C19_38  and  O2_39 
REMARK   17  A    between atoms: C22_43  and  O3_44 
ROOT
HETATM    1  N3  UNL     1      48.795  33.438  29.069  1.00  0.00    -0.359 N 
ATOM      2  H3  UNL     1      47.882  32.982  29.045  1.00  0.00     0.162 HD
ENDROOT
BRANCH   1   3
HETATM    3  C9  UNL     1      49.898  32.754  28.491  1.00  0.00     0.180 C 
HETATM    4  S1  UNL     1      50.906  31.942  29.801  1.00  0.00    -0.130 SA
HETATM    5  C8  UNL     1      51.321  30.409  28.854  1.00  0.00     0.124 C 
HETATM    6  C23 UNL     1      50.781  30.784  27.542  1.00  0.00     0.283 C 
HETATM    7  C22 UNL     1      49.462  31.501  27.714  1.00  0.00     0.224 C 
HETATM    8  F2  UNL     1      51.643  31.763  27.008  1.00  0.00    -0.202 F 
HETATM    9  F3  UNL     1      50.740  29.798  26.597  1.00  0.00    -0.202 F 
BRANCH   5  10
HETATM   10  C7  UNL     1      50.767  29.251  29.565  1.00  0.00     0.021 C 
BRANCH  10  11
HETATM   11  C6  UNL     1      50.744  27.940  28.912  1.00  0.00     0.002 C 
BRANCH  11  12
HETATM   12  C5  UNL     1      50.399  26.773  29.804  1.00  0.00     0.005 C 
BRANCH  12  13
HETATM   13  C4  UNL     1      49.081  26.911  30.505  1.00  0.00     0.044 C 
BRANCH  13  14
HETATM   14  C3  UNL     1      48.568  25.613  31.012  1.00  0.00     0.064 C 
BRANCH  14  15
HETATM   15  N2  UNL     1      49.353  24.686  31.426  1.00  0.00    -0.339 N 
HETATM   16  C2  UNL     1      48.967  23.331  31.489  1.00  0.00     0.246 C 
HETATM   17  O1  UNL     1      48.180  22.952  32.379  1.00  0.00    -0.271 OA
ATOM     18  H2  UNL     1      50.296  24.939  31.721  1.00  0.00     0.167 HD
BRANCH  16  19
HETATM   19  C1  UNL     1      49.482  22.348  30.517  1.00  0.00     0.332 C 
BRANCH  19  20
HETATM   20  N1  UNL     1      50.912  22.322  30.579  1.00  0.00    -0.071 N 
ATOM     21  H13 UNL     1      51.334  22.123  29.672  1.00  0.00     0.274 HD
ATOM     22  H12 UNL     1      51.309  23.250  30.723  1.00  0.00     0.274 HD
ATOM     23  H11 UNL     1      51.208  21.660  31.297  1.00  0.00     0.274 HD
ENDBRANCH  19  20
ENDBRANCH  16  19
ENDBRANCH  14  15
ENDBRANCH  13  14
ENDBRANCH  12  13
ENDBRANCH  11  12
ENDBRANCH  10  11
ENDBRANCH   5  10
BRANCH   7  24
HETATM   24  O3  UNL     1      48.982  31.852  26.469  1.00  0.00    -0.387 OA
ATOM     25  H3  UNL     1      48.432  31.161  26.120  1.00  0.00     0.210 HD
ENDBRANCH   7  24
ENDBRANCH   1   3
BRANCH   1  26
HETATM   26  C10 UNL     1      48.873  34.584  29.613  1.00  0.00     0.117 A 
HETATM   27  N4  UNL     1      49.063  35.746  28.974  1.00  0.00    -0.318 N 
HETATM   28  C11 UNL     1      49.136  36.917  29.621  1.00  0.00     0.181 A 
ATOM     29  H4  UNL     1      49.155  35.739  27.958  1.00  0.00     0.170 HD
HETATM   30 CL1  UNL     1      49.386  38.373  28.688  1.00  0.00    -0.045 Cl
HETATM   31  N5  UNL     1      49.015  36.938  30.966  1.00  0.00    -0.330 N 
HETATM   32  C12 UNL     1      48.822  35.807  31.672  1.00  0.00     0.073 A 
ATOM     33  H5  UNL     1      49.070  37.830  31.458  1.00  0.00     0.168 HD
HETATM   34  C13 UNL     1      48.697  35.835  33.061  1.00  0.00     0.102 A 
HETATM   35  C21 UNL     1      48.748  34.602  31.008  1.00  0.00     0.039 A 
HETATM   36 CL2  UNL     1      48.791  37.361  33.916  1.00  0.00    -0.079 Cl
HETATM   37  C14 UNL     1      48.499  34.640  33.740  1.00  0.00     0.166 A 
HETATM   38  F1  UNL     1      48.376  34.648  35.090  1.00  0.00    -0.202 F 
HETATM   39  C15 UNL     1      48.420  33.422  33.102  1.00  0.00     0.070 A 
HETATM   40  C20 UNL     1      48.549  33.432  31.716  1.00  0.00     0.050 A 
BRANCH  39  41
HETATM   41  N6  UNL     1      48.217  32.203  33.788  1.00  0.00    -0.387 N 
ATOM     42  H6  UNL     1      47.267  31.918  34.026  1.00  0.00     0.159 HD
BRANCH  41  43
HETATM   43  C16 UNL     1      49.320  31.352  34.159  1.00  0.00     0.120 C 
BRANCH  43  44
HETATM   44  C17 UNL     1      49.351  31.099  35.657  1.00  0.00     0.022 C 
BRANCH  44  45
HETATM   45  C18 UNL     1      48.305  31.955  36.365  1.00  0.00     0.028 C 
BRANCH  45  46
HETATM   46  C19 UNL     1      48.400  31.656  37.849  1.00  0.00     0.164 C 
BRANCH  46  47
HETATM   47  O2  UNL     1      49.330  30.680  38.126  1.00  0.00    -0.401 OA
ATOM     48  H2  UNL     1      49.752  30.812  38.967  1.00  0.00     0.209 HD
ENDBRANCH  46  47
ENDBRANCH  45  46
ENDBRANCH  44  45
ENDBRANCH  43  44
ENDBRANCH  41  43
ENDBRANCH  39  41
ENDBRANCH   1  26
TORSDOF 17
ENDMDL
MODEL 4
REMARK VINA RESULT: -8.356650390      3.648      4.985
REMARK  17 active torsions:
REMARK  status: ('A' for Active; 'I' for Inactive)
REMARK    1  A    between atoms: N1_1  and  C1_5 
REMARK    2  A    between atoms: C1_5  and  C2_6 
REMARK       I    between atoms: C2_6  and  N2_8 
REMARK    3  A    between atoms: N2_8  and  C3_10 
REMARK    4  A    between atoms: C3_10  and  C4_11 
REMARK    5  A    between atoms: C4_11  and  C5_12 
REMARK    6  A    between atoms: C5_12  and  C6_13 
REMARK    7  A    between atoms: C6_13  and  C7_14 
REMARK    8  A    between atoms: C7_14  and  C8_15 
REMARK    9  A    between atoms: C9_17  and  N3_18 
REMARK   10  A    between atoms: N3_18  and  C10_20 
REMARK   11  A    between atoms: C15_32  and  N6_33 
REMARK   12  A    between atoms: N6_33  and  C16_35 
REMARK   13  A    between atoms: C16_35  and  C17_36 
REMARK   14  A    between atoms: C17_36  and  C18_37 
REMARK   15  A    between atoms: C18_37  and  C19_38 
REMARK   16  A    between atoms: C19_38  and  O2_39 
REMARK   17  A    between atoms: C22_43  and  O3_44 
ROOT
HETATM    1  N3  UNL     1      47.631  31.824  30.943  1.00  0.00    -0.359 N 
ATOM      2  H3  UNL     1      47.510  32.230  30.015  1.00  0.00     0.162 HD
ENDROOT
BRANCH   1   3
HETATM    3  C9  UNL     1      47.628  30.408  31.056  1.00  0.00     0.180 C 
HETATM    4  S1  UNL     1      47.141  29.638  29.455  1.00  0.00    -0.130 SA
HETATM    5  C8  UNL     1      48.290  28.191  29.537  1.00  0.00     0.124 C 
HETATM    6  C23 UNL     1      48.798  28.366  30.902  1.00  0.00     0.283 C 
HETATM    7  C22 UNL     1      49.048  29.832  31.176  1.00  0.00     0.224 C 
HETATM    8  F2  UNL     1      47.749  28.022  31.777  1.00  0.00    -0.202 F 
HETATM    9  F3  UNL     1      49.840  27.563  31.270  1.00  0.00    -0.202 F 
BRANCH   5  10
HETATM   10  C7  UNL     1      49.217  28.261  28.401  1.00  0.00     0.021 C 
BRANCH  10  11
HETATM   11  C6  UNL     1      49.170  29.411  27.494  1.00  0.00     0.002 C 
BRANCH  11  12
HETATM   12  C5  UNL     1      50.490  30.092  27.235  1.00  0.00     0.005 C 
BRANCH  12  13
HETATM   13  C4  UNL     1      50.620  31.437  27.885  1.00  0.00     0.044 C 
BRANCH  13  14
HETATM   14  C3  UNL     1      52.014  31.947  27.863  1.00  0.00     0.064 C 
BRANCH  14  15
HETATM   15  N2  UNL     1      52.956  31.383  28.528  1.00  0.00    -0.339 N 
HETATM   16  C2  UNL     1      53.131  31.573  29.913  1.00  0.00     0.246 C 
HETATM   17  O1  UNL     1      53.585  32.654  30.339  1.00  0.00    -0.271 OA
ATOM     18  H2  UNL     1      53.606  30.773  28.033  1.00  0.00     0.167 HD
BRANCH  16  19
HETATM   19  C1  UNL     1      52.785  30.510  30.876  1.00  0.00     0.332 C 
BRANCH  19  20
HETATM   20  N1  UNL     1      52.568  29.282  30.170  1.00  0.00    -0.071 N 
ATOM     21  H13 UNL     1      53.110  29.232  29.307  1.00  0.00     0.274 HD
ATOM     22  H12 UNL     1      52.985  28.484  30.649  1.00  0.00     0.274 HD
ATOM     23  H11 UNL     1      51.569  29.157  30.007  1.00  0.00     0.274 HD
ENDBRANCH  19  20
ENDBRANCH  16  19
ENDBRANCH  14  15
ENDBRANCH  13  14
ENDBRANCH  12  13
ENDBRANCH  11  12
ENDBRANCH  10  11
ENDBRANCH   5  10
BRANCH   7  24
HETATM   24  O3  UNL     1      49.513  29.969  32.467  1.00  0.00    -0.387 OA
ATOM     25  H3  UNL     1      50.321  29.483  32.580  1.00  0.00     0.210 HD
ENDBRANCH   7  24
ENDBRANCH   1   3
BRANCH   1  26
HETATM   26  C10 UNL     1      47.775  32.617  31.925  1.00  0.00     0.117 A 
HETATM   27  N4  UNL     1      47.494  32.340  33.205  1.00  0.00    -0.318 N 
HETATM   28  C11 UNL     1      47.673  33.233  34.189  1.00  0.00     0.181 A 
ATOM     29  H4  UNL     1      47.131  31.416  33.440  1.00  0.00     0.170 HD
HETATM   30 CL1  UNL     1      47.273  32.766  35.825  1.00  0.00    -0.045 Cl
HETATM   31  N5  UNL     1      48.154  34.459  33.889  1.00  0.00    -0.330 N 
HETATM   32  C12 UNL     1      48.458  34.804  32.623  1.00  0.00     0.073 A 
ATOM     33  H5  UNL     1      48.291  35.138  34.637  1.00  0.00     0.168 HD
HETATM   34  C13 UNL     1      48.955  36.072  32.319  1.00  0.00     0.102 A 
HETATM   35  C21 UNL     1      48.274  33.888  31.610  1.00  0.00     0.039 A 
HETATM   36 CL2  UNL     1      49.193  37.246  33.597  1.00  0.00    -0.079 Cl
HETATM   37  C14 UNL     1      49.253  36.375  30.998  1.00  0.00     0.166 A 
HETATM   38  F1  UNL     1      49.737  37.602  30.684  1.00  0.00    -0.202 F 
HETATM   39  C15 UNL     1      49.080  35.479  29.967  1.00  0.00     0.070 A 
HETATM   40  C20 UNL     1      48.582  34.224  30.306  1.00  0.00     0.050 A 
BRANCH  39  41
HETATM   41  N6  UNL     1      49.382  35.782  28.620  1.00  0.00    -0.387 N 
ATOM     42  H6  UNL     1      50.299  35.535  28.249  1.00  0.00     0.159 HD
BRANCH  41  43
HETATM   43  C16 UNL     1      48.426  36.433  27.758  1.00  0.00     0.120 C 
BRANCH  43  44
HETATM   44  C17 UNL     1      48.918  37.799  27.311  1.00  0.00     0.022 C 
BRANCH  44  45
HETATM   45  C18 UNL     1      49.061  37.845  25.792  1.00  0.00     0.028 C 
BRANCH  45  46
HETATM   46  C19 UNL     1      49.671  39.185  25.432  1.00  0.00     0.164 C 
BRANCH  46  47
HETATM   47  O2  UNL     1      50.167  39.206  24.148  1.00  0.00    -0.401 OA
ATOM     48  H2  UNL     1      50.080  38.365  23.714  1.00  0.00     0.209 HD
ENDBRANCH  46  47
ENDBRANCH  45  46
ENDBRANCH  44  45
ENDBRANCH  43  44
ENDBRANCH  41  43
ENDBRANCH  39  41
ENDBRANCH   1  26
TORSDOF 17
ENDMDL
MODEL 5
REMARK VINA RESULT: -8.343475416      2.551      4.663
REMARK  17 active torsions:
REMARK  status: ('A' for Active; 'I' for Inactive)
REMARK    1  A    between atoms: N1_1  and  C1_5 
REMARK    2  A    between atoms: C1_5  and  C2_6 
REMARK       I    between atoms: C2_6  and  N2_8 
REMARK    3  A    between atoms: N2_8  and  C3_10 
REMARK    4  A    between atoms: C3_10  and  C4_11 
REMARK    5  A    between atoms: C4_11  and  C5_12 
REMARK    6  A    between atoms: C5_12  and  C6_13 
REMARK    7  A    between atoms: C6_13  and  C7_14 
REMARK    8  A    between atoms: C7_14  and  C8_15 
REMARK    9  A    between atoms: C9_17  and  N3_18 
REMARK   10  A    between atoms: N3_18  and  C10_20 
REMARK   11  A    between atoms: C15_32  and  N6_33 
REMARK   12  A    between atoms: N6_33  and  C16_35 
REMARK   13  A    between atoms: C16_35  and  C17_36 
REMARK   14  A    between atoms: C17_36  and  C18_37 
REMARK   15  A    between atoms: C18_37  and  C19_38 
REMARK   16  A    between atoms: C19_38  and  O2_39 
REMARK   17  A    between atoms: C22_43  and  O3_44 
ROOT
HETATM    1  N3  UNL     1      48.208  32.670  29.403  1.00  0.00    -0.359 N 
ATOM      2  H3  UNL     1      47.226  32.429  29.541  1.00  0.00     0.162 HD
ENDROOT
BRANCH   1   3
HETATM    3  C9  UNL     1      49.133  31.610  29.203  1.00  0.00     0.180 C 
HETATM    4  S1  UNL     1      49.042  30.410  30.597  1.00  0.00    -0.130 SA
HETATM    5  C8  UNL     1      49.288  28.875  29.595  1.00  0.00     0.124 C 
HETATM    6  C23 UNL     1      49.605  29.484  28.298  1.00  0.00     0.283 C 
HETATM    7  C22 UNL     1      48.709  30.678  28.057  1.00  0.00     0.224 C 
HETATM    8  F2  UNL     1      50.897  30.035  28.408  1.00  0.00    -0.202 F 
HETATM    9  F3  UNL     1      49.673  28.636  27.229  1.00  0.00    -0.202 F 
BRANCH   5  10
HETATM   10  C7  UNL     1      48.097  28.027  29.730  1.00  0.00     0.021 C 
BRANCH  10  11
HETATM   11  C6  UNL     1      48.242  26.570  29.768  1.00  0.00     0.002 C 
BRANCH  11  12
HETATM   12  C5  UNL     1      49.034  26.025  30.930  1.00  0.00     0.005 C 
BRANCH  12  13
HETATM   13  C4  UNL     1      48.235  25.859  32.188  1.00  0.00     0.044 C 
BRANCH  13  14
HETATM   14  C3  UNL     1      48.285  24.471  32.714  1.00  0.00     0.064 C 
BRANCH  14  15
HETATM   15  N2  UNL     1      49.325  23.731  32.584  1.00  0.00    -0.339 N 
HETATM   16  C2  UNL     1      49.322  22.537  31.835  1.00  0.00     0.246 C 
HETATM   17  O1  UNL     1      48.754  21.522  32.287  1.00  0.00    -0.271 OA
ATOM     18  H2  UNL     1      50.190  24.018  33.042  1.00  0.00     0.167 HD
BRANCH  16  19
HETATM   19  C1  UNL     1      49.984  22.464  30.519  1.00  0.00     0.332 C 
BRANCH  19  20
HETATM   20  N1  UNL     1      51.325  22.953  30.633  1.00  0.00    -0.071 N 
ATOM     21  H13 UNL     1      51.971  22.235  30.961  1.00  0.00     0.274 HD
ATOM     22  H12 UNL     1      51.751  23.127  29.723  1.00  0.00     0.274 HD
ATOM     23  H11 UNL     1      51.334  23.782  31.228  1.00  0.00     0.274 HD
ENDBRANCH  19  20
ENDBRANCH  16  19
ENDBRANCH  14  15
ENDBRANCH  13  14
ENDBRANCH  12  13
ENDBRANCH  11  12
ENDBRANCH  10  11
ENDBRANCH   5  10
BRANCH   7  24
HETATM   24  O3  UNL     1      49.034  31.238  26.839  1.00  0.00    -0.387 OA
ATOM     25  H3  UNL     1      48.523  30.838  26.145  1.00  0.00     0.210 HD
ENDBRANCH   7  24
ENDBRANCH   1   3
BRANCH   1  26
HETATM   26  C10 UNL     1      48.527  33.900  29.420  1.00  0.00     0.117 A 
HETATM   27  N4  UNL     1      48.661  34.691  28.347  1.00  0.00    -0.318 N 
HETATM   28  C11 UNL     1      49.003  35.983  28.448  1.00  0.00     0.181 A 
ATOM     29  H4  UNL     1      48.497  34.297  27.422  1.00  0.00     0.170 HD
HETATM   30 CL1  UNL     1      49.151  36.925  26.983  1.00  0.00    -0.045 Cl
HETATM   31  N5  UNL     1      49.223  36.517  29.669  1.00  0.00    -0.330 N 
HETATM   32  C12 UNL     1      49.106  35.778  30.789  1.00  0.00     0.073 A 
ATOM     33  H5  UNL     1      49.483  37.500  29.745  1.00  0.00     0.168 HD
HETATM   34  C13 UNL     1      49.333  36.334  32.048  1.00  0.00     0.102 A 
HETATM   35  C21 UNL     1      48.755  34.449  30.689  1.00  0.00     0.039 A 
HETATM   36 CL2  UNL     1      49.781  38.022  32.190  1.00  0.00    -0.079 Cl
HETATM   37  C14 UNL     1      49.198  35.529  33.171  1.00  0.00     0.166 A 
HETATM   38  F1  UNL     1      49.415  36.052  34.402  1.00  0.00    -0.202 F 
HETATM   39  C15 UNL     1      48.848  34.199  33.099  1.00  0.00     0.070 A 
HETATM   40  C20 UNL     1      48.629  33.677  31.827  1.00  0.00     0.050 A 
BRANCH  39  41
HETATM   41  N6  UNL     1      48.708  33.374  34.238  1.00  0.00    -0.387 N 
ATOM     42  H6  UNL     1      49.403  32.649  34.415  1.00  0.00     0.159 HD
BRANCH  41  43
HETATM   43  C16 UNL     1      47.607  33.533  35.156  1.00  0.00     0.120 C 
BRANCH  43  44
HETATM   44  C17 UNL     1      47.654  32.500  36.269  1.00  0.00     0.022 C 
BRANCH  44  45
HETATM   45  C18 UNL     1      48.845  31.564  36.079  1.00  0.00     0.028 C 
BRANCH  45  46
HETATM   46  C19 UNL     1      49.087  30.861  37.401  1.00  0.00     0.164 C 
BRANCH  46  47
HETATM   47  O2  UNL     1      48.605  31.581  38.471  1.00  0.00    -0.401 OA
ATOM     48  H2  UNL     1      47.656  31.631  38.474  1.00  0.00     0.209 HD
ENDBRANCH  46  47
ENDBRANCH  45  46
ENDBRANCH  44  45
ENDBRANCH  43  44
ENDBRANCH  41  43
ENDBRANCH  39  41
ENDBRANCH   1  26
TORSDOF 17
ENDMDL
