MODEL 1
REMARK VINA RESULT: -9.053629309      0.000      0.000
REMARK  17 active torsions:
REMARK  status: ('A' for Active; 'I' for Inactive)
REMARK    1  A    between atoms: C2_2  and  N1_3 
REMARK    2  A    between atoms: N1_3  and  C3_5 
REMARK    3  A    between atoms: C3_5  and  S1_9 
REMARK    4  A    between atoms: S1_9  and  C5_10 
REMARK    5  A    between atoms: C5_10  and  C6_11 
REMARK    6  A    between atoms: C6_11  and  N3_12 
REMARK    7  A    between atoms: N3_12  and  C7_13 
REMARK    8  A    between atoms: N3_12  and  C18_35 
REMARK    9  A    between atoms: C7_13  and  C8_14 
REMARK   10  A    between atoms: N4_15  and  C9_17 
REMARK   11  A    between atoms: C9_17  and  C10_18 
REMARK   12  A    between atoms: C10_18  and  N5_19 
REMARK   13  A    between atoms: N5_19  and  C11_21 
REMARK   14  A    between atoms: C11_21  and  N6_23 
REMARK   15  A    between atoms: N6_23  and  C12_25 
REMARK   16  A    between atoms: C20_37  and  O1_38 
REMARK   17  A    between atoms: C22_41  and  O2_42 
ROOT
HETATM    1  N3  UNL     1      49.018  28.536  29.298  1.00  0.00    -0.374 N 
ENDROOT
BRANCH   1   2
HETATM    2  C6  UNL     1      49.655  27.230  29.465  1.00  0.00     0.134 C 
BRANCH   2   3
HETATM    3  C5  UNL     1      48.718  26.193  29.991  1.00  0.00     0.102 C 
BRANCH   3   4
HETATM    4  S1  UNL     1      49.397  25.185  31.303  1.00  0.00    -0.093 SA
BRANCH   4   5
HETATM    5  C3  UNL     1      50.944  24.457  30.785  1.00  0.00     0.135 C 
HETATM    6  N2  UNL     1      51.987  25.139  30.533  1.00  0.00    -0.375 N 
HETATM    7  C4  UNL     1      53.249  24.589  30.106  1.00  0.00     0.148 C 
ATOM      8  H2  UNL     1      51.927  26.151  30.641  1.00  0.00     0.161 HD
BRANCH   5   9
HETATM    9  N1  UNL     1      51.003  23.039  30.643  1.00  0.00    -0.371 N 
ATOM     10  H1  UNL     1      51.793  22.638  30.136  1.00  0.00     0.161 HD
BRANCH   9  11
HETATM   11  C2  UNL     1      50.019  22.148  31.172  1.00  0.00     0.117 C 
HETATM   12  C1  UNL     1      49.251  21.525  30.025  1.00  0.00     0.026 C 
ENDBRANCH   9  11
ENDBRANCH   5   9
ENDBRANCH   4   5
ENDBRANCH   3   4
ENDBRANCH   2   3
ENDBRANCH   1   2
BRANCH   1  13
HETATM   13  C7  UNL     1      47.680  28.646  29.812  1.00  0.00     0.167 C 
BRANCH  13  14
HETATM   14  C8  UNL     1      47.532  29.512  30.987  1.00  0.00     0.075 C 
HETATM   15  N4  UNL     1      46.697  30.448  31.101  1.00  0.00    -0.399 N 
ATOM     16  H4  UNL     1      46.707  30.968  31.978  1.00  0.00     0.158 HD
BRANCH  15  17
HETATM   17  C9  UNL     1      45.732  30.854  30.118  1.00  0.00     0.138 C 
BRANCH  17  18
HETATM   18  C10 UNL     1      45.263  32.255  30.394  1.00  0.00     0.141 C 
BRANCH  18  19
HETATM   19  N5  UNL     1      45.745  32.832  31.591  1.00  0.00    -0.365 N 
ATOM     20  H5  UNL     1      45.254  32.614  32.458  1.00  0.00     0.161 HD
BRANCH  19  21
HETATM   21  C11 UNL     1      46.896  33.717  31.662  1.00  0.00     0.172 C 
HETATM   22  S2  UNL     1      47.389  34.292  30.233  1.00  0.00    -0.041 SA
BRANCH  21  23
HETATM   23  N6  UNL     1      47.440  34.024  32.927  1.00  0.00    -0.331 N 
ATOM     24  H6  UNL     1      47.510  35.021  33.133  1.00  0.00     0.168 HD
BRANCH  23  25
HETATM   25  C12 UNL     1      47.899  33.175  33.944  1.00  0.00     0.079 A 
HETATM   26  C13 UNL     1      47.442  33.167  35.227  1.00  0.00     0.078 A 
HETATM   27  C14 UNL     1      47.955  32.309  36.203  1.00  0.00     0.160 A 
HETATM   28  F1  UNL     1      47.461  32.348  37.456  1.00  0.00    -0.203 F 
HETATM   29  C15 UNL     1      48.961  31.429  35.881  1.00  0.00     0.196 A 
HETATM   30  F2  UNL     1      49.462  30.600  36.810  1.00  0.00    -0.199 F 
HETATM   31  C16 UNL     1      49.444  31.416  34.585  1.00  0.00     0.198 A 
HETATM   32  F3  UNL     1      50.436  30.549  34.267  1.00  0.00    -0.199 F 
HETATM   33  C17 UNL     1      48.940  32.253  33.644  1.00  0.00     0.184 A 
HETATM   34  F4  UNL     1      49.431  32.216  32.388  1.00  0.00    -0.200 F 
ENDBRANCH  23  25
ENDBRANCH  21  23
ENDBRANCH  19  21
ENDBRANCH  18  19
ENDBRANCH  17  18
ENDBRANCH  15  17
ENDBRANCH  13  14
ENDBRANCH   1  13
BRANCH   1  35
HETATM   35  C18 UNL     1      49.770  29.533  28.669  1.00  0.00     0.058 A 
HETATM   36  C19 UNL     1      49.599  29.820  27.345  1.00  0.00     0.067 A 
HETATM   37  C20 UNL     1      50.364  30.800  26.754  1.00  0.00     0.070 A 
HETATM   38  C21 UNL     1      51.303  31.495  27.491  1.00  0.00     0.074 A 
HETATM   39  C22 UNL     1      51.492  31.216  28.847  1.00  0.00     0.092 A 
HETATM   40  C23 UNL     1      50.715  30.229  29.420  1.00  0.00     0.093 A 
HETATM   41 CL1  UNL     1      50.975  29.906  31.129  1.00  0.00    -0.079 Cl
BRANCH  37  42
HETATM   42  O1  UNL     1      50.206  31.107  25.410  1.00  0.00    -0.361 OA
ATOM     43  H1  UNL     1      50.763  30.707  24.753  1.00  0.00     0.217 HD
ENDBRANCH  37  42
BRANCH  39  44
HETATM   44  O2  UNL     1      52.427  31.904  29.591  1.00  0.00    -0.359 OA
ATOM     45  H2  UNL     1      53.021  32.522  29.182  1.00  0.00     0.217 HD
ENDBRANCH  39  44
ENDBRANCH   1  35
TORSDOF 17
ENDMDL
MODEL 2
REMARK VINA RESULT: -8.813081181      3.494      5.286
REMARK  17 active torsions:
REMARK  status: ('A' for Active; 'I' for Inactive)
REMARK    1  A    between atoms: C2_2  and  N1_3 
REMARK    2  A    between atoms: N1_3  and  C3_5 
REMARK    3  A    between atoms: C3_5  and  S1_9 
REMARK    4  A    between atoms: S1_9  and  C5_10 
REMARK    5  A    between atoms: C5_10  and  C6_11 
REMARK    6  A    between atoms: C6_11  and  N3_12 
REMARK    7  A    between atoms: N3_12  and  C7_13 
REMARK    8  A    between atoms: N3_12  and  C18_35 
REMARK    9  A    between atoms: C7_13  and  C8_14 
REMARK   10  A    between atoms: N4_15  and  C9_17 
REMARK   11  A    between atoms: C9_17  and  C10_18 
REMARK   12  A    between atoms: C10_18  and  N5_19 
REMARK   13  A    between atoms: N5_19  and  C11_21 
REMARK   14  A    between atoms: C11_21  and  N6_23 
REMARK   15  A    between atoms: N6_23  and  C12_25 
REMARK   16  A    between atoms: C20_37  and  O1_38 
REMARK   17  A    between atoms: C22_41  and  O2_42 
ROOT
HETATM    1  N3  UNL     1      47.252  30.631  29.504  1.00  0.00    -0.374 N 
ENDROOT
BRANCH   1   2
HETATM    2  C6  UNL     1      46.237  29.579  29.498  1.00  0.00     0.134 C 
BRANCH   2   3
HETATM    3  C5  UNL     1      45.280  29.705  28.359  1.00  0.00     0.102 C 
BRANCH   3   4
HETATM    4  S1  UNL     1      43.651  30.280  28.824  1.00  0.00    -0.093 SA
BRANCH   4   5
HETATM    5  C3  UNL     1      42.430  29.022  28.479  1.00  0.00     0.135 C 
HETATM    6  N2  UNL     1      42.375  28.385  27.380  1.00  0.00    -0.375 N 
HETATM    7  C4  UNL     1      41.401  27.370  27.063  1.00  0.00     0.148 C 
ATOM      8  H2  UNL     1      43.073  28.607  26.670  1.00  0.00     0.161 HD
BRANCH   5   9
HETATM    9  N1  UNL     1      41.466  28.729  29.489  1.00  0.00    -0.371 N 
ATOM     10  H1  UNL     1      41.633  27.926  30.096  1.00  0.00     0.161 HD
BRANCH   9  11
HETATM   11  C2  UNL     1      40.279  29.497  29.698  1.00  0.00     0.117 C 
HETATM   12  C1  UNL     1      39.103  28.556  29.851  1.00  0.00     0.026 C 
ENDBRANCH   9  11
ENDBRANCH   5   9
ENDBRANCH   4   5
ENDBRANCH   3   4
ENDBRANCH   2   3
ENDBRANCH   1   2
BRANCH   1  13
HETATM   13  C7  UNL     1      46.878  31.854  30.160  1.00  0.00     0.167 C 
BRANCH  13  14
HETATM   14  C8  UNL     1      46.372  32.909  29.274  1.00  0.00     0.075 C 
HETATM   15  N4  UNL     1      46.955  33.999  29.034  1.00  0.00    -0.399 N 
ATOM     16  H4  UNL     1      46.485  34.641  28.396  1.00  0.00     0.158 HD
BRANCH  15  17
HETATM   17  C9  UNL     1      48.217  34.428  29.570  1.00  0.00     0.138 C 
BRANCH  17  18
HETATM   18  C10 UNL     1      48.107  35.824  30.114  1.00  0.00     0.141 C 
BRANCH  18  19
HETATM   19  N5  UNL     1      47.572  35.927  31.418  1.00  0.00    -0.365 N 
ATOM     20  H5  UNL     1      46.729  36.487  31.547  1.00  0.00     0.161 HD
BRANCH  19  21
HETATM   21  C11 UNL     1      48.149  35.284  32.588  1.00  0.00     0.172 C 
HETATM   22  S2  UNL     1      49.400  36.075  33.239  1.00  0.00    -0.041 SA
BRANCH  21  23
HETATM   23  N6  UNL     1      47.565  34.092  33.065  1.00  0.00    -0.331 N 
ATOM     24  H6  UNL     1      46.667  33.854  32.642  1.00  0.00     0.168 HD
BRANCH  23  25
HETATM   25  C12 UNL     1      48.025  33.182  34.028  1.00  0.00     0.079 A 
HETATM   26  C13 UNL     1      47.638  33.158  35.334  1.00  0.00     0.078 A 
HETATM   27  C14 UNL     1      48.149  32.237  36.252  1.00  0.00     0.160 A 
HETATM   28  F1  UNL     1      47.726  32.263  37.532  1.00  0.00    -0.203 F 
HETATM   29  C15 UNL     1      49.079  31.309  35.848  1.00  0.00     0.196 A 
HETATM   30  F2  UNL     1      49.577  30.420  36.721  1.00  0.00    -0.199 F 
HETATM   31  C16 UNL     1      49.490  31.312  34.527  1.00  0.00     0.198 A 
HETATM   32  F3  UNL     1      50.408  30.398  34.127  1.00  0.00    -0.199 F 
HETATM   33  C17 UNL     1      48.989  32.210  33.642  1.00  0.00     0.184 A 
HETATM   34  F4  UNL     1      49.408  32.187  32.360  1.00  0.00    -0.200 F 
ENDBRANCH  23  25
ENDBRANCH  21  23
ENDBRANCH  19  21
ENDBRANCH  18  19
ENDBRANCH  17  18
ENDBRANCH  15  17
ENDBRANCH  13  14
ENDBRANCH   1  13
BRANCH   1  35
HETATM   35  C18 UNL     1      48.471  30.340  28.884  1.00  0.00     0.058 A 
HETATM   36  C19 UNL     1      48.716  30.711  27.593  1.00  0.00     0.067 A 
HETATM   37  C20 UNL     1      49.923  30.398  27.009  1.00  0.00     0.070 A 
HETATM   38  C21 UNL     1      50.887  29.712  27.720  1.00  0.00     0.074 A 
HETATM   39  C22 UNL     1      50.655  29.324  29.042  1.00  0.00     0.092 A 
HETATM   40  C23 UNL     1      49.439  29.647  29.609  1.00  0.00     0.093 A 
HETATM   41 CL1  UNL     1      49.181  29.149  31.276  1.00  0.00    -0.079 Cl
BRANCH  37  42
HETATM   42  O1  UNL     1      50.191  30.766  25.699  1.00  0.00    -0.361 OA
ATOM     43  H1  UNL     1      50.102  30.139  24.991  1.00  0.00     0.217 HD
ENDBRANCH  37  42
BRANCH  39  44
HETATM   44  O2  UNL     1      51.612  28.639  29.761  1.00  0.00    -0.359 OA
ATOM     45  H2  UNL     1      51.418  27.798  30.160  1.00  0.00     0.217 HD
ENDBRANCH  39  44
ENDBRANCH   1  35
TORSDOF 17
ENDMDL
MODEL 3
REMARK VINA RESULT: -8.795797220      1.497      2.200
REMARK  17 active torsions:
REMARK  status: ('A' for Active; 'I' for Inactive)
REMARK    1  A    between atoms: C2_2  and  N1_3 
REMARK    2  A    between atoms: N1_3  and  C3_5 
REMARK    3  A    between atoms: C3_5  and  S1_9 
REMARK    4  A    between atoms: S1_9  and  C5_10 
REMARK    5  A    between atoms: C5_10  and  C6_11 
REMARK    6  A    between atoms: C6_11  and  N3_12 
REMARK    7  A    between atoms: N3_12  and  C7_13 
REMARK    8  A    between atoms: N3_12  and  C18_35 
REMARK    9  A    between atoms: C7_13  and  C8_14 
REMARK   10  A    between atoms: N4_15  and  C9_17 
REMARK   11  A    between atoms: C9_17  and  C10_18 
REMARK   12  A    between atoms: C10_18  and  N5_19 
REMARK   13  A    between atoms: N5_19  and  C11_21 
REMARK   14  A    between atoms: C11_21  and  N6_23 
REMARK   15  A    between atoms: N6_23  and  C12_25 
REMARK   16  A    between atoms: C20_37  and  O1_38 
REMARK   17  A    between atoms: C22_41  and  O2_42 
ROOT
HETATM    1  N3  UNL     1      48.531  29.444  30.115  1.00  0.00    -0.374 N 
ENDROOT
BRANCH   1   2
HETATM    2  C6  UNL     1      48.129  28.118  29.646  1.00  0.00     0.134 C 
BRANCH   2   3
HETATM    3  C5  UNL     1      49.279  27.174  29.526  1.00  0.00     0.102 C 
BRANCH   3   4
HETATM    4  S1  UNL     1      49.266  25.841  30.719  1.00  0.00    -0.093 SA
BRANCH   4   5
HETATM    5  C3  UNL     1      50.828  24.974  30.693  1.00  0.00     0.135 C 
HETATM    6  N2  UNL     1      51.885  25.453  30.173  1.00  0.00    -0.375 N 
HETATM    7  C4  UNL     1      53.159  24.781  30.126  1.00  0.00     0.148 C 
ATOM      8  H2  UNL     1      51.827  26.383  29.757  1.00  0.00     0.161 HD
BRANCH   5   9
HETATM    9  N1  UNL     1      50.884  23.676  31.283  1.00  0.00    -0.371 N 
ATOM     10  H1  UNL     1      51.665  23.068  31.035  1.00  0.00     0.161 HD
BRANCH   9  11
HETATM   11  C2  UNL     1      49.908  23.180  32.201  1.00  0.00     0.117 C 
HETATM   12  C1  UNL     1      49.096  22.098  31.521  1.00  0.00     0.026 C 
ENDBRANCH   9  11
ENDBRANCH   5   9
ENDBRANCH   4   5
ENDBRANCH   3   4
ENDBRANCH   2   3
ENDBRANCH   1   2
BRANCH   1  13
HETATM   13  C7  UNL     1      47.526  30.183  30.829  1.00  0.00     0.167 C 
BRANCH  13  14
HETATM   14  C8  UNL     1      46.547  30.880  29.988  1.00  0.00     0.075 C 
HETATM   15  N4  UNL     1      46.657  32.064  29.573  1.00  0.00    -0.399 N 
ATOM     16  H4  UNL     1      45.896  32.420  28.994  1.00  0.00     0.158 HD
BRANCH  15  17
HETATM   17  C9  UNL     1      47.746  32.962  29.833  1.00  0.00     0.138 C 
BRANCH  17  18
HETATM   18  C10 UNL     1      47.228  34.288  30.316  1.00  0.00     0.141 C 
BRANCH  18  19
HETATM   19  N5  UNL     1      48.128  35.041  31.102  1.00  0.00    -0.365 N 
ATOM     20  H5  UNL     1      48.823  35.612  30.619  1.00  0.00     0.161 HD
BRANCH  19  21
HETATM   21  C11 UNL     1      48.125  35.054  32.556  1.00  0.00     0.172 C 
HETATM   22  S2  UNL     1      48.856  36.338  33.217  1.00  0.00    -0.041 SA
BRANCH  21  23
HETATM   23  N6  UNL     1      47.474  34.010  33.244  1.00  0.00    -0.331 N 
ATOM     24  H6  UNL     1      46.491  33.882  32.999  1.00  0.00     0.168 HD
BRANCH  23  25
HETATM   25  C12 UNL     1      47.963  33.119  34.210  1.00  0.00     0.079 A 
HETATM   26  C13 UNL     1      47.574  33.082  35.515  1.00  0.00     0.078 A 
HETATM   27  C14 UNL     1      48.116  32.182  36.436  1.00  0.00     0.160 A 
HETATM   28  F1  UNL     1      47.689  32.195  37.714  1.00  0.00    -0.203 F 
HETATM   29  C15 UNL     1      49.080  31.289  36.036  1.00  0.00     0.196 A 
HETATM   30  F2  UNL     1      49.608  30.420  36.911  1.00  0.00    -0.199 F 
HETATM   31  C16 UNL     1      49.495  31.304  34.716  1.00  0.00     0.198 A 
HETATM   32  F3  UNL     1      50.446  30.424  34.320  1.00  0.00    -0.199 F 
HETATM   33  C17 UNL     1      48.964  32.182  33.828  1.00  0.00     0.184 A 
HETATM   34  F4  UNL     1      49.387  32.172  32.547  1.00  0.00    -0.200 F 
ENDBRANCH  23  25
ENDBRANCH  21  23
ENDBRANCH  19  21
ENDBRANCH  18  19
ENDBRANCH  17  18
ENDBRANCH  15  17
ENDBRANCH  13  14
ENDBRANCH   1  13
BRANCH   1  35
HETATM   35  C18 UNL     1      49.839  29.847  29.830  1.00  0.00     0.058 A 
HETATM   36  C19 UNL     1      50.822  29.779  30.776  1.00  0.00     0.067 A 
HETATM   37  C20 UNL     1      52.098  30.195  30.467  1.00  0.00     0.070 A 
HETATM   38  C21 UNL     1      52.390  30.680  29.207  1.00  0.00     0.074 A 
HETATM   39  C22 UNL     1      51.398  30.756  28.226  1.00  0.00     0.092 A 
HETATM   40  C23 UNL     1      50.126  30.335  28.556  1.00  0.00     0.093 A 
HETATM   41 CL1  UNL     1      48.901  30.440  27.298  1.00  0.00    -0.079 Cl
BRANCH  37  42
HETATM   42  O1  UNL     1      53.110  30.134  31.413  1.00  0.00    -0.361 OA
ATOM     43  H1  UNL     1      53.993  29.887  31.163  1.00  0.00     0.217 HD
ENDBRANCH  37  42
BRANCH  39  44
HETATM   44  O2  UNL     1      51.679  31.239  26.966  1.00  0.00    -0.359 OA
ATOM     45  H2  UNL     1      51.979  30.660  26.274  1.00  0.00     0.217 HD
ENDBRANCH  39  44
ENDBRANCH   1  35
TORSDOF 17
ENDMDL
MODEL 4
REMARK VINA RESULT: -8.562788496      3.750      6.901
REMARK  17 active torsions:
REMARK  status: ('A' for Active; 'I' for Inactive)
REMARK    1  A    between atoms: C2_2  and  N1_3 
REMARK    2  A    between atoms: N1_3  and  C3_5 
REMARK    3  A    between atoms: C3_5  and  S1_9 
REMARK    4  A    between atoms: S1_9  and  C5_10 
REMARK    5  A    between atoms: C5_10  and  C6_11 
REMARK    6  A    between atoms: C6_11  and  N3_12 
REMARK    7  A    between atoms: N3_12  and  C7_13 
REMARK    8  A    between atoms: N3_12  and  C18_35 
REMARK    9  A    between atoms: C7_13  and  C8_14 
REMARK   10  A    between atoms: N4_15  and  C9_17 
REMARK   11  A    between atoms: C9_17  and  C10_18 
REMARK   12  A    between atoms: C10_18  and  N5_19 
REMARK   13  A    between atoms: N5_19  and  C11_21 
REMARK   14  A    between atoms: C11_21  and  N6_23 
REMARK   15  A    between atoms: N6_23  and  C12_25 
REMARK   16  A    between atoms: C20_37  and  O1_38 
REMARK   17  A    between atoms: C22_41  and  O2_42 
ROOT
HETATM    1  N3  UNL     1      48.455  32.033  28.088  1.00  0.00    -0.374 N 
ENDROOT
BRANCH   1   2
HETATM    2  C6  UNL     1      48.816  32.431  29.448  1.00  0.00     0.134 C 
BRANCH   2   3
HETATM    3  C5  UNL     1      49.866  33.493  29.480  1.00  0.00     0.102 C 
BRANCH   3   4
HETATM    4  S1  UNL     1      49.231  35.161  29.368  1.00  0.00    -0.093 SA
BRANCH   4   5
HETATM    5  C3  UNL     1      48.563  35.674  30.944  1.00  0.00     0.135 C 
HETATM    6  N2  UNL     1      49.285  35.933  31.958  1.00  0.00    -0.375 N 
HETATM    7  C4  UNL     1      48.783  36.342  33.246  1.00  0.00     0.148 C 
ATOM      8  H2  UNL     1      50.296  35.846  31.853  1.00  0.00     0.161 HD
BRANCH   5   9
HETATM    9  N1  UNL     1      47.146  35.790  31.066  1.00  0.00    -0.371 N 
ATOM     10  H1  UNL     1      46.772  36.298  31.868  1.00  0.00     0.161 HD
BRANCH   9  11
HETATM   11  C2  UNL     1      46.223  35.234  30.128  1.00  0.00     0.117 C 
HETATM   12  C1  UNL     1      45.635  33.965  30.707  1.00  0.00     0.026 C 
ENDBRANCH   9  11
ENDBRANCH   5   9
ENDBRANCH   4   5
ENDBRANCH   3   4
ENDBRANCH   2   3
ENDBRANCH   1   2
BRANCH   1  13
HETATM   13  C7  UNL     1      49.489  31.376  27.337  1.00  0.00     0.167 C 
BRANCH  13  14
HETATM   14  C8  UNL     1      49.719  29.970  27.685  1.00  0.00     0.075 C 
HETATM   15  N4  UNL     1      50.737  29.524  28.277  1.00  0.00    -0.399 N 
ATOM     16  H4  UNL     1      50.762  28.520  28.456  1.00  0.00     0.158 HD
BRANCH  15  17
HETATM   17  C9  UNL     1      51.866  30.289  28.726  1.00  0.00     0.138 C 
BRANCH  17  18
HETATM   18  C10 UNL     1      51.904  30.334  30.228  1.00  0.00     0.141 C 
BRANCH  18  19
HETATM   19  N5  UNL     1      51.034  29.434  30.884  1.00  0.00    -0.365 N 
ATOM     20  H5  UNL     1      51.143  28.438  30.693  1.00  0.00     0.161 HD
BRANCH  19  21
HETATM   21  C11 UNL     1      49.994  29.840  31.816  1.00  0.00     0.172 C 
HETATM   22  S2  UNL     1      48.662  28.924  31.774  1.00  0.00    -0.041 SA
BRANCH  21  23
HETATM   23  N6  UNL     1      50.240  30.930  32.676  1.00  0.00    -0.331 N 
ATOM     24  H6  UNL     1      50.992  31.552  32.376  1.00  0.00     0.168 HD
BRANCH  23  25
HETATM   25  C12 UNL     1      49.614  31.294  33.877  1.00  0.00     0.079 A 
HETATM   26  C13 UNL     1      49.873  30.745  35.096  1.00  0.00     0.078 A 
HETATM   27  C14 UNL     1      49.200  31.138  36.255  1.00  0.00     0.160 A 
HETATM   28  F1  UNL     1      49.501  30.557  37.434  1.00  0.00    -0.203 F 
HETATM   29  C15 UNL     1      48.234  32.113  36.190  1.00  0.00     0.196 A 
HETATM   30  F2  UNL     1      47.580  32.498  37.297  1.00  0.00    -0.199 F 
HETATM   31  C16 UNL     1      47.950  32.688  34.964  1.00  0.00     0.198 A 
HETATM   32  F3  UNL     1      46.998  33.650  34.899  1.00  0.00    -0.199 F 
HETATM   33  C17 UNL     1      48.609  32.300  33.843  1.00  0.00     0.184 A 
HETATM   34  F4  UNL     1      48.312  32.881  32.662  1.00  0.00    -0.200 F 
ENDBRANCH  23  25
ENDBRANCH  21  23
ENDBRANCH  19  21
ENDBRANCH  18  19
ENDBRANCH  17  18
ENDBRANCH  15  17
ENDBRANCH  13  14
ENDBRANCH   1  13
BRANCH   1  35
HETATM   35  C18 UNL     1      47.153  32.321  27.667  1.00  0.00     0.058 A 
HETATM   36  C19 UNL     1      46.883  33.419  26.902  1.00  0.00     0.067 A 
HETATM   37  C20 UNL     1      45.589  33.681  26.513  1.00  0.00     0.070 A 
HETATM   38  C21 UNL     1      44.561  32.840  26.893  1.00  0.00     0.074 A 
HETATM   39  C22 UNL     1      44.817  31.711  27.676  1.00  0.00     0.092 A 
HETATM   40  C23 UNL     1      46.122  31.467  28.055  1.00  0.00     0.093 A 
HETATM   41 CL1  UNL     1      46.411  30.036  29.035  1.00  0.00    -0.079 Cl
BRANCH  37  42
HETATM   42  O1  UNL     1      45.294  34.790  25.736  1.00  0.00    -0.361 OA
ATOM     43  H1  UNL     1      44.571  35.363  25.962  1.00  0.00     0.217 HD
ENDBRANCH  37  42
BRANCH  39  44
HETATM   44  O2  UNL     1      43.798  30.865  28.060  1.00  0.00    -0.359 OA
ATOM     45  H2  UNL     1      43.954  29.937  28.191  1.00  0.00     0.217 HD
ENDBRANCH  39  44
ENDBRANCH   1  35
TORSDOF 17
ENDMDL
MODEL 5
REMARK VINA RESULT: -8.553148791      2.991      4.306
REMARK  17 active torsions:
REMARK  status: ('A' for Active; 'I' for Inactive)
REMARK    1  A    between atoms: C2_2  and  N1_3 
REMARK    2  A    between atoms: N1_3  and  C3_5 
REMARK    3  A    between atoms: C3_5  and  S1_9 
REMARK    4  A    between atoms: S1_9  and  C5_10 
REMARK    5  A    between atoms: C5_10  and  C6_11 
REMARK    6  A    between atoms: C6_11  and  N3_12 
REMARK    7  A    between atoms: N3_12  and  C7_13 
REMARK    8  A    between atoms: N3_12  and  C18_35 
REMARK    9  A    between atoms: C7_13  and  C8_14 
REMARK   10  A    between atoms: N4_15  and  C9_17 
REMARK   11  A    between atoms: C9_17  and  C10_18 
REMARK   12  A    between atoms: C10_18  and  N5_19 
REMARK   13  A    between atoms: N5_19  and  C11_21 
REMARK   14  A    between atoms: C11_21  and  N6_23 
REMARK   15  A    between atoms: N6_23  and  C12_25 
REMARK   16  A    between atoms: C20_37  and  O1_38 
REMARK   17  A    between atoms: C22_41  and  O2_42 
ROOT
HETATM    1  N3  UNL     1      46.879  30.695  29.326  1.00  0.00    -0.374 N 
ENDROOT
BRANCH   1   2
HETATM    2  C6  UNL     1      47.748  29.688  28.718  1.00  0.00     0.134 C 
BRANCH   2   3
HETATM    3  C5  UNL     1      48.014  28.531  29.624  1.00  0.00     0.102 C 
BRANCH   3   4
HETATM    4  S1  UNL     1      49.747  28.151  29.845  1.00  0.00    -0.093 SA
BRANCH   4   5
HETATM    5  C3  UNL     1      49.945  26.453  30.364  1.00  0.00     0.135 C 
HETATM    6  N2  UNL     1      51.061  25.843  30.350  1.00  0.00    -0.375 N 
HETATM    7  C4  UNL     1      51.257  24.473  30.754  1.00  0.00     0.148 C 
ATOM      8  H2  UNL     1      51.879  26.362  30.030  1.00  0.00     0.161 HD
BRANCH   5   9
HETATM    9  N1  UNL     1      48.787  25.748  30.809  1.00  0.00    -0.371 N 
ATOM     10  H1  UNL     1      48.337  25.103  30.160  1.00  0.00     0.161 HD
BRANCH   9  11
HETATM   11  C2  UNL     1      48.222  25.896  32.113  1.00  0.00     0.117 C 
HETATM   12  C1  UNL     1      48.118  24.533  32.763  1.00  0.00     0.026 C 
ENDBRANCH   9  11
ENDBRANCH   5   9
ENDBRANCH   4   5
ENDBRANCH   3   4
ENDBRANCH   2   3
ENDBRANCH   1   2
BRANCH   1  13
HETATM   13  C7  UNL     1      47.529  31.633  30.200  1.00  0.00     0.167 C 
BRANCH  13  14
HETATM   14  C8  UNL     1      48.647  32.372  29.603  1.00  0.00     0.075 C 
HETATM   15  N4  UNL     1      48.620  33.586  29.267  1.00  0.00    -0.399 N 
ATOM     16  H4  UNL     1      49.474  33.969  28.863  1.00  0.00     0.158 HD
BRANCH  15  17
HETATM   17  C9  UNL     1      47.506  34.482  29.398  1.00  0.00     0.138 C 
BRANCH  17  18
HETATM   18  C10 UNL     1      47.917  35.722  30.142  1.00  0.00     0.141 C 
BRANCH  18  19
HETATM   19  N5  UNL     1      47.465  35.805  31.479  1.00  0.00    -0.365 N 
ATOM     20  H5  UNL     1      46.638  36.371  31.670  1.00  0.00     0.161 HD
BRANCH  19  21
HETATM   21  C11 UNL     1      48.106  35.133  32.598  1.00  0.00     0.172 C 
HETATM   22  S2  UNL     1      49.380  35.918  33.211  1.00  0.00    -0.041 SA
BRANCH  21  23
HETATM   23  N6  UNL     1      47.558  33.921  33.067  1.00  0.00    -0.331 N 
ATOM     24  H6  UNL     1      46.754  33.580  32.539  1.00  0.00     0.168 HD
BRANCH  23  25
HETATM   25  C12 UNL     1      47.945  33.109  34.143  1.00  0.00     0.079 A 
HETATM   26  C13 UNL     1      47.413  33.159  35.396  1.00  0.00     0.078 A 
HETATM   27  C14 UNL     1      47.857  32.336  36.434  1.00  0.00     0.160 A 
HETATM   28  F1  UNL     1      47.290  32.431  37.653  1.00  0.00    -0.203 F 
HETATM   29  C15 UNL     1      48.869  31.433  36.209  1.00  0.00     0.196 A 
HETATM   30  F2  UNL     1      49.304  30.638  37.198  1.00  0.00    -0.199 F 
HETATM   31  C16 UNL     1      49.428  31.362  34.945  1.00  0.00     0.198 A 
HETATM   32  F3  UNL     1      50.426  30.473  34.722  1.00  0.00    -0.199 F 
HETATM   33  C17 UNL     1      48.991  32.166  33.943  1.00  0.00     0.184 A 
HETATM   34  F4  UNL     1      49.554  32.072  32.721  1.00  0.00    -0.200 F 
ENDBRANCH  23  25
ENDBRANCH  21  23
ENDBRANCH  19  21
ENDBRANCH  18  19
ENDBRANCH  17  18
ENDBRANCH  15  17
ENDBRANCH  13  14
ENDBRANCH   1  13
BRANCH   1  35
HETATM   35  C18 UNL     1      45.522  30.647  28.992  1.00  0.00     0.058 A 
HETATM   36  C19 UNL     1      44.647  29.869  29.695  1.00  0.00     0.067 A 
HETATM   37  C20 UNL     1      43.319  29.835  29.333  1.00  0.00     0.070 A 
HETATM   38  C21 UNL     1      42.866  30.583  28.264  1.00  0.00     0.074 A 
HETATM   39  C22 UNL     1      43.746  31.386  27.533  1.00  0.00     0.092 A 
HETATM   40  C23 UNL     1      45.073  31.405  27.912  1.00  0.00     0.093 A 
HETATM   41 CL1  UNL     1      46.154  32.429  26.975  1.00  0.00    -0.079 Cl
BRANCH  37  42
HETATM   42  O1  UNL     1      42.415  29.052  30.034  1.00  0.00    -0.361 OA
ATOM     43  H1  UNL     1      41.804  28.488  29.574  1.00  0.00     0.217 HD
ENDBRANCH  37  42
BRANCH  39  44
HETATM   44  O2  UNL     1      43.304  32.136  26.464  1.00  0.00    -0.359 OA
ATOM     45  H2  UNL     1      43.850  32.811  26.079  1.00  0.00     0.217 HD
ENDBRANCH  39  44
ENDBRANCH   1  35
TORSDOF 17
ENDMDL
