MODEL 1
REMARK VINA RESULT: -7.638551605      0.000      0.000
REMARK  3 active torsions:
REMARK  status: ('A' for Active; 'I' for Inactive)
REMARK       I    between atoms: N1_1  and  C1_4 
REMARK       I    between atoms: C1_4  and  N3_6 
REMARK    1  A    between atoms: N3_6  and  C2_8 
REMARK    2  A    between atoms: C3_13  and  S1_14 
REMARK    3  A    between atoms: S1_14  and  N6_15 
ROOT
HETATM    1  C2  UNL     1      35.594  47.934   8.731  1.00  0.00     0.168 A 
HETATM    2  N4  UNL     1      36.558  48.839   8.511  1.00  0.00    -0.278 N 
ATOM      3  H4  UNL     1      37.299  48.663   7.833  1.00  0.00     0.189 HD
HETATM    4  N5  UNL     1      36.523  49.926   9.174  1.00  0.00    -0.281 N 
ATOM      5  H5  UNL     1      37.243  50.633   9.027  1.00  0.00     0.188 HD
HETATM    6  C3  UNL     1      35.557  50.142  10.051  1.00  0.00     0.208 A 
HETATM    7  S2  UNL     1      34.645  48.705   9.918  1.00  0.00    -0.020 SA
ENDROOT
BRANCH   1   8
HETATM    8  N3  UNL     1      35.455  46.762   8.153  1.00  0.00    -0.310 N 
HETATM    9  C1  UNL     1      34.255  46.017   8.328  1.00  0.00     0.187 C 
HETATM   10  N1  UNL     1      34.362  44.891   8.942  1.00  0.00    -0.373 N 
HETATM   11  N2  UNL     1      32.995  46.463   7.865  1.00  0.00    -0.064 NA
ATOM     12  H12 UNL     1      33.502  44.358   9.068  1.00  0.00     0.158 HD
ATOM     13  H11 UNL     1      35.270  44.570   9.276  1.00  0.00     0.158 HD
ATOM     14  H3  UNL     1      36.209  46.385   7.577  1.00  0.00     0.170 HD
ENDBRANCH   1   8
BRANCH   6  15
HETATM   15  S1  UNL     1      35.301  51.563  11.080  1.00  0.00     0.280 S 
HETATM   16  O1  UNL     1      33.843  51.781  11.284  1.00  0.00    -0.199 OA
HETATM   17  O2  UNL     1      35.928  51.289  12.426  1.00  0.00    -0.199 OA
BRANCH  15  18
HETATM   18  N6  UNL     1      36.113  52.884  10.381  1.00  0.00    -0.323 N 
ATOM     19  H62 UNL     1      35.839  53.862  10.486  1.00  0.00     0.169 HD
ATOM     20  H61 UNL     1      36.907  52.529   9.849  1.00  0.00     0.169 HD
ENDBRANCH  15  18
ENDBRANCH   6  15
TORSDOF 3
ENDMDL
MODEL 2
REMARK VINA RESULT: -7.578930570      1.070      1.318
REMARK  3 active torsions:
REMARK  status: ('A' for Active; 'I' for Inactive)
REMARK       I    between atoms: N1_1  and  C1_4 
REMARK       I    between atoms: C1_4  and  N3_6 
REMARK    1  A    between atoms: N3_6  and  C2_8 
REMARK    2  A    between atoms: C3_13  and  S1_14 
REMARK    3  A    between atoms: S1_14  and  N6_15 
ROOT
HETATM    1  C2  UNL     1      35.650  47.929   8.815  1.00  0.00     0.168 A 
HETATM    2  N4  UNL     1      36.530  48.914   8.582  1.00  0.00    -0.278 N 
ATOM      3  H4  UNL     1      37.268  48.804   7.887  1.00  0.00     0.189 HD
HETATM    4  N5  UNL     1      36.418  49.990   9.253  1.00  0.00    -0.281 N 
ATOM      5  H5  UNL     1      37.073  50.755   9.097  1.00  0.00     0.188 HD
HETATM    6  C3  UNL     1      35.456  50.119  10.151  1.00  0.00     0.208 A 
HETATM    7  S2  UNL     1      34.665  48.612  10.027  1.00  0.00    -0.020 SA
ENDROOT
BRANCH   1   8
HETATM    8  N3  UNL     1      35.598  46.753   8.231  1.00  0.00    -0.310 N 
HETATM    9  C1  UNL     1      34.390  46.000   8.250  1.00  0.00     0.187 C 
HETATM   10  N1  UNL     1      34.422  44.878   8.881  1.00  0.00    -0.373 N 
HETATM   11  N2  UNL     1      33.200  46.433   7.621  1.00  0.00    -0.064 NA
ATOM     12  H12 UNL     1      33.557  44.339   8.894  1.00  0.00     0.158 HD
ATOM     13  H11 UNL     1      35.280  44.566   9.334  1.00  0.00     0.158 HD
ATOM     14  H3  UNL     1      36.424  46.379   7.763  1.00  0.00     0.170 HD
ENDBRANCH   1   8
BRANCH   6  15
HETATM   15  S1  UNL     1      35.104  51.508  11.196  1.00  0.00     0.280 S 
HETATM   16  O1  UNL     1      35.935  51.433  12.429  1.00  0.00    -0.199 OA
HETATM   17  O2  UNL     1      35.482  52.765  10.450  1.00  0.00    -0.199 OA
BRANCH  15  18
HETATM   18  N6  UNL     1      33.429  51.551  11.485  1.00  0.00    -0.323 N 
ATOM     19  H62 UNL     1      32.991  51.875  12.348  1.00  0.00     0.169 HD
ATOM     20  H61 UNL     1      32.949  51.201  10.655  1.00  0.00     0.169 HD
ENDBRANCH  15  18
ENDBRANCH   6  15
TORSDOF 3
ENDMDL
MODEL 3
REMARK VINA RESULT: -7.406859941      1.232      1.265
REMARK  3 active torsions:
REMARK  status: ('A' for Active; 'I' for Inactive)
REMARK       I    between atoms: N1_1  and  C1_4 
REMARK       I    between atoms: C1_4  and  N3_6 
REMARK    1  A    between atoms: N3_6  and  C2_8 
REMARK    2  A    between atoms: C3_13  and  S1_14 
REMARK    3  A    between atoms: S1_14  and  N6_15 
ROOT
HETATM    1  C2  UNL     1      35.227  48.004   9.107  1.00  0.00     0.168 A 
HETATM    2  N4  UNL     1      34.197  48.222   9.937  1.00  0.00    -0.278 N 
ATOM      3  H4  UNL     1      33.444  47.540  10.030  1.00  0.00     0.189 HD
HETATM    4  N5  UNL     1      34.185  49.304  10.607  1.00  0.00    -0.281 N 
ATOM      5  H5  UNL     1      33.414  49.497  11.246  1.00  0.00     0.188 HD
HETATM    6  C3  UNL     1      35.167  50.180  10.477  1.00  0.00     0.208 A 
HETATM    7  S2  UNL     1      36.167  49.408   9.329  1.00  0.00    -0.020 SA
ENDROOT
BRANCH   1   8
HETATM    8  N3  UNL     1      35.421  46.957   8.336  1.00  0.00    -0.310 N 
HETATM    9  C1  UNL     1      34.394  45.984   8.182  1.00  0.00     0.187 C 
HETATM   10  N1  UNL     1      34.652  44.802   8.621  1.00  0.00    -0.373 N 
HETATM   11  N2  UNL     1      33.145  46.268   7.585  1.00  0.00    -0.064 NA
ATOM     12  H12 UNL     1      33.916  44.105   8.511  1.00  0.00     0.158 HD
ATOM     13  H11 UNL     1      35.553  44.597   9.052  1.00  0.00     0.158 HD
ATOM     14  H3  UNL     1      36.310  46.842   7.847  1.00  0.00     0.170 HD
ENDBRANCH   1   8
BRANCH   6  15
HETATM   15  S1  UNL     1      35.367  51.741  11.296  1.00  0.00     0.280 S 
HETATM   16  O1  UNL     1      34.031  52.309  11.626  1.00  0.00    -0.199 OA
HETATM   17  O2  UNL     1      36.110  51.502  12.588  1.00  0.00    -0.199 OA
BRANCH  15  18
HETATM   18  N6  UNL     1      36.328  52.743  10.314  1.00  0.00    -0.323 N 
ATOM     19  H62 UNL     1      36.162  52.926   9.324  1.00  0.00     0.169 HD
ATOM     20  H61 UNL     1      37.086  53.120  10.883  1.00  0.00     0.169 HD
ENDBRANCH  15  18
ENDBRANCH   6  15
TORSDOF 3
ENDMDL
MODEL 4
REMARK VINA RESULT: -7.404092548      1.099      1.338
REMARK  3 active torsions:
REMARK  status: ('A' for Active; 'I' for Inactive)
REMARK       I    between atoms: N1_1  and  C1_4 
REMARK       I    between atoms: C1_4  and  N3_6 
REMARK    1  A    between atoms: N3_6  and  C2_8 
REMARK    2  A    between atoms: C3_13  and  S1_14 
REMARK    3  A    between atoms: S1_14  and  N6_15 
ROOT
HETATM    1  C2  UNL     1      35.688  47.929   8.704  1.00  0.00     0.168 A 
HETATM    2  N4  UNL     1      36.720  48.764   8.509  1.00  0.00    -0.278 N 
ATOM      3  H4  UNL     1      37.527  48.480   7.954  1.00  0.00     0.189 HD
HETATM    4  N5  UNL     1      36.663  49.920   9.038  1.00  0.00    -0.281 N 
ATOM      5  H5  UNL     1      37.433  50.576   8.907  1.00  0.00     0.188 HD
HETATM    6  C3  UNL     1      35.611  50.275   9.756  1.00  0.00     0.208 A 
HETATM    7  S2  UNL     1      34.646  48.870   9.669  1.00  0.00    -0.020 SA
ENDROOT
BRANCH   1   8
HETATM    8  N3  UNL     1      35.558  46.704   8.245  1.00  0.00    -0.310 N 
HETATM    9  C1  UNL     1      34.308  46.032   8.352  1.00  0.00     0.187 C 
HETATM   10  N1  UNL     1      34.283  44.981   9.095  1.00  0.00    -0.373 N 
HETATM   11  N2  UNL     1      33.137  46.469   7.692  1.00  0.00    -0.064 NA
ATOM     12  H12 UNL     1      33.387  44.499   9.172  1.00  0.00     0.158 HD
ATOM     13  H11 UNL     1      35.127  44.665   9.572  1.00  0.00     0.158 HD
ATOM     14  H3  UNL     1      36.354  46.234   7.812  1.00  0.00     0.170 HD
ENDBRANCH   1   8
BRANCH   6  15
HETATM   15  S1  UNL     1      35.309  51.816  10.582  1.00  0.00     0.280 S 
HETATM   16  O1  UNL     1      36.106  52.895   9.937  1.00  0.00    -0.199 OA
HETATM   17  O2  UNL     1      33.846  52.153  10.427  1.00  0.00    -0.199 OA
BRANCH  15  18
HETATM   18  N6  UNL     1      35.629  51.607  12.239  1.00  0.00    -0.323 N 
ATOM     19  H62 UNL     1      36.109  50.804  12.646  1.00  0.00     0.169 HD
ATOM     20  H61 UNL     1      35.262  52.416  12.742  1.00  0.00     0.169 HD
ENDBRANCH  15  18
ENDBRANCH   6  15
TORSDOF 3
ENDMDL
MODEL 5
REMARK VINA RESULT: -7.191244364      1.194      1.409
REMARK  3 active torsions:
REMARK  status: ('A' for Active; 'I' for Inactive)
REMARK       I    between atoms: N1_1  and  C1_4 
REMARK       I    between atoms: C1_4  and  N3_6 
REMARK    1  A    between atoms: N3_6  and  C2_8 
REMARK    2  A    between atoms: C3_13  and  S1_14 
REMARK    3  A    between atoms: S1_14  and  N6_15 
ROOT
HETATM    1  C2  UNL     1      35.067  47.758   8.396  1.00  0.00     0.168 A 
HETATM    2  N4  UNL     1      36.352  48.133   8.470  1.00  0.00    -0.278 N 
ATOM      3  H4  UNL     1      37.090  47.564   8.054  1.00  0.00     0.189 HD
HETATM    4  N5  UNL     1      36.626  49.219   9.074  1.00  0.00    -0.281 N 
ATOM      5  H5  UNL     1      37.595  49.529   9.146  1.00  0.00     0.188 HD
HETATM    6  C3  UNL     1      35.661  49.947   9.609  1.00  0.00     0.208 A 
HETATM    7  S2  UNL     1      34.279  49.022   9.223  1.00  0.00    -0.020 SA
ENDROOT
BRANCH   1   8
HETATM    8  N3  UNL     1      34.584  46.680   7.819  1.00  0.00    -0.310 N 
HETATM    9  C1  UNL     1      34.281  45.529   8.599  1.00  0.00     0.187 C 
HETATM   10  N1  UNL     1      34.970  44.470   8.352  1.00  0.00    -0.373 N 
HETATM   11  N2  UNL     1      33.283  45.515   9.600  1.00  0.00    -0.064 NA
ATOM     12  H12 UNL     1      34.753  43.645   8.911  1.00  0.00     0.158 HD
ATOM     13  H11 UNL     1      35.690  44.480   7.630  1.00  0.00     0.158 HD
ATOM     14  H3  UNL     1      34.425  46.669   6.811  1.00  0.00     0.170 HD
ENDBRANCH   1   8
BRANCH   6  15
HETATM   15  S1  UNL     1      35.796  51.480  10.490  1.00  0.00     0.280 S 
HETATM   16  O1  UNL     1      36.013  51.211  11.938  1.00  0.00    -0.199 OA
HETATM   17  O2  UNL     1      37.003  52.220   9.964  1.00  0.00    -0.199 OA
BRANCH  15  18
HETATM   18  N6  UNL     1      34.417  52.416  10.154  1.00  0.00    -0.323 N 
ATOM     19  H62 UNL     1      33.482  52.043   9.986  1.00  0.00     0.169 HD
ATOM     20  H61 UNL     1      34.688  53.400  10.150  1.00  0.00     0.169 HD
ENDBRANCH  15  18
ENDBRANCH   6  15
TORSDOF 3
ENDMDL
