MODEL 1
REMARK VINA RESULT: -6.630646719      0.000      0.000
REMARK  4 active torsions:
REMARK  status: ('A' for Active; 'I' for Inactive)
REMARK    1  A    between atoms: N1_2  and  C3_4 
REMARK    2  A    between atoms: C3_4  and  C4_5 
REMARK       I    between atoms: C4_5  and  N2_7 
REMARK    3  A    between atoms: N2_7  and  C5_9 
REMARK    4  A    between atoms: C6_12  and  N4_13 
ROOT
HETATM    1  C5  UNL     1      34.498  49.483  10.471  1.00  0.00     0.688 A 
HETATM    2  N3  UNL     1      35.703  49.192   9.946  1.00  0.00    -0.174 N 
ATOM      3  H3  UNL     1      36.522  49.692  10.290  1.00  0.00     0.186 HD
HETATM    4  C6  UNL     1      35.868  48.264   8.980  1.00  0.00     0.146 A 
HETATM    5  C7  UNL     1      34.786  47.572   8.493  1.00  0.00     0.136 A 
HETATM    6  N5  UNL     1      34.642  46.615   7.559  1.00  0.00    -0.277 N 
ATOM      7  H5  UNL     1      35.380  46.196   6.994  1.00  0.00     0.184 HD
HETATM    8  N6  UNL     1      33.352  46.327   7.518  1.00  0.00    -0.020 NA
HETATM    9  N7  UNL     1      32.682  47.062   8.387  1.00  0.00    -0.267 N 
ATOM     10  H7  UNL     1      31.675  47.027   8.547  1.00  0.00     0.186 HD
HETATM   11  C8  UNL     1      33.547  47.860   9.022  1.00  0.00     0.165 A 
HETATM   12  N8  UNL     1      33.434  48.808   9.997  1.00  0.00    -0.173 N 
ATOM     13  H8  UNL     1      32.511  49.013  10.381  1.00  0.00     0.186 HD
ENDROOT
BRANCH   1  14
HETATM   14  N2  UNL     1      34.422  50.370  11.377  1.00  0.00    -0.158 N 
HETATM   15  C4  UNL     1      35.367  51.378  11.638  1.00  0.00     0.264 C 
HETATM   16  O1  UNL     1      36.109  51.198  12.658  1.00  0.00    -0.271 OA
ATOM     17  H2  UNL     1      33.594  50.349  11.973  1.00  0.00     0.187 HD
BRANCH  15  18
HETATM   18  C3  UNL     1      35.557  52.590  10.842  1.00  0.00     0.374 C 
BRANCH  18  19
HETATM   19  N1  UNL     1      36.206  52.285   9.582  1.00  0.00     0.088 N 
HETATM   20  C1  UNL     1      35.425  52.792   8.456  1.00  0.00     0.310 C 
HETATM   21  C2  UNL     1      37.525  52.906   9.503  1.00  0.00     0.310 C 
ENDBRANCH  18  19
ENDBRANCH  15  18
ENDBRANCH   1  14
BRANCH   4  22
HETATM   22  N4  UNL     1      37.031  47.990   8.480  1.00  0.00    -0.383 N 
ATOM     23  H42 UNL     1      37.586  47.269   8.942  1.00  0.00     0.157 HD
ATOM     24  H41 UNL     1      37.393  48.470   7.657  1.00  0.00     0.157 HD
ENDBRANCH   4  22
TORSDOF 4
ENDMDL
MODEL 2
REMARK VINA RESULT: -6.560548989      2.421      5.619
REMARK  4 active torsions:
REMARK  status: ('A' for Active; 'I' for Inactive)
REMARK    1  A    between atoms: N1_2  and  C3_4 
REMARK    2  A    between atoms: C3_4  and  C4_5 
REMARK       I    between atoms: C4_5  and  N2_7 
REMARK    3  A    between atoms: N2_7  and  C5_9 
REMARK    4  A    between atoms: C6_12  and  N4_13 
ROOT
HETATM    1  C5  UNL     1      33.768  50.058   9.137  1.00  0.00     0.688 A 
HETATM    2  N3  UNL     1      33.366  50.765  10.210  1.00  0.00    -0.174 N 
ATOM      3  H3  UNL     1      32.445  50.575  10.606  1.00  0.00     0.186 HD
HETATM    4  C6  UNL     1      34.134  51.715  10.782  1.00  0.00     0.146 A 
HETATM    5  C7  UNL     1      35.379  51.996  10.275  1.00  0.00     0.136 A 
HETATM    6  N5  UNL     1      36.347  52.863  10.621  1.00  0.00    -0.277 N 
ATOM      7  H5  UNL     1      36.325  53.529  11.393  1.00  0.00     0.184 HD
HETATM    8  N6  UNL     1      37.334  52.682   9.759  1.00  0.00    -0.020 NA
HETATM    9  N7  UNL     1      37.026  51.738   8.888  1.00  0.00    -0.267 N 
ATOM     10  H7  UNL     1      37.620  51.414   8.125  1.00  0.00     0.186 HD
HETATM   11  C8  UNL     1      35.803  51.279   9.177  1.00  0.00     0.165 A 
HETATM   12  N8  UNL     1      34.987  50.329   8.636  1.00  0.00    -0.173 N 
ATOM     13  H8  UNL     1      35.312  49.806   7.823  1.00  0.00     0.186 HD
ENDROOT
BRANCH   1  14
HETATM   14  N2  UNL     1      32.988  49.180   8.653  1.00  0.00    -0.158 N 
HETATM   15  C4  UNL     1      33.316  47.843   8.365  1.00  0.00     0.264 C 
HETATM   16  O1  UNL     1      33.488  47.563   7.134  1.00  0.00    -0.271 OA
ATOM     17  H2  UNL     1      32.032  49.473   8.455  1.00  0.00     0.187 HD
BRANCH  15  18
HETATM   18  C3  UNL     1      33.471  46.775   9.352  1.00  0.00     0.374 C 
BRANCH  18  19
HETATM   19  N1  UNL     1      34.820  46.244   9.332  1.00  0.00     0.088 N 
HETATM   20  C1  UNL     1      34.865  44.961   8.634  1.00  0.00     0.310 C 
HETATM   21  C2  UNL     1      35.733  47.145   8.634  1.00  0.00     0.310 C 
ENDBRANCH  18  19
ENDBRANCH  15  18
ENDBRANCH   1  14
BRANCH   4  22
HETATM   22  N4  UNL     1      33.740  52.390  11.814  1.00  0.00    -0.383 N 
ATOM     23  H42 UNL     1      33.508  51.869  12.660  1.00  0.00     0.157 HD
ATOM     24  H41 UNL     1      33.657  53.406  11.798  1.00  0.00     0.157 HD
ENDBRANCH   4  22
TORSDOF 4
ENDMDL
MODEL 3
REMARK VINA RESULT: -6.555405462      1.332      1.357
REMARK  4 active torsions:
REMARK  status: ('A' for Active; 'I' for Inactive)
REMARK    1  A    between atoms: N1_2  and  C3_4 
REMARK    2  A    between atoms: C3_4  and  C4_5 
REMARK       I    between atoms: C4_5  and  N2_7 
REMARK    3  A    between atoms: N2_7  and  C5_9 
REMARK    4  A    between atoms: C6_12  and  N4_13 
ROOT
HETATM    1  C5  UNL     1      34.118  49.128   9.609  1.00  0.00     0.688 A 
HETATM    2  N3  UNL     1      35.360  49.083   9.093  1.00  0.00    -0.174 N 
ATOM      3  H3  UNL     1      35.893  49.949   9.020  1.00  0.00     0.186 HD
HETATM    4  C6  UNL     1      35.927  47.934   8.669  1.00  0.00     0.146 A 
HETATM    5  C7  UNL     1      35.238  46.750   8.753  1.00  0.00     0.136 A 
HETATM    6  N5  UNL     1      35.532  45.480   8.421  1.00  0.00    -0.277 N 
ATOM      7  H5  UNL     1      36.401  45.142   8.009  1.00  0.00     0.184 HD
HETATM    8  N6  UNL     1      34.470  44.758   8.736  1.00  0.00    -0.020 NA
HETATM    9  N7  UNL     1      33.523  45.520   9.251  1.00  0.00    -0.267 N 
ATOM     10  H7  UNL     1      32.608  45.201   9.572  1.00  0.00     0.186 HD
HETATM   11  C8  UNL     1      33.965  46.782   9.280  1.00  0.00     0.165 A 
HETATM   12  N8  UNL     1      33.437  47.970   9.695  1.00  0.00    -0.173 N 
ATOM     13  H8  UNL     1      32.493  47.982  10.082  1.00  0.00     0.186 HD
ENDROOT
BRANCH   1  14
HETATM   14  N2  UNL     1      33.650  50.248   9.987  1.00  0.00    -0.158 N 
HETATM   15  C4  UNL     1      34.099  51.012  11.079  1.00  0.00     0.264 C 
HETATM   16  O1  UNL     1      33.363  50.986  12.119  1.00  0.00    -0.271 OA
ATOM     17  H2  UNL     1      32.874  50.629   9.446  1.00  0.00     0.187 HD
BRANCH  15  18
HETATM   18  C3  UNL     1      35.321  51.815  11.108  1.00  0.00     0.374 C 
BRANCH  18  19
HETATM   19  N1  UNL     1      35.891  51.938   9.780  1.00  0.00     0.088 N 
HETATM   20  C1  UNL     1      35.030  52.742   8.916  1.00  0.00     0.310 C 
HETATM   21  C2  UNL     1      37.192  52.599   9.823  1.00  0.00     0.310 C 
ENDBRANCH  18  19
ENDBRANCH  15  18
ENDBRANCH   1  14
BRANCH   4  22
HETATM   22  N4  UNL     1      37.123  47.900   8.174  1.00  0.00    -0.383 N 
ATOM     23  H42 UNL     1      37.352  48.571   7.441  1.00  0.00     0.157 HD
ATOM     24  H41 UNL     1      37.823  47.230   8.495  1.00  0.00     0.157 HD
ENDBRANCH   4  22
TORSDOF 4
ENDMDL
MODEL 4
REMARK VINA RESULT: -6.219923579      2.089      5.532
REMARK  4 active torsions:
REMARK  status: ('A' for Active; 'I' for Inactive)
REMARK    1  A    between atoms: N1_2  and  C3_4 
REMARK    2  A    between atoms: C3_4  and  C4_5 
REMARK       I    between atoms: C4_5  and  N2_7 
REMARK    3  A    between atoms: N2_7  and  C5_9 
REMARK    4  A    between atoms: C6_12  and  N4_13 
ROOT
HETATM    1  C5  UNL     1      35.902  50.032   9.103  1.00  0.00     0.688 A 
HETATM    2  N3  UNL     1      36.482  51.246   9.117  1.00  0.00    -0.174 N 
ATOM      3  H3  UNL     1      37.189  51.460   8.413  1.00  0.00     0.186 HD
HETATM    4  C6  UNL     1      36.166  52.190  10.028  1.00  0.00     0.146 A 
HETATM    5  C7  UNL     1      35.220  51.935  10.989  1.00  0.00     0.136 A 
HETATM    6  N5  UNL     1      34.708  52.658  12.001  1.00  0.00    -0.277 N 
ATOM      7  H5  UNL     1      34.956  53.613  12.257  1.00  0.00     0.184 HD
HETATM    8  N6  UNL     1      33.818  51.883  12.598  1.00  0.00    -0.020 NA
HETATM    9  N7  UNL     1      33.750  50.706  12.004  1.00  0.00    -0.267 N 
ATOM     10  H7  UNL     1      33.140  49.934  12.276  1.00  0.00     0.186 HD
HETATM   11  C8  UNL     1      34.617  50.696  10.985  1.00  0.00     0.165 A 
HETATM   12  N8  UNL     1      34.973  49.776  10.043  1.00  0.00    -0.173 N 
ATOM     13  H8  UNL     1      34.520  48.861  10.051  1.00  0.00     0.186 HD
ENDROOT
BRANCH   1  14
HETATM   14  N2  UNL     1      36.253  49.194   8.214  1.00  0.00    -0.158 N 
HETATM   15  C4  UNL     1      36.145  47.794   8.301  1.00  0.00     0.264 C 
HETATM   16  O1  UNL     1      37.229  47.164   8.527  1.00  0.00    -0.271 OA
ATOM     17  H2  UNL     1      36.651  49.573   7.355  1.00  0.00     0.187 HD
BRANCH  15  18
HETATM   18  C3  UNL     1      34.909  47.027   8.155  1.00  0.00     0.374 C 
BRANCH  18  19
HETATM   19  N1  UNL     1      34.819  45.991   9.165  1.00  0.00     0.088 N 
HETATM   20  C1  UNL     1      33.622  46.163   9.984  1.00  0.00     0.310 C 
HETATM   21  C2  UNL     1      34.738  44.666   8.558  1.00  0.00     0.310 C 
ENDBRANCH  18  19
ENDBRANCH  15  18
ENDBRANCH   1  14
BRANCH   4  22
HETATM   22  N4  UNL     1      36.730  53.356  10.034  1.00  0.00    -0.383 N 
ATOM     23  H42 UNL     1      37.334  53.594   9.246  1.00  0.00     0.157 HD
ATOM     24  H41 UNL     1      36.586  54.023  10.792  1.00  0.00     0.157 HD
ENDBRANCH   4  22
TORSDOF 4
ENDMDL
MODEL 5
REMARK VINA RESULT: -6.185668078      2.449      5.465
REMARK  4 active torsions:
REMARK  status: ('A' for Active; 'I' for Inactive)
REMARK    1  A    between atoms: N1_2  and  C3_4 
REMARK    2  A    between atoms: C3_4  and  C4_5 
REMARK       I    between atoms: C4_5  and  N2_7 
REMARK    3  A    between atoms: N2_7  and  C5_9 
REMARK    4  A    between atoms: C6_12  and  N4_13 
ROOT
HETATM    1  C5  UNL     1      33.597  49.791   9.257  1.00  0.00     0.688 A 
HETATM    2  N3  UNL     1      34.770  50.287   8.822  1.00  0.00    -0.174 N 
ATOM      3  H3  UNL     1      35.104  50.017   7.897  1.00  0.00     0.186 HD
HETATM    4  C6  UNL     1      35.521  51.128   9.563  1.00  0.00     0.146 A 
HETATM    5  C7  UNL     1      35.101  51.512  10.813  1.00  0.00     0.136 A 
HETATM    6  N5  UNL     1      35.619  52.315  11.759  1.00  0.00    -0.277 N 
ATOM      7  H5  UNL     1      36.498  52.830  11.710  1.00  0.00     0.184 HD
HETATM    8  N6  UNL     1      34.760  52.306  12.765  1.00  0.00    -0.020 NA
HETATM    9  N7  UNL     1      33.727  51.531  12.490  1.00  0.00    -0.267 N 
ATOM     10  H7  UNL     1      32.931  51.358  13.104  1.00  0.00     0.186 HD
HETATM   11  C8  UNL     1      33.901  51.011  11.270  1.00  0.00     0.165 A 
HETATM   12  N8  UNL     1      33.180  50.163  10.481  1.00  0.00    -0.173 N 
ATOM     13  H8  UNL     1      32.294  49.799  10.831  1.00  0.00     0.186 HD
ENDROOT
BRANCH   1  14
HETATM   14  N2  UNL     1      32.946  49.003   8.502  1.00  0.00    -0.158 N 
HETATM   15  C4  UNL     1      33.329  47.704   8.125  1.00  0.00     0.264 C 
HETATM   16  O1  UNL     1      33.775  47.574   6.939  1.00  0.00    -0.271 OA
ATOM     17  H2  UNL     1      32.059  49.347   8.134  1.00  0.00     0.187 HD
BRANCH  15  18
HETATM   18  C3  UNL     1      33.257  46.517   8.977  1.00  0.00     0.374 C 
BRANCH  18  19
HETATM   19  N1  UNL     1      34.582  45.997   9.254  1.00  0.00     0.088 N 
HETATM   20  C1  UNL     1      34.792  44.718   8.578  1.00  0.00     0.310 C 
HETATM   21  C2  UNL     1      35.618  46.909   8.777  1.00  0.00     0.310 C 
ENDBRANCH  18  19
ENDBRANCH  15  18
ENDBRANCH   1  14
BRANCH   4  22
HETATM   22  N4  UNL     1      36.648  51.601   9.137  1.00  0.00    -0.383 N 
ATOM     23  H42 UNL     1      36.631  52.178   8.295  1.00  0.00     0.157 HD
ATOM     24  H41 UNL     1      37.530  51.412   9.613  1.00  0.00     0.157 HD
ENDBRANCH   4  22
TORSDOF 4
ENDMDL
