MODEL 1
REMARK VINA RESULT: -1.613152199      0.000      0.000
REMARK  3 active torsions:
REMARK  status: ('A' for Active; 'I' for Inactive)
REMARK    1  A    between atoms: N1_1  and  C1_5 
REMARK    2  A    between atoms: C1_5  and  C2_6 
REMARK    3  A    between atoms: C2_6  and  N2_7 
ROOT
HETATM    1  N2  UNL     1      35.410  47.404   8.955  1.00  0.00     0.093 N 
HETATM    2  C3  UNL     1      35.823  48.543   8.162  1.00  0.00     0.291 C 
HETATM    3  C4  UNL     1      37.094  49.142   8.719  1.00  0.00     0.144 C 
HETATM    4  N3  UNL     1      37.429  50.402   8.139  1.00  0.00    -0.418 N 
ATOM      5  H3  UNL     1      38.168  50.504   7.443  1.00  0.00     0.153 HD
HETATM    6  C5  UNL     1      36.658  51.510   8.602  1.00  0.00     0.141 C 
HETATM    7  C6  UNL     1      37.073  52.028   9.951  1.00  0.00     0.251 C 
HETATM    8  N4  UNL     1      36.224  53.199  10.222  1.00  0.00    -0.072 N 
ATOM      9  H41 UNL     1      35.615  53.402   9.429  1.00  0.00     0.277 HD
ATOM     10  H42 UNL     1      36.774  54.057  10.231  1.00  0.00     0.277 HD
HETATM   11  C7  UNL     1      35.469  53.063  11.427  1.00  0.00     0.260 C 
HETATM   12  C8  UNL     1      34.108  52.442  11.230  1.00  0.00     0.261 C 
HETATM   13  N5  UNL     1      33.915  51.404  12.197  1.00  0.00    -0.050 N 
ATOM     14  H51 UNL     1      33.417  51.760  13.013  1.00  0.00     0.279 HD
ATOM     15  H52 UNL     1      34.802  51.152  12.635  1.00  0.00     0.279 HD
HETATM   16  C9  UNL     1      33.257  50.232  11.672  1.00  0.00     0.462 C 
HETATM   17  N6  UNL     1      34.141  49.486  10.782  1.00  0.00    -0.050 N 
ATOM     18  H61 UNL     1      35.116  49.595  11.063  1.00  0.00     0.279 HD
ATOM     19  H62 UNL     1      34.182  49.921   9.862  1.00  0.00     0.279 HD
HETATM   20  C10 UNL     1      33.793  48.104  10.678  1.00  0.00     0.264 C 
HETATM   21  C11 UNL     1      33.985  47.526   9.299  1.00  0.00     0.300 C 
ENDROOT
BRANCH   1  22
HETATM   22  C2  UNL     1      35.499  46.188   8.168  1.00  0.00     0.299 C 
BRANCH  22  23
HETATM   23  C1  UNL     1      34.741  45.034   8.761  1.00  0.00     0.259 C 
BRANCH  23  24
HETATM   24  N1  UNL     1      34.833  43.938   7.799  1.00  0.00    -0.078 N 
ATOM     25  H13 UNL     1      33.941  43.476   7.626  1.00  0.00     0.274 HD
ATOM     26  H12 UNL     1      35.000  44.253   6.843  1.00  0.00     0.274 HD
ATOM     27  H11 UNL     1      35.554  43.306   8.147  1.00  0.00     0.274 HD
ENDBRANCH  23  24
ENDBRANCH  22  23
ENDBRANCH   1  22
TORSDOF 3
ENDMDL
MODEL 2
REMARK VINA RESULT: -0.856848519      1.128      3.299
REMARK  3 active torsions:
REMARK  status: ('A' for Active; 'I' for Inactive)
REMARK    1  A    between atoms: N1_1  and  C1_5 
REMARK    2  A    between atoms: C1_5  and  C2_6 
REMARK    3  A    between atoms: C2_6  and  N2_7 
ROOT
HETATM    1  N2  UNL     1      34.534  47.482   9.181  1.00  0.00     0.093 N 
HETATM    2  C3  UNL     1      34.342  48.153  10.450  1.00  0.00     0.291 C 
HETATM    3  C4  UNL     1      33.356  49.289  10.303  1.00  0.00     0.144 C 
HETATM    4  N3  UNL     1      33.297  50.141  11.448  1.00  0.00    -0.418 N 
ATOM      5  H3  UNL     1      32.530  50.100  12.119  1.00  0.00     0.153 HD
HETATM    6  C5  UNL     1      34.386  51.052  11.584  1.00  0.00     0.141 C 
HETATM    7  C6  UNL     1      34.296  52.258  10.690  1.00  0.00     0.251 C 
HETATM    8  N4  UNL     1      35.453  53.105  11.023  1.00  0.00    -0.072 N 
ATOM      9  H41 UNL     1      35.989  52.706  11.794  1.00  0.00     0.277 HD
ATOM     10  H42 UNL     1      35.155  53.976  11.462  1.00  0.00     0.277 HD
HETATM   11  C7  UNL     1      36.290  53.360   9.894  1.00  0.00     0.260 C 
HETATM   12  C8  UNL     1      37.401  52.355   9.715  1.00  0.00     0.261 C 
HETATM   13  N5  UNL     1      37.431  51.916   8.353  1.00  0.00    -0.050 N 
ATOM     14  H51 UNL     1      38.104  52.462   7.815  1.00  0.00     0.279 HD
ATOM     15  H52 UNL     1      36.572  52.182   7.871  1.00  0.00     0.279 HD
HETATM   16  C9  UNL     1      37.683  50.504   8.200  1.00  0.00     0.462 C 
HETATM   17  N6  UNL     1      36.528  49.715   8.616  1.00  0.00    -0.050 N 
ATOM     18  H61 UNL     1      35.661  50.227   8.455  1.00  0.00     0.279 HD
ATOM     19  H62 UNL     1      36.489  49.636   9.632  1.00  0.00     0.279 HD
HETATM   20  C10 UNL     1      36.481  48.426   8.003  1.00  0.00     0.264 C 
HETATM   21  C11 UNL     1      35.971  47.333   8.908  1.00  0.00     0.300 C 
ENDROOT
BRANCH   1  22
HETATM   22  C2  UNL     1      34.026  46.124   9.252  1.00  0.00     0.299 C 
BRANCH  22  23
HETATM   23  C1  UNL     1      35.085  45.078   9.040  1.00  0.00     0.259 C 
BRANCH  23  24
HETATM   24  N1  UNL     1      34.717  44.355   7.826  1.00  0.00    -0.078 N 
ATOM     25  H13 UNL     1      35.116  43.417   7.777  1.00  0.00     0.274 HD
ATOM     26  H12 UNL     1      33.736  44.076   7.803  1.00  0.00     0.274 HD
ATOM     27  H11 UNL     1      34.986  44.949   7.042  1.00  0.00     0.274 HD
ENDBRANCH  23  24
ENDBRANCH  22  23
ENDBRANCH   1  22
TORSDOF 3
ENDMDL
MODEL 3
REMARK VINA RESULT: 1.005992899      1.591      1.597
REMARK  3 active torsions:
REMARK  status: ('A' for Active; 'I' for Inactive)
REMARK    1  A    between atoms: N1_1  and  C1_5 
REMARK    2  A    between atoms: C1_5  and  C2_6 
REMARK    3  A    between atoms: C2_6  and  N2_7 
ROOT
HETATM    1  N2  UNL     1      34.359  47.117   8.352  1.00  0.00     0.093 N 
HETATM    2  C3  UNL     1      35.535  47.764   7.809  1.00  0.00     0.291 C 
HETATM    3  C4  UNL     1      36.549  48.018   8.901  1.00  0.00     0.144 C 
HETATM    4  N3  UNL     1      37.627  48.860   8.491  1.00  0.00    -0.418 N 
ATOM      5  H3  UNL     1      38.554  48.494   8.275  1.00  0.00     0.153 HD
HETATM    6  C5  UNL     1      37.313  50.249   8.405  1.00  0.00     0.141 C 
HETATM    7  C6  UNL     1      37.275  50.955   9.732  1.00  0.00     0.251 C 
HETATM    8  N4  UNL     1      37.013  52.373   9.437  1.00  0.00    -0.072 N 
ATOM      9  H41 UNL     1      36.976  52.537   8.430  1.00  0.00     0.277 HD
ATOM     10  H42 UNL     1      37.821  52.951   9.669  1.00  0.00     0.277 HD
HETATM   11  C7  UNL     1      35.834  52.859  10.079  1.00  0.00     0.260 C 
HETATM   12  C8  UNL     1      34.581  52.721   9.249  1.00  0.00     0.261 C 
HETATM   13  N5  UNL     1      33.545  52.138  10.047  1.00  0.00    -0.050 N 
ATOM     14  H51 UNL     1      32.956  52.863  10.456  1.00  0.00     0.279 HD
ATOM     15  H52 UNL     1      33.933  51.731  10.898  1.00  0.00     0.279 HD
HETATM   16  C9  UNL     1      32.741  51.169   9.341  1.00  0.00     0.462 C 
HETATM   17  N6  UNL     1      33.491  49.941   9.098  1.00  0.00    -0.050 N 
ATOM     18  H61 UNL     1      34.177  49.781   9.835  1.00  0.00     0.279 HD
ATOM     19  H62 UNL     1      34.121  50.051   8.304  1.00  0.00     0.279 HD
HETATM   20  C10 UNL     1      32.651  48.798   8.927  1.00  0.00     0.264 C 
HETATM   21  C11 UNL     1      33.150  47.818   7.895  1.00  0.00     0.300 C 
ENDROOT
BRANCH   1  22
HETATM   22  C2  UNL     1      34.234  45.774   7.815  1.00  0.00     0.299 C 
BRANCH  22  23
HETATM   23  C1  UNL     1      34.877  44.723   8.676  1.00  0.00     0.259 C 
BRANCH  23  24
HETATM   24  N1  UNL     1      35.481  43.753   7.767  1.00  0.00    -0.078 N 
ATOM     25  H13 UNL     1      35.146  43.837   6.807  1.00  0.00     0.274 HD
ATOM     26  H12 UNL     1      36.466  43.938   7.574  1.00  0.00     0.274 HD
ATOM     27  H11 UNL     1      35.315  42.832   8.173  1.00  0.00     0.274 HD
ENDBRANCH  23  24
ENDBRANCH  22  23
ENDBRANCH   1  22
TORSDOF 3
ENDMDL
MODEL 4
REMARK VINA RESULT: 1.039853560      1.947      5.688
REMARK  3 active torsions:
REMARK  status: ('A' for Active; 'I' for Inactive)
REMARK    1  A    between atoms: N1_1  and  C1_5 
REMARK    2  A    between atoms: C1_5  and  C2_6 
REMARK    3  A    between atoms: C2_6  and  N2_7 
ROOT
HETATM    1  N2  UNL     1      34.868  51.363   8.953  1.00  0.00     0.093 N 
HETATM    2  C3  UNL     1      35.902  50.523   9.521  1.00  0.00     0.291 C 
HETATM    3  C4  UNL     1      36.750  49.916   8.426  1.00  0.00     0.144 C 
HETATM    4  N3  UNL     1      37.633  48.896   8.892  1.00  0.00    -0.418 N 
ATOM      5  H3  UNL     1      38.633  49.055   9.020  1.00  0.00     0.153 HD
HETATM    6  C5  UNL     1      37.018  47.639   9.167  1.00  0.00     0.141 C 
HETATM    7  C6  UNL     1      36.724  46.816   7.943  1.00  0.00     0.251 C 
HETATM    8  N4  UNL     1      36.168  45.542   8.426  1.00  0.00    -0.072 N 
ATOM      9  H41 UNL     1      36.167  45.506   9.446  1.00  0.00     0.277 HD
ATOM     10  H42 UNL     1      36.803  44.768   8.234  1.00  0.00     0.277 HD
HETATM   11  C7  UNL     1      34.866  45.278   7.902  1.00  0.00     0.260 C 
HETATM   12  C8  UNL     1      33.741  45.800   8.762  1.00  0.00     0.261 C 
HETATM   13  N5  UNL     1      32.810  46.516   7.944  1.00  0.00    -0.050 N 
ATOM     14  H51 UNL     1      32.044  45.908   7.655  1.00  0.00     0.279 HD
ATOM     15  H52 UNL     1      33.218  46.722   7.031  1.00  0.00     0.279 HD
HETATM   16  C9  UNL     1      32.302  47.720   8.555  1.00  0.00     0.462 C 
HETATM   17  N6  UNL     1      33.327  48.757   8.609  1.00  0.00    -0.050 N 
ATOM     18  H61 UNL     1      33.977  48.667   7.828  1.00  0.00     0.279 HD
ATOM     19  H62 UNL     1      33.971  48.592   9.382  1.00  0.00     0.279 HD
HETATM   20  C10 UNL     1      32.785  50.078   8.670  1.00  0.00     0.264 C 
HETATM   21  C11 UNL     1      33.567  51.022   9.547  1.00  0.00     0.300 C 
ENDROOT
BRANCH   1  22
HETATM   22  C2  UNL     1      35.092  52.750   9.321  1.00  0.00     0.299 C 
BRANCH  22  23
HETATM   23  C1  UNL     1      36.066  52.918  10.454  1.00  0.00     0.259 C 
BRANCH  23  24
HETATM   24  N1  UNL     1      35.296  52.773  11.687  1.00  0.00    -0.078 N 
ATOM     25  H13 UNL     1      35.877  52.751  12.525  1.00  0.00     0.274 HD
ATOM     26  H12 UNL     1      34.757  53.605  11.927  1.00  0.00     0.274 HD
ATOM     27  H11 UNL     1      34.721  51.939  11.573  1.00  0.00     0.274 HD
ENDBRANCH  23  24
ENDBRANCH  22  23
ENDBRANCH   1  22
TORSDOF 3
ENDMDL
MODEL 5
REMARK VINA RESULT: 1.262433001      1.581      3.352
REMARK  3 active torsions:
REMARK  status: ('A' for Active; 'I' for Inactive)
REMARK    1  A    between atoms: N1_1  and  C1_5 
REMARK    2  A    between atoms: C1_5  and  C2_6 
REMARK    3  A    between atoms: C2_6  and  N2_7 
ROOT
HETATM    1  N2  UNL     1      34.379  47.451   8.018  1.00  0.00     0.093 N 
HETATM    2  C3  UNL     1      33.718  48.142   9.105  1.00  0.00     0.291 C 
HETATM    3  C4  UNL     1      32.977  49.354   8.589  1.00  0.00     0.144 C 
HETATM    4  N3  UNL     1      32.502  50.214   9.625  1.00  0.00    -0.418 N 
ATOM      5  H3  UNL     1      31.522  50.240   9.907  1.00  0.00     0.153 HD
HETATM    6  C5  UNL     1      33.496  51.034  10.237  1.00  0.00     0.141 C 
HETATM    7  C6  UNL     1      33.887  52.238   9.426  1.00  0.00     0.251 C 
HETATM    8  N4  UNL     1      34.854  52.990  10.242  1.00  0.00    -0.072 N 
ATOM      9  H41 UNL     1      34.979  52.553  11.156  1.00  0.00     0.277 HD
ATOM     10  H42 UNL     1      34.465  53.885  10.539  1.00  0.00     0.277 HD
HETATM   11  C7  UNL     1      36.107  53.169   9.582  1.00  0.00     0.260 C 
HETATM   12  C8  UNL     1      37.110  52.077   9.862  1.00  0.00     0.261 C 
HETATM   13  N5  UNL     1      37.682  51.630   8.628  1.00  0.00    -0.050 N 
ATOM     14  H51 UNL     1      38.559  52.115   8.442  1.00  0.00     0.279 HD
ATOM     15  H52 UNL     1      37.131  51.962   7.836  1.00  0.00     0.279 HD
HETATM   16  C9  UNL     1      37.867  50.200   8.554  1.00  0.00     0.462 C 
HETATM   17  N6  UNL     1      36.588  49.510   8.418  1.00  0.00    -0.050 N 
ATOM     18  H61 UNL     1      35.913  50.090   7.920  1.00  0.00     0.279 HD
ATOM     19  H62 UNL     1      36.115  49.441   9.319  1.00  0.00     0.279 HD
HETATM   20  C10 UNL     1      36.708  48.226   7.805  1.00  0.00     0.264 C 
HETATM   21  C11 UNL     1      35.780  47.184   8.375  1.00  0.00     0.300 C 
ENDROOT
BRANCH   1  22
HETATM   22  C2  UNL     1      33.787  46.139   7.827  1.00  0.00     0.299 C 
BRANCH  22  23
HETATM   23  C1  UNL     1      34.550  45.035   8.504  1.00  0.00     0.259 C 
BRANCH  23  24
HETATM   24  N1  UNL     1      34.219  45.113   9.925  1.00  0.00    -0.078 N 
ATOM     25  H13 UNL     1      34.966  45.514  10.492  1.00  0.00     0.274 HD
ATOM     26  H12 UNL     1      33.509  45.814  10.136  1.00  0.00     0.274 HD
ATOM     27  H11 UNL     1      33.956  44.171  10.214  1.00  0.00     0.274 HD
ENDBRANCH  23  24
ENDBRANCH  22  23
ENDBRANCH   1  22
TORSDOF 3
ENDMDL
