MODEL 1
REMARK VINA RESULT: -7.871739314      0.000      0.000
REMARK  6 active torsions:
REMARK  status: ('A' for Active; 'I' for Inactive)
REMARK    1  A    between atoms: N1_2  and  N2_4 
REMARK    2  A    between atoms: N2_4  and  C2_6 
REMARK    3  A    between atoms: C5_15  and  N6_16 
REMARK    4  A    between atoms: N6_16  and  C6_18 
REMARK    5  A    between atoms: C6_18  and  N7_19 
REMARK    6  A    between atoms: C6_18  and  C7_23 
ROOT
HETATM    1  C2  UNL     1      34.607  51.426   9.772  1.00  0.00     0.152 A 
HETATM    2  N3  UNL     1      35.294  52.599   9.532  1.00  0.00    -0.336 N 
ATOM      3  H3  UNL     1      34.886  53.498   9.786  1.00  0.00     0.168 HD
HETATM    4  C3  UNL     1      36.488  52.539   8.968  1.00  0.00     0.183 A 
HETATM    5  N4  UNL     1      37.071  51.389   8.613  1.00  0.00    -0.336 N 
ATOM      6  H4  UNL     1      37.995  51.394   8.180  1.00  0.00     0.168 HD
HETATM    7  C4  UNL     1      36.436  50.229   8.829  1.00  0.00     0.153 A 
HETATM    8  N5  UNL     1      36.773  48.948   8.581  1.00  0.00    -0.174 N 
ATOM      9  H5  UNL     1      37.644  48.638   8.149  1.00  0.00     0.186 HD
HETATM   10  C5  UNL     1      35.790  48.157   8.987  1.00  0.00     0.682 A 
HETATM   11  N9  UNL     1      34.825  48.955   9.496  1.00  0.00    -0.184 N 
ATOM     12  H9  UNL     1      33.941  48.632   9.887  1.00  0.00     0.184 HD
HETATM   13  C8  UNL     1      35.208  50.232   9.407  1.00  0.00     0.139 A 
ENDROOT
BRANCH  10  14
HETATM   14  N6  UNL     1      35.721  46.902   8.931  1.00  0.00    -0.188 N 
ATOM     15  H6  UNL     1      36.593  46.402   9.103  1.00  0.00     0.180 HD
BRANCH  14  16
HETATM   16  C6  UNL     1      34.590  46.094   8.659  1.00  0.00     0.385 C 
BRANCH  16  17
HETATM   17  N7  UNL     1      34.978  44.753   8.189  1.00  0.00    -0.049 N 
ATOM     18  H73 UNL     1      35.080  44.730   7.174  1.00  0.00     0.277 HD
ATOM     19  H72 UNL     1      35.939  44.531   8.450  1.00  0.00     0.277 HD
ATOM     20  H71 UNL     1      34.329  44.036   8.514  1.00  0.00     0.277 HD
ENDBRANCH  16  17
BRANCH  16  21
HETATM   21  C7  UNL     1      33.608  46.660   7.750  1.00  0.00     0.281 C 
HETATM   22  N8  UNL     1      32.400  47.193   8.249  1.00  0.00    -0.059 NA
HETATM   23  O1  UNL     1      33.824  46.680   6.522  1.00  0.00    -0.273 OA
ENDBRANCH  16  21
ENDBRANCH  14  16
ENDBRANCH  10  14
BRANCH   1  24
HETATM   24  N2  UNL     1      33.472  51.525  10.313  1.00  0.00    -0.285 N 
ATOM     25  H2  UNL     1      32.669  51.336   9.713  1.00  0.00     0.188 HD
BRANCH  24  26
HETATM   26  N1  UNL     1      33.197  51.854  11.596  1.00  0.00    -0.320 N 
HETATM   27  C1  UNL     1      33.940  51.539  12.602  1.00  0.00     0.139 C 
ATOM     28  H1  UNL     1      32.347  52.386  11.780  1.00  0.00     0.185 HD
ENDBRANCH  24  26
ENDBRANCH   1  24
TORSDOF 6
ENDMDL
MODEL 2
REMARK VINA RESULT: -7.361241375      1.076      1.076
REMARK  6 active torsions:
REMARK  status: ('A' for Active; 'I' for Inactive)
REMARK    1  A    between atoms: N1_2  and  N2_4 
REMARK    2  A    between atoms: N2_4  and  C2_6 
REMARK    3  A    between atoms: C5_15  and  N6_16 
REMARK    4  A    between atoms: N6_16  and  C6_18 
REMARK    5  A    between atoms: C6_18  and  N7_19 
REMARK    6  A    between atoms: C6_18  and  C7_23 
ROOT
HETATM    1  C2  UNL     1      34.615  51.247   9.824  1.00  0.00     0.152 A 
HETATM    2  N3  UNL     1      35.312  52.438   9.837  1.00  0.00    -0.336 N 
ATOM      3  H3  UNL     1      34.884  53.283  10.216  1.00  0.00     0.168 HD
HETATM    4  C3  UNL     1      36.542  52.467   9.353  1.00  0.00     0.183 A 
HETATM    5  N4  UNL     1      37.152  51.391   8.845  1.00  0.00    -0.336 N 
ATOM      6  H4  UNL     1      38.104  51.465   8.483  1.00  0.00     0.168 HD
HETATM    7  C4  UNL     1      36.509  50.217   8.813  1.00  0.00     0.153 A 
HETATM    8  N5  UNL     1      36.867  48.996   8.370  1.00  0.00    -0.174 N 
ATOM      9  H5  UNL     1      37.767  48.758   7.951  1.00  0.00     0.186 HD
HETATM   10  C5  UNL     1      35.862  48.154   8.565  1.00  0.00     0.682 A 
HETATM   11  N9  UNL     1      34.861  48.859   9.138  1.00  0.00    -0.184 N 
ATOM     12  H9  UNL     1      33.953  48.480   9.407  1.00  0.00     0.184 HD
HETATM   13  C8  UNL     1      35.244  50.130   9.298  1.00  0.00     0.139 A 
ENDROOT
BRANCH  10  14
HETATM   14  N6  UNL     1      35.802  46.928   8.288  1.00  0.00    -0.188 N 
ATOM     15  H6  UNL     1      36.395  46.618   7.519  1.00  0.00     0.180 HD
BRANCH  14  16
HETATM   16  C6  UNL     1      35.017  45.923   8.905  1.00  0.00     0.385 C 
BRANCH  16  17
HETATM   17  N7  UNL     1      34.935  44.709   8.075  1.00  0.00    -0.049 N 
ATOM     18  H73 UNL     1      34.543  44.913   7.155  1.00  0.00     0.277 HD
ATOM     19  H72 UNL     1      35.861  44.393   7.787  1.00  0.00     0.277 HD
ATOM     20  H71 UNL     1      34.416  43.966   8.543  1.00  0.00     0.277 HD
ENDBRANCH  16  17
BRANCH  16  21
HETATM   21  C7  UNL     1      33.681  46.322   9.312  1.00  0.00     0.281 C 
HETATM   22  N8  UNL     1      32.739  46.745   8.349  1.00  0.00    -0.059 NA
HETATM   23  O1  UNL     1      33.354  46.296  10.516  1.00  0.00    -0.273 OA
ENDBRANCH  16  21
ENDBRANCH  14  16
ENDBRANCH  10  14
BRANCH   1  24
HETATM   24  N2  UNL     1      33.446  51.260  10.295  1.00  0.00    -0.285 N 
ATOM     25  H2  UNL     1      32.701  50.967   9.662  1.00  0.00     0.188 HD
BRANCH  24  26
HETATM   26  N1  UNL     1      33.065  51.617  11.543  1.00  0.00    -0.320 N 
HETATM   27  C1  UNL     1      33.824  51.546  12.583  1.00  0.00     0.139 C 
ATOM     28  H1  UNL     1      32.115  51.965  11.670  1.00  0.00     0.185 HD
ENDBRANCH  24  26
ENDBRANCH   1  24
TORSDOF 6
ENDMDL
MODEL 3
REMARK VINA RESULT: -6.795503295      1.109      1.120
REMARK  6 active torsions:
REMARK  status: ('A' for Active; 'I' for Inactive)
REMARK    1  A    between atoms: N1_2  and  N2_4 
REMARK    2  A    between atoms: N2_4  and  C2_6 
REMARK    3  A    between atoms: C5_15  and  N6_16 
REMARK    4  A    between atoms: N6_16  and  C6_18 
REMARK    5  A    between atoms: C6_18  and  N7_19 
REMARK    6  A    between atoms: C6_18  and  C7_23 
ROOT
HETATM    1  C2  UNL     1      34.578  51.657   9.883  1.00  0.00     0.152 A 
HETATM    2  N3  UNL     1      35.240  52.863   9.791  1.00  0.00    -0.336 N 
ATOM      3  H3  UNL     1      34.794  53.724  10.110  1.00  0.00     0.168 HD
HETATM    4  C3  UNL     1      36.461  52.889   9.285  1.00  0.00     0.183 A 
HETATM    5  N4  UNL     1      37.095  51.793   8.852  1.00  0.00    -0.336 N 
ATOM      6  H4  UNL     1      38.038  51.864   8.469  1.00  0.00     0.168 HD
HETATM    7  C4  UNL     1      36.485  50.603   8.924  1.00  0.00     0.153 A 
HETATM    8  N5  UNL     1      36.871  49.361   8.571  1.00  0.00    -0.174 N 
ATOM      9  H5  UNL     1      37.771  49.115   8.157  1.00  0.00     0.186 HD
HETATM   10  C5  UNL     1      35.894  48.509   8.849  1.00  0.00     0.682 A 
HETATM   11  N9  UNL     1      34.882  49.230   9.383  1.00  0.00    -0.184 N 
ATOM     12  H9  UNL     1      33.990  48.849   9.697  1.00  0.00     0.184 HD
HETATM   13  C8  UNL     1      35.230  50.519   9.436  1.00  0.00     0.139 A 
ENDROOT
BRANCH  10  14
HETATM   14  N6  UNL     1      35.864  47.265   8.670  1.00  0.00    -0.188 N 
ATOM     15  H6  UNL     1      36.719  46.762   8.910  1.00  0.00     0.180 HD
BRANCH  14  16
HETATM   16  C6  UNL     1      34.800  46.470   8.179  1.00  0.00     0.385 C 
BRANCH  16  17
HETATM   17  N7  UNL     1      34.468  46.806   6.784  1.00  0.00    -0.049 N 
ATOM     18  H73 UNL     1      33.634  46.309   6.470  1.00  0.00     0.277 HD
ATOM     19  H72 UNL     1      34.123  47.762   6.703  1.00  0.00     0.277 HD
ATOM     20  H71 UNL     1      35.257  46.640   6.158  1.00  0.00     0.277 HD
ENDBRANCH  16  17
BRANCH  16  21
HETATM   21  C7  UNL     1      33.587  46.470   8.979  1.00  0.00     0.281 C 
HETATM   22  N8  UNL     1      33.641  46.166  10.356  1.00  0.00    -0.059 NA
HETATM   23  O1  UNL     1      32.486  46.738   8.456  1.00  0.00    -0.273 OA
ENDBRANCH  16  21
ENDBRANCH  14  16
ENDBRANCH  10  14
BRANCH   1  24
HETATM   24  N2  UNL     1      33.416  51.675  10.372  1.00  0.00    -0.285 N 
ATOM     25  H2  UNL     1      32.645  51.665   9.705  1.00  0.00     0.188 HD
BRANCH  24  26
HETATM   26  N1  UNL     1      33.074  51.705  11.681  1.00  0.00    -0.320 N 
HETATM   27  C1  UNL     1      33.913  51.602  12.655  1.00  0.00     0.139 C 
ATOM     28  H1  UNL     1      32.087  51.816  11.913  1.00  0.00     0.185 HD
ENDBRANCH  24  26
ENDBRANCH   1  24
TORSDOF 6
ENDMDL
MODEL 4
REMARK VINA RESULT: -6.095899365      1.587      3.065
REMARK  6 active torsions:
REMARK  status: ('A' for Active; 'I' for Inactive)
REMARK    1  A    between atoms: N1_2  and  N2_4 
REMARK    2  A    between atoms: N2_4  and  C2_6 
REMARK    3  A    between atoms: C5_15  and  N6_16 
REMARK    4  A    between atoms: N6_16  and  C6_18 
REMARK    5  A    between atoms: C6_18  and  N7_19 
REMARK    6  A    between atoms: C6_18  and  C7_23 
ROOT
HETATM    1  C2  UNL     1      35.494  52.177  10.612  1.00  0.00     0.152 A 
HETATM    2  N3  UNL     1      34.730  52.669  11.650  1.00  0.00    -0.336 N 
ATOM      3  H3  UNL     1      34.833  53.637  11.955  1.00  0.00     0.168 HD
HETATM    4  C3  UNL     1      33.861  51.868  12.242  1.00  0.00     0.183 A 
HETATM    5  N4  UNL     1      33.683  50.591  11.885  1.00  0.00    -0.336 N 
ATOM      6  H4  UNL     1      33.000  50.012  12.374  1.00  0.00     0.168 HD
HETATM    7  C4  UNL     1      34.408  50.077  10.883  1.00  0.00     0.153 A 
HETATM    8  N5  UNL     1      34.441  48.852  10.321  1.00  0.00    -0.174 N 
ATOM      9  H5  UNL     1      33.866  48.056  10.600  1.00  0.00     0.186 HD
HETATM   10  C5  UNL     1      35.341  48.848   9.347  1.00  0.00     0.682 A 
HETATM   11  N9  UNL     1      35.878  50.087   9.301  1.00  0.00    -0.184 N 
ATOM     12  H9  UNL     1      36.602  50.391   8.650  1.00  0.00     0.184 HD
HETATM   13  C8  UNL     1      35.314  50.855  10.238  1.00  0.00     0.139 A 
ENDROOT
BRANCH  10  14
HETATM   14  N6  UNL     1      35.668  47.901   8.587  1.00  0.00    -0.188 N 
ATOM     15  H6  UNL     1      36.659  47.842   8.353  1.00  0.00     0.180 HD
BRANCH  14  16
HETATM   16  C6  UNL     1      34.840  46.906   8.014  1.00  0.00     0.385 C 
BRANCH  16  17
HETATM   17  N7  UNL     1      33.549  47.460   7.570  1.00  0.00    -0.049 N 
ATOM     18  H73 UNL     1      32.931  47.642   8.361  1.00  0.00     0.277 HD
ATOM     19  H72 UNL     1      33.653  48.414   7.226  1.00  0.00     0.277 HD
ATOM     20  H71 UNL     1      33.099  46.861   6.877  1.00  0.00     0.277 HD
ENDBRANCH  16  17
BRANCH  16  21
HETATM   21  C7  UNL     1      34.606  45.727   8.830  1.00  0.00     0.281 C 
HETATM   22  N8  UNL     1      33.885  45.830  10.040  1.00  0.00    -0.059 NA
HETATM   23  O1  UNL     1      35.040  44.615   8.471  1.00  0.00    -0.273 OA
ENDBRANCH  16  21
ENDBRANCH  14  16
ENDBRANCH  10  14
BRANCH   1  24
HETATM   24  N2  UNL     1      36.311  52.973  10.072  1.00  0.00    -0.285 N 
ATOM     25  H2  UNL     1      35.906  53.740   9.535  1.00  0.00     0.188 HD
BRANCH  24  26
HETATM   26  N1  UNL     1      37.662  52.925  10.123  1.00  0.00    -0.320 N 
HETATM   27  C1  UNL     1      38.434  53.075   9.101  1.00  0.00     0.139 C 
ATOM     28  H1  UNL     1      38.099  52.761  11.030  1.00  0.00     0.185 HD
ENDBRANCH  24  26
ENDBRANCH   1  24
TORSDOF 6
ENDMDL
MODEL 5
REMARK VINA RESULT: -5.926391934      1.445      1.501
REMARK  6 active torsions:
REMARK  status: ('A' for Active; 'I' for Inactive)
REMARK    1  A    between atoms: N1_2  and  N2_4 
REMARK    2  A    between atoms: N2_4  and  C2_6 
REMARK    3  A    between atoms: C5_15  and  N6_16 
REMARK    4  A    between atoms: N6_16  and  C6_18 
REMARK    5  A    between atoms: C6_18  and  N7_19 
REMARK    6  A    between atoms: C6_18  and  C7_23 
ROOT
HETATM    1  C2  UNL     1      35.828  51.978  10.760  1.00  0.00     0.152 A 
HETATM    2  N3  UNL     1      36.526  52.902  10.010  1.00  0.00    -0.336 N 
ATOM      3  H3  UNL     1      36.628  53.863  10.337  1.00  0.00     0.168 HD
HETATM    4  C3  UNL     1      37.062  52.524   8.863  1.00  0.00     0.183 A 
HETATM    5  N4  UNL     1      36.961  51.278   8.385  1.00  0.00    -0.336 N 
ATOM      6  H4  UNL     1      37.393  51.034   7.493  1.00  0.00     0.168 HD
HETATM    7  C4  UNL     1      36.290  50.353   9.083  1.00  0.00     0.153 A 
HETATM    8  N5  UNL     1      36.031  49.051   8.853  1.00  0.00    -0.174 N 
ATOM      9  H5  UNL     1      36.336  48.522   8.035  1.00  0.00     0.186 HD
HETATM   10  C5  UNL     1      35.318  48.567   9.861  1.00  0.00     0.682 A 
HETATM   11  N9  UNL     1      35.128  49.582  10.732  1.00  0.00    -0.184 N 
ATOM     12  H9  UNL     1      34.611  49.515  11.610  1.00  0.00     0.184 HD
HETATM   13  C8  UNL     1      35.720  50.687  10.269  1.00  0.00     0.139 A 
ENDROOT
BRANCH  10  14
HETATM   14  N6  UNL     1      34.879  47.399  10.020  1.00  0.00    -0.188 N 
ATOM     15  H6  UNL     1      35.325  46.855  10.759  1.00  0.00     0.180 HD
BRANCH  14  16
HETATM   16  C6  UNL     1      33.847  46.741   9.307  1.00  0.00     0.385 C 
BRANCH  16  17
HETATM   17  N7  UNL     1      33.218  45.681  10.114  1.00  0.00    -0.049 N 
ATOM     18  H73 UNL     1      32.253  45.518   9.825  1.00  0.00     0.277 HD
ATOM     19  H72 UNL     1      33.608  44.765   9.893  1.00  0.00     0.277 HD
ATOM     20  H71 UNL     1      33.278  45.881  11.112  1.00  0.00     0.277 HD
ENDBRANCH  16  17
BRANCH  16  21
HETATM   21  C7  UNL     1      34.216  46.206   8.008  1.00  0.00     0.281 C 
HETATM   22  N8  UNL     1      34.061  46.991   6.844  1.00  0.00    -0.059 NA
HETATM   23  O1  UNL     1      34.671  45.049   7.908  1.00  0.00    -0.273 OA
ENDBRANCH  16  21
ENDBRANCH  14  16
ENDBRANCH  10  14
BRANCH   1  24
HETATM   24  N2  UNL     1      35.332  52.378  11.849  1.00  0.00    -0.285 N 
ATOM     25  H2  UNL     1      35.995  52.688  12.560  1.00  0.00     0.188 HD
BRANCH  24  26
HETATM   26  N1  UNL     1      34.022  52.444  12.182  1.00  0.00    -0.320 N 
HETATM   27  C1  UNL     1      33.257  51.416  12.327  1.00  0.00     0.139 C 
ATOM     28  H1  UNL     1      33.614  53.366  12.329  1.00  0.00     0.185 HD
ENDBRANCH  24  26
ENDBRANCH   1  24
TORSDOF 6
ENDMDL
