MODEL 1
REMARK VINA RESULT: -8.262259999      0.000      0.000
REMARK  5 active torsions:
REMARK  status: ('A' for Active; 'I' for Inactive)
REMARK    1  A    between atoms: C3_5  and  N2_6 
REMARK    2  A    between atoms: C4_9  and  C5_10 
REMARK       I    between atoms: C5_10  and  N3_12 
REMARK    3  A    between atoms: N3_12  and  N4_14 
REMARK    4  A    between atoms: C6_19  and  S1_20 
REMARK    5  A    between atoms: S1_20  and  N6_21 
ROOT
HETATM    1  C1  UNL     1      36.719  51.977   9.325  1.00  0.00     0.071 C 
HETATM    2  C2  UNL     1      36.174  50.595   9.339  1.00  0.00     0.047 A 
HETATM    3  N1  UNL     1      36.779  49.654   8.592  1.00  0.00    -0.342 N 
ATOM      4  H1  UNL     1      37.595  49.902   8.032  1.00  0.00     0.167 HD
HETATM    5  C3  UNL     1      36.320  48.391   8.574  1.00  0.00     0.132 A 
HETATM    6  C4  UNL     1      35.213  48.015   9.320  1.00  0.00     0.147 A 
HETATM    7  N5  UNL     1      34.623  48.979  10.062  1.00  0.00    -0.336 N 
ATOM      8  H5  UNL     1      33.806  48.742  10.625  1.00  0.00     0.167 HD
HETATM    9  C6  UNL     1      35.085  50.242  10.078  1.00  0.00     0.172 A 
ENDROOT
BRANCH   6  10
HETATM   10  C5  UNL     1      34.717  46.651   9.302  1.00  0.00     0.289 C 
HETATM   11  O1  UNL     1      33.986  46.269  10.235  1.00  0.00    -0.264 OA
HETATM   12  N3  UNL     1      35.080  45.808   8.227  1.00  0.00    -0.271 N 
ATOM     13  H3  UNL     1      35.680  46.150   7.477  1.00  0.00     0.189 HD
BRANCH  12  14
HETATM   14  N4  UNL     1      34.599  44.493   8.215  1.00  0.00    -0.342 N 
ATOM     15  H42 UNL     1      33.751  44.269   7.694  1.00  0.00     0.176 HD
ATOM     16  H41 UNL     1      35.112  43.780   8.734  1.00  0.00     0.176 HD
ENDBRANCH  12  14
ENDBRANCH   6  10
BRANCH   5  17
HETATM   17  N2  UNL     1      36.906  47.502   7.858  1.00  0.00    -0.383 N 
ATOM     18  H22 UNL     1      37.592  47.808   7.168  1.00  0.00     0.157 HD
ATOM     19  H21 UNL     1      36.684  46.514   7.983  1.00  0.00     0.157 HD
ENDBRANCH   5  17
BRANCH   9  20
HETATM   20  S1  UNL     1      34.270  51.428  11.060  1.00  0.00     0.274 S 
HETATM   21  O2  UNL     1      33.262  50.718  11.921  1.00  0.00    -0.199 OA
HETATM   22  O3  UNL     1      33.583  52.475  10.226  1.00  0.00    -0.199 OA
BRANCH  20  23
HETATM   23  N6  UNL     1      35.420  52.174  12.136  1.00  0.00    -0.323 N 
ATOM     24  H62 UNL     1      36.254  52.678  11.832  1.00  0.00     0.169 HD
ATOM     25  H61 UNL     1      35.126  52.024  13.101  1.00  0.00     0.169 HD
ENDBRANCH  20  23
ENDBRANCH   9  20
TORSDOF 5
ENDMDL
MODEL 2
REMARK VINA RESULT: -8.009510203      0.940      1.121
REMARK  5 active torsions:
REMARK  status: ('A' for Active; 'I' for Inactive)
REMARK    1  A    between atoms: C3_5  and  N2_6 
REMARK    2  A    between atoms: C4_9  and  C5_10 
REMARK       I    between atoms: C5_10  and  N3_12 
REMARK    3  A    between atoms: N3_12  and  N4_14 
REMARK    4  A    between atoms: C6_19  and  S1_20 
REMARK    5  A    between atoms: S1_20  and  N6_21 
ROOT
HETATM    1  C1  UNL     1      36.671  51.891   9.404  1.00  0.00     0.071 C 
HETATM    2  C2  UNL     1      36.138  50.504   9.396  1.00  0.00     0.047 A 
HETATM    3  N1  UNL     1      36.734  49.589   8.610  1.00  0.00    -0.342 N 
ATOM      4  H1  UNL     1      37.534  49.859   8.038  1.00  0.00     0.167 HD
HETATM    5  C3  UNL     1      36.286  48.322   8.570  1.00  0.00     0.132 A 
HETATM    6  C4  UNL     1      35.201  47.915   9.333  1.00  0.00     0.147 A 
HETATM    7  N5  UNL     1      34.621  48.855  10.114  1.00  0.00    -0.336 N 
ATOM      8  H5  UNL     1      33.820  48.596  10.690  1.00  0.00     0.167 HD
HETATM    9  C6  UNL     1      35.071  50.121  10.152  1.00  0.00     0.172 A 
ENDROOT
BRANCH   6  10
HETATM   10  C5  UNL     1      34.717  46.548   9.291  1.00  0.00     0.289 C 
HETATM   11  O1  UNL     1      33.986  46.144  10.215  1.00  0.00    -0.264 OA
HETATM   12  N3  UNL     1      35.091  45.726   8.205  1.00  0.00    -0.271 N 
ATOM     13  H3  UNL     1      35.691  46.085   7.462  1.00  0.00     0.189 HD
BRANCH  12  14
HETATM   14  N4  UNL     1      34.621  44.407   8.170  1.00  0.00    -0.342 N 
ATOM     15  H42 UNL     1      33.619  44.225   8.219  1.00  0.00     0.176 HD
ATOM     16  H41 UNL     1      35.300  43.649   8.095  1.00  0.00     0.176 HD
ENDBRANCH  12  14
ENDBRANCH   6  10
BRANCH   5  17
HETATM   17  N2  UNL     1      36.862  47.458   7.818  1.00  0.00    -0.383 N 
ATOM     18  H22 UNL     1      37.088  46.544   8.211  1.00  0.00     0.157 HD
ATOM     19  H21 UNL     1      37.085  47.688   6.849  1.00  0.00     0.157 HD
ENDBRANCH   5  17
BRANCH   9  20
HETATM   20  S1  UNL     1      34.269  51.273  11.183  1.00  0.00     0.274 S 
HETATM   21  O2  UNL     1      35.307  51.938  12.046  1.00  0.00    -0.199 OA
HETATM   22  O3  UNL     1      33.223  50.624  12.049  1.00  0.00    -0.199 OA
BRANCH  20  23
HETATM   23  N6  UNL     1      33.550  52.522  10.203  1.00  0.00    -0.323 N 
ATOM     24  H62 UNL     1      32.572  52.538   9.913  1.00  0.00     0.169 HD
ATOM     25  H61 UNL     1      34.257  53.220   9.972  1.00  0.00     0.169 HD
ENDBRANCH  20  23
ENDBRANCH   9  20
TORSDOF 5
ENDMDL
MODEL 3
REMARK VINA RESULT: -7.805647951      0.926      1.095
REMARK  5 active torsions:
REMARK  status: ('A' for Active; 'I' for Inactive)
REMARK    1  A    between atoms: C3_5  and  N2_6 
REMARK    2  A    between atoms: C4_9  and  C5_10 
REMARK       I    between atoms: C5_10  and  N3_12 
REMARK    3  A    between atoms: N3_12  and  N4_14 
REMARK    4  A    between atoms: C6_19  and  S1_20 
REMARK    5  A    between atoms: S1_20  and  N6_21 
ROOT
HETATM    1  C1  UNL     1      36.785  52.017   9.278  1.00  0.00     0.071 C 
HETATM    2  C2  UNL     1      36.225  50.642   9.301  1.00  0.00     0.047 A 
HETATM    3  N1  UNL     1      36.825  49.688   8.566  1.00  0.00    -0.342 N 
ATOM      4  H1  UNL     1      37.647  49.923   8.010  1.00  0.00     0.167 HD
HETATM    5  C3  UNL     1      36.353  48.429   8.556  1.00  0.00     0.132 A 
HETATM    6  C4  UNL     1      35.238  48.071   9.299  1.00  0.00     0.147 A 
HETATM    7  N5  UNL     1      34.654  49.048  10.029  1.00  0.00    -0.336 N 
ATOM      8  H5  UNL     1      33.831  48.824  10.588  1.00  0.00     0.167 HD
HETATM    9  C6  UNL     1      35.128  50.306  10.037  1.00  0.00     0.172 A 
ENDROOT
BRANCH   6  10
HETATM   10  C5  UNL     1      34.727  46.713   9.289  1.00  0.00     0.289 C 
HETATM   11  O1  UNL     1      33.976  46.350  10.214  1.00  0.00    -0.264 OA
HETATM   12  N3  UNL     1      35.100  45.852   8.232  1.00  0.00    -0.271 N 
ATOM     13  H3  UNL     1      35.717  46.179   7.487  1.00  0.00     0.189 HD
BRANCH  12  14
HETATM   14  N4  UNL     1      34.605  44.542   8.227  1.00  0.00    -0.342 N 
ATOM     15  H42 UNL     1      33.685  44.347   8.622  1.00  0.00     0.176 HD
ATOM     16  H41 UNL     1      35.183  43.803   7.826  1.00  0.00     0.176 HD
ENDBRANCH  12  14
ENDBRANCH   6  10
BRANCH   5  17
HETATM   17  N2  UNL     1      36.934  47.529   7.851  1.00  0.00    -0.383 N 
ATOM     18  H22 UNL     1      37.727  47.032   8.256  1.00  0.00     0.157 HD
ATOM     19  H21 UNL     1      36.602  47.321   6.909  1.00  0.00     0.157 HD
ENDBRANCH   5  17
BRANCH   9  20
HETATM   20  S1  UNL     1      34.319  51.509  11.003  1.00  0.00     0.274 S 
HETATM   21  O2  UNL     1      33.555  52.419  10.083  1.00  0.00    -0.199 OA
HETATM   22  O3  UNL     1      35.287  52.311  11.830  1.00  0.00    -0.199 OA
BRANCH  20  23
HETATM   23  N6  UNL     1      33.149  50.729  12.033  1.00  0.00    -0.323 N 
ATOM     24  H62 UNL     1      33.000  49.721  12.080  1.00  0.00     0.169 HD
ATOM     25  H61 UNL     1      32.648  51.437  12.570  1.00  0.00     0.169 HD
ENDBRANCH  20  23
ENDBRANCH   9  20
TORSDOF 5
ENDMDL
MODEL 4
REMARK VINA RESULT: -6.957304752      1.883      5.128
REMARK  5 active torsions:
REMARK  status: ('A' for Active; 'I' for Inactive)
REMARK    1  A    between atoms: C3_5  and  N2_6 
REMARK    2  A    between atoms: C4_9  and  C5_10 
REMARK       I    between atoms: C5_10  and  N3_12 
REMARK    3  A    between atoms: N3_12  and  N4_14 
REMARK    4  A    between atoms: C6_19  and  S1_20 
REMARK    5  A    between atoms: S1_20  and  N6_21 
ROOT
HETATM    1  C1  UNL     1      36.794  47.129   7.926  1.00  0.00     0.071 C 
HETATM    2  C2  UNL     1      36.059  48.247   8.570  1.00  0.00     0.047 A 
HETATM    3  N1  UNL     1      36.666  49.444   8.673  1.00  0.00    -0.342 N 
ATOM      4  H1  UNL     1      37.613  49.562   8.311  1.00  0.00     0.167 HD
HETATM    5  C3  UNL     1      36.040  50.485   9.249  1.00  0.00     0.132 A 
HETATM    6  C4  UNL     1      34.754  50.363   9.754  1.00  0.00     0.147 A 
HETATM    7  N5  UNL     1      34.167  49.151   9.638  1.00  0.00    -0.336 N 
ATOM      8  H5  UNL     1      33.221  49.021   9.997  1.00  0.00     0.167 HD
HETATM    9  C6  UNL     1      34.795  48.112   9.062  1.00  0.00     0.172 A 
ENDROOT
BRANCH   6  10
HETATM   10  C5  UNL     1      34.077  51.486  10.376  1.00  0.00     0.289 C 
HETATM   11  O1  UNL     1      34.011  52.563   9.755  1.00  0.00    -0.264 OA
HETATM   12  N3  UNL     1      33.516  51.316  11.662  1.00  0.00    -0.271 N 
ATOM     13  H3  UNL     1      33.586  50.420  12.146  1.00  0.00     0.189 HD
BRANCH  12  14
HETATM   14  N4  UNL     1      32.864  52.402  12.258  1.00  0.00    -0.342 N 
ATOM     15  H42 UNL     1      33.403  53.219  12.548  1.00  0.00     0.176 HD
ATOM     16  H41 UNL     1      31.854  52.353  12.391  1.00  0.00     0.176 HD
ENDBRANCH  12  14
ENDBRANCH   6  10
BRANCH   5  17
HETATM   17  N2  UNL     1      36.629  51.620   9.341  1.00  0.00    -0.383 N 
ATOM     18  H22 UNL     1      36.066  52.467   9.265  1.00  0.00     0.157 HD
ATOM     19  H21 UNL     1      37.638  51.665   9.488  1.00  0.00     0.157 HD
ENDBRANCH   5  17
BRANCH   9  20
HETATM   20  S1  UNL     1      33.972  46.581   8.949  1.00  0.00     0.274 S 
HETATM   21  O2  UNL     1      32.730  46.771   8.122  1.00  0.00    -0.199 OA
HETATM   22  O3  UNL     1      33.606  46.036  10.304  1.00  0.00    -0.199 OA
BRANCH  20  23
HETATM   23  N6  UNL     1      34.981  45.445   8.096  1.00  0.00    -0.323 N 
ATOM     24  H62 UNL     1      35.870  45.679   7.654  1.00  0.00     0.169 HD
ATOM     25  H61 UNL     1      34.541  44.525   8.111  1.00  0.00     0.169 HD
ENDBRANCH  20  23
ENDBRANCH   9  20
TORSDOF 5
ENDMDL
MODEL 5
REMARK VINA RESULT: -6.795584505      2.023      5.103
REMARK  5 active torsions:
REMARK  status: ('A' for Active; 'I' for Inactive)
REMARK    1  A    between atoms: C3_5  and  N2_6 
REMARK    2  A    between atoms: C4_9  and  C5_10 
REMARK       I    between atoms: C5_10  and  N3_12 
REMARK    3  A    between atoms: N3_12  and  N4_14 
REMARK    4  A    between atoms: C6_19  and  S1_20 
REMARK    5  A    between atoms: S1_20  and  N6_21 
ROOT
HETATM    1  C1  UNL     1      36.911  47.150   7.941  1.00  0.00     0.071 C 
HETATM    2  C2  UNL     1      36.157  48.250   8.595  1.00  0.00     0.047 A 
HETATM    3  N1  UNL     1      36.713  49.474   8.643  1.00  0.00    -0.342 N 
ATOM      4  H1  UNL     1      37.634  49.627   8.232  1.00  0.00     0.167 HD
HETATM    5  C3  UNL     1      36.068  50.500   9.225  1.00  0.00     0.132 A 
HETATM    6  C4  UNL     1      34.814  50.333   9.794  1.00  0.00     0.147 A 
HETATM    7  N5  UNL     1      34.278  49.093   9.733  1.00  0.00    -0.336 N 
ATOM      8  H5  UNL     1      33.357  48.930  10.141  1.00  0.00     0.167 HD
HETATM    9  C6  UNL     1      34.926  48.070   9.150  1.00  0.00     0.172 A 
ENDROOT
BRANCH   6  10
HETATM   10  C5  UNL     1      34.115  51.439  10.423  1.00  0.00     0.289 C 
HETATM   11  O1  UNL     1      33.917  52.475   9.761  1.00  0.00    -0.264 OA
HETATM   12  N3  UNL     1      33.686  51.300  11.762  1.00  0.00    -0.271 N 
ATOM     13  H3  UNL     1      33.863  50.438  12.279  1.00  0.00     0.189 HD
BRANCH  12  14
HETATM   14  N4  UNL     1      33.013  52.370  12.365  1.00  0.00    -0.342 N 
ATOM     15  H42 UNL     1      32.592  53.095  11.784  1.00  0.00     0.176 HD
ATOM     16  H41 UNL     1      32.958  52.401  13.383  1.00  0.00     0.176 HD
ENDBRANCH  12  14
ENDBRANCH   6  10
BRANCH   5  17
HETATM   17  N2  UNL     1      36.607  51.663   9.263  1.00  0.00    -0.383 N 
ATOM     18  H22 UNL     1      36.622  52.162  10.152  1.00  0.00     0.157 HD
ATOM     19  H21 UNL     1      37.008  52.071   8.419  1.00  0.00     0.157 HD
ENDBRANCH   5  17
BRANCH   9  20
HETATM   20  S1  UNL     1      34.169  46.501   9.112  1.00  0.00     0.274 S 
HETATM   21  O2  UNL     1      33.867  46.087  10.525  1.00  0.00    -0.199 OA
HETATM   22  O3  UNL     1      35.043  45.469   8.452  1.00  0.00    -0.199 OA
BRANCH  20  23
HETATM   23  N6  UNL     1      32.642  46.618   8.280  1.00  0.00    -0.323 N 
ATOM     24  H62 UNL     1      31.779  46.172   8.590  1.00  0.00     0.169 HD
ATOM     25  H61 UNL     1      32.755  47.196   7.447  1.00  0.00     0.169 HD
ENDBRANCH  20  23
ENDBRANCH   9  20
TORSDOF 5
ENDMDL
