MODEL 1
REMARK VINA RESULT: -7.098132233      0.000      0.000
REMARK  2 active torsions:
REMARK  status: ('A' for Active; 'I' for Inactive)
REMARK    1  A    between atoms: C1_2  and  C2_4 
REMARK       I    between atoms: N3_8  and  C4_10 
REMARK    2  A    between atoms: C4_10  and  C5_12 
ROOT
HETATM    1  C2  UNL     1      34.777  47.887   8.805  1.00  0.00     0.155 A 
HETATM    2  N2  UNL     1      34.726  49.207   9.054  1.00  0.00    -0.183 N 
ATOM      3  H2  UNL     1      33.886  49.731   9.297  1.00  0.00     0.184 HD
HETATM    4  C3  UNL     1      35.977  49.732   8.930  1.00  0.00     0.687 A 
HETATM    5  N3  UNL     1      36.347  50.961   9.087  1.00  0.00    -0.153 N 
ATOM      6  H3  UNL     1      37.325  51.222   8.963  1.00  0.00     0.187 HD
HETATM    7  C4  UNL     1      35.392  51.938   9.432  1.00  0.00     0.305 C 
HETATM    8  O2  UNL     1      34.931  52.734   8.578  1.00  0.00    -0.263 OA
HETATM    9  N8  UNL     1      36.788  48.705   8.600  1.00  0.00    -0.176 N 
ATOM     10  H8  UNL     1      37.792  48.780   8.437  1.00  0.00     0.185 HD
HETATM   11  C6  UNL     1      36.067  47.556   8.518  1.00  0.00     0.164 A 
HETATM   12  N9  UNL     1      36.630  46.284   8.188  1.00  0.00    -0.080 NA
ENDROOT
BRANCH   1  13
HETATM   13  C1  UNL     1      33.644  46.992   8.840  1.00  0.00     0.285 C 
HETATM   14  N1  UNL     1      33.495  45.985   9.824  1.00  0.00    -0.056 NA
HETATM   15  O1  UNL     1      32.707  47.062   7.975  1.00  0.00    -0.269 OA
ENDBRANCH   1  13
BRANCH   7  16
HETATM   16  C5  UNL     1      34.900  52.062  10.799  1.00  0.00     0.201 A 
HETATM   17  N4  UNL     1      35.616  52.294  11.918  1.00  0.00    -0.266 N 
HETATM   18  N5  UNL     1      34.797  52.337  12.957  1.00  0.00    -0.007 NA
ATOM     19  H4  UNL     1      36.628  52.416  11.957  1.00  0.00     0.185 HD
HETATM   20  N6  UNL     1      33.548  52.138  12.536  1.00  0.00    -0.007 NA
HETATM   21  N7  UNL     1      33.614  51.971  11.227  1.00  0.00    -0.266 N 
ATOM     22  H7  UNL     1      32.812  51.798  10.623  1.00  0.00     0.185 HD
ENDBRANCH   7  16
TORSDOF 2
ENDMDL
MODEL 2
REMARK VINA RESULT: -6.648653874      0.790      1.167
REMARK  2 active torsions:
REMARK  status: ('A' for Active; 'I' for Inactive)
REMARK    1  A    between atoms: C1_2  and  C2_4 
REMARK       I    between atoms: N3_8  and  C4_10 
REMARK    2  A    between atoms: C4_10  and  C5_12 
ROOT
HETATM    1  C2  UNL     1      34.852  47.925   8.708  1.00  0.00     0.155 A 
HETATM    2  N2  UNL     1      34.781  49.240   8.974  1.00  0.00    -0.183 N 
ATOM      3  H2  UNL     1      33.926  49.756   9.182  1.00  0.00     0.184 HD
HETATM    4  C3  UNL     1      36.034  49.773   8.923  1.00  0.00     0.687 A 
HETATM    5  N3  UNL     1      36.388  51.002   9.118  1.00  0.00    -0.153 N 
ATOM      6  H3  UNL     1      37.370  51.269   9.049  1.00  0.00     0.187 HD
HETATM    7  C4  UNL     1      35.411  51.968   9.428  1.00  0.00     0.305 C 
HETATM    8  O2  UNL     1      34.990  52.776   8.564  1.00  0.00    -0.263 OA
HETATM    9  N8  UNL     1      36.866  48.756   8.620  1.00  0.00    -0.176 N 
ATOM     10  H8  UNL     1      37.877  48.839   8.510  1.00  0.00     0.185 HD
HETATM   11  C6  UNL     1      36.157  47.604   8.484  1.00  0.00     0.164 A 
HETATM   12  N9  UNL     1      36.745  46.341   8.164  1.00  0.00    -0.080 NA
ENDROOT
BRANCH   1  13
HETATM   13  C1  UNL     1      33.725  47.024   8.671  1.00  0.00     0.285 C 
HETATM   14  N1  UNL     1      32.553  47.293   7.924  1.00  0.00    -0.056 NA
HETATM   15  O1  UNL     1      33.725  45.923   9.320  1.00  0.00    -0.269 OA
ENDBRANCH   1  13
BRANCH   7  16
HETATM   16  C5  UNL     1      34.848  52.069  10.770  1.00  0.00     0.201 A 
HETATM   17  N4  UNL     1      33.588  51.789  11.161  1.00  0.00    -0.266 N 
HETATM   18  N5  UNL     1      33.479  52.010  12.462  1.00  0.00    -0.007 NA
ATOM     19  H4  UNL     1      32.839  51.461  10.552  1.00  0.00     0.185 HD
HETATM   20  N6  UNL     1      34.653  52.430  12.934  1.00  0.00    -0.007 NA
HETATM   21  N7  UNL     1      35.480  52.465  11.905  1.00  0.00    -0.266 N 
ATOM     22  H7  UNL     1      36.458  52.750  11.956  1.00  0.00     0.185 HD
ENDBRANCH   7  16
TORSDOF 2
ENDMDL
MODEL 3
REMARK VINA RESULT: -5.538114611      2.081      5.474
REMARK  2 active torsions:
REMARK  status: ('A' for Active; 'I' for Inactive)
REMARK    1  A    between atoms: C1_2  and  C2_4 
REMARK       I    between atoms: N3_8  and  C4_10 
REMARK    2  A    between atoms: C4_10  and  C5_12 
ROOT
HETATM    1  C2  UNL     1      35.629  51.177  10.695  1.00  0.00     0.155 A 
HETATM    2  N2  UNL     1      35.766  49.974  10.112  1.00  0.00    -0.183 N 
ATOM      3  H2  UNL     1      35.468  49.085  10.513  1.00  0.00     0.184 HD
HETATM    4  C3  UNL     1      36.365  50.133   8.899  1.00  0.00     0.687 A 
HETATM    5  N3  UNL     1      36.672  49.222   8.034  1.00  0.00    -0.153 N 
ATOM      6  H3  UNL     1      37.123  49.480   7.156  1.00  0.00     0.187 HD
HETATM    7  C4  UNL     1      36.381  47.872   8.310  1.00  0.00     0.305 C 
HETATM    8  O2  UNL     1      37.273  47.073   8.689  1.00  0.00    -0.263 OA
HETATM    9  N8  UNL     1      36.590  51.456   8.758  1.00  0.00    -0.176 N 
ATOM     10  H8  UNL     1      37.029  51.892   7.948  1.00  0.00     0.185 HD
HETATM   11  C6  UNL     1      36.142  52.120   9.856  1.00  0.00     0.164 A 
HETATM   12  N9  UNL     1      36.230  53.537  10.021  1.00  0.00    -0.080 NA
ENDROOT
BRANCH   1  13
HETATM   13  C1  UNL     1      35.037  51.407  11.992  1.00  0.00     0.285 C 
HETATM   14  N1  UNL     1      33.637  51.444  12.198  1.00  0.00    -0.056 NA
HETATM   15  O1  UNL     1      35.753  51.593  13.033  1.00  0.00    -0.269 OA
ENDBRANCH   1  13
BRANCH   7  16
HETATM   16  C5  UNL     1      35.028  47.347   8.166  1.00  0.00     0.201 A 
HETATM   17  N4  UNL     1      34.658  46.107   7.788  1.00  0.00    -0.266 N 
HETATM   18  N5  UNL     1      33.336  46.031   7.783  1.00  0.00    -0.007 NA
ATOM     19  H4  UNL     1      35.295  45.348   7.545  1.00  0.00     0.185 HD
HETATM   20  N6  UNL     1      32.830  47.207   8.154  1.00  0.00    -0.007 NA
HETATM   21  N7  UNL     1      33.859  48.002   8.386  1.00  0.00    -0.266 N 
ATOM     22  H7  UNL     1      33.785  48.974   8.687  1.00  0.00     0.185 HD
ENDBRANCH   7  16
TORSDOF 2
ENDMDL
MODEL 4
REMARK VINA RESULT: -5.530328311      1.117      1.145
REMARK  2 active torsions:
REMARK  status: ('A' for Active; 'I' for Inactive)
REMARK    1  A    between atoms: C1_2  and  C2_4 
REMARK       I    between atoms: N3_8  and  C4_10 
REMARK    2  A    between atoms: C4_10  and  C5_12 
ROOT
HETATM    1  C2  UNL     1      34.710  47.442   8.867  1.00  0.00     0.155 A 
HETATM    2  N2  UNL     1      34.879  48.764   9.045  1.00  0.00    -0.183 N 
ATOM      3  H2  UNL     1      34.144  49.426   9.293  1.00  0.00     0.184 HD
HETATM    4  C3  UNL     1      36.188  49.077   8.840  1.00  0.00     0.687 A 
HETATM    5  N3  UNL     1      36.753  50.238   8.915  1.00  0.00    -0.153 N 
ATOM      6  H3  UNL     1      37.753  50.334   8.736  1.00  0.00     0.187 HD
HETATM    7  C4  UNL     1      35.981  51.369   9.244  1.00  0.00     0.305 C 
HETATM    8  O2  UNL     1      35.609  52.187   8.367  1.00  0.00    -0.263 OA
HETATM    9  N8  UNL     1      36.812  47.920   8.535  1.00  0.00    -0.176 N 
ATOM     10  H8  UNL     1      37.806  47.827   8.327  1.00  0.00     0.185 HD
HETATM   11  C6  UNL     1      35.916  46.897   8.546  1.00  0.00     0.164 A 
HETATM   12  N9  UNL     1      36.258  45.538   8.264  1.00  0.00    -0.080 NA
ENDROOT
BRANCH   1  13
HETATM   13  C1  UNL     1      33.455  46.741   8.998  1.00  0.00     0.285 C 
HETATM   14  N1  UNL     1      32.384  46.909   8.088  1.00  0.00    -0.056 NA
HETATM   15  O1  UNL     1      33.241  45.923   9.956  1.00  0.00    -0.269 OA
ENDBRANCH   1  13
BRANCH   7  16
HETATM   16  C5  UNL     1      35.583  51.636  10.621  1.00  0.00     0.201 A 
HETATM   17  N4  UNL     1      35.962  50.975  11.734  1.00  0.00    -0.266 N 
HETATM   18  N5  UNL     1      35.378  51.527  12.786  1.00  0.00    -0.007 NA
ATOM     19  H4  UNL     1      36.597  50.177  11.761  1.00  0.00     0.185 HD
HETATM   20  N6  UNL     1      34.620  52.545  12.381  1.00  0.00    -0.007 NA
HETATM   21  N7  UNL     1      34.746  52.608  11.068  1.00  0.00    -0.266 N 
ATOM     22  H7  UNL     1      34.279  53.292  10.472  1.00  0.00     0.185 HD
ENDBRANCH   7  16
TORSDOF 2
ENDMDL
MODEL 5
REMARK VINA RESULT: -4.706082744      2.128      3.131
REMARK  2 active torsions:
REMARK  status: ('A' for Active; 'I' for Inactive)
REMARK    1  A    between atoms: C1_2  and  C2_4 
REMARK       I    between atoms: N3_8  and  C4_10 
REMARK    2  A    between atoms: C4_10  and  C5_12 
ROOT
HETATM    1  C2  UNL     1      34.071  47.914   9.238  1.00  0.00     0.155 A 
HETATM    2  N2  UNL     1      34.415  49.114   9.734  1.00  0.00    -0.183 N 
ATOM      3  H2  UNL     1      35.199  49.292  10.362  1.00  0.00     0.184 HD
HETATM    4  C3  UNL     1      33.549  50.055   9.264  1.00  0.00     0.687 A 
HETATM    5  N3  UNL     1      33.540  51.325   9.509  1.00  0.00    -0.153 N 
ATOM      6  H3  UNL     1      32.828  51.923   9.088  1.00  0.00     0.187 HD
HETATM    7  C4  UNL     1      34.517  51.879  10.359  1.00  0.00     0.305 C 
HETATM    8  O2  UNL     1      34.257  52.179  11.550  1.00  0.00    -0.263 OA
HETATM    9  N8  UNL     1      32.673  49.402   8.473  1.00  0.00    -0.176 N 
ATOM     10  H8  UNL     1      31.898  49.838   7.973  1.00  0.00     0.185 HD
HETATM   11  C6  UNL     1      32.978  48.078   8.442  1.00  0.00     0.164 A 
HETATM   12  N9  UNL     1      32.240  47.109   7.692  1.00  0.00    -0.080 NA
ENDROOT
BRANCH   1  13
HETATM   13  C1  UNL     1      34.758  46.674   9.514  1.00  0.00     0.285 C 
HETATM   14  N1  UNL     1      35.769  46.155   8.671  1.00  0.00    -0.056 NA
HETATM   15  O1  UNL     1      34.484  45.971  10.545  1.00  0.00    -0.269 OA
ENDBRANCH   1  13
BRANCH   7  16
HETATM   16  C5  UNL     1      35.874  52.127   9.886  1.00  0.00     0.201 A 
HETATM   17  N4  UNL     1      36.765  53.020  10.362  1.00  0.00    -0.266 N 
HETATM   18  N5  UNL     1      37.884  52.934   9.660  1.00  0.00    -0.007 NA
ATOM     19  H4  UNL     1      36.602  53.662  11.139  1.00  0.00     0.185 HD
HETATM   20  N6  UNL     1      37.742  51.992   8.728  1.00  0.00    -0.007 NA
HETATM   21  N7  UNL     1      36.523  51.505   8.868  1.00  0.00    -0.266 N 
ATOM     22  H7  UNL     1      36.123  50.765   8.291  1.00  0.00     0.185 HD
ENDBRANCH   7  16
TORSDOF 2
ENDMDL
