MODEL 1
REMARK VINA RESULT: -6.014140949      0.000      0.000
REMARK  7 active torsions:
REMARK  status: ('A' for Active; 'I' for Inactive)
REMARK    1  A    between atoms: C2_2  and  C3_3 
REMARK    2  A    between atoms: C3_3  and  N1_4 
REMARK    3  A    between atoms: N1_4  and  C4_7 
REMARK    4  A    between atoms: C8_11  and  C9_12 
REMARK    5  A    between atoms: C8_11  and  C13_18 
REMARK    6  A    between atoms: C9_12  and  C10_13 
REMARK    7  A    between atoms: C10_13  and  O1_16 
ROOT
HETATM    1  C4  UNL     1      50.757  25.250  15.279  1.00  0.00     0.186 C 
HETATM    2  C5  UNL     1      51.899  26.172  15.418  1.00  0.00     0.033 C 
HETATM    3  C6  UNL     1      51.516  27.512  14.763  1.00  0.00     0.003 C 
HETATM    4  C7  UNL     1      50.333  27.987  15.522  1.00  0.00     0.012 C 
HETATM    5  C8  UNL     1      49.093  27.226  15.089  1.00  0.00    -0.007 C 
HETATM    6  C15 UNL     1      49.387  25.741  15.395  1.00  0.00     0.045 C 
ENDROOT
BRANCH   5   7
HETATM    7  C9  UNL     1      48.779  27.346  13.675  1.00  0.00     0.049 C 
BRANCH   7   8
HETATM    8  C10 UNL     1      47.945  28.308  13.014  1.00  0.00     0.051 C 
HETATM    9  C11 UNL     1      48.974  29.214  12.236  1.00  0.00     0.045 C 
HETATM   10  C12 UNL     1      46.939  27.999  11.985  1.00  0.00     0.045 C 
BRANCH   8  11
HETATM   11  O1  UNL     1      47.344  29.273  13.846  1.00  0.00    -0.391 OA
ATOM     12  H1  UNL     1      46.400  29.351  13.774  1.00  0.00     0.210 HD
ENDBRANCH   8  11
ENDBRANCH   7   8
ENDBRANCH   5   7
BRANCH   5  13
HETATM   13  C13 UNL     1      47.956  27.538  16.002  1.00  0.00     0.154 A 
HETATM   14  C14 UNL     1      47.555  26.580  17.069  1.00  0.00     0.201 A 
HETATM   15  O2  UNL     1      46.732  26.951  16.029  1.00  0.00    -0.380 OA
ENDBRANCH   5  13
BRANCH   1  16
HETATM   16  N1  UNL     1      50.932  24.340  14.161  1.00  0.00    -0.071 N 
ATOM     17  H12 UNL     1      50.915  24.842  13.274  1.00  0.00     0.277 HD
ATOM     18  H11 UNL     1      50.108  23.753  14.034  1.00  0.00     0.277 HD
BRANCH  16  19
HETATM   19  C3  UNL     1      52.122  23.541  14.281  1.00  0.00     0.232 C 
BRANCH  19  20
HETATM   20  C2  UNL     1      51.704  22.107  14.565  1.00  0.00     0.023 C 
HETATM   21  C1  UNL     1      51.987  21.231  13.377  1.00  0.00     0.007 C 
ENDBRANCH  19  20
ENDBRANCH  16  19
ENDBRANCH   1  16
TORSDOF 7
ENDMDL
MODEL 2
REMARK VINA RESULT: -5.938947592      2.472      5.456
REMARK  7 active torsions:
REMARK  status: ('A' for Active; 'I' for Inactive)
REMARK    1  A    between atoms: C2_2  and  C3_3 
REMARK    2  A    between atoms: C3_3  and  N1_4 
REMARK    3  A    between atoms: N1_4  and  C4_7 
REMARK    4  A    between atoms: C8_11  and  C9_12 
REMARK    5  A    between atoms: C8_11  and  C13_18 
REMARK    6  A    between atoms: C9_12  and  C10_13 
REMARK    7  A    between atoms: C10_13  and  O1_16 
ROOT
HETATM    1  C4  UNL     1      47.979  28.236  14.419  1.00  0.00     0.186 C 
HETATM    2  C5  UNL     1      47.027  28.095  15.535  1.00  0.00     0.033 C 
HETATM    3  C6  UNL     1      47.301  26.749  16.232  1.00  0.00     0.003 C 
HETATM    4  C7  UNL     1      48.701  26.842  16.714  1.00  0.00     0.012 C 
HETATM    5  C8  UNL     1      49.666  26.636  15.561  1.00  0.00    -0.007 C 
HETATM    6  C15 UNL     1      49.354  27.760  14.549  1.00  0.00     0.045 C 
ENDROOT
BRANCH   5   7
HETATM    7  C9  UNL     1      49.525  25.359  14.881  1.00  0.00     0.049 C 
BRANCH   7   8
HETATM    8  C10 UNL     1      50.277  24.151  15.065  1.00  0.00     0.051 C 
HETATM    9  C11 UNL     1      49.268  23.020  14.633  1.00  0.00     0.045 C 
HETATM   10  C12 UNL     1      51.504  23.792  14.334  1.00  0.00     0.045 C 
BRANCH   8  11
HETATM   11  O1  UNL     1      50.516  23.774  16.402  1.00  0.00    -0.391 OA
ATOM     12  H1  UNL     1      49.748  23.712  16.957  1.00  0.00     0.210 HD
ENDBRANCH   8  11
ENDBRANCH   7   8
ENDBRANCH   5   7
BRANCH   5  13
HETATM   13  C13 UNL     1      51.057  26.953  15.995  1.00  0.00     0.154 A 
HETATM   14  C14 UNL     1      51.783  28.120  15.423  1.00  0.00     0.201 A 
HETATM   15  O2  UNL     1      52.201  26.816  15.276  1.00  0.00    -0.380 OA
ENDBRANCH   5  13
BRANCH   1  16
HETATM   16  N1  UNL     1      47.379  27.869  13.149  1.00  0.00    -0.071 N 
ATOM     17  H12 UNL     1      46.484  28.340  13.017  1.00  0.00     0.277 HD
ATOM     18  H11 UNL     1      47.056  26.902  13.162  1.00  0.00     0.277 HD
BRANCH  16  19
HETATM   19  C3  UNL     1      48.257  28.105  12.034  1.00  0.00     0.232 C 
BRANCH  19  20
HETATM   20  C2  UNL     1      47.421  28.619  10.873  1.00  0.00     0.023 C 
HETATM   21  C1  UNL     1      48.298  28.951   9.698  1.00  0.00     0.007 C 
ENDBRANCH  19  20
ENDBRANCH  16  19
ENDBRANCH   1  16
TORSDOF 7
ENDMDL
MODEL 3
REMARK VINA RESULT: -5.535102598      2.561      5.618
REMARK  7 active torsions:
REMARK  status: ('A' for Active; 'I' for Inactive)
REMARK    1  A    between atoms: C2_2  and  C3_3 
REMARK    2  A    between atoms: C3_3  and  N1_4 
REMARK    3  A    between atoms: N1_4  and  C4_7 
REMARK    4  A    between atoms: C8_11  and  C9_12 
REMARK    5  A    between atoms: C8_11  and  C13_18 
REMARK    6  A    between atoms: C9_12  and  C10_13 
REMARK    7  A    between atoms: C10_13  and  O1_16 
ROOT
HETATM    1  C4  UNL     1      48.855  27.724  14.294  1.00  0.00     0.186 C 
HETATM    2  C5  UNL     1      48.082  27.687  15.549  1.00  0.00     0.033 C 
HETATM    3  C6  UNL     1      48.279  26.302  16.193  1.00  0.00     0.003 C 
HETATM    4  C7  UNL     1      49.738  26.197  16.444  1.00  0.00     0.012 C 
HETATM    5  C8  UNL     1      50.470  25.889  15.152  1.00  0.00    -0.007 C 
HETATM    6  C15 UNL     1      50.156  27.066  14.202  1.00  0.00     0.045 C 
ENDROOT
BRANCH   5   7
HETATM    7  C9  UNL     1      50.052  24.657  14.503  1.00  0.00     0.049 C 
BRANCH   7   8
HETATM    8  C10 UNL     1      50.336  23.301  14.874  1.00  0.00     0.051 C 
HETATM    9  C11 UNL     1      48.933  22.590  14.772  1.00  0.00     0.045 C 
HETATM   10  C12 UNL     1      51.222  22.385  14.138  1.00  0.00     0.045 C 
BRANCH   8  11
HETATM   11  O1  UNL     1      50.626  23.085  16.236  1.00  0.00    -0.391 OA
ATOM     12  H1  UNL     1      50.318  23.755  16.836  1.00  0.00     0.210 HD
ENDBRANCH   8  11
ENDBRANCH   7   8
ENDBRANCH   5   7
BRANCH   5  13
HETATM   13  C13 UNL     1      51.943  26.009  15.357  1.00  0.00     0.154 A 
HETATM   14  C14 UNL     1      52.892  25.214  14.530  1.00  0.00     0.201 A 
HETATM   15  O2  UNL     1      52.781  25.088  15.897  1.00  0.00    -0.380 OA
ENDBRANCH   5  13
BRANCH   1  16
HETATM   16  N1  UNL     1      48.016  27.467  13.138  1.00  0.00    -0.071 N 
ATOM     17  H12 UNL     1      47.245  26.843  13.375  1.00  0.00     0.277 HD
ATOM     18  H11 UNL     1      48.499  26.881  12.457  1.00  0.00     0.277 HD
BRANCH  16  19
HETATM   19  C3  UNL     1      47.532  28.677  12.527  1.00  0.00     0.232 C 
BRANCH  19  20
HETATM   20  C2  UNL     1      48.586  29.167  11.547  1.00  0.00     0.023 C 
HETATM   21  C1  UNL     1      48.357  28.572  10.186  1.00  0.00     0.007 C 
ENDBRANCH  19  20
ENDBRANCH  16  19
ENDBRANCH   1  16
TORSDOF 7
ENDMDL
MODEL 4
REMARK VINA RESULT: -5.492750007      1.055      1.196
REMARK  7 active torsions:
REMARK  status: ('A' for Active; 'I' for Inactive)
REMARK    1  A    between atoms: C2_2  and  C3_3 
REMARK    2  A    between atoms: C3_3  and  N1_4 
REMARK    3  A    between atoms: N1_4  and  C4_7 
REMARK    4  A    between atoms: C8_11  and  C9_12 
REMARK    5  A    between atoms: C8_11  and  C13_18 
REMARK    6  A    between atoms: C9_12  and  C10_13 
REMARK    7  A    between atoms: C10_13  and  O1_16 
ROOT
HETATM    1  C4  UNL     1      50.842  24.103  15.424  1.00  0.00     0.186 C 
HETATM    2  C5  UNL     1      52.164  24.745  15.313  1.00  0.00     0.033 C 
HETATM    3  C6  UNL     1      51.972  26.123  14.651  1.00  0.00     0.003 C 
HETATM    4  C7  UNL     1      51.076  26.870  15.567  1.00  0.00     0.012 C 
HETATM    5  C8  UNL     1      49.643  26.399  15.396  1.00  0.00    -0.007 C 
HETATM    6  C15 UNL     1      49.655  24.893  15.739  1.00  0.00     0.045 C 
ENDROOT
BRANCH   5   7
HETATM    7  C9  UNL     1      49.117  26.555  14.050  1.00  0.00     0.049 C 
BRANCH   7   8
HETATM    8  C10 UNL     1      48.577  27.727  13.423  1.00  0.00     0.051 C 
HETATM    9  C11 UNL     1      49.442  28.899  14.025  1.00  0.00     0.045 C 
HETATM   10  C12 UNL     1      48.605  28.009  11.978  1.00  0.00     0.045 C 
BRANCH   8  11
HETATM   11  O1  UNL     1      47.294  28.118  13.854  1.00  0.00    -0.391 OA
ATOM     12  H1  UNL     1      46.564  27.714  13.400  1.00  0.00     0.210 HD
ENDBRANCH   8  11
ENDBRANCH   7   8
ENDBRANCH   5   7
BRANCH   5  13
HETATM   13  C13 UNL     1      48.782  26.980  16.467  1.00  0.00     0.154 A 
HETATM   14  C14 UNL     1      47.799  26.131  17.193  1.00  0.00     0.201 A 
HETATM   15  O2  UNL     1      47.446  27.214  16.418  1.00  0.00    -0.380 OA
ENDBRANCH   5  13
BRANCH   1  16
HETATM   16  N1  UNL     1      50.612  23.152  14.351  1.00  0.00    -0.071 N 
ATOM     17  H12 UNL     1      49.991  23.542  13.643  1.00  0.00     0.277 HD
ATOM     18  H11 UNL     1      50.034  22.375  14.668  1.00  0.00     0.277 HD
BRANCH  16  19
HETATM   19  C3  UNL     1      51.836  22.679  13.761  1.00  0.00     0.232 C 
BRANCH  19  20
HETATM   20  C2  UNL     1      52.013  21.218  14.143  1.00  0.00     0.023 C 
HETATM   21  C1  UNL     1      51.951  20.343  12.923  1.00  0.00     0.007 C 
ENDBRANCH  19  20
ENDBRANCH  16  19
ENDBRANCH   1  16
TORSDOF 7
ENDMDL
MODEL 5
REMARK VINA RESULT: -4.806472490      2.683      5.649
REMARK  7 active torsions:
REMARK  status: ('A' for Active; 'I' for Inactive)
REMARK    1  A    between atoms: C2_2  and  C3_3 
REMARK    2  A    between atoms: C3_3  and  N1_4 
REMARK    3  A    between atoms: N1_4  and  C4_7 
REMARK    4  A    between atoms: C8_11  and  C9_12 
REMARK    5  A    between atoms: C8_11  and  C13_18 
REMARK    6  A    between atoms: C9_12  and  C10_13 
REMARK    7  A    between atoms: C10_13  and  O1_16 
ROOT
HETATM    1  C4  UNL     1      48.588  28.714  13.250  1.00  0.00     0.186 C 
HETATM    2  C5  UNL     1      47.346  28.888  14.024  1.00  0.00     0.033 C 
HETATM    3  C6  UNL     1      47.165  27.650  14.923  1.00  0.00     0.003 C 
HETATM    4  C7  UNL     1      48.361  27.632  15.801  1.00  0.00     0.012 C 
HETATM    5  C8  UNL     1      49.563  27.111  15.036  1.00  0.00    -0.007 C 
HETATM    6  C15 UNL     1      49.760  28.086  13.854  1.00  0.00     0.045 C 
ENDROOT
BRANCH   5   7
HETATM    7  C9  UNL     1      49.399  25.771  14.499  1.00  0.00     0.049 C 
BRANCH   7   8
HETATM    8  C10 UNL     1      49.718  24.511  15.105  1.00  0.00     0.051 C 
HETATM    9  C11 UNL     1      49.000  24.583  16.506  1.00  0.00     0.045 C 
HETATM   10  C12 UNL     1      49.308  23.192  14.595  1.00  0.00     0.045 C 
BRANCH   8  11
HETATM   11  O1  UNL     1      51.056  24.350  15.519  1.00  0.00    -0.391 OA
ATOM     12  H1  UNL     1      51.180  23.934  16.364  1.00  0.00     0.210 HD
ENDBRANCH   8  11
ENDBRANCH   7   8
ENDBRANCH   5   7
BRANCH   5  13
HETATM   13  C13 UNL     1      50.805  27.306  15.840  1.00  0.00     0.154 A 
HETATM   14  C14 UNL     1      51.872  28.234  15.375  1.00  0.00     0.201 A 
HETATM   15  O2  UNL     1      52.059  26.879  15.542  1.00  0.00    -0.380 OA
ENDBRANCH   5  13
BRANCH   1  16
HETATM   16  N1  UNL     1      48.322  28.228  11.908  1.00  0.00    -0.071 N 
ATOM     17  H12 UNL     1      47.369  27.875  11.828  1.00  0.00     0.277 HD
ATOM     18  H11 UNL     1      48.833  27.365  11.723  1.00  0.00     0.277 HD
BRANCH  16  19
HETATM   19  C3  UNL     1      48.594  29.216  10.898  1.00  0.00     0.232 C 
BRANCH  19  20
HETATM   20  C2  UNL     1      47.452  29.196   9.896  1.00  0.00     0.023 C 
HETATM   21  C1  UNL     1      47.811  29.991   8.671  1.00  0.00     0.007 C 
ENDBRANCH  19  20
ENDBRANCH  16  19
ENDBRANCH   1  16
TORSDOF 7
ENDMDL
