MODEL 1
REMARK VINA RESULT: -6.422188088      0.000      0.000
REMARK  7 active torsions:
REMARK  status: ('A' for Active; 'I' for Inactive)
REMARK    1  A    between atoms: C2_2  and  C3_3 
REMARK    2  A    between atoms: C2_2  and  C10_18 
REMARK    3  A    between atoms: C3_3  and  N1_4 
REMARK    4  A    between atoms: C3_3  and  C4_8 
REMARK    5  A    between atoms: C4_8  and  C5_10 
REMARK       I    between atoms: C5_10  and  N2_12 
REMARK    6  A    between atoms: N2_12  and  C6_14 
REMARK    7  A    between atoms: C6_14  and  C7_15 
ROOT
HETATM    1  C3  UNL     1      50.298  25.641  15.388  1.00  0.00     0.211 C 
ENDROOT
BRANCH   1   2
HETATM    2  C2  UNL     1      50.429  24.390  14.583  1.00  0.00     0.021 C 
HETATM    3  C1  UNL     1      49.218  23.487  14.707  1.00  0.00     0.012 C 
BRANCH   2   4
HETATM    4  C10 UNL     1      51.590  23.536  15.045  1.00  0.00    -0.046 C 
HETATM    5  C11 UNL     1      52.836  24.301  15.397  1.00  0.00     0.015 C 
HETATM    6  C12 UNL     1      51.161  22.639  16.214  1.00  0.00     0.015 C 
HETATM    7  C13 UNL     1      51.983  22.567  13.930  1.00  0.00     0.015 C 
ENDBRANCH   2   4
ENDBRANCH   1   2
BRANCH   1   8
HETATM    8  N1  UNL     1      51.251  26.605  14.880  1.00  0.00    -0.073 N 
ATOM      9  H13 UNL     1      51.643  26.333  13.979  1.00  0.00     0.274 HD
ATOM     10  H12 UNL     1      50.809  27.475  14.582  1.00  0.00     0.274 HD
ATOM     11  H11 UNL     1      51.966  26.751  15.593  1.00  0.00     0.274 HD
ENDBRANCH   1   8
BRANCH   1  12
HETATM   12  C4  UNL     1      48.972  26.325  15.333  1.00  0.00     0.181 C 
HETATM   13  S1  UNL     1      48.330  26.927  16.902  1.00  0.00    -0.080 SA
BRANCH  12  14
HETATM   14  C5  UNL     1      49.095  27.528  14.472  1.00  0.00     0.234 C 
HETATM   15  O1  UNL     1      49.704  28.564  14.799  1.00  0.00    -0.272 OA
HETATM   16  N2  UNL     1      48.482  27.499  13.197  1.00  0.00    -0.360 N 
ATOM     17  H2  UNL     1      47.978  26.661  12.908  1.00  0.00     0.162 HD
BRANCH  16  18
HETATM   18  C6  UNL     1      48.553  28.637  12.285  1.00  0.00     0.127 C 
BRANCH  18  19
HETATM   19  C7  UNL     1      48.202  28.263  10.886  1.00  0.00     0.003 A 
HETATM   20  C8  UNL     1      48.564  29.287   9.845  1.00  0.00     0.007 A 
HETATM   21  C9  UNL     1      47.136  29.085  10.185  1.00  0.00     0.007 A 
ENDBRANCH  18  19
ENDBRANCH  16  18
ENDBRANCH  12  14
ENDBRANCH   1  12
TORSDOF 7
ENDMDL
MODEL 2
REMARK VINA RESULT: -6.275903418      3.303      6.356
REMARK  7 active torsions:
REMARK  status: ('A' for Active; 'I' for Inactive)
REMARK    1  A    between atoms: C2_2  and  C3_3 
REMARK    2  A    between atoms: C2_2  and  C10_18 
REMARK    3  A    between atoms: C3_3  and  N1_4 
REMARK    4  A    between atoms: C3_3  and  C4_8 
REMARK    5  A    between atoms: C4_8  and  C5_10 
REMARK       I    between atoms: C5_10  and  N2_12 
REMARK    6  A    between atoms: N2_12  and  C6_14 
REMARK    7  A    between atoms: C6_14  and  C7_15 
ROOT
HETATM    1  C3  UNL     1      49.824  24.667  15.303  1.00  0.00     0.211 C 
ENDROOT
BRANCH   1   2
HETATM    2  C2  UNL     1      49.032  25.842  14.834  1.00  0.00     0.021 C 
HETATM    3  C1  UNL     1      49.765  26.660  13.789  1.00  0.00     0.012 C 
BRANCH   2   4
HETATM    4  C10 UNL     1      48.749  26.820  15.953  1.00  0.00    -0.046 C 
HETATM    5  C11 UNL     1      48.261  26.194  17.231  1.00  0.00     0.015 C 
HETATM    6  C12 UNL     1      49.980  27.698  16.220  1.00  0.00     0.015 C 
HETATM    7  C13 UNL     1      47.658  27.797  15.512  1.00  0.00     0.015 C 
ENDBRANCH   2   4
ENDBRANCH   1   2
BRANCH   1   8
HETATM    8  N1  UNL     1      49.038  23.473  15.072  1.00  0.00    -0.073 N 
ATOM      9  H13 UNL     1      49.487  22.631  15.432  1.00  0.00     0.274 HD
ATOM     10  H12 UNL     1      48.197  23.437  15.647  1.00  0.00     0.274 HD
ATOM     11  H11 UNL     1      48.835  23.415  14.074  1.00  0.00     0.274 HD
ENDBRANCH   1   8
BRANCH   1  12
HETATM   12  C4  UNL     1      51.124  24.427  14.610  1.00  0.00     0.181 C 
HETATM   13  S1  UNL     1      52.562  25.229  15.334  1.00  0.00    -0.080 SA
BRANCH  12  14
HETATM   14  C5  UNL     1      51.423  22.974  14.652  1.00  0.00     0.234 C 
HETATM   15  O1  UNL     1      51.351  22.274  15.679  1.00  0.00    -0.272 OA
HETATM   16  N2  UNL     1      51.814  22.341  13.449  1.00  0.00    -0.360 N 
ATOM     17  H2  UNL     1      51.880  22.895  12.594  1.00  0.00     0.162 HD
BRANCH  16  18
HETATM   18  C6  UNL     1      52.127  20.915  13.397  1.00  0.00     0.127 C 
BRANCH  18  19
HETATM   19  C7  UNL     1      51.269  20.183  12.423  1.00  0.00     0.003 A 
HETATM   20  C8  UNL     1      51.497  18.696  12.368  1.00  0.00     0.007 A 
HETATM   21  C9  UNL     1      51.952  19.535  11.233  1.00  0.00     0.007 A 
ENDBRANCH  18  19
ENDBRANCH  16  18
ENDBRANCH  12  14
ENDBRANCH   1  12
TORSDOF 7
ENDMDL
MODEL 3
REMARK VINA RESULT: -6.140503204      3.279      6.300
REMARK  7 active torsions:
REMARK  status: ('A' for Active; 'I' for Inactive)
REMARK    1  A    between atoms: C2_2  and  C3_3 
REMARK    2  A    between atoms: C2_2  and  C10_18 
REMARK    3  A    between atoms: C3_3  and  N1_4 
REMARK    4  A    between atoms: C3_3  and  C4_8 
REMARK    5  A    between atoms: C4_8  and  C5_10 
REMARK       I    between atoms: C5_10  and  N2_12 
REMARK    6  A    between atoms: N2_12  and  C6_14 
REMARK    7  A    between atoms: C6_14  and  C7_15 
ROOT
HETATM    1  C3  UNL     1      49.838  24.719  15.267  1.00  0.00     0.211 C 
ENDROOT
BRANCH   1   2
HETATM    2  C2  UNL     1      49.041  25.871  14.751  1.00  0.00     0.021 C 
HETATM    3  C1  UNL     1      49.801  26.696  13.731  1.00  0.00     0.012 C 
BRANCH   2   4
HETATM    4  C10 UNL     1      48.687  26.854  15.847  1.00  0.00    -0.046 C 
HETATM    5  C11 UNL     1      47.635  27.862  15.475  1.00  0.00     0.015 C 
HETATM    6  C12 UNL     1      48.288  26.105  17.126  1.00  0.00     0.015 C 
HETATM    7  C13 UNL     1      49.931  27.655  16.233  1.00  0.00     0.015 C 
ENDBRANCH   2   4
ENDBRANCH   1   2
BRANCH   1   8
HETATM    8  N1  UNL     1      49.068  23.510  15.059  1.00  0.00    -0.073 N 
ATOM      9  H13 UNL     1      48.168  23.689  14.615  1.00  0.00     0.274 HD
ATOM     10  H12 UNL     1      49.464  22.912  14.334  1.00  0.00     0.274 HD
ATOM     11  H11 UNL     1      48.977  23.033  15.956  1.00  0.00     0.274 HD
ENDBRANCH   1   8
BRANCH   1  12
HETATM   12  C4  UNL     1      51.151  24.473  14.601  1.00  0.00     0.181 C 
HETATM   13  S1  UNL     1      52.578  25.267  15.357  1.00  0.00    -0.080 SA
BRANCH  12  14
HETATM   14  C5  UNL     1      51.441  23.018  14.648  1.00  0.00     0.234 C 
HETATM   15  O1  UNL     1      51.382  22.325  15.680  1.00  0.00    -0.272 OA
HETATM   16  N2  UNL     1      51.810  22.376  13.443  1.00  0.00    -0.360 N 
ATOM     17  H2  UNL     1      51.866  22.924  12.584  1.00  0.00     0.162 HD
BRANCH  16  18
HETATM   18  C6  UNL     1      52.113  20.948  13.396  1.00  0.00     0.127 C 
BRANCH  18  19
HETATM   19  C7  UNL     1      51.259  20.220  12.415  1.00  0.00     0.003 A 
HETATM   20  C8  UNL     1      51.512  18.739  12.328  1.00  0.00     0.007 A 
HETATM   21  C9  UNL     1      51.942  19.608  11.206  1.00  0.00     0.007 A 
ENDBRANCH  18  19
ENDBRANCH  16  18
ENDBRANCH  12  14
ENDBRANCH   1  12
TORSDOF 7
ENDMDL
MODEL 4
REMARK VINA RESULT: -5.825058235      2.764      6.108
REMARK  7 active torsions:
REMARK  status: ('A' for Active; 'I' for Inactive)
REMARK    1  A    between atoms: C2_2  and  C3_3 
REMARK    2  A    between atoms: C2_2  and  C10_18 
REMARK    3  A    between atoms: C3_3  and  N1_4 
REMARK    4  A    between atoms: C3_3  and  C4_8 
REMARK    5  A    between atoms: C4_8  and  C5_10 
REMARK       I    between atoms: C5_10  and  N2_12 
REMARK    6  A    between atoms: N2_12  and  C6_14 
REMARK    7  A    between atoms: C6_14  and  C7_15 
ROOT
HETATM    1  C3  UNL     1      50.734  25.698  15.011  1.00  0.00     0.211 C 
ENDROOT
BRANCH   1   2
HETATM    2  C2  UNL     1      49.819  26.632  15.731  1.00  0.00     0.021 C 
HETATM    3  C1  UNL     1      48.723  25.908  16.488  1.00  0.00     0.012 C 
BRANCH   2   4
HETATM    4  C10 UNL     1      49.082  27.551  14.781  1.00  0.00    -0.046 C 
HETATM    5  C11 UNL     1      47.718  27.980  15.248  1.00  0.00     0.015 C 
HETATM    6  C12 UNL     1      49.945  28.774  14.444  1.00  0.00     0.015 C 
HETATM    7  C13 UNL     1      48.872  26.838  13.444  1.00  0.00     0.015 C 
ENDBRANCH   2   4
ENDBRANCH   1   2
BRANCH   1   8
HETATM    8  N1  UNL     1      52.096  26.125  15.254  1.00  0.00    -0.073 N 
ATOM      9  H13 UNL     1      52.698  25.363  15.564  1.00  0.00     0.274 HD
ATOM     10  H12 UNL     1      52.596  26.355  14.395  1.00  0.00     0.274 HD
ATOM     11  H11 UNL     1      52.072  26.902  15.915  1.00  0.00     0.274 HD
ENDBRANCH   1   8
BRANCH   1  12
HETATM   12  C4  UNL     1      50.685  24.268  15.435  1.00  0.00     0.181 C 
HETATM   13  S1  UNL     1      49.081  23.463  15.309  1.00  0.00    -0.080 SA
BRANCH  12  14
HETATM   14  C5  UNL     1      51.587  23.482  14.557  1.00  0.00     0.234 C 
HETATM   15  O1  UNL     1      52.451  23.982  13.813  1.00  0.00    -0.272 OA
HETATM   16  N2  UNL     1      51.459  22.073  14.563  1.00  0.00    -0.360 N 
ATOM     17  H2  UNL     1      50.758  21.640  15.165  1.00  0.00     0.162 HD
BRANCH  16  18
HETATM   18  C6  UNL     1      52.305  21.221  13.731  1.00  0.00     0.127 C 
BRANCH  18  19
HETATM   19  C7  UNL     1      51.589  20.718  12.524  1.00  0.00     0.003 A 
HETATM   20  C8  UNL     1      51.622  19.225  12.343  1.00  0.00     0.007 A 
HETATM   21  C9  UNL     1      52.420  20.076  11.429  1.00  0.00     0.007 A 
ENDBRANCH  18  19
ENDBRANCH  16  18
ENDBRANCH  12  14
ENDBRANCH   1  12
TORSDOF 7
ENDMDL
MODEL 5
REMARK VINA RESULT: -5.778822108      2.736      6.098
REMARK  7 active torsions:
REMARK  status: ('A' for Active; 'I' for Inactive)
REMARK    1  A    between atoms: C2_2  and  C3_3 
REMARK    2  A    between atoms: C2_2  and  C10_18 
REMARK    3  A    between atoms: C3_3  and  N1_4 
REMARK    4  A    between atoms: C3_3  and  C4_8 
REMARK    5  A    between atoms: C4_8  and  C5_10 
REMARK       I    between atoms: C5_10  and  N2_12 
REMARK    6  A    between atoms: N2_12  and  C6_14 
REMARK    7  A    between atoms: C6_14  and  C7_15 
ROOT
HETATM    1  C3  UNL     1      50.701  25.743  15.003  1.00  0.00     0.211 C 
ENDROOT
BRANCH   1   2
HETATM    2  C2  UNL     1      49.771  26.692  15.684  1.00  0.00     0.021 C 
HETATM    3  C1  UNL     1      48.713  25.983  16.506  1.00  0.00     0.012 C 
BRANCH   2   4
HETATM    4  C10 UNL     1      48.989  27.529  14.696  1.00  0.00    -0.046 C 
HETATM    5  C11 UNL     1      48.755  26.877  13.361  1.00  0.00     0.015 C 
HETATM    6  C12 UNL     1      47.658  27.980  15.314  1.00  0.00     0.015 C 
HETATM    7  C13 UNL     1      49.749  28.825  14.412  1.00  0.00     0.015 C 
ENDBRANCH   2   4
ENDBRANCH   1   2
BRANCH   1   8
HETATM    8  N1  UNL     1      52.056  26.194  15.237  1.00  0.00    -0.073 N 
ATOM      9  H13 UNL     1      52.625  25.498  15.720  1.00  0.00     0.274 HD
ATOM     10  H12 UNL     1      52.606  26.250  14.380  1.00  0.00     0.274 HD
ATOM     11  H11 UNL     1      52.014  27.082  15.736  1.00  0.00     0.274 HD
ENDBRANCH   1   8
BRANCH   1  12
HETATM   12  C4  UNL     1      50.665  24.328  15.478  1.00  0.00     0.181 C 
HETATM   13  S1  UNL     1      49.095  23.472  15.286  1.00  0.00    -0.080 SA
BRANCH  12  14
HETATM   14  C5  UNL     1      51.642  23.538  14.687  1.00  0.00     0.234 C 
HETATM   15  O1  UNL     1      52.776  23.941  14.371  1.00  0.00    -0.272 OA
HETATM   16  N2  UNL     1      51.261  22.243  14.264  1.00  0.00    -0.360 N 
ATOM     17  H2  UNL     1      50.336  21.891  14.512  1.00  0.00     0.162 HD
BRANCH  16  18
HETATM   18  C6  UNL     1      52.158  21.395  13.482  1.00  0.00     0.127 C 
BRANCH  18  19
HETATM   19  C7  UNL     1      51.442  20.659  12.402  1.00  0.00     0.003 A 
HETATM   20  C8  UNL     1      51.679  19.174  12.382  1.00  0.00     0.007 A 
HETATM   21  C9  UNL     1      52.283  20.011  11.318  1.00  0.00     0.007 A 
ENDBRANCH  18  19
ENDBRANCH  16  18
ENDBRANCH  12  14
ENDBRANCH   1  12
TORSDOF 7
ENDMDL
