MODEL 1
REMARK VINA RESULT: -6.901829897      0.000      0.000
REMARK  10 active torsions:
REMARK  status: ('A' for Active; 'I' for Inactive)
REMARK    1  A    between atoms: C2_2  and  C3_3 
REMARK    2  A    between atoms: C3_3  and  C4_4 
REMARK    3  A    between atoms: C4_4  and  N1_5 
REMARK    4  A    between atoms: C4_4  and  C11_15 
REMARK    5  A    between atoms: N1_5  and  C5_7 
REMARK    6  A    between atoms: C5_7  and  O1_8 
REMARK    7  A    between atoms: C5_7  and  C6_10 
REMARK    8  A    between atoms: C11_15  and  C12_17 
REMARK    9  A    between atoms: C12_17  and  O3_18 
REMARK   10  A    between atoms: N2_20  and  O4_22 
ROOT
HETATM    1  C4  UNL     1      49.548  25.907  15.326  1.00  0.00     0.069 C 
ENDROOT
BRANCH   1   2
HETATM    2  C3  UNL     1      48.635  25.614  16.416  1.00  0.00     0.087 C 
BRANCH   2   3
HETATM    3  C2  UNL     1      48.072  26.891  17.016  1.00  0.00    -0.031 C 
HETATM    4  C1  UNL     1      46.901  27.349  16.580  1.00  0.00     0.007 C 
ENDBRANCH   2   3
ENDBRANCH   1   2
BRANCH   1   5
HETATM    5  N1  UNL     1      49.174  26.715  14.209  1.00  0.00    -0.340 N 
ATOM      6  H1  UNL     1      48.681  26.266  13.437  1.00  0.00     0.167 HD
BRANCH   5   7
HETATM    7  C5  UNL     1      49.442  28.090  14.106  1.00  0.00     0.119 C 
BRANCH   7   8
HETATM    8  O1  UNL     1      50.550  28.503  14.656  1.00  0.00    -0.349 OA
ATOM      9  H1  UNL     1      50.892  29.331  14.340  1.00  0.00     0.219 HD
ENDBRANCH   7   8
BRANCH   7  10
HETATM   10  C6  UNL     1      48.637  29.108  13.449  1.00  0.00     0.060 C 
HETATM   11  C7  UNL     1      47.205  28.684  13.371  1.00  0.00     0.013 C 
HETATM   12  C8  UNL     1      46.898  28.297  11.968  1.00  0.00     0.001 C 
HETATM   13  C9  UNL     1      48.202  28.395  11.191  1.00  0.00     0.001 C 
HETATM   14  C10 UNL     1      49.007  29.358  12.012  1.00  0.00     0.013 C 
ENDBRANCH   7  10
ENDBRANCH   5   7
ENDBRANCH   1   5
BRANCH   1  15
HETATM   15  C11 UNL     1      50.542  24.896  15.032  1.00  0.00     0.246 C 
HETATM   16  O2  UNL     1      50.125  23.674  14.945  1.00  0.00    -0.282 OA
BRANCH  15  17
HETATM   17  C12 UNL     1      51.967  25.099  14.832  1.00  0.00     0.213 C 
HETATM   18  N2  UNL     1      52.714  24.334  14.206  1.00  0.00    -0.244 N 
ATOM     19  H2  UNL     1      53.690  24.624  14.169  1.00  0.00     0.196 HD
BRANCH  17  20
HETATM   20  O3  UNL     1      52.523  26.268  15.398  1.00  0.00    -0.342 OA
ATOM     21  H3  UNL     1      53.247  26.144  15.999  1.00  0.00     0.219 HD
ENDBRANCH  17  20
BRANCH  18  22
HETATM   22  O4  UNL     1      52.447  23.200  13.579  1.00  0.00    -0.288 OA
ATOM     23  H4  UNL     1      51.699  22.952  13.048  1.00  0.00     0.244 HD
ENDBRANCH  18  22
ENDBRANCH  15  17
ENDBRANCH   1  15
TORSDOF 10
ENDMDL
MODEL 2
REMARK VINA RESULT: -6.808886792      2.144      5.249
REMARK  10 active torsions:
REMARK  status: ('A' for Active; 'I' for Inactive)
REMARK    1  A    between atoms: C2_2  and  C3_3 
REMARK    2  A    between atoms: C3_3  and  C4_4 
REMARK    3  A    between atoms: C4_4  and  N1_5 
REMARK    4  A    between atoms: C4_4  and  C11_15 
REMARK    5  A    between atoms: N1_5  and  C5_7 
REMARK    6  A    between atoms: C5_7  and  O1_8 
REMARK    7  A    between atoms: C5_7  and  C6_10 
REMARK    8  A    between atoms: C11_15  and  C12_17 
REMARK    9  A    between atoms: C12_17  and  O3_18 
REMARK   10  A    between atoms: N2_20  and  O4_22 
ROOT
HETATM    1  C4  UNL     1      48.279  27.479  14.287  1.00  0.00     0.069 C 
ENDROOT
BRANCH   1   2
HETATM    2  C3  UNL     1      47.744  27.886  15.574  1.00  0.00     0.087 C 
BRANCH   2   3
HETATM    3  C2  UNL     1      47.360  26.679  16.414  1.00  0.00    -0.031 C 
HETATM    4  C1  UNL     1      48.061  26.405  17.511  1.00  0.00     0.007 C 
ENDBRANCH   2   3
ENDBRANCH   1   2
BRANCH   1   5
HETATM    5  N1  UNL     1      49.289  26.477  14.159  1.00  0.00    -0.340 N 
ATOM      6  H1  UNL     1      49.111  25.696  13.528  1.00  0.00     0.167 HD
BRANCH   5   7
HETATM    7  C5  UNL     1      50.513  26.500  14.849  1.00  0.00     0.119 C 
BRANCH   7   8
HETATM    8  O1  UNL     1      51.177  27.622  14.808  1.00  0.00    -0.349 OA
ATOM      9  H1  UNL     1      51.619  27.818  13.991  1.00  0.00     0.219 HD
ENDBRANCH   7   8
BRANCH   7  10
HETATM   10  C6  UNL     1      51.123  25.424  15.615  1.00  0.00     0.060 C 
HETATM   11  C7  UNL     1      52.450  25.049  15.037  1.00  0.00     0.013 C 
HETATM   12  C8  UNL     1      52.311  23.746  14.333  1.00  0.00     0.001 C 
HETATM   13  C9  UNL     1      50.840  23.366  14.400  1.00  0.00     0.001 C 
HETATM   14  C10 UNL     1      50.352  24.132  15.593  1.00  0.00     0.013 C 
ENDBRANCH   7  10
ENDBRANCH   5   7
ENDBRANCH   1   5
BRANCH   1  15
HETATM   15  C11 UNL     1      48.297  28.489  13.252  1.00  0.00     0.246 C 
HETATM   16  O2  UNL     1      48.968  29.568  13.499  1.00  0.00    -0.282 OA
BRANCH  15  17
HETATM   17  C12 UNL     1      47.635  28.433  11.959  1.00  0.00     0.213 C 
HETATM   18  N2  UNL     1      48.008  29.033  10.941  1.00  0.00    -0.244 N 
ATOM     19  H2  UNL     1      47.422  28.888  10.120  1.00  0.00     0.196 HD
BRANCH  17  20
HETATM   20  O3  UNL     1      46.481  27.623  11.877  1.00  0.00    -0.342 OA
ATOM     21  H3  UNL     1      46.538  26.859  11.316  1.00  0.00     0.219 HD
ENDBRANCH  17  20
BRANCH  18  22
HETATM   22  O4  UNL     1      49.046  29.830  10.750  1.00  0.00    -0.288 OA
ATOM     23  H4  UNL     1      49.085  30.723  10.426  1.00  0.00     0.244 HD
ENDBRANCH  18  22
ENDBRANCH  15  17
ENDBRANCH   1  15
TORSDOF 10
ENDMDL
MODEL 3
REMARK VINA RESULT: -6.774198773      0.416      1.260
REMARK  10 active torsions:
REMARK  status: ('A' for Active; 'I' for Inactive)
REMARK    1  A    between atoms: C2_2  and  C3_3 
REMARK    2  A    between atoms: C3_3  and  C4_4 
REMARK    3  A    between atoms: C4_4  and  N1_5 
REMARK    4  A    between atoms: C4_4  and  C11_15 
REMARK    5  A    between atoms: N1_5  and  C5_7 
REMARK    6  A    between atoms: C5_7  and  O1_8 
REMARK    7  A    between atoms: C5_7  and  C6_10 
REMARK    8  A    between atoms: C11_15  and  C12_17 
REMARK    9  A    between atoms: C12_17  and  O3_18 
REMARK   10  A    between atoms: N2_20  and  O4_22 
ROOT
HETATM    1  C4  UNL     1      49.626  25.781  15.224  1.00  0.00     0.069 C 
ENDROOT
BRANCH   1   2
HETATM    2  C3  UNL     1      48.746  25.598  16.364  1.00  0.00     0.087 C 
BRANCH   2   3
HETATM    3  C2  UNL     1      48.233  26.931  16.880  1.00  0.00    -0.031 C 
HETATM    4  C1  UNL     1      46.970  27.275  16.640  1.00  0.00     0.007 C 
ENDBRANCH   2   3
ENDBRANCH   1   2
BRANCH   1   5
HETATM    5  N1  UNL     1      49.297  26.643  14.133  1.00  0.00    -0.340 N 
ATOM      6  H1  UNL     1      48.888  26.223  13.298  1.00  0.00     0.167 HD
BRANCH   5   7
HETATM    7  C5  UNL     1      49.500  28.033  14.137  1.00  0.00     0.119 C 
BRANCH   7   8
HETATM    8  O1  UNL     1      50.557  28.458  14.772  1.00  0.00    -0.349 OA
ATOM      9  H1  UNL     1      51.340  28.578  14.248  1.00  0.00     0.219 HD
ENDBRANCH   7   8
BRANCH   7  10
HETATM   10  C6  UNL     1      48.678  29.054  13.508  1.00  0.00     0.060 C 
HETATM   11  C7  UNL     1      47.250  28.617  13.434  1.00  0.00     0.013 C 
HETATM   12  C8  UNL     1      46.934  28.255  12.026  1.00  0.00     0.001 C 
HETATM   13  C9  UNL     1      48.231  28.384  11.240  1.00  0.00     0.001 C 
HETATM   14  C10 UNL     1      49.032  29.338  12.073  1.00  0.00     0.013 C 
ENDBRANCH   7  10
ENDBRANCH   5   7
ENDBRANCH   1   5
BRANCH   1  15
HETATM   15  C11 UNL     1      50.462  24.655  14.871  1.00  0.00     0.246 C 
HETATM   16  O2  UNL     1      49.889  23.496  14.815  1.00  0.00    -0.282 OA
BRANCH  15  17
HETATM   17  C12 UNL     1      51.886  24.676  14.578  1.00  0.00     0.213 C 
HETATM   18  N2  UNL     1      52.669  25.574  14.916  1.00  0.00    -0.244 N 
ATOM     19  H2  UNL     1      53.635  25.434  14.621  1.00  0.00     0.196 HD
BRANCH  17  20
HETATM   20  O3  UNL     1      52.397  23.575  13.856  1.00  0.00    -0.342 OA
ATOM     21  H3  UNL     1      53.114  23.755  13.260  1.00  0.00     0.219 HD
ENDBRANCH  17  20
BRANCH  18  22
HETATM   22  O4  UNL     1      52.453  26.687  15.598  1.00  0.00    -0.288 OA
ATOM     23  H4  UNL     1      52.884  27.532  15.548  1.00  0.00     0.244 HD
ENDBRANCH  18  22
ENDBRANCH  15  17
ENDBRANCH   1  15
TORSDOF 10
ENDMDL
MODEL 4
REMARK VINA RESULT: -6.238945452      2.155      5.443
REMARK  10 active torsions:
REMARK  status: ('A' for Active; 'I' for Inactive)
REMARK    1  A    between atoms: C2_2  and  C3_3 
REMARK    2  A    between atoms: C3_3  and  C4_4 
REMARK    3  A    between atoms: C4_4  and  N1_5 
REMARK    4  A    between atoms: C4_4  and  C11_15 
REMARK    5  A    between atoms: N1_5  and  C5_7 
REMARK    6  A    between atoms: C5_7  and  O1_8 
REMARK    7  A    between atoms: C5_7  and  C6_10 
REMARK    8  A    between atoms: C11_15  and  C12_17 
REMARK    9  A    between atoms: C12_17  and  O3_18 
REMARK   10  A    between atoms: N2_20  and  O4_22 
ROOT
HETATM    1  C4  UNL     1      48.657  27.358  14.480  1.00  0.00     0.069 C 
ENDROOT
BRANCH   1   2
HETATM    2  C3  UNL     1      47.791  27.567  15.627  1.00  0.00     0.087 C 
BRANCH   2   3
HETATM    3  C2  UNL     1      48.454  27.091  16.908  1.00  0.00    -0.031 C 
HETATM    4  C1  UNL     1      47.908  26.083  17.583  1.00  0.00     0.007 C 
ENDBRANCH   2   3
ENDBRANCH   1   2
BRANCH   1   5
HETATM    5  N1  UNL     1      49.909  26.676  14.579  1.00  0.00    -0.340 N 
ATOM      6  H1  UNL     1      50.761  27.220  14.446  1.00  0.00     0.167 HD
BRANCH   5   7
HETATM    7  C5  UNL     1      50.039  25.304  14.850  1.00  0.00     0.119 C 
BRANCH   7   8
HETATM    8  O1  UNL     1      49.030  24.551  14.509  1.00  0.00    -0.349 OA
ATOM      9  H1  UNL     1      48.268  24.589  15.075  1.00  0.00     0.219 HD
ENDBRANCH   7   8
BRANCH   7  10
HETATM   10  C6  UNL     1      51.172  24.620  15.453  1.00  0.00     0.060 C 
HETATM   11  C7  UNL     1      52.337  24.594  14.516  1.00  0.00     0.013 C 
HETATM   12  C8  UNL     1      52.480  23.217  13.971  1.00  0.00     0.001 C 
HETATM   13  C9  UNL     1      51.313  22.407  14.516  1.00  0.00     0.001 C 
HETATM   14  C10 UNL     1      50.930  23.165  15.752  1.00  0.00     0.013 C 
ENDBRANCH   7  10
ENDBRANCH   5   7
ENDBRANCH   1   5
BRANCH   1  15
HETATM   15  C11 UNL     1      48.598  28.363  13.441  1.00  0.00     0.246 C 
HETATM   16  O2  UNL     1      49.233  29.469  13.661  1.00  0.00    -0.282 OA
BRANCH  15  17
HETATM   17  C12 UNL     1      47.895  28.273  12.172  1.00  0.00     0.213 C 
HETATM   18  N2  UNL     1      48.183  28.914  11.152  1.00  0.00    -0.244 N 
ATOM     19  H2  UNL     1      47.579  28.735  10.349  1.00  0.00     0.196 HD
BRANCH  17  20
HETATM   20  O3  UNL     1      46.806  27.376  12.118  1.00  0.00    -0.342 OA
ATOM     21  H3  UNL     1      45.944  27.746  12.266  1.00  0.00     0.219 HD
ENDBRANCH  17  20
BRANCH  18  22
HETATM   22  O4  UNL     1      49.147  29.793  10.936  1.00  0.00    -0.288 OA
ATOM     23  H4  UNL     1      49.335  30.325  10.172  1.00  0.00     0.244 HD
ENDBRANCH  18  22
ENDBRANCH  15  17
ENDBRANCH   1  15
TORSDOF 10
ENDMDL
MODEL 5
REMARK VINA RESULT: -6.225701989      2.089      5.172
REMARK  10 active torsions:
REMARK  status: ('A' for Active; 'I' for Inactive)
REMARK    1  A    between atoms: C2_2  and  C3_3 
REMARK    2  A    between atoms: C3_3  and  C4_4 
REMARK    3  A    between atoms: C4_4  and  N1_5 
REMARK    4  A    between atoms: C4_4  and  C11_15 
REMARK    5  A    between atoms: N1_5  and  C5_7 
REMARK    6  A    between atoms: C5_7  and  O1_8 
REMARK    7  A    between atoms: C5_7  and  C6_10 
REMARK    8  A    between atoms: C11_15  and  C12_17 
REMARK    9  A    between atoms: C12_17  and  O3_18 
REMARK   10  A    between atoms: N2_20  and  O4_22 
ROOT
HETATM    1  C4  UNL     1      48.353  27.627  14.186  1.00  0.00     0.069 C 
ENDROOT
BRANCH   1   2
HETATM    2  C3  UNL     1      47.688  27.977  15.428  1.00  0.00     0.087 C 
BRANCH   2   3
HETATM    3  C2  UNL     1      47.480  26.752  16.303  1.00  0.00    -0.031 C 
HETATM    4  C1  UNL     1      48.108  26.679  17.473  1.00  0.00     0.007 C 
ENDBRANCH   2   3
ENDBRANCH   1   2
BRANCH   1   5
HETATM    5  N1  UNL     1      49.298  26.559  14.097  1.00  0.00    -0.340 N 
ATOM      6  H1  UNL     1      49.100  25.797  13.449  1.00  0.00     0.167 HD
BRANCH   5   7
HETATM    7  C5  UNL     1      50.484  26.493  14.847  1.00  0.00     0.119 C 
BRANCH   7   8
HETATM    8  O1  UNL     1      51.209  27.577  14.877  1.00  0.00    -0.349 OA
ATOM      9  H1  UNL     1      50.734  28.399  14.873  1.00  0.00     0.219 HD
ENDBRANCH   7   8
BRANCH   7  10
HETATM   10  C6  UNL     1      50.995  25.362  15.607  1.00  0.00     0.060 C 
HETATM   11  C7  UNL     1      52.269  24.855  15.011  1.00  0.00     0.013 C 
HETATM   12  C8  UNL     1      51.991  23.572  14.311  1.00  0.00     0.001 C 
HETATM   13  C9  UNL     1      50.490  23.342  14.400  1.00  0.00     0.001 C 
HETATM   14  C10 UNL     1      50.098  24.153  15.599  1.00  0.00     0.013 C 
ENDBRANCH   7  10
ENDBRANCH   5   7
ENDBRANCH   1   5
BRANCH   1  15
HETATM   15  C11 UNL     1      48.574  28.707  13.250  1.00  0.00     0.246 C 
HETATM   16  O2  UNL     1      49.265  29.716  13.675  1.00  0.00    -0.282 OA
BRANCH  15  17
HETATM   17  C12 UNL     1      48.099  28.793  11.879  1.00  0.00     0.213 C 
HETATM   18  N2  UNL     1      47.078  28.243  11.444  1.00  0.00    -0.244 N 
ATOM     19  H2  UNL     1      46.895  28.401  10.453  1.00  0.00     0.196 HD
BRANCH  17  20
HETATM   20  O3  UNL     1      48.873  29.573  10.992  1.00  0.00    -0.342 OA
ATOM     21  H3  UNL     1      49.434  29.100  10.390  1.00  0.00     0.219 HD
ENDBRANCH  17  20
BRANCH  18  22
HETATM   22  O4  UNL     1      46.187  27.482  12.058  1.00  0.00    -0.288 OA
ATOM     23  H4  UNL     1      45.364  27.711  12.473  1.00  0.00     0.244 HD
ENDBRANCH  18  22
ENDBRANCH  15  17
ENDBRANCH   1  15
TORSDOF 10
ENDMDL
