MODEL 1
REMARK VINA RESULT: -7.852670172      0.000      0.000
REMARK  8 active torsions:
REMARK  status: ('A' for Active; 'I' for Inactive)
REMARK    1  A    between atoms: C2_2  and  O1_6 
REMARK    2  A    between atoms: O1_6  and  C3_7 
REMARK    3  A    between atoms: C3_7  and  C4_8 
REMARK    4  A    between atoms: C4_8  and  O2_9 
REMARK    5  A    between atoms: C4_8  and  C5_11 
REMARK    6  A    between atoms: C5_11  and  N2_12 
REMARK    7  A    between atoms: N2_12  and  C6_14 
REMARK    8  A    between atoms: C6_14  and  C9_17 
ROOT
HETATM    1  N2  UNL     1      48.625  27.020  14.034  1.00  0.00    -0.410 N 
ATOM      2  H2  UNL     1      47.685  26.630  13.969  1.00  0.00     0.154 HD
ENDROOT
BRANCH   1   3
HETATM    3  C5  UNL     1      48.911  28.106  13.217  1.00  0.00     0.148 C 
BRANCH   3   4
HETATM    4  C4  UNL     1      47.889  28.284  12.079  1.00  0.00     0.159 C 
BRANCH   4   5
HETATM    5  C3  UNL     1      48.399  29.230  11.020  1.00  0.00     0.210 C 
BRANCH   5   6
HETATM    6  O1  UNL     1      47.759  28.910   9.772  1.00  0.00    -0.337 OA
BRANCH   6   7
HETATM    7  C2  UNL     1      46.721  29.670   9.289  1.00  0.00     0.107 C 
HETATM    8  C1  UNL     1      46.950  30.788   8.327  1.00  0.00     0.097 C 
HETATM    9  N1  UNL     1      45.519  29.365   9.713  1.00  0.00    -0.384 N 
ATOM     10  H12 UNL     1      44.748  29.930   9.355  1.00  0.00     0.157 HD
ATOM     11  H11 UNL     1      45.363  28.602  10.370  1.00  0.00     0.157 HD
ENDBRANCH   6   7
ENDBRANCH   5   6
ENDBRANCH   4   5
BRANCH   4  12
HETATM   12  O2  UNL     1      46.733  28.879  12.607  1.00  0.00    -0.392 OA
ATOM     13  H2  UNL     1      46.444  28.312  13.312  1.00  0.00     0.210 HD
ENDBRANCH   4  12
ENDBRANCH   3   4
ENDBRANCH   1   3
BRANCH   1  14
HETATM   14  C6  UNL     1      49.488  26.421  14.923  1.00  0.00     0.022 C 
HETATM   15  C7  UNL     1      50.659  27.360  15.327  1.00  0.00     0.038 C 
HETATM   16  C8  UNL     1      48.727  26.286  16.273  1.00  0.00     0.038 C 
BRANCH  14  17
HETATM   17  C9  UNL     1      50.109  25.106  14.704  1.00  0.00     0.017 C 
HETATM   18  C10 UNL     1      49.382  23.879  15.159  1.00  0.00     0.012 C 
HETATM   19  C11 UNL     1      50.591  22.932  15.322  1.00  0.00    -0.014 C 
HETATM   20  C12 UNL     1      51.428  22.952  14.084  1.00  0.00     0.005 C 
HETATM   21  C15 UNL     1      51.412  23.856  16.241  1.00  0.00     0.010 C 
HETATM   22  C13 UNL     1      52.305  24.213  14.152  1.00  0.00     0.005 C 
HETATM   23  C14 UNL     1      51.520  24.992  15.215  1.00  0.00    -0.008 C 
ENDBRANCH  14  17
ENDBRANCH   1  14
TORSDOF 8
ENDMDL
MODEL 2
REMARK VINA RESULT: -7.690071116      0.720      1.458
REMARK  8 active torsions:
REMARK  status: ('A' for Active; 'I' for Inactive)
REMARK    1  A    between atoms: C2_2  and  O1_6 
REMARK    2  A    between atoms: O1_6  and  C3_7 
REMARK    3  A    between atoms: C3_7  and  C4_8 
REMARK    4  A    between atoms: C4_8  and  O2_9 
REMARK    5  A    between atoms: C4_8  and  C5_11 
REMARK    6  A    between atoms: C5_11  and  N2_12 
REMARK    7  A    between atoms: N2_12  and  C6_14 
REMARK    8  A    between atoms: C6_14  and  C9_17 
ROOT
HETATM    1  N2  UNL     1      48.816  26.992  13.784  1.00  0.00    -0.410 N 
ATOM      2  H2  UNL     1      48.396  26.148  13.395  1.00  0.00     0.154 HD
ENDROOT
BRANCH   1   3
HETATM    3  C5  UNL     1      48.585  28.180  13.103  1.00  0.00     0.148 C 
BRANCH   3   4
HETATM    4  C4  UNL     1      47.956  27.960  11.714  1.00  0.00     0.159 C 
BRANCH   4   5
HETATM    5  C3  UNL     1      48.062  29.196  10.856  1.00  0.00     0.210 C 
BRANCH   5   6
HETATM    6  O1  UNL     1      47.363  28.959   9.621  1.00  0.00    -0.337 OA
BRANCH   6   7
HETATM    7  C2  UNL     1      46.344  29.784   9.211  1.00  0.00     0.107 C 
HETATM    8  C1  UNL     1      46.601  30.990   8.370  1.00  0.00     0.097 C 
HETATM    9  N1  UNL     1      45.132  29.460   9.592  1.00  0.00    -0.384 N 
ATOM     10  H12 UNL     1      44.375  30.072   9.288  1.00  0.00     0.157 HD
ATOM     11  H11 UNL     1      44.956  28.636  10.166  1.00  0.00     0.157 HD
ENDBRANCH   6   7
ENDBRANCH   5   6
ENDBRANCH   4   5
BRANCH   4  12
HETATM   12  O2  UNL     1      46.583  27.719  11.880  1.00  0.00    -0.392 OA
ATOM     13  H2  UNL     1      46.150  28.550  11.724  1.00  0.00     0.210 HD
ENDBRANCH   4  12
ENDBRANCH   3   4
ENDBRANCH   1   3
BRANCH   1  14
HETATM   14  C6  UNL     1      49.558  26.845  14.934  1.00  0.00     0.022 C 
HETATM   15  C7  UNL     1      50.626  27.964  15.091  1.00  0.00     0.038 C 
HETATM   16  C8  UNL     1      48.612  27.158  16.128  1.00  0.00     0.038 C 
BRANCH  14  17
HETATM   17  C9  UNL     1      50.248  25.602  15.312  1.00  0.00     0.017 C 
HETATM   18  C10 UNL     1      51.744  25.587  15.343  1.00  0.00     0.012 C 
HETATM   19  C11 UNL     1      51.972  24.074  15.137  1.00  0.00    -0.014 C 
HETATM   20  C12 UNL     1      51.145  23.294  16.107  1.00  0.00     0.005 C 
HETATM   21  C15 UNL     1      51.121  23.943  13.860  1.00  0.00     0.010 C 
HETATM   22  C13 UNL     1      49.717  23.237  15.539  1.00  0.00     0.005 C 
HETATM   23  C14 UNL     1      49.815  24.389  14.531  1.00  0.00    -0.008 C 
ENDBRANCH  14  17
ENDBRANCH   1  14
TORSDOF 8
ENDMDL
MODEL 3
REMARK VINA RESULT: -7.071918746      1.999      3.031
REMARK  8 active torsions:
REMARK  status: ('A' for Active; 'I' for Inactive)
REMARK    1  A    between atoms: C2_2  and  O1_6 
REMARK    2  A    between atoms: O1_6  and  C3_7 
REMARK    3  A    between atoms: C3_7  and  C4_8 
REMARK    4  A    between atoms: C4_8  and  O2_9 
REMARK    5  A    between atoms: C4_8  and  C5_11 
REMARK    6  A    between atoms: C5_11  and  N2_12 
REMARK    7  A    between atoms: N2_12  and  C6_14 
REMARK    8  A    between atoms: C6_14  and  C9_17 
ROOT
HETATM    1  N2  UNL     1      47.486  28.070  12.254  1.00  0.00    -0.410 N 
ATOM      2  H2  UNL     1      46.502  27.847  12.106  1.00  0.00     0.154 HD
ENDROOT
BRANCH   1   3
HETATM    3  C5  UNL     1      48.307  28.065  11.134  1.00  0.00     0.148 C 
BRANCH   3   4
HETATM    4  C4  UNL     1      48.271  29.397  10.361  1.00  0.00     0.159 C 
BRANCH   4   5
HETATM    5  C3  UNL     1      48.255  29.171   8.869  1.00  0.00     0.210 C 
BRANCH   5   6
HETATM    6  O1  UNL     1      47.470  30.209   8.257  1.00  0.00    -0.337 OA
BRANCH   6   7
HETATM    7  C2  UNL     1      46.235  30.553   8.752  1.00  0.00     0.107 C 
HETATM    8  C1  UNL     1      45.327  29.540   9.368  1.00  0.00     0.097 C 
HETATM    9  N1  UNL     1      45.891  31.814   8.658  1.00  0.00    -0.384 N 
ATOM     10  H12 UNL     1      44.974  32.070   9.025  1.00  0.00     0.157 HD
ATOM     11  H11 UNL     1      46.511  32.506   8.238  1.00  0.00     0.157 HD
ENDBRANCH   6   7
ENDBRANCH   5   6
ENDBRANCH   4   5
BRANCH   4  12
HETATM   12  O2  UNL     1      49.454  30.102  10.634  1.00  0.00    -0.392 OA
ATOM     13  H2  UNL     1      49.287  30.597  11.427  1.00  0.00     0.210 HD
ENDBRANCH   4  12
ENDBRANCH   3   4
ENDBRANCH   1   3
BRANCH   1  14
HETATM   14  C6  UNL     1      47.875  28.346  13.545  1.00  0.00     0.022 C 
HETATM   15  C7  UNL     1      49.053  29.359  13.600  1.00  0.00     0.038 C 
HETATM   16  C8  UNL     1      46.731  29.175  14.196  1.00  0.00     0.038 C 
BRANCH  14  17
HETATM   17  C9  UNL     1      48.209  27.315  14.540  1.00  0.00     0.017 C 
HETATM   18  C10 UNL     1      47.628  27.423  15.915  1.00  0.00     0.012 C 
HETATM   19  C11 UNL     1      48.691  26.610  16.687  1.00  0.00    -0.014 C 
HETATM   20  C12 UNL     1      48.918  25.295  16.015  1.00  0.00     0.005 C 
HETATM   21  C15 UNL     1      49.913  27.405  16.187  1.00  0.00     0.010 C 
HETATM   22  C13 UNL     1      49.861  25.550  14.828  1.00  0.00     0.005 C 
HETATM   23  C14 UNL     1      49.685  27.069  14.707  1.00  0.00    -0.008 C 
ENDBRANCH  14  17
ENDBRANCH   1  14
TORSDOF 8
ENDMDL
MODEL 4
REMARK VINA RESULT: -6.963670387      3.567      7.119
REMARK  8 active torsions:
REMARK  status: ('A' for Active; 'I' for Inactive)
REMARK    1  A    between atoms: C2_2  and  O1_6 
REMARK    2  A    between atoms: O1_6  and  C3_7 
REMARK    3  A    between atoms: C3_7  and  C4_8 
REMARK    4  A    between atoms: C4_8  and  O2_9 
REMARK    5  A    between atoms: C4_8  and  C5_11 
REMARK    6  A    between atoms: C5_11  and  N2_12 
REMARK    7  A    between atoms: N2_12  and  C6_14 
REMARK    8  A    between atoms: C6_14  and  C9_17 
ROOT
HETATM    1  N2  UNL     1      49.710  25.174  14.468  1.00  0.00    -0.410 N 
ATOM      2  H2  UNL     1      49.926  24.946  13.497  1.00  0.00     0.154 HD
ENDROOT
BRANCH   1   3
HETATM    3  C5  UNL     1      49.596  24.109  15.352  1.00  0.00     0.148 C 
BRANCH   3   4
HETATM    4  C4  UNL     1      50.957  23.492  15.723  1.00  0.00     0.159 C 
BRANCH   4   5
HETATM    5  C3  UNL     1      51.809  23.255  14.501  1.00  0.00     0.210 C 
BRANCH   5   6
HETATM    6  O1  UNL     1      51.264  22.142  13.771  1.00  0.00    -0.337 OA
BRANCH   6   7
HETATM    7  C2  UNL     1      52.019  21.023  13.510  1.00  0.00     0.107 C 
HETATM    8  C1  UNL     1      52.166  20.481  12.127  1.00  0.00     0.097 C 
HETATM    9  N1  UNL     1      52.607  20.455  14.535  1.00  0.00    -0.384 N 
ATOM     10  H12 UNL     1      53.167  19.625  14.341  1.00  0.00     0.157 HD
ATOM     11  H11 UNL     1      52.507  20.826  15.479  1.00  0.00     0.157 HD
ENDBRANCH   6   7
ENDBRANCH   5   6
ENDBRANCH   4   5
BRANCH   4  12
HETATM   12  O2  UNL     1      50.735  22.229  16.292  1.00  0.00    -0.392 OA
ATOM     13  H2  UNL     1      50.169  21.764  15.687  1.00  0.00     0.210 HD
ENDBRANCH   4  12
ENDBRANCH   3   4
ENDBRANCH   1   3
BRANCH   1  14
HETATM   14  C6  UNL     1      49.559  26.506  14.776  1.00  0.00     0.022 C 
HETATM   15  C7  UNL     1      48.537  26.731  15.926  1.00  0.00     0.038 C 
HETATM   16  C8  UNL     1      50.881  26.970  15.449  1.00  0.00     0.038 C 
BRANCH  14  17
HETATM   17  C9  UNL     1      49.253  27.548  13.784  1.00  0.00     0.017 C 
HETATM   18  C10 UNL     1      49.711  28.949  14.043  1.00  0.00     0.012 C 
HETATM   19  C11 UNL     1      48.678  29.702  13.175  1.00  0.00    -0.014 C 
HETATM   20  C12 UNL     1      48.638  29.116  11.802  1.00  0.00     0.005 C 
HETATM   21  C15 UNL     1      47.425  29.059  13.801  1.00  0.00     0.010 C 
HETATM   22  C13 UNL     1      47.769  27.849  11.876  1.00  0.00     0.005 C 
HETATM   23  C14 UNL     1      47.800  27.628  13.395  1.00  0.00    -0.008 C 
ENDBRANCH  14  17
ENDBRANCH   1  14
TORSDOF 8
ENDMDL
MODEL 5
REMARK VINA RESULT: -6.868256016      3.554      7.183
REMARK  8 active torsions:
REMARK  status: ('A' for Active; 'I' for Inactive)
REMARK    1  A    between atoms: C2_2  and  O1_6 
REMARK    2  A    between atoms: O1_6  and  C3_7 
REMARK    3  A    between atoms: C3_7  and  C4_8 
REMARK    4  A    between atoms: C4_8  and  O2_9 
REMARK    5  A    between atoms: C4_8  and  C5_11 
REMARK    6  A    between atoms: C5_11  and  N2_12 
REMARK    7  A    between atoms: N2_12  and  C6_14 
REMARK    8  A    between atoms: C6_14  and  C9_17 
ROOT
HETATM    1  N2  UNL     1      49.509  25.290  14.864  1.00  0.00    -0.410 N 
ATOM      2  H2  UNL     1      48.832  24.784  14.294  1.00  0.00     0.154 HD
ENDROOT
BRANCH   1   3
HETATM    3  C5  UNL     1      50.548  24.548  15.412  1.00  0.00     0.148 C 
BRANCH   3   4
HETATM    4  C4  UNL     1      51.524  24.012  14.348  1.00  0.00     0.159 C 
BRANCH   4   5
HETATM    5  C3  UNL     1      51.883  22.569  14.604  1.00  0.00     0.210 C 
BRANCH   5   6
HETATM    6  O1  UNL     1      51.969  21.886  13.340  1.00  0.00    -0.337 OA
BRANCH   6   7
HETATM    7  C2  UNL     1      52.083  20.518  13.277  1.00  0.00     0.107 C 
HETATM    8  C1  UNL     1      51.830  19.768  12.012  1.00  0.00     0.097 C 
HETATM    9  N1  UNL     1      52.426  19.903  14.382  1.00  0.00    -0.384 N 
ATOM     10  H12 UNL     1      52.510  18.887  14.336  1.00  0.00     0.157 HD
ATOM     11  H11 UNL     1      52.599  20.415  15.247  1.00  0.00     0.157 HD
ENDBRANCH   6   7
ENDBRANCH   5   6
ENDBRANCH   4   5
BRANCH   4  12
HETATM   12  O2  UNL     1      52.725  24.732  14.441  1.00  0.00    -0.392 OA
ATOM     13  H2  UNL     1      53.417  24.116  14.232  1.00  0.00     0.210 HD
ENDBRANCH   4  12
ENDBRANCH   3   4
ENDBRANCH   1   3
BRANCH   1  14
HETATM   14  C6  UNL     1      49.307  26.643  15.017  1.00  0.00     0.022 C 
HETATM   15  C7  UNL     1      48.186  26.956  16.048  1.00  0.00     0.038 C 
HETATM   16  C8  UNL     1      50.558  27.209  15.747  1.00  0.00     0.038 C 
BRANCH  14  17
HETATM   17  C9  UNL     1      49.068  27.568  13.899  1.00  0.00     0.017 C 
HETATM   18  C10 UNL     1      49.708  28.921  13.932  1.00  0.00     0.012 C 
HETATM   19  C11 UNL     1      48.721  29.673  13.011  1.00  0.00    -0.014 C 
HETATM   20  C12 UNL     1      48.526  28.912  11.740  1.00  0.00     0.005 C 
HETATM   21  C15 UNL     1      47.442  29.289  13.778  1.00  0.00     0.010 C 
HETATM   22  C13 UNL     1      47.518  27.790  12.035  1.00  0.00     0.005 C 
HETATM   23  C14 UNL     1      47.615  27.779  13.567  1.00  0.00    -0.008 C 
ENDBRANCH  14  17
ENDBRANCH   1  14
TORSDOF 8
ENDMDL
