MODEL 1
REMARK VINA RESULT: -7.203477221      0.000      0.000
REMARK  12 active torsions:
REMARK  status: ('A' for Active; 'I' for Inactive)
REMARK    1  A    between atoms: C5_6  and  C6_7 
REMARK    2  A    between atoms: C8_9  and  O2_10 
REMARK    3  A    between atoms: O2_10  and  C9_11 
REMARK    4  A    between atoms: C10_13  and  C11_14 
REMARK    5  A    between atoms: C11_14  and  O4_15 
REMARK    6  A    between atoms: C12_17  and  O5_18 
REMARK    7  A    between atoms: C13_20  and  O6_21 
REMARK    8  A    between atoms: C14_23  and  O7_24 
REMARK    9  A    between atoms: C15_26  and  O8_27 
REMARK   10  A    between atoms: C16_29  and  C17_30 
REMARK   11  A    between atoms: C17_30  and  N1_31 
REMARK   12  A    between atoms: N1_31  and  C18_33 
ROOT
HETATM    1  C6  UNL     1       7.547  38.704  51.429  1.00  0.00     0.158 C 
HETATM    2  C7  UNL     1       6.674  38.063  50.403  1.00  0.00     0.069 C 
HETATM    3  C8  UNL     1       5.990  39.162  49.627  1.00  0.00     0.158 C 
HETATM    4  C15 UNL     1       6.066  40.519  50.217  1.00  0.00     0.177 C 
HETATM    5  C16 UNL     1       6.280  40.605  51.685  1.00  0.00     0.170 C 
HETATM    6  O9  UNL     1       6.681  39.417  52.277  1.00  0.00    -0.373 OA
ENDROOT
BRANCH   3   7
HETATM    7  O2  UNL     1       4.705  38.755  49.377  1.00  0.00    -0.351 OA
BRANCH   7   8
HETATM    8  C9  UNL     1       3.791  39.729  49.105  1.00  0.00     0.292 C 
HETATM    9  O3  UNL     1       3.548  39.917  47.746  1.00  0.00    -0.348 OA
HETATM   10  C10 UNL     1       3.091  41.207  47.514  1.00  0.00     0.179 C 
HETATM   11  C12 UNL     1       2.083  41.710  48.468  1.00  0.00     0.180 C 
HETATM   12  C13 UNL     1       1.718  40.861  49.623  1.00  0.00     0.183 C 
HETATM   13  C14 UNL     1       2.466  39.566  49.765  1.00  0.00     0.204 C 
BRANCH  10  14
HETATM   14  C11 UNL     1       2.657  41.340  46.061  1.00  0.00     0.198 C 
BRANCH  14  15
HETATM   15  O4  UNL     1       3.576  42.060  45.303  1.00  0.00    -0.398 OA
ATOM     16  H4  UNL     1       3.575  42.984  45.522  1.00  0.00     0.209 HD
ENDBRANCH  14  15
ENDBRANCH  10  14
BRANCH  11  17
HETATM   17  O5  UNL     1       2.416  43.021  48.891  1.00  0.00    -0.390 OA
ATOM     18  H5  UNL     1       2.009  43.664  48.323  1.00  0.00     0.210 HD
ENDBRANCH  11  17
BRANCH  12  19
HETATM   19  O6  UNL     1       1.982  41.584  50.812  1.00  0.00    -0.390 OA
ATOM     20  H6  UNL     1       1.581  41.123  51.540  1.00  0.00     0.210 HD
ENDBRANCH  12  19
BRANCH  13  21
HETATM   21  O7  UNL     1       1.684  38.564  49.201  1.00  0.00    -0.388 OA
ATOM     22  H7  UNL     1       1.935  37.688  49.473  1.00  0.00     0.210 HD
ENDBRANCH  13  21
ENDBRANCH   7   8
ENDBRANCH   3   7
BRANCH   4  23
HETATM   23  O8  UNL     1       7.042  41.315  49.570  1.00  0.00    -0.390 OA
ATOM     24  H8  UNL     1       7.453  41.923  50.172  1.00  0.00     0.210 HD
ENDBRANCH   4  23
BRANCH   1  25
HETATM   25  C5  UNL     1       8.251  37.645  52.230  1.00  0.00     0.178 C 
HETATM   26  C2  UNL     1       9.326  38.238  53.054  1.00  0.00    -0.056 C 
HETATM   27  C1  UNL     1       9.280  38.641  54.308  1.00  0.00     0.017 C 
HETATM   28  C3  UNL     1      10.512  38.276  52.165  1.00  0.00     0.062 C 
HETATM   29  C4  UNL     1      10.166  37.277  51.097  1.00  0.00     0.173 C 
HETATM   30  O1  UNL     1       8.901  36.824  51.308  1.00  0.00    -0.379 OA
ENDBRANCH   1  25
BRANCH   5  31
HETATM   31  C17 UNL     1       5.038  41.076  52.432  1.00  0.00     0.149 C 
BRANCH  31  32
HETATM   32  N1  UNL     1       5.182  42.477  52.690  1.00  0.00    -0.415 N 
ATOM     33  H1  UNL     1       5.858  42.830  53.366  1.00  0.00     0.153 HD
BRANCH  32  34
HETATM   34  C18 UNL     1       4.334  43.349  51.955  1.00  0.00     0.076 C 
HETATM   35  C19 UNL     1       5.243  44.140  51.002  1.00  0.00     0.024 C 
HETATM   36  C20 UNL     1       5.614  45.385  51.753  1.00  0.00     0.002 C 
HETATM   37  C21 UNL     1       4.528  45.624  52.745  1.00  0.00     0.002 C 
HETATM   38  C22 UNL     1       3.641  44.412  52.780  1.00  0.00     0.024 C 
ENDBRANCH  32  34
ENDBRANCH  31  32
ENDBRANCH   5  31
TORSDOF 12
ENDMDL
MODEL 2
REMARK VINA RESULT: -7.098856297      1.767      2.535
REMARK  12 active torsions:
REMARK  status: ('A' for Active; 'I' for Inactive)
REMARK    1  A    between atoms: C5_6  and  C6_7 
REMARK    2  A    between atoms: C8_9  and  O2_10 
REMARK    3  A    between atoms: O2_10  and  C9_11 
REMARK    4  A    between atoms: C10_13  and  C11_14 
REMARK    5  A    between atoms: C11_14  and  O4_15 
REMARK    6  A    between atoms: C12_17  and  O5_18 
REMARK    7  A    between atoms: C13_20  and  O6_21 
REMARK    8  A    between atoms: C14_23  and  O7_24 
REMARK    9  A    between atoms: C15_26  and  O8_27 
REMARK   10  A    between atoms: C16_29  and  C17_30 
REMARK   11  A    between atoms: C17_30  and  N1_31 
REMARK   12  A    between atoms: N1_31  and  C18_33 
ROOT
HETATM    1  C6  UNL     1       7.433  37.097  49.302  1.00  0.00     0.158 C 
HETATM    2  C7  UNL     1       6.002  37.092  48.885  1.00  0.00     0.069 C 
HETATM    3  C8  UNL     1       5.515  38.521  48.886  1.00  0.00     0.158 C 
HETATM    4  C15 UNL     1       6.390  39.506  49.563  1.00  0.00     0.177 C 
HETATM    5  C16 UNL     1       7.308  38.984  50.609  1.00  0.00     0.170 C 
HETATM    6  O9  UNL     1       7.449  37.605  50.613  1.00  0.00    -0.373 OA
ENDROOT
BRANCH   3   7
HETATM    7  O2  UNL     1       4.230  38.522  49.365  1.00  0.00    -0.351 OA
BRANCH   7   8
HETATM    8  C9  UNL     1       3.468  39.616  49.084  1.00  0.00     0.292 C 
HETATM    9  O3  UNL     1       3.268  39.835  47.723  1.00  0.00    -0.348 OA
HETATM   10  C10 UNL     1       3.003  41.178  47.487  1.00  0.00     0.179 C 
HETATM   11  C12 UNL     1       2.067  41.821  48.431  1.00  0.00     0.180 C 
HETATM   12  C13 UNL     1       1.573  41.034  49.582  1.00  0.00     0.183 C 
HETATM   13  C14 UNL     1       2.127  39.645  49.731  1.00  0.00     0.204 C 
BRANCH  10  14
HETATM   14  C11 UNL     1       2.607  41.369  46.030  1.00  0.00     0.198 C 
BRANCH  14  15
HETATM   15  O4  UNL     1       3.561  42.088  45.317  1.00  0.00    -0.398 OA
ATOM     16  H4  UNL     1       3.169  42.749  44.760  1.00  0.00     0.209 HD
ENDBRANCH  14  15
ENDBRANCH  10  14
BRANCH  11  17
HETATM   17  O5  UNL     1       2.580  43.071  48.858  1.00  0.00    -0.390 OA
ATOM     18  H5  UNL     1       2.401  43.739  48.207  1.00  0.00     0.210 HD
ENDBRANCH  11  17
BRANCH  12  19
HETATM   19  O6  UNL     1       1.926  41.713  50.774  1.00  0.00    -0.390 OA
ATOM     20  H6  UNL     1       2.872  41.695  50.861  1.00  0.00     0.210 HD
ENDBRANCH  12  19
BRANCH  13  21
HETATM   21  O7  UNL     1       1.216  38.764  49.159  1.00  0.00    -0.388 OA
ATOM     22  H7  UNL     1       0.309  39.014  49.297  1.00  0.00     0.210 HD
ENDBRANCH  13  21
ENDBRANCH   7   8
ENDBRANCH   3   7
BRANCH   4  23
HETATM   23  O8  UNL     1       7.146  40.259  48.633  1.00  0.00    -0.390 OA
ATOM     24  H8  UNL     1       7.651  40.940  49.061  1.00  0.00     0.210 HD
ENDBRANCH   4  23
BRANCH   1  25
HETATM   25  C5  UNL     1       7.963  35.691  49.317  1.00  0.00     0.178 C 
HETATM   26  C2  UNL     1       9.440  35.687  49.382  1.00  0.00    -0.056 C 
HETATM   27  C1  UNL     1      10.221  35.604  50.441  1.00  0.00     0.017 C 
HETATM   28  C3  UNL     1       9.886  35.780  47.972  1.00  0.00     0.062 C 
HETATM   29  C4  UNL     1       8.670  35.344  47.204  1.00  0.00     0.173 C 
HETATM   30  O1  UNL     1       7.646  35.139  48.076  1.00  0.00    -0.379 OA
ENDBRANCH   1  25
BRANCH   5  31
HETATM   31  C17 UNL     1       6.886  39.391  52.016  1.00  0.00     0.149 C 
BRANCH  31  32
HETATM   32  N1  UNL     1       5.720  40.215  51.907  1.00  0.00    -0.415 N 
ATOM     33  H1  UNL     1       4.918  39.936  51.341  1.00  0.00     0.153 HD
BRANCH  32  34
HETATM   34  C18 UNL     1       5.736  41.440  52.626  1.00  0.00     0.076 C 
HETATM   35  C19 UNL     1       4.843  42.417  51.845  1.00  0.00     0.024 C 
HETATM   36  C20 UNL     1       5.768  43.134  50.907  1.00  0.00     0.002 C 
HETATM   37  C21 UNL     1       7.125  43.081  51.523  1.00  0.00     0.002 C 
HETATM   38  C22 UNL     1       7.082  42.130  52.684  1.00  0.00     0.024 C 
ENDBRANCH  32  34
ENDBRANCH  31  32
ENDBRANCH   5  31
TORSDOF 12
ENDMDL
MODEL 3
REMARK VINA RESULT: -6.673730492      2.776      5.438
REMARK  12 active torsions:
REMARK  status: ('A' for Active; 'I' for Inactive)
REMARK    1  A    between atoms: C5_6  and  C6_7 
REMARK    2  A    between atoms: C8_9  and  O2_10 
REMARK    3  A    between atoms: O2_10  and  C9_11 
REMARK    4  A    between atoms: C10_13  and  C11_14 
REMARK    5  A    between atoms: C11_14  and  O4_15 
REMARK    6  A    between atoms: C12_17  and  O5_18 
REMARK    7  A    between atoms: C13_20  and  O6_21 
REMARK    8  A    between atoms: C14_23  and  O7_24 
REMARK    9  A    between atoms: C15_26  and  O8_27 
REMARK   10  A    between atoms: C16_29  and  C17_30 
REMARK   11  A    between atoms: C17_30  and  N1_31 
REMARK   12  A    between atoms: N1_31  and  C18_33 
ROOT
HETATM    1  C6  UNL     1       7.888  39.496  49.012  1.00  0.00     0.158 C 
HETATM    2  C7  UNL     1       7.657  40.915  49.409  1.00  0.00     0.069 C 
HETATM    3  C8  UNL     1       6.639  40.923  50.524  1.00  0.00     0.158 C 
HETATM    4  C15 UNL     1       5.903  39.656  50.742  1.00  0.00     0.177 C 
HETATM    5  C16 UNL     1       5.797  38.731  49.583  1.00  0.00     0.170 C 
HETATM    6  O9  UNL     1       6.653  39.026  48.533  1.00  0.00    -0.373 OA
ENDROOT
BRANCH   3   7
HETATM    7  O2  UNL     1       5.814  42.000  50.324  1.00  0.00    -0.351 OA
BRANCH   7   8
HETATM    8  C9  UNL     1       6.150  43.160  50.956  1.00  0.00     0.292 C 
HETATM    9  O3  UNL     1       5.114  43.726  51.694  1.00  0.00    -0.348 OA
HETATM   10  C10 UNL     1       5.311  45.094  51.827  1.00  0.00     0.179 C 
HETATM   11  C12 UNL     1       6.691  45.514  52.146  1.00  0.00     0.180 C 
HETATM   12  C13 UNL     1       7.748  44.481  52.201  1.00  0.00     0.183 C 
HETATM   13  C14 UNL     1       7.333  43.078  51.858  1.00  0.00     0.204 C 
BRANCH  10  14
HETATM   14  C11 UNL     1       4.277  45.667  52.785  1.00  0.00     0.198 C 
BRANCH  14  15
HETATM   15  O4  UNL     1       4.587  46.965  53.178  1.00  0.00    -0.398 OA
ATOM     16  H4  UNL     1       4.356  47.130  54.085  1.00  0.00     0.209 HD
ENDBRANCH  14  15
ENDBRANCH  10  14
BRANCH  11  17
HETATM   17  O5  UNL     1       7.082  46.592  51.314  1.00  0.00    -0.390 OA
ATOM     18  H5  UNL     1       7.955  46.886  51.544  1.00  0.00     0.210 HD
ENDBRANCH  11  17
BRANCH  12  19
HETATM   19  O6  UNL     1       8.754  44.819  51.264  1.00  0.00    -0.390 OA
ATOM     20  H6  UNL     1       9.061  45.698  51.455  1.00  0.00     0.210 HD
ENDBRANCH  12  19
BRANCH  13  21
HETATM   21  O7  UNL     1       7.076  42.411  53.050  1.00  0.00    -0.388 OA
ATOM     22  H7  UNL     1       7.748  42.540  53.709  1.00  0.00     0.210 HD
ENDBRANCH  13  21
ENDBRANCH   7   8
ENDBRANCH   3   7
BRANCH   4  23
HETATM   23  O8  UNL     1       6.415  38.938  51.849  1.00  0.00    -0.390 OA
ATOM     24  H8  UNL     1       6.201  39.363  52.671  1.00  0.00     0.210 HD
ENDBRANCH   4  23
BRANCH   1  25
HETATM   25  C5  UNL     1       8.897  39.437  47.900  1.00  0.00     0.178 C 
HETATM   26  C2  UNL     1       9.285  38.039  47.616  1.00  0.00    -0.056 C 
HETATM   27  C1  UNL     1       8.790  37.209  46.720  1.00  0.00     0.017 C 
HETATM   28  C3  UNL     1      10.391  37.750  48.560  1.00  0.00     0.062 C 
HETATM   29  C4  UNL     1      10.865  39.120  48.955  1.00  0.00     0.173 C 
HETATM   30  O1  UNL     1      10.052  40.050  48.386  1.00  0.00    -0.379 OA
ENDBRANCH   1  25
BRANCH   5  31
HETATM   31  C17 UNL     1       4.388  38.674  49.005  1.00  0.00     0.149 C 
BRANCH  31  32
HETATM   32  N1  UNL     1       4.098  39.948  48.420  1.00  0.00    -0.415 N 
ATOM     33  H1  UNL     1       4.840  40.585  48.129  1.00  0.00     0.153 HD
BRANCH  32  34
HETATM   34  C18 UNL     1       2.725  40.280  48.265  1.00  0.00     0.076 C 
HETATM   35  C19 UNL     1       2.675  41.773  47.906  1.00  0.00     0.024 C 
HETATM   36  C20 UNL     1       2.540  42.489  49.217  1.00  0.00     0.002 C 
HETATM   37  C21 UNL     1       1.908  41.528  50.165  1.00  0.00     0.002 C 
HETATM   38  C22 UNL     1       1.894  40.170  49.525  1.00  0.00     0.024 C 
ENDBRANCH  32  34
ENDBRANCH  31  32
ENDBRANCH   5  31
TORSDOF 12
ENDMDL
MODEL 4
REMARK VINA RESULT: -6.653461713      2.532      6.730
REMARK  12 active torsions:
REMARK  status: ('A' for Active; 'I' for Inactive)
REMARK    1  A    between atoms: C5_6  and  C6_7 
REMARK    2  A    between atoms: C8_9  and  O2_10 
REMARK    3  A    between atoms: O2_10  and  C9_11 
REMARK    4  A    between atoms: C10_13  and  C11_14 
REMARK    5  A    between atoms: C11_14  and  O4_15 
REMARK    6  A    between atoms: C12_17  and  O5_18 
REMARK    7  A    between atoms: C13_20  and  O6_21 
REMARK    8  A    between atoms: C14_23  and  O7_24 
REMARK    9  A    between atoms: C15_26  and  O8_27 
REMARK   10  A    between atoms: C16_29  and  C17_30 
REMARK   11  A    between atoms: C17_30  and  N1_31 
REMARK   12  A    between atoms: N1_31  and  C18_33 
ROOT
HETATM    1  C6  UNL     1       4.324  40.009  49.902  1.00  0.00     0.158 C 
HETATM    2  C7  UNL     1       5.763  39.634  49.792  1.00  0.00     0.069 C 
HETATM    3  C8  UNL     1       6.492  40.247  50.963  1.00  0.00     0.158 C 
HETATM    4  C15 UNL     1       5.748  41.277  51.725  1.00  0.00     0.177 C 
HETATM    5  C16 UNL     1       4.666  41.998  51.004  1.00  0.00     0.170 C 
HETATM    6  O9  UNL     1       4.285  41.411  49.806  1.00  0.00    -0.373 OA
ENDROOT
BRANCH   3   7
HETATM    7  O2  UNL     1       7.710  40.685  50.511  1.00  0.00    -0.351 OA
BRANCH   7   8
HETATM    8  C9  UNL     1       8.527  41.283  51.424  1.00  0.00     0.292 C 
HETATM    9  O3  UNL     1       9.608  40.499  51.820  1.00  0.00    -0.348 OA
HETATM   10  C10 UNL     1      10.044  40.886  53.080  1.00  0.00     0.179 C 
HETATM   11  C12 UNL     1      10.132  42.342  53.308  1.00  0.00     0.180 C 
HETATM   12  C13 UNL     1       9.668  43.253  52.240  1.00  0.00     0.183 C 
HETATM   13  C14 UNL     1       9.076  42.607  51.019  1.00  0.00     0.204 C 
BRANCH  10  14
HETATM   14  C11 UNL     1      11.332  40.149  53.420  1.00  0.00     0.198 C 
BRANCH  14  15
HETATM   15  O4  UNL     1      12.029  40.762  54.458  1.00  0.00    -0.398 OA
ATOM     16  H4  UNL     1      11.845  40.360  55.299  1.00  0.00     0.209 HD
ENDBRANCH  14  15
ENDBRANCH  10  14
BRANCH  11  17
HETATM   17  O5  UNL     1       9.544  42.682  54.552  1.00  0.00    -0.390 OA
ATOM     18  H5  UNL     1       8.816  43.277  54.420  1.00  0.00     0.210 HD
ENDBRANCH  11  17
BRANCH  12  19
HETATM   19  O6  UNL     1       8.645  44.078  52.767  1.00  0.00    -0.390 OA
ATOM     20  H6  UNL     1       7.828  43.857  52.335  1.00  0.00     0.210 HD
ENDBRANCH  12  19
BRANCH  13  21
HETATM   21  O7  UNL     1      10.078  42.523  50.059  1.00  0.00    -0.388 OA
ATOM     22  H7  UNL     1      10.553  43.336  49.935  1.00  0.00     0.210 HD
ENDBRANCH  13  21
ENDBRANCH   7   8
ENDBRANCH   3   7
BRANCH   4  23
HETATM   23  O8  UNL     1       5.220  40.756  52.930  1.00  0.00    -0.390 OA
ATOM     24  H8  UNL     1       4.317  41.019  53.059  1.00  0.00     0.210 HD
ENDBRANCH   4  23
BRANCH   1  25
HETATM   25  C5  UNL     1       3.556  39.420  48.752  1.00  0.00     0.178 C 
HETATM   26  C2  UNL     1       2.575  40.392  48.223  1.00  0.00    -0.056 C 
HETATM   27  C1  UNL     1       2.709  41.242  47.225  1.00  0.00     0.017 C 
HETATM   28  C3  UNL     1       1.363  40.204  49.056  1.00  0.00     0.062 C 
HETATM   29  C4  UNL     1       1.572  38.840  49.652  1.00  0.00     0.173 C 
HETATM   30  O1  UNL     1       2.796  38.378  49.282  1.00  0.00    -0.379 OA
ENDBRANCH   1  25
BRANCH   5  31
HETATM   31  C17 UNL     1       5.030  43.444  50.694  1.00  0.00     0.149 C 
BRANCH  31  32
HETATM   32  N1  UNL     1       4.044  44.288  51.298  1.00  0.00    -0.415 N 
ATOM     33  H1  UNL     1       3.280  44.691  50.756  1.00  0.00     0.153 HD
BRANCH  32  34
HETATM   34  C18 UNL     1       4.183  44.534  52.690  1.00  0.00     0.076 C 
HETATM   35  C19 UNL     1       2.875  44.069  53.349  1.00  0.00     0.024 C 
HETATM   36  C20 UNL     1       1.995  45.284  53.380  1.00  0.00     0.002 C 
HETATM   37  C21 UNL     1       2.902  46.467  53.368  1.00  0.00     0.002 C 
HETATM   38  C22 UNL     1       4.297  45.994  53.074  1.00  0.00     0.024 C 
ENDBRANCH  32  34
ENDBRANCH  31  32
ENDBRANCH   5  31
TORSDOF 12
ENDMDL
MODEL 5
REMARK VINA RESULT: -6.648697986      3.153      5.950
REMARK  12 active torsions:
REMARK  status: ('A' for Active; 'I' for Inactive)
REMARK    1  A    between atoms: C5_6  and  C6_7 
REMARK    2  A    between atoms: C8_9  and  O2_10 
REMARK    3  A    between atoms: O2_10  and  C9_11 
REMARK    4  A    between atoms: C10_13  and  C11_14 
REMARK    5  A    between atoms: C11_14  and  O4_15 
REMARK    6  A    between atoms: C12_17  and  O5_18 
REMARK    7  A    between atoms: C13_20  and  O6_21 
REMARK    8  A    between atoms: C14_23  and  O7_24 
REMARK    9  A    between atoms: C15_26  and  O8_27 
REMARK   10  A    between atoms: C16_29  and  C17_30 
REMARK   11  A    between atoms: C17_30  and  N1_31 
REMARK   12  A    between atoms: N1_31  and  C18_33 
ROOT
HETATM    1  C6  UNL     1       7.966  45.299  52.338  1.00  0.00     0.158 C 
HETATM    2  C7  UNL     1       6.704  44.916  51.643  1.00  0.00     0.069 C 
HETATM    3  C8  UNL     1       6.545  43.420  51.766  1.00  0.00     0.158 C 
HETATM    4  C15 UNL     1       7.741  42.674  52.222  1.00  0.00     0.177 C 
HETATM    5  C16 UNL     1       9.062  43.310  51.984  1.00  0.00     0.170 C 
HETATM    6  O9  UNL     1       9.000  44.652  51.640  1.00  0.00    -0.373 OA
ENDROOT
BRANCH   3   7
HETATM    7  O2  UNL     1       6.041  42.957  50.578  1.00  0.00    -0.351 OA
BRANCH   7   8
HETATM    8  C9  UNL     1       4.704  42.695  50.535  1.00  0.00     0.292 C 
HETATM    9  O3  UNL     1       4.335  41.780  49.552  1.00  0.00    -0.348 OA
HETATM   10  C10 UNL     1       3.009  41.974  49.189  1.00  0.00     0.179 C 
HETATM   11  C12 UNL     1       2.067  42.202  50.303  1.00  0.00     0.180 C 
HETATM   12  C13 UNL     1       2.608  42.302  51.676  1.00  0.00     0.183 C 
HETATM   13  C14 UNL     1       4.103  42.226  51.814  1.00  0.00     0.204 C 
BRANCH  10  14
HETATM   14  C11 UNL     1       2.569  40.856  48.255  1.00  0.00     0.198 C 
BRANCH  14  15
HETATM   15  O4  UNL     1       3.425  40.714  47.167  1.00  0.00    -0.398 OA
ATOM     16  H4  UNL     1       3.852  39.866  47.156  1.00  0.00     0.209 HD
ENDBRANCH  14  15
ENDBRANCH  10  14
BRANCH  11  17
HETATM   17  O5  UNL     1       1.220  43.301  50.014  1.00  0.00    -0.390 OA
ATOM     18  H5  UNL     1       0.972  43.745  50.816  1.00  0.00     0.210 HD
ENDBRANCH  11  17
BRANCH  12  19
HETATM   19  O6  UNL     1       2.241  43.559  52.213  1.00  0.00    -0.390 OA
ATOM     20  H6  UNL     1       3.005  44.124  52.206  1.00  0.00     0.210 HD
ENDBRANCH  12  19
BRANCH  13  21
HETATM   21  O7  UNL     1       4.430  40.913  52.133  1.00  0.00    -0.388 OA
ATOM     22  H7  UNL     1       5.337  40.801  52.397  1.00  0.00     0.210 HD
ENDBRANCH  13  21
ENDBRANCH   7   8
ENDBRANCH   3   7
BRANCH   4  23
HETATM   23  O8  UNL     1       7.647  42.323  53.590  1.00  0.00    -0.390 OA
ATOM     24  H8  UNL     1       7.833  41.403  53.730  1.00  0.00     0.210 HD
ENDBRANCH   4  23
BRANCH   1  25
HETATM   25  C5  UNL     1       8.168  46.786  52.241  1.00  0.00     0.178 C 
HETATM   26  C2  UNL     1       9.604  47.113  52.108  1.00  0.00    -0.056 C 
HETATM   27  C1  UNL     1      10.308  47.312  51.012  1.00  0.00     0.017 C 
HETATM   28  C3  UNL     1      10.108  47.192  53.500  1.00  0.00     0.062 C 
HETATM   29  C4  UNL     1       8.854  47.387  54.303  1.00  0.00     0.173 C 
HETATM   30  O1  UNL     1       7.780  47.315  53.472  1.00  0.00    -0.379 OA
ENDBRANCH   1  25
BRANCH   5  31
HETATM   31  C17 UNL     1       9.863  42.609  50.894  1.00  0.00     0.149 C 
BRANCH  31  32
HETATM   32  N1  UNL     1       8.939  42.082  49.936  1.00  0.00    -0.415 N 
ATOM     33  H1  UNL     1       8.162  42.639  49.578  1.00  0.00     0.153 HD
BRANCH  32  34
HETATM   34  C18 UNL     1       9.158  40.745  49.508  1.00  0.00     0.076 C 
HETATM   35  C19 UNL     1       7.827  40.250  48.922  1.00  0.00     0.024 C 
HETATM   36  C20 UNL     1       7.107  39.602  50.068  1.00  0.00     0.002 C 
HETATM   37  C21 UNL     1       8.154  39.164  51.035  1.00  0.00     0.002 C 
HETATM   38  C22 UNL     1       9.467  39.761  50.616  1.00  0.00     0.024 C 
ENDBRANCH  32  34
ENDBRANCH  31  32
ENDBRANCH   5  31
TORSDOF 12
ENDMDL
