MODEL 1
REMARK VINA RESULT: -7.458387034      0.000      0.000
REMARK  11 active torsions:
REMARK  status: ('A' for Active; 'I' for Inactive)
REMARK    1  A    between atoms: C5_5  and  O1_6 
REMARK    2  A    between atoms: O1_6  and  C6_7 
REMARK    3  A    between atoms: C7_9  and  C8_10 
REMARK    4  A    between atoms: C8_10  and  O3_11 
REMARK    5  A    between atoms: C9_13  and  O4_14 
REMARK    6  A    between atoms: C10_16  and  N1_17 
REMARK    7  A    between atoms: N1_17  and  C11_19 
REMARK    8  A    between atoms: C11_19  and  C12_20 
REMARK    9  A    between atoms: C12_20  and  O5_21 
REMARK   10  A    between atoms: C13_23  and  O6_24 
REMARK   11  A    between atoms: C17_31  and  C18_32 
ROOT
HETATM    1  C1  UNL     1       8.466  38.442  52.969  1.00  0.00     0.047 C 
HETATM    2  C2  UNL     1       7.807  39.343  51.920  1.00  0.00     0.068 C 
HETATM    3  C3  UNL     1       7.758  38.674  50.570  1.00  0.00     0.041 C 
HETATM    4  C4  UNL     1       6.355  38.375  50.153  1.00  0.00     0.037 C 
HETATM    5  C5  UNL     1       5.487  39.483  49.790  1.00  0.00     0.154 C 
HETATM    6  C13 UNL     1       6.093  40.827  49.563  1.00  0.00     0.160 C 
HETATM    7  C14 UNL     1       6.639  41.518  50.755  1.00  0.00     0.038 C 
HETATM    8  C15 UNL     1       6.188  42.968  50.745  1.00  0.00     0.024 C 
HETATM    9  C16 UNL     1       6.166  40.972  52.075  1.00  0.00     0.273 C 
HETATM   10  O7  UNL     1       6.504  39.656  52.293  1.00  0.00    -0.349 OA
HETATM   11  O8  UNL     1       6.787  41.732  53.068  1.00  0.00    -0.342 OA
HETATM   12  C17 UNL     1       8.168  41.545  53.046  1.00  0.00     0.123 C 
HETATM   13  C19 UNL     1       8.851  42.851  52.611  1.00  0.00     0.046 C 
HETATM   14  C20 UNL     1       8.758  42.823  51.113  1.00  0.00     0.009 C 
HETATM   15  C21 UNL     1       8.141  41.506  50.722  1.00  0.00     0.011 C 
HETATM   16  C22 UNL     1       8.587  40.635  51.907  1.00  0.00     0.067 C 
ENDROOT
BRANCH   5  17
HETATM   17  O1  UNL     1       4.796  39.181  48.613  1.00  0.00    -0.351 OA
BRANCH  17  18
HETATM   18  C6  UNL     1       3.430  39.289  48.730  1.00  0.00     0.285 C 
HETATM   19  O2  UNL     1       2.982  39.215  50.043  1.00  0.00    -0.349 OA
HETATM   20  C7  UNL     1       1.729  39.789  50.083  1.00  0.00     0.179 C 
HETATM   21  C9  UNL     1       1.615  40.718  48.892  1.00  0.00     0.176 C 
HETATM   22  C10 UNL     1       3.033  40.708  48.381  1.00  0.00     0.163 C 
BRANCH  20  23
HETATM   23  C8  UNL     1       0.621  38.761  50.094  1.00  0.00     0.198 C 
BRANCH  23  24
HETATM   24  O3  UNL     1       0.691  37.923  51.202  1.00  0.00    -0.398 OA
ATOM     25  H3  UNL     1       0.008  38.107  51.835  1.00  0.00     0.209 HD
ENDBRANCH  23  24
ENDBRANCH  20  23
BRANCH  21  26
HETATM   26  O4  UNL     1       1.230  41.992  49.318  1.00  0.00    -0.391 OA
ATOM     27  H4  UNL     1       1.111  42.562  48.567  1.00  0.00     0.210 HD
ENDBRANCH  21  26
BRANCH  22  28
HETATM   28  N1  UNL     1       3.185  40.949  47.006  1.00  0.00    -0.408 N 
ATOM     29  H1  UNL     1       4.061  41.308  46.629  1.00  0.00     0.153 HD
BRANCH  28  30
HETATM   30  C11 UNL     1       2.084  40.678  46.164  1.00  0.00     0.140 C 
BRANCH  30  31
HETATM   31  C12 UNL     1       2.348  41.425  44.844  1.00  0.00     0.183 C 
BRANCH  31  32
HETATM   32  O5  UNL     1       3.216  42.495  45.045  1.00  0.00    -0.399 OA
ATOM     33  H5  UNL     1       2.876  43.287  44.645  1.00  0.00     0.209 HD
ENDBRANCH  31  32
ENDBRANCH  30  31
ENDBRANCH  28  30
ENDBRANCH  22  28
ENDBRANCH  17  18
ENDBRANCH   5  17
BRANCH   6  34
HETATM   34  O6  UNL     1       7.017  40.777  48.518  1.00  0.00    -0.392 OA
ATOM     35  H6  UNL     1       7.717  41.402  48.662  1.00  0.00     0.210 HD
ENDBRANCH   6  34
BRANCH  12  36
HETATM   36  C18 UNL     1       8.693  41.130  54.362  1.00  0.00     0.269 C 
HETATM   37  O9  UNL     1       8.436  41.757  55.350  1.00  0.00    -0.304 OA
ENDBRANCH  12  36
TORSDOF 11
ENDMDL
MODEL 2
REMARK VINA RESULT: -6.393007864      1.578      2.261
REMARK  11 active torsions:
REMARK  status: ('A' for Active; 'I' for Inactive)
REMARK    1  A    between atoms: C5_5  and  O1_6 
REMARK    2  A    between atoms: O1_6  and  C6_7 
REMARK    3  A    between atoms: C7_9  and  C8_10 
REMARK    4  A    between atoms: C8_10  and  O3_11 
REMARK    5  A    between atoms: C9_13  and  O4_14 
REMARK    6  A    between atoms: C10_16  and  N1_17 
REMARK    7  A    between atoms: N1_17  and  C11_19 
REMARK    8  A    between atoms: C11_19  and  C12_20 
REMARK    9  A    between atoms: C12_20  and  O5_21 
REMARK   10  A    between atoms: C13_23  and  O6_24 
REMARK   11  A    between atoms: C17_31  and  C18_32 
ROOT
HETATM    1  C1  UNL     1       8.284  35.821  50.412  1.00  0.00     0.047 C 
HETATM    2  C2  UNL     1       7.863  37.272  50.160  1.00  0.00     0.068 C 
HETATM    3  C3  UNL     1       7.466  37.491  48.723  1.00  0.00     0.041 C 
HETATM    4  C4  UNL     1       6.009  37.800  48.594  1.00  0.00     0.037 C 
HETATM    5  C5  UNL     1       5.528  39.087  49.069  1.00  0.00     0.154 C 
HETATM    6  C13 UNL     1       6.521  40.153  49.389  1.00  0.00     0.160 C 
HETATM    7  C14 UNL     1       7.378  39.926  50.577  1.00  0.00     0.038 C 
HETATM    8  C15 UNL     1       7.435  41.198  51.405  1.00  0.00     0.024 C 
HETATM    9  C16 UNL     1       6.879  38.867  51.523  1.00  0.00     0.273 C 
HETATM   10  O7  UNL     1       6.780  37.614  50.964  1.00  0.00    -0.349 OA
HETATM   11  O8  UNL     1       7.810  38.788  52.561  1.00  0.00    -0.342 OA
HETATM   12  C17 UNL     1       9.042  38.336  52.091  1.00  0.00     0.123 C 
HETATM   13  C19 UNL     1      10.074  39.469  52.200  1.00  0.00     0.046 C 
HETATM   14  C20 UNL     1       9.834  40.294  50.969  1.00  0.00     0.009 C 
HETATM   15  C21 UNL     1       8.779  39.593  50.152  1.00  0.00     0.011 C 
HETATM   16  C22 UNL     1       9.023  38.139  50.587  1.00  0.00     0.067 C 
ENDROOT
BRANCH   5  17
HETATM   17  O1  UNL     1       4.666  39.650  48.124  1.00  0.00    -0.351 OA
BRANCH  17  18
HETATM   18  C6  UNL     1       3.348  39.664  48.516  1.00  0.00     0.285 C 
HETATM   19  O2  UNL     1       3.160  39.259  49.831  1.00  0.00    -0.349 OA
HETATM   20  C7  UNL     1       1.938  39.748  50.241  1.00  0.00     0.179 C 
HETATM   21  C9  UNL     1       1.597  40.927  49.354  1.00  0.00     0.176 C 
HETATM   22  C10 UNL     1       2.890  41.105  48.600  1.00  0.00     0.163 C 
BRANCH  20  23
HETATM   23  C8  UNL     1       0.853  38.696  50.209  1.00  0.00     0.198 C 
BRANCH  23  24
HETATM   24  O3  UNL     1       0.828  37.929  51.369  1.00  0.00    -0.398 OA
ATOM     25  H3  UNL     1      -0.028  37.550  51.531  1.00  0.00     0.209 HD
ENDBRANCH  23  24
ENDBRANCH  20  23
BRANCH  21  26
HETATM   26  O4  UNL     1       1.301  42.044  50.140  1.00  0.00    -0.391 OA
ATOM     27  H4  UNL     1       0.376  42.250  50.073  1.00  0.00     0.210 HD
ENDBRANCH  21  26
BRANCH  22  28
HETATM   28  N1  UNL     1       2.776  41.673  47.322  1.00  0.00    -0.408 N 
ATOM     29  H1  UNL     1       3.296  42.513  47.071  1.00  0.00     0.153 HD
BRANCH  28  30
HETATM   30  C11 UNL     1       1.917  41.042  46.395  1.00  0.00     0.140 C 
BRANCH  30  31
HETATM   31  C12 UNL     1       2.355  41.517  44.998  1.00  0.00     0.183 C 
BRANCH  31  32
HETATM   32  O5  UNL     1       3.077  40.526  44.340  1.00  0.00    -0.399 OA
ATOM     33  H5  UNL     1       3.226  39.780  44.910  1.00  0.00     0.209 HD
ENDBRANCH  31  32
ENDBRANCH  30  31
ENDBRANCH  28  30
ENDBRANCH  22  28
ENDBRANCH  17  18
ENDBRANCH   5  17
BRANCH   6  34
HETATM   34  O6  UNL     1       7.271  40.479  48.258  1.00  0.00    -0.392 OA
ATOM     35  H6  UNL     1       7.649  41.346  48.347  1.00  0.00     0.210 HD
ENDBRANCH   6  34
BRANCH  12  36
HETATM   36  C18 UNL     1       9.523  37.158  52.839  1.00  0.00     0.269 C 
HETATM   37  O9  UNL     1      10.685  37.032  53.104  1.00  0.00    -0.304 OA
ENDBRANCH  12  36
TORSDOF 11
ENDMDL
MODEL 3
REMARK VINA RESULT: -6.342711316      1.851      4.203
REMARK  11 active torsions:
REMARK  status: ('A' for Active; 'I' for Inactive)
REMARK    1  A    between atoms: C5_5  and  O1_6 
REMARK    2  A    between atoms: O1_6  and  C6_7 
REMARK    3  A    between atoms: C7_9  and  C8_10 
REMARK    4  A    between atoms: C8_10  and  O3_11 
REMARK    5  A    between atoms: C9_13  and  O4_14 
REMARK    6  A    between atoms: C10_16  and  N1_17 
REMARK    7  A    between atoms: N1_17  and  C11_19 
REMARK    8  A    between atoms: C11_19  and  C12_20 
REMARK    9  A    between atoms: C12_20  and  O5_21 
REMARK   10  A    between atoms: C13_23  and  O6_24 
REMARK   11  A    between atoms: C17_31  and  C18_32 
ROOT
HETATM    1  C1  UNL     1       8.278  44.782  51.700  1.00  0.00     0.047 C 
HETATM    2  C2  UNL     1       7.298  43.611  51.807  1.00  0.00     0.068 C 
HETATM    3  C3  UNL     1       5.895  44.087  52.085  1.00  0.00     0.041 C 
HETATM    4  C4  UNL     1       4.981  43.814  50.935  1.00  0.00     0.037 C 
HETATM    5  C5  UNL     1       4.607  42.436  50.658  1.00  0.00     0.154 C 
HETATM    6  C13 UNL     1       4.898  41.392  51.682  1.00  0.00     0.160 C 
HETATM    7  C14 UNL     1       6.326  41.062  51.905  1.00  0.00     0.038 C 
HETATM    8  C15 UNL     1       6.489  39.552  51.957  1.00  0.00     0.024 C 
HETATM    9  C16 UNL     1       7.258  41.517  50.815  1.00  0.00     0.273 C 
HETATM   10  O7  UNL     1       7.277  42.879  50.624  1.00  0.00    -0.349 OA
HETATM   11  O8  UNL     1       8.543  41.131  51.201  1.00  0.00    -0.342 OA
HETATM   12  C17 UNL     1       8.939  41.806  52.354  1.00  0.00     0.123 C 
HETATM   13  C19 UNL     1       9.057  40.805  53.514  1.00  0.00     0.046 C 
HETATM   14  C20 UNL     1       7.647  40.659  54.006  1.00  0.00     0.009 C 
HETATM   15  C21 UNL     1       6.790  41.618  53.220  1.00  0.00     0.011 C 
HETATM   16  C22 UNL     1       7.831  42.697  52.884  1.00  0.00     0.067 C 
ENDROOT
BRANCH   5  17
HETATM   17  O1  UNL     1       3.232  42.356  50.422  1.00  0.00    -0.351 OA
BRANCH  17  18
HETATM   18  C6  UNL     1       2.909  41.704  49.255  1.00  0.00     0.285 C 
HETATM   19  O2  UNL     1       3.660  42.122  48.163  1.00  0.00    -0.349 OA
HETATM   20  C7  UNL     1       3.598  41.124  47.215  1.00  0.00     0.179 C 
HETATM   21  C9  UNL     1       3.250  39.835  47.930  1.00  0.00     0.176 C 
HETATM   22  C10 UNL     1       3.364  40.265  49.370  1.00  0.00     0.163 C 
BRANCH  20  23
HETATM   23  C8  UNL     1       2.609  41.433  46.113  1.00  0.00     0.198 C 
BRANCH  23  24
HETATM   24  O3  UNL     1       3.147  42.270  45.142  1.00  0.00    -0.398 OA
ATOM     25  H3  UNL     1       3.287  41.820  44.318  1.00  0.00     0.209 HD
ENDBRANCH  23  24
ENDBRANCH  20  23
BRANCH  21  26
HETATM   26  O4  UNL     1       4.185  38.847  47.611  1.00  0.00    -0.391 OA
ATOM     27  H4  UNL     1       3.745  38.016  47.479  1.00  0.00     0.210 HD
ENDBRANCH  21  26
BRANCH  22  28
HETATM   28  N1  UNL     1       2.566  39.555  50.281  1.00  0.00    -0.408 N 
ATOM     29  H1  UNL     1       2.983  38.946  50.984  1.00  0.00     0.153 HD
BRANCH  28  30
HETATM   30  C11 UNL     1       1.165  39.715  50.192  1.00  0.00     0.140 C 
BRANCH  30  31
HETATM   31  C12 UNL     1       0.567  38.297  50.131  1.00  0.00     0.183 C 
BRANCH  31  32
HETATM   32  O5  UNL     1      -0.757  38.298  50.560  1.00  0.00    -0.399 OA
ATOM     33  H5  UNL     1      -1.105  39.182  50.587  1.00  0.00     0.209 HD
ENDBRANCH  31  32
ENDBRANCH  30  31
ENDBRANCH  28  30
ENDBRANCH  22  28
ENDBRANCH  17  18
ENDBRANCH   5  17
BRANCH   6  34
HETATM   34  O6  UNL     1       4.235  41.679  52.876  1.00  0.00    -0.392 OA
ATOM     35  H6  UNL     1       4.172  42.618  53.005  1.00  0.00     0.210 HD
ENDBRANCH   6  34
BRANCH  12  36
HETATM   36  C18 UNL     1      10.227  42.504  52.173  1.00  0.00     0.269 C 
HETATM   37  O9  UNL     1      10.855  42.889  53.119  1.00  0.00    -0.304 OA
ENDBRANCH  12  36
TORSDOF 11
ENDMDL
MODEL 4
REMARK VINA RESULT: -6.336629386      2.781      5.053
REMARK  11 active torsions:
REMARK  status: ('A' for Active; 'I' for Inactive)
REMARK    1  A    between atoms: C5_5  and  O1_6 
REMARK    2  A    between atoms: O1_6  and  C6_7 
REMARK    3  A    between atoms: C7_9  and  C8_10 
REMARK    4  A    between atoms: C8_10  and  O3_11 
REMARK    5  A    between atoms: C9_13  and  O4_14 
REMARK    6  A    between atoms: C10_16  and  N1_17 
REMARK    7  A    between atoms: N1_17  and  C11_19 
REMARK    8  A    between atoms: C11_19  and  C12_20 
REMARK    9  A    between atoms: C12_20  and  O5_21 
REMARK   10  A    between atoms: C13_23  and  O6_24 
REMARK   11  A    between atoms: C17_31  and  C18_32 
ROOT
HETATM    1  C1  UNL     1       9.247  38.269  51.865  1.00  0.00     0.047 C 
HETATM    2  C2  UNL     1       8.147  38.148  50.807  1.00  0.00     0.068 C 
HETATM    3  C3  UNL     1       6.856  38.767  51.279  1.00  0.00     0.041 C 
HETATM    4  C4  UNL     1       6.499  39.977  50.478  1.00  0.00     0.037 C 
HETATM    5  C5  UNL     1       6.070  39.795  49.100  1.00  0.00     0.154 C 
HETATM    6  C13 UNL     1       5.722  38.423  48.630  1.00  0.00     0.160 C 
HETATM    7  C14 UNL     1       6.841  37.459  48.511  1.00  0.00     0.038 C 
HETATM    8  C15 UNL     1       6.726  36.718  47.190  1.00  0.00     0.024 C 
HETATM    9  C16 UNL     1       8.212  38.080  48.492  1.00  0.00     0.273 C 
HETATM   10  O7  UNL     1       8.526  38.785  49.630  1.00  0.00    -0.349 OA
HETATM   11  O8  UNL     1       9.125  37.029  48.387  1.00  0.00    -0.342 OA
HETATM   12  C17 UNL     1       9.084  36.219  49.521  1.00  0.00     0.123 C 
HETATM   13  C19 UNL     1       8.529  34.838  49.140  1.00  0.00     0.046 C 
HETATM   14  C20 UNL     1       7.041  35.034  49.147  1.00  0.00     0.009 C 
HETATM   15  C21 UNL     1       6.772  36.442  49.614  1.00  0.00     0.011 C 
HETATM   16  C22 UNL     1       8.011  36.678  50.491  1.00  0.00     0.067 C 
ENDROOT
BRANCH   5  17
HETATM   17  O1  UNL     1       4.939  40.576  48.847  1.00  0.00    -0.351 OA
BRANCH  17  18
HETATM   18  C6  UNL     1       4.482  41.260  49.949  1.00  0.00     0.285 C 
HETATM   19  O2  UNL     1       4.724  42.627  49.889  1.00  0.00    -0.349 OA
HETATM   20  C7  UNL     1       3.847  43.239  50.759  1.00  0.00     0.179 C 
HETATM   21  C9  UNL     1       2.677  42.298  50.963  1.00  0.00     0.176 C 
HETATM   22  C10 UNL     1       2.968  41.246  49.924  1.00  0.00     0.163 C 
BRANCH  20  23
HETATM   23  C8  UNL     1       4.497  43.610  52.072  1.00  0.00     0.198 C 
BRANCH  23  24
HETATM   24  O3  UNL     1       3.830  44.648  52.715  1.00  0.00    -0.398 OA
ATOM     25  H3  UNL     1       4.008  45.491  52.316  1.00  0.00     0.209 HD
ENDBRANCH  23  24
ENDBRANCH  20  23
BRANCH  21  26
HETATM   26  O4  UNL     1       1.478  42.966  50.698  1.00  0.00    -0.391 OA
ATOM     27  H4  UNL     1       0.773  42.576  51.201  1.00  0.00     0.210 HD
ENDBRANCH  21  26
BRANCH  22  28
HETATM   28  N1  UNL     1       2.472  39.963  50.204  1.00  0.00    -0.408 N 
ATOM     29  H1  UNL     1       2.849  39.408  50.972  1.00  0.00     0.153 HD
BRANCH  28  30
HETATM   30  C11 UNL     1       1.433  39.465  49.386  1.00  0.00     0.140 C 
BRANCH  30  31
HETATM   31  C12 UNL     1       1.125  38.043  49.887  1.00  0.00     0.183 C 
BRANCH  31  32
HETATM   32  O5  UNL     1       0.706  38.063  51.214  1.00  0.00    -0.399 OA
ATOM     33  H5  UNL     1       1.404  38.360  51.786  1.00  0.00     0.209 HD
ENDBRANCH  31  32
ENDBRANCH  30  31
ENDBRANCH  28  30
ENDBRANCH  22  28
ENDBRANCH  17  18
ENDBRANCH   5  17
BRANCH   6  34
HETATM   34  O6  UNL     1       4.661  37.905  49.375  1.00  0.00    -0.392 OA
ATOM     35  H6  UNL     1       4.724  36.959  49.430  1.00  0.00     0.210 HD
ENDBRANCH   6  34
BRANCH  12  36
HETATM   36  C18 UNL     1      10.415  36.062  50.139  1.00  0.00     0.269 C 
HETATM   37  O9  UNL     1      11.376  36.606  49.673  1.00  0.00    -0.304 OA
ENDBRANCH  12  36
TORSDOF 11
ENDMDL
MODEL 5
REMARK VINA RESULT: -6.290352124      2.001      3.980
REMARK  11 active torsions:
REMARK  status: ('A' for Active; 'I' for Inactive)
REMARK    1  A    between atoms: C5_5  and  O1_6 
REMARK    2  A    between atoms: O1_6  and  C6_7 
REMARK    3  A    between atoms: C7_9  and  C8_10 
REMARK    4  A    between atoms: C8_10  and  O3_11 
REMARK    5  A    between atoms: C9_13  and  O4_14 
REMARK    6  A    between atoms: C10_16  and  N1_17 
REMARK    7  A    between atoms: N1_17  and  C11_19 
REMARK    8  A    between atoms: C11_19  and  C12_20 
REMARK    9  A    between atoms: C12_20  and  O5_21 
REMARK   10  A    between atoms: C13_23  and  O6_24 
REMARK   11  A    between atoms: C17_31  and  C18_32 
ROOT
HETATM    1  C1  UNL     1       8.696  43.969  51.206  1.00  0.00     0.047 C 
HETATM    2  C2  UNL     1       8.063  42.645  51.647  1.00  0.00     0.068 C 
HETATM    3  C3  UNL     1       6.581  42.623  51.373  1.00  0.00     0.041 C 
HETATM    4  C4  UNL     1       6.230  41.616  50.326  1.00  0.00     0.037 C 
HETATM    5  C5  UNL     1       6.330  40.204  50.658  1.00  0.00     0.154 C 
HETATM    6  C13 UNL     1       6.490  39.812  52.089  1.00  0.00     0.160 C 
HETATM    7  C14 UNL     1       7.782  40.155  52.730  1.00  0.00     0.038 C 
HETATM    8  C15 UNL     1       8.284  38.958  53.518  1.00  0.00     0.024 C 
HETATM    9  C16 UNL     1       8.895  40.486  51.772  1.00  0.00     0.273 C 
HETATM   10  O7  UNL     1       8.643  41.576  50.972  1.00  0.00    -0.349 OA
HETATM   11  O8  UNL     1      10.014  40.789  52.550  1.00  0.00    -0.342 OA
HETATM   12  C17 UNL     1       9.798  41.942  53.304  1.00  0.00     0.123 C 
HETATM   13  C19 UNL     1       9.742  41.571  54.795  1.00  0.00     0.046 C 
HETATM   14  C20 UNL     1       8.332  41.098  54.994  1.00  0.00     0.009 C 
HETATM   15  C21 UNL     1       7.599  41.293  53.692  1.00  0.00     0.011 C 
HETATM   16  C22 UNL     1       8.391  42.475  53.111  1.00  0.00     0.067 C 
ENDROOT
BRANCH   5  17
HETATM   17  O1  UNL     1       5.192  39.528  50.210  1.00  0.00    -0.351 OA
BRANCH  17  18
HETATM   18  C6  UNL     1       4.351  40.305  49.450  1.00  0.00     0.285 C 
HETATM   19  O2  UNL     1       4.000  39.718  48.240  1.00  0.00    -0.349 OA
HETATM   20  C7  UNL     1       2.842  40.327  47.808  1.00  0.00     0.179 C 
HETATM   21  C9  UNL     1       2.161  40.927  49.021  1.00  0.00     0.176 C 
HETATM   22  C10 UNL     1       3.001  40.356  50.135  1.00  0.00     0.163 C 
BRANCH  20  23
HETATM   23  C8  UNL     1       3.098  41.369  46.742  1.00  0.00     0.198 C 
BRANCH  23  24
HETATM   24  O3  UNL     1       3.298  40.802  45.488  1.00  0.00    -0.398 OA
ATOM     25  H3  UNL     1       3.892  41.314  44.953  1.00  0.00     0.209 HD
ENDBRANCH  23  24
ENDBRANCH  20  23
BRANCH  21  26
HETATM   26  O4  UNL     1       0.838  40.482  49.092  1.00  0.00    -0.391 OA
ATOM     27  H4  UNL     1       0.261  41.212  49.283  1.00  0.00     0.210 HD
ENDBRANCH  21  26
BRANCH  22  28
HETATM   28  N1  UNL     1       3.060  41.125  51.307  1.00  0.00    -0.408 N 
ATOM     29  H1  UNL     1       3.348  40.712  52.194  1.00  0.00     0.153 HD
BRANCH  28  30
HETATM   30  C11 UNL     1       2.707  42.490  51.218  1.00  0.00     0.140 C 
BRANCH  30  31
HETATM   31  C12 UNL     1       2.939  43.094  52.615  1.00  0.00     0.183 C 
BRANCH  31  32
HETATM   32  O5  UNL     1       1.838  43.843  53.021  1.00  0.00    -0.399 OA
ATOM     33  H5  UNL     1       2.075  44.755  53.143  1.00  0.00     0.209 HD
ENDBRANCH  31  32
ENDBRANCH  30  31
ENDBRANCH  28  30
ENDBRANCH  22  28
ENDBRANCH  17  18
ENDBRANCH   5  17
BRANCH   6  34
HETATM   34  O6  UNL     1       5.400  40.250  52.841  1.00  0.00    -0.392 OA
ATOM     35  H6  UNL     1       5.225  41.168  52.672  1.00  0.00     0.210 HD
ENDBRANCH   6  34
BRANCH  12  36
HETATM   36  C18 UNL     1      10.852  42.952  53.087  1.00  0.00     0.269 C 
HETATM   37  O9  UNL     1      11.049  43.817  53.893  1.00  0.00    -0.304 OA
ENDBRANCH  12  36
TORSDOF 11
ENDMDL
