MODEL 1
REMARK VINA RESULT: -7.359539103      0.000      0.000
REMARK  13 active torsions:
REMARK  status: ('A' for Active; 'I' for Inactive)
REMARK    1  A    between atoms: C2_2  and  C3_3 
REMARK    2  A    between atoms: C3_3  and  C4_4 
REMARK    3  A    between atoms: C9_9  and  O1_10 
REMARK    4  A    between atoms: O1_10  and  C10_11 
REMARK    5  A    between atoms: C12_13  and  O2_14 
REMARK    6  A    between atoms: C13_16  and  O3_17 
REMARK    7  A    between atoms: C14_19  and  C15_20 
REMARK    8  A    between atoms: C15_20  and  O4_21 
REMARK    9  A    between atoms: O4_21  and  C16_22 
REMARK   10  A    between atoms: C17_24  and  C18_25 
REMARK   11  A    between atoms: C19_28  and  O8_29 
REMARK   12  A    between atoms: C20_31  and  O9_32 
REMARK   13  A    between atoms: C21_34  and  O10_35 
ROOT
HETATM    1  C10 UNL     1       7.442  40.421  52.461  1.00  0.00     0.263 C 
HETATM    2  C11 UNL     1       7.953  39.354  53.407  1.00  0.00     0.095 C 
HETATM    3  C12 UNL     1       7.963  38.023  52.687  1.00  0.00     0.154 C 
HETATM    4  C13 UNL     1       7.618  38.190  51.237  1.00  0.00     0.178 C 
HETATM    5  C14 UNL     1       6.373  39.010  51.017  1.00  0.00     0.179 C 
HETATM    6  O11 UNL     1       6.219  40.020  51.951  1.00  0.00    -0.351 OA
ENDROOT
BRANCH   5   7
HETATM    7  C15 UNL     1       6.450  39.572  49.612  1.00  0.00     0.205 C 
BRANCH   7   8
HETATM    8  O4  UNL     1       5.296  39.432  48.891  1.00  0.00    -0.356 OA
BRANCH   8   9
HETATM    9  C16 UNL     1       4.638  40.580  48.543  1.00  0.00     0.292 C 
HETATM   10  O5  UNL     1       3.776  40.233  47.475  1.00  0.00    -0.340 OA
HETATM   11  C17 UNL     1       3.104  41.320  46.972  1.00  0.00     0.256 C 
HETATM   12  C19 UNL     1       2.049  41.698  48.019  1.00  0.00     0.189 C 
HETATM   13  C20 UNL     1       2.799  42.137  49.247  1.00  0.00     0.183 C 
HETATM   14  C21 UNL     1       3.859  41.190  49.683  1.00  0.00     0.204 C 
BRANCH  11  15
HETATM   15  C18 UNL     1       2.454  40.920  45.707  1.00  0.00     0.206 C 
HETATM   16  O6  UNL     1       3.090  40.612  44.670  1.00  0.00    -0.646 OA
HETATM   17  O7  UNL     1       1.071  40.879  45.646  1.00  0.00    -0.646 OA
ENDBRANCH  11  15
BRANCH  12  18
HETATM   18  O8  UNL     1       1.300  40.580  48.338  1.00  0.00    -0.390 OA
ATOM     19  H8  UNL     1       0.873  40.717  49.176  1.00  0.00     0.210 HD
ENDBRANCH  12  18
BRANCH  13  20
HETATM   20  O9  UNL     1       1.860  42.247  50.281  1.00  0.00    -0.390 OA
ATOM     21  H9  UNL     1       1.820  43.166  50.521  1.00  0.00     0.210 HD
ENDBRANCH  13  20
BRANCH  14  22
HETATM   22  O10 UNL     1       3.317  40.215  50.529  1.00  0.00    -0.388 OA
ATOM     23  H10 UNL     1       3.850  40.081  51.304  1.00  0.00     0.210 HD
ENDBRANCH  14  22
ENDBRANCH   8   9
ENDBRANCH   7   8
ENDBRANCH   5   7
BRANCH   4  24
HETATM   24  O3  UNL     1       7.342  36.897  50.739  1.00  0.00    -0.390 OA
ATOM     25  H3  UNL     1       8.119  36.617  50.272  1.00  0.00     0.210 HD
ENDBRANCH   4  24
BRANCH   3  26
HETATM   26  O2  UNL     1       7.067  37.112  53.275  1.00  0.00    -0.393 OA
ATOM     27  H2  UNL     1       7.452  36.246  53.353  1.00  0.00     0.210 HD
ENDBRANCH   3  26
BRANCH   1  28
HETATM   28  O1  UNL     1       7.496  41.664  52.968  1.00  0.00    -0.356 OA
BRANCH  28  29
HETATM   29  C9  UNL     1       8.107  42.669  52.299  1.00  0.00     0.129 C 
HETATM   30  C4  UNL     1       7.354  43.962  52.250  1.00  0.00     0.018 C 
HETATM   31  C5  UNL     1       8.216  45.008  51.583  1.00  0.00     0.007 C 
HETATM   32  C6  UNL     1       9.666  44.593  51.465  1.00  0.00     0.001 C 
HETATM   33  C7  UNL     1       9.832  43.292  50.722  1.00  0.00     0.002 C 
HETATM   34  C8  UNL     1       8.637  42.365  50.947  1.00  0.00     0.032 C 
BRANCH  30  35
HETATM   35  C3  UNL     1       6.091  43.898  51.437  1.00  0.00     0.033 C 
BRANCH  35  36
HETATM   36  C2  UNL     1       5.409  45.218  51.541  1.00  0.00    -0.036 C 
HETATM   37  C1  UNL     1       4.670  45.552  52.599  1.00  0.00     0.007 C 
ENDBRANCH  35  36
ENDBRANCH  30  35
ENDBRANCH  28  29
ENDBRANCH   1  28
TORSDOF 13
ENDMDL
MODEL 2
REMARK VINA RESULT: -7.090053295      1.849      2.875
REMARK  13 active torsions:
REMARK  status: ('A' for Active; 'I' for Inactive)
REMARK    1  A    between atoms: C2_2  and  C3_3 
REMARK    2  A    between atoms: C3_3  and  C4_4 
REMARK    3  A    between atoms: C9_9  and  O1_10 
REMARK    4  A    between atoms: O1_10  and  C10_11 
REMARK    5  A    between atoms: C12_13  and  O2_14 
REMARK    6  A    between atoms: C13_16  and  O3_17 
REMARK    7  A    between atoms: C14_19  and  C15_20 
REMARK    8  A    between atoms: C15_20  and  O4_21 
REMARK    9  A    between atoms: O4_21  and  C16_22 
REMARK   10  A    between atoms: C17_24  and  C18_25 
REMARK   11  A    between atoms: C19_28  and  O8_29 
REMARK   12  A    between atoms: C20_31  and  O9_32 
REMARK   13  A    between atoms: C21_34  and  O10_35 
ROOT
HETATM    1  C10 UNL     1       7.385  40.251  50.509  1.00  0.00     0.263 C 
HETATM    2  C11 UNL     1       8.664  40.641  49.798  1.00  0.00     0.095 C 
HETATM    3  C12 UNL     1       8.801  39.810  48.541  1.00  0.00     0.154 C 
HETATM    4  C13 UNL     1       7.575  38.978  48.307  1.00  0.00     0.178 C 
HETATM    5  C14 UNL     1       7.145  38.204  49.526  1.00  0.00     0.179 C 
HETATM    6  O11 UNL     1       7.383  38.881  50.709  1.00  0.00    -0.351 OA
ENDROOT
BRANCH   5   7
HETATM    7  C15 UNL     1       5.672  37.892  49.360  1.00  0.00     0.205 C 
BRANCH   7   8
HETATM    8  O4  UNL     1       5.090  38.498  48.281  1.00  0.00    -0.356 OA
BRANCH   8   9
HETATM    9  C16 UNL     1       4.376  39.641  48.521  1.00  0.00     0.292 C 
HETATM   10  O5  UNL     1       3.669  39.921  47.327  1.00  0.00    -0.340 OA
HETATM   11  C17 UNL     1       2.963  41.098  47.402  1.00  0.00     0.256 C 
HETATM   12  C19 UNL     1       1.771  40.827  48.330  1.00  0.00     0.189 C 
HETATM   13  C20 UNL     1       2.343  40.534  49.691  1.00  0.00     0.183 C 
HETATM   14  C21 UNL     1       3.428  39.518  49.689  1.00  0.00     0.204 C 
BRANCH  11  15
HETATM   15  C18 UNL     1       2.491  41.444  46.047  1.00  0.00     0.206 C 
HETATM   16  O6  UNL     1       1.414  41.020  45.560  1.00  0.00    -0.646 OA
HETATM   17  O7  UNL     1       3.266  42.279  45.258  1.00  0.00    -0.646 OA
ENDBRANCH  11  15
BRANCH  12  18
HETATM   18  O8  UNL     1       1.092  39.707  47.889  1.00  0.00    -0.390 OA
ATOM     19  H8  UNL     1       0.973  39.762  46.948  1.00  0.00     0.210 HD
ENDBRANCH  12  18
BRANCH  13  20
HETATM   20  O9  UNL     1       1.292  40.049  50.479  1.00  0.00    -0.390 OA
ATOM     21  H9  UNL     1       0.829  39.404  49.957  1.00  0.00     0.210 HD
ENDBRANCH  13  20
BRANCH  14  22
HETATM   22  O10 UNL     1       2.885  38.232  49.790  1.00  0.00    -0.388 OA
ATOM     23  H10 UNL     1       3.205  37.770  50.556  1.00  0.00     0.210 HD
ENDBRANCH  14  22
ENDBRANCH   8   9
ENDBRANCH   7   8
ENDBRANCH   5   7
BRANCH   4  24
HETATM   24  O3  UNL     1       7.920  38.024  47.324  1.00  0.00    -0.390 OA
ATOM     25  H3  UNL     1       7.103  37.683  46.981  1.00  0.00     0.210 HD
ENDBRANCH   4  24
BRANCH   3  26
HETATM   26  O2  UNL     1       9.928  38.969  48.600  1.00  0.00    -0.393 OA
ATOM     27  H2  UNL     1      10.714  39.420  48.314  1.00  0.00     0.210 HD
ENDBRANCH   3  26
BRANCH   1  28
HETATM   28  O1  UNL     1       7.111  41.009  51.584  1.00  0.00    -0.356 OA
BRANCH  28  29
HETATM   29  C9  UNL     1       6.065  41.868  51.589  1.00  0.00     0.129 C 
HETATM   30  C4  UNL     1       6.348  43.233  51.044  1.00  0.00     0.018 C 
HETATM   31  C5  UNL     1       5.060  44.023  51.003  1.00  0.00     0.007 C 
HETATM   32  C6  UNL     1       3.831  43.160  51.180  1.00  0.00     0.001 C 
HETATM   33  C7  UNL     1       3.865  42.367  52.462  1.00  0.00     0.002 C 
HETATM   34  C8  UNL     1       5.296  41.999  52.851  1.00  0.00     0.032 C 
BRANCH  30  35
HETATM   35  C3  UNL     1       7.293  44.039  51.890  1.00  0.00     0.033 C 
BRANCH  35  36
HETATM   36  C2  UNL     1       6.785  45.438  51.943  1.00  0.00    -0.036 C 
HETATM   37  C1  UNL     1       7.573  46.467  52.257  1.00  0.00     0.007 C 
ENDBRANCH  35  36
ENDBRANCH  30  35
ENDBRANCH  28  29
ENDBRANCH   1  28
TORSDOF 13
ENDMDL
MODEL 3
REMARK VINA RESULT: -7.069016387      1.783      1.996
REMARK  13 active torsions:
REMARK  status: ('A' for Active; 'I' for Inactive)
REMARK    1  A    between atoms: C2_2  and  C3_3 
REMARK    2  A    between atoms: C3_3  and  C4_4 
REMARK    3  A    between atoms: C9_9  and  O1_10 
REMARK    4  A    between atoms: O1_10  and  C10_11 
REMARK    5  A    between atoms: C12_13  and  O2_14 
REMARK    6  A    between atoms: C13_16  and  O3_17 
REMARK    7  A    between atoms: C14_19  and  C15_20 
REMARK    8  A    between atoms: C15_20  and  O4_21 
REMARK    9  A    between atoms: O4_21  and  C16_22 
REMARK   10  A    between atoms: C17_24  and  C18_25 
REMARK   11  A    between atoms: C19_28  and  O8_29 
REMARK   12  A    between atoms: C20_31  and  O9_32 
REMARK   13  A    between atoms: C21_34  and  O10_35 
ROOT
HETATM    1  C10 UNL     1       7.573  41.093  52.747  1.00  0.00     0.263 C 
HETATM    2  C11 UNL     1       8.010  40.006  53.709  1.00  0.00     0.095 C 
HETATM    3  C12 UNL     1       7.769  38.658  53.068  1.00  0.00     0.154 C 
HETATM    4  C13 UNL     1       7.324  38.808  51.642  1.00  0.00     0.178 C 
HETATM    5  C14 UNL     1       6.194  39.789  51.478  1.00  0.00     0.179 C 
HETATM    6  O11 UNL     1       6.266  40.851  52.362  1.00  0.00    -0.351 OA
ENDROOT
BRANCH   5   7
HETATM    7  C15 UNL     1       6.225  40.270  50.041  1.00  0.00     0.205 C 
BRANCH   7   8
HETATM    8  O4  UNL     1       5.538  41.432  49.826  1.00  0.00    -0.356 OA
BRANCH   8   9
HETATM    9  C16 UNL     1       4.317  41.329  49.216  1.00  0.00     0.292 C 
HETATM   10  O5  UNL     1       3.750  40.114  49.671  1.00  0.00    -0.340 OA
HETATM   11  C17 UNL     1       2.543  39.845  49.072  1.00  0.00     0.256 C 
HETATM   12  C19 UNL     1       1.531  40.826  49.679  1.00  0.00     0.189 C 
HETATM   13  C20 UNL     1       1.965  42.204  49.262  1.00  0.00     0.183 C 
HETATM   14  C21 UNL     1       3.401  42.492  49.513  1.00  0.00     0.204 C 
BRANCH  11  15
HETATM   15  C18 UNL     1       2.166  38.453  49.391  1.00  0.00     0.206 C 
HETATM   16  O6  UNL     1       2.960  37.484  49.302  1.00  0.00    -0.646 OA
HETATM   17  O7  UNL     1       0.874  38.186  49.812  1.00  0.00    -0.646 OA
ENDBRANCH  11  15
BRANCH  12  18
HETATM   18  O8  UNL     1       1.587  40.746  51.058  1.00  0.00    -0.390 OA
ATOM     19  H8  UNL     1       0.725  40.915  51.417  1.00  0.00     0.210 HD
ENDBRANCH  12  18
BRANCH  13  20
HETATM   20  O9  UNL     1       1.201  43.114  50.004  1.00  0.00    -0.390 OA
ATOM     21  H9  UNL     1       1.403  43.981  49.672  1.00  0.00     0.210 HD
ENDBRANCH  13  20
BRANCH  14  22
HETATM   22  O10 UNL     1       3.576  42.978  50.813  1.00  0.00    -0.388 OA
ATOM     23  H10 UNL     1       4.442  43.349  50.941  1.00  0.00     0.210 HD
ENDBRANCH  14  22
ENDBRANCH   8   9
ENDBRANCH   7   8
ENDBRANCH   5   7
BRANCH   4  24
HETATM   24  O3  UNL     1       6.826  37.548  51.243  1.00  0.00    -0.390 OA
ATOM     25  H3  UNL     1       6.414  37.166  52.009  1.00  0.00     0.210 HD
ENDBRANCH   4  24
BRANCH   3  26
HETATM   26  O2  UNL     1       6.809  37.913  53.777  1.00  0.00    -0.393 OA
ATOM     27  H2  UNL     1       6.921  38.005  54.716  1.00  0.00     0.210 HD
ENDBRANCH   3  26
BRANCH   1  28
HETATM   28  O1  UNL     1       7.846  42.336  53.177  1.00  0.00    -0.356 OA
BRANCH  28  29
HETATM   29  C9  UNL     1       8.477  43.231  52.381  1.00  0.00     0.129 C 
HETATM   30  C4  UNL     1       7.850  44.588  52.312  1.00  0.00     0.018 C 
HETATM   31  C5  UNL     1       8.734  45.498  51.491  1.00  0.00     0.007 C 
HETATM   32  C6  UNL     1      10.117  44.931  51.264  1.00  0.00     0.001 C 
HETATM   33  C7  UNL     1      10.082  43.576  50.604  1.00  0.00     0.002 C 
HETATM   34  C8  UNL     1       8.834  42.792  51.009  1.00  0.00     0.032 C 
BRANCH  30  35
HETATM   35  C3  UNL     1       6.509  44.602  51.632  1.00  0.00     0.033 C 
BRANCH  35  36
HETATM   36  C2  UNL     1       5.768  45.807  52.098  1.00  0.00    -0.036 C 
HETATM   37  C1  UNL     1       4.586  45.719  52.710  1.00  0.00     0.007 C 
ENDBRANCH  35  36
ENDBRANCH  30  35
ENDBRANCH  28  29
ENDBRANCH   1  28
TORSDOF 13
ENDMDL
MODEL 4
REMARK VINA RESULT: -7.017176453      2.153      3.340
REMARK  13 active torsions:
REMARK  status: ('A' for Active; 'I' for Inactive)
REMARK    1  A    between atoms: C2_2  and  C3_3 
REMARK    2  A    between atoms: C3_3  and  C4_4 
REMARK    3  A    between atoms: C9_9  and  O1_10 
REMARK    4  A    between atoms: O1_10  and  C10_11 
REMARK    5  A    between atoms: C12_13  and  O2_14 
REMARK    6  A    between atoms: C13_16  and  O3_17 
REMARK    7  A    between atoms: C14_19  and  C15_20 
REMARK    8  A    between atoms: C15_20  and  O4_21 
REMARK    9  A    between atoms: O4_21  and  C16_22 
REMARK   10  A    between atoms: C17_24  and  C18_25 
REMARK   11  A    between atoms: C19_28  and  O8_29 
REMARK   12  A    between atoms: C20_31  and  O9_32 
REMARK   13  A    between atoms: C21_34  and  O10_35 
ROOT
HETATM    1  C10 UNL     1       7.938  40.648  49.924  1.00  0.00     0.263 C 
HETATM    2  C11 UNL     1       9.207  40.350  49.152  1.00  0.00     0.095 C 
HETATM    3  C12 UNL     1       8.935  39.231  48.172  1.00  0.00     0.154 C 
HETATM    4  C13 UNL     1       7.479  38.868  48.156  1.00  0.00     0.178 C 
HETATM    5  C14 UNL     1       6.910  38.646  49.533  1.00  0.00     0.179 C 
HETATM    6  O11 UNL     1       7.471  39.474  50.490  1.00  0.00    -0.351 OA
ENDROOT
BRANCH   5   7
HETATM    7  C15 UNL     1       5.413  38.856  49.437  1.00  0.00     0.205 C 
BRANCH   7   8
HETATM    8  O4  UNL     1       5.006  39.454  48.276  1.00  0.00    -0.356 OA
BRANCH   8   9
HETATM    9  C16 UNL     1       3.692  39.831  48.199  1.00  0.00     0.292 C 
HETATM   10  O5  UNL     1       3.004  39.063  49.169  1.00  0.00    -0.340 OA
HETATM   11  C17 UNL     1       1.648  39.288  49.146  1.00  0.00     0.256 C 
HETATM   12  C19 UNL     1       1.432  40.683  49.746  1.00  0.00     0.189 C 
HETATM   13  C20 UNL     1       2.086  41.661  48.808  1.00  0.00     0.183 C 
HETATM   14  C21 UNL     1       3.480  41.307  48.436  1.00  0.00     0.204 C 
BRANCH  11  15
HETATM   15  C18 UNL     1       0.993  38.261  49.982  1.00  0.00     0.206 C 
HETATM   16  O6  UNL     1       1.540  37.177  50.300  1.00  0.00    -0.646 OA
HETATM   17  O7  UNL     1      -0.292  38.490  50.444  1.00  0.00    -0.646 OA
ENDBRANCH  11  15
BRANCH  12  18
HETATM   18  O8  UNL     1       2.067  40.758  50.972  1.00  0.00    -0.390 OA
ATOM     19  H8  UNL     1       1.993  41.642  51.310  1.00  0.00     0.210 HD
ENDBRANCH  12  18
BRANCH  13  20
HETATM   20  O9  UNL     1       2.109  42.900  49.462  1.00  0.00    -0.390 OA
ATOM     21  H9  UNL     1       2.002  43.567  48.794  1.00  0.00     0.210 HD
ENDBRANCH  13  20
BRANCH  14  22
HETATM   22  O10 UNL     1       4.377  41.821  49.379  1.00  0.00    -0.388 OA
ATOM     23  H10 UNL     1       4.795  42.618  49.075  1.00  0.00     0.210 HD
ENDBRANCH  14  22
ENDBRANCH   8   9
ENDBRANCH   7   8
ENDBRANCH   5   7
BRANCH   4  24
HETATM   24  O3  UNL     1       7.381  37.634  47.475  1.00  0.00    -0.390 OA
ATOM     25  H3  UNL     1       6.525  37.279  47.684  1.00  0.00     0.210 HD
ENDBRANCH   4  24
BRANCH   3  26
HETATM   26  O2  UNL     1       9.694  38.085  48.474  1.00  0.00    -0.393 OA
ATOM     27  H2  UNL     1       9.523  37.777  49.356  1.00  0.00     0.210 HD
ENDBRANCH   3  26
BRANCH   1  28
HETATM   28  O1  UNL     1       8.041  41.704  50.748  1.00  0.00    -0.356 OA
BRANCH  28  29
HETATM   29  C9  UNL     1       6.972  42.160  51.442  1.00  0.00     0.129 C 
HETATM   30  C4  UNL     1       6.707  43.629  51.327  1.00  0.00     0.018 C 
HETATM   31  C5  UNL     1       5.421  43.955  52.051  1.00  0.00     0.007 C 
HETATM   32  C6  UNL     1       4.601  42.728  52.379  1.00  0.00     0.001 C 
HETATM   33  C7  UNL     1       5.370  41.725  53.201  1.00  0.00     0.002 C 
HETATM   34  C8  UNL     1       6.860  41.757  52.866  1.00  0.00     0.032 C 
BRANCH  30  35
HETATM   35  C3  UNL     1       7.762  44.487  51.968  1.00  0.00     0.033 C 
BRANCH  35  36
HETATM   36  C2  UNL     1       7.256  45.887  52.009  1.00  0.00    -0.036 C 
HETATM   37  C1  UNL     1       7.960  46.879  52.554  1.00  0.00     0.007 C 
ENDBRANCH  35  36
ENDBRANCH  30  35
ENDBRANCH  28  29
ENDBRANCH   1  28
TORSDOF 13
ENDMDL
MODEL 5
REMARK VINA RESULT: -6.978686871      2.598      8.210
REMARK  13 active torsions:
REMARK  status: ('A' for Active; 'I' for Inactive)
REMARK    1  A    between atoms: C2_2  and  C3_3 
REMARK    2  A    between atoms: C3_3  and  C4_4 
REMARK    3  A    between atoms: C9_9  and  O1_10 
REMARK    4  A    between atoms: O1_10  and  C10_11 
REMARK    5  A    between atoms: C12_13  and  O2_14 
REMARK    6  A    between atoms: C13_16  and  O3_17 
REMARK    7  A    between atoms: C14_19  and  C15_20 
REMARK    8  A    between atoms: C15_20  and  O4_21 
REMARK    9  A    between atoms: O4_21  and  C16_22 
REMARK   10  A    between atoms: C17_24  and  C18_25 
REMARK   11  A    between atoms: C19_28  and  O8_29 
REMARK   12  A    between atoms: C20_31  and  O9_32 
REMARK   13  A    between atoms: C21_34  and  O10_35 
ROOT
HETATM    1  C10 UNL     1       4.355  42.571  51.026  1.00  0.00     0.263 C 
HETATM    2  C11 UNL     1       4.760  44.026  50.906  1.00  0.00     0.095 C 
HETATM    3  C12 UNL     1       6.168  44.190  51.435  1.00  0.00     0.154 C 
HETATM    4  C13 UNL     1       6.779  42.860  51.768  1.00  0.00     0.178 C 
HETATM    5  C14 UNL     1       5.886  41.998  52.621  1.00  0.00     0.179 C 
HETATM    6  O11 UNL     1       4.542  42.161  52.335  1.00  0.00    -0.351 OA
ENDROOT
BRANCH   5   7
HETATM    7  C15 UNL     1       6.320  40.562  52.412  1.00  0.00     0.205 C 
BRANCH   7   8
HETATM    8  O4  UNL     1       6.214  39.778  53.528  1.00  0.00    -0.356 OA
BRANCH   8   9
HETATM    9  C16 UNL     1       7.350  39.598  54.272  1.00  0.00     0.292 C 
HETATM   10  O5  UNL     1       7.268  40.518  55.345  1.00  0.00    -0.340 OA
HETATM   11  C17 UNL     1       8.391  40.499  56.135  1.00  0.00     0.256 C 
HETATM   12  C19 UNL     1       8.334  39.190  56.934  1.00  0.00     0.189 C 
HETATM   13  C20 UNL     1       8.444  38.071  55.935  1.00  0.00     0.183 C 
HETATM   14  C21 UNL     1       7.510  38.188  54.785  1.00  0.00     0.204 C 
BRANCH  11  15
HETATM   15  C18 UNL     1       8.339  41.660  57.047  1.00  0.00     0.206 C 
HETATM   16  O6  UNL     1       7.577  41.723  58.043  1.00  0.00    -0.646 OA
HETATM   17  O7  UNL     1       9.165  42.744  56.802  1.00  0.00    -0.646 OA
ENDBRANCH  11  15
BRANCH  12  18
HETATM   18  O8  UNL     1       7.110  39.093  57.569  1.00  0.00    -0.390 OA
ATOM     19  H8  UNL     1       7.237  39.155  58.508  1.00  0.00     0.210 HD
ENDBRANCH  12  18
BRANCH  13  20
HETATM   20  O9  UNL     1       8.149  36.883  56.618  1.00  0.00    -0.390 OA
ATOM     21  H9  UNL     1       7.320  37.019  57.063  1.00  0.00     0.210 HD
ENDBRANCH  13  20
BRANCH  14  22
HETATM   22  O10 UNL     1       6.279  37.603  55.101  1.00  0.00    -0.388 OA
ATOM     23  H10 UNL     1       6.378  36.855  55.679  1.00  0.00     0.210 HD
ENDBRANCH  14  22
ENDBRANCH   8   9
ENDBRANCH   7   8
ENDBRANCH   5   7
BRANCH   4  24
HETATM   24  O3  UNL     1       7.933  43.131  52.536  1.00  0.00    -0.390 OA
ATOM     25  H3  UNL     1       8.678  42.934  51.981  1.00  0.00     0.210 HD
ENDBRANCH   4  24
BRANCH   3  26
HETATM   26  O2  UNL     1       6.197  45.012  52.576  1.00  0.00    -0.393 OA
ATOM     27  H2  UNL     1       6.722  45.791  52.431  1.00  0.00     0.210 HD
ENDBRANCH   3  26
BRANCH   1  28
HETATM   28  O1  UNL     1       3.159  42.296  50.482  1.00  0.00    -0.356 OA
BRANCH  28  29
HETATM   29  C9  UNL     1       2.897  41.085  49.937  1.00  0.00     0.129 C 
HETATM   30  C4  UNL     1       3.522  40.830  48.601  1.00  0.00     0.018 C 
HETATM   31  C5  UNL     1       3.240  39.403  48.190  1.00  0.00     0.007 C 
HETATM   32  C6  UNL     1       2.734  38.549  49.331  1.00  0.00     0.001 C 
HETATM   33  C7  UNL     1       1.491  39.117  49.967  1.00  0.00     0.002 C 
HETATM   34  C8  UNL     1       1.480  40.643  49.903  1.00  0.00     0.032 C 
BRANCH  30  35
HETATM   35  C3  UNL     1       2.965  41.686  47.498  1.00  0.00     0.033 C 
BRANCH  35  36
HETATM   36  C2  UNL     1       2.604  40.797  46.360  1.00  0.00    -0.036 C 
HETATM   37  C1  UNL     1       2.268  41.278  45.163  1.00  0.00     0.007 C 
ENDBRANCH  35  36
ENDBRANCH  30  35
ENDBRANCH  28  29
ENDBRANCH   1  28
TORSDOF 13
ENDMDL
