MODEL 1
REMARK VINA RESULT: -6.504746060      0.000      0.000
REMARK  12 active torsions:
REMARK  status: ('A' for Active; 'I' for Inactive)
REMARK    1  A    between atoms: C2_2  and  C4_4 
REMARK    2  A    between atoms: C5_6  and  O2_7 
REMARK    3  A    between atoms: O2_7  and  C6_8 
REMARK    4  A    between atoms: C9_12  and  C10_13 
REMARK    5  A    between atoms: C10_13  and  N1_14 
REMARK    6  A    between atoms: C12_17  and  O4_18 
REMARK    7  A    between atoms: O4_18  and  C13_19 
REMARK    8  A    between atoms: C16_22  and  O5_23 
REMARK    9  A    between atoms: C17_25  and  O6_26 
REMARK   10  A    between atoms: C18_28  and  O7_29 
REMARK   11  A    between atoms: C20_32  and  N2_33 
REMARK   12  A    between atoms: C21_37  and  O8_38 
ROOT
HETATM    1  C6  UNL     1       3.863  41.852  49.810  1.00  0.00     0.184 C 
HETATM    2  C7  UNL     1       2.683  41.044  50.305  1.00  0.00     0.149 C 
HETATM    3  C8  UNL     1       1.930  40.354  49.247  1.00  0.00     0.042 C 
HETATM    4  O3  UNL     1       1.920  42.012  50.971  1.00  0.00    -0.374 OA
HETATM    5  C9  UNL     1       2.823  42.793  51.603  1.00  0.00     0.170 C 
HETATM    6  C12 UNL     1       4.220  42.207  51.503  1.00  0.00     0.184 C 
ENDROOT
BRANCH   1   7
HETATM    7  O2  UNL     1       4.798  41.202  49.337  1.00  0.00    -0.351 OA
BRANCH   7   8
HETATM    8  C5  UNL     1       5.406  40.223  48.808  1.00  0.00     0.263 C 
HETATM    9  O1  UNL     1       6.755  40.374  48.610  1.00  0.00    -0.349 OA
HETATM   10  C4  UNL     1       7.535  39.923  49.673  1.00  0.00     0.183 C 
HETATM   11  C21 UNL     1       7.566  38.417  49.729  1.00  0.00     0.181 C 
HETATM   12  C20 UNL     1       6.207  37.952  49.141  1.00  0.00     0.219 C 
HETATM   13  C19 UNL     1       5.238  38.929  49.766  1.00  0.00     0.096 C 
BRANCH  10  14
HETATM   14  C2  UNL     1       8.917  40.410  49.585  1.00  0.00    -0.062 C 
HETATM   15  C1  UNL     1       9.402  40.968  48.446  1.00  0.00     0.016 C 
HETATM   16  C3  UNL     1       9.873  40.384  50.724  1.00  0.00     0.045 C 
ENDBRANCH  10  14
BRANCH  11  17
HETATM   17  O8  UNL     1       8.594  37.800  49.124  1.00  0.00    -0.391 OA
ATOM     18  H8  UNL     1       8.615  36.851  49.161  1.00  0.00     0.210 HD
ENDBRANCH  11  17
BRANCH  12  19
HETATM   19  N2  UNL     1       6.276  37.954  47.721  1.00  0.00    -0.072 N 
ATOM     20  H23 UNL     1       5.570  38.583  47.342  1.00  0.00     0.274 HD
ATOM     21  H22 UNL     1       7.127  38.428  47.419  1.00  0.00     0.274 HD
ATOM     22  H21 UNL     1       6.208  37.045  47.264  1.00  0.00     0.274 HD
ENDBRANCH  12  19
ENDBRANCH   7   8
ENDBRANCH   1   7
BRANCH   6  23
HETATM   23  O4  UNL     1       5.156  42.992  51.383  1.00  0.00    -0.373 OA
BRANCH  23  24
HETATM   24  C13 UNL     1       6.130  43.821  51.257  1.00  0.00     0.153 C 
HETATM   25  C14 UNL     1       7.496  43.057  51.504  1.00  0.00     0.037 C 
HETATM   26  C15 UNL     1       8.500  43.891  52.220  1.00  0.00     0.037 C 
HETATM   27  C16 UNL     1       8.571  45.312  51.785  1.00  0.00     0.149 C 
HETATM   28  C17 UNL     1       7.220  45.977  51.946  1.00  0.00     0.178 C 
HETATM   29  C18 UNL     1       6.075  45.035  52.136  1.00  0.00     0.178 C 
BRANCH  27  30
HETATM   30  O5  UNL     1       9.477  45.994  52.588  1.00  0.00    -0.393 OA
ATOM     31  H5  UNL     1       9.009  46.619  53.129  1.00  0.00     0.210 HD
ENDBRANCH  27  30
BRANCH  28  32
HETATM   32  O6  UNL     1       7.266  46.912  52.986  1.00  0.00    -0.390 OA
ATOM     33  H6  UNL     1       6.498  47.470  52.958  1.00  0.00     0.210 HD
ENDBRANCH  28  32
BRANCH  29  34
HETATM   34  O7  UNL     1       4.908  45.801  51.823  1.00  0.00    -0.390 OA
ATOM     35  H7  UNL     1       5.126  46.726  51.816  1.00  0.00     0.210 HD
ENDBRANCH  29  34
ENDBRANCH  23  24
ENDBRANCH   6  23
BRANCH   5  36
HETATM   36  C10 UNL     1       2.342  43.405  52.835  1.00  0.00     0.147 C 
BRANCH  36  37
HETATM   37  N1  UNL     1       2.527  44.790  53.075  1.00  0.00    -0.423 N 
HETATM   38  C11 UNL     1       1.491  45.442  53.816  1.00  0.00     0.139 C 
ATOM     39  H1  UNL     1       3.350  45.291  52.740  1.00  0.00     0.152 HD
ENDBRANCH  36  37
ENDBRANCH   5  36
TORSDOF 12
ENDMDL
MODEL 2
REMARK VINA RESULT: -6.375783126      2.251      5.415
REMARK  12 active torsions:
REMARK  status: ('A' for Active; 'I' for Inactive)
REMARK    1  A    between atoms: C2_2  and  C4_4 
REMARK    2  A    between atoms: C5_6  and  O2_7 
REMARK    3  A    between atoms: O2_7  and  C6_8 
REMARK    4  A    between atoms: C9_12  and  C10_13 
REMARK    5  A    between atoms: C10_13  and  N1_14 
REMARK    6  A    between atoms: C12_17  and  O4_18 
REMARK    7  A    between atoms: O4_18  and  C13_19 
REMARK    8  A    between atoms: C16_22  and  O5_23 
REMARK    9  A    between atoms: C17_25  and  O6_26 
REMARK   10  A    between atoms: C18_28  and  O7_29 
REMARK   11  A    between atoms: C20_32  and  N2_33 
REMARK   12  A    between atoms: C21_37  and  O8_38 
ROOT
HETATM    1  C6  UNL     1       6.455  41.055  50.740  1.00  0.00     0.184 C 
HETATM    2  C7  UNL     1       7.757  40.915  49.981  1.00  0.00     0.149 C 
HETATM    3  C8  UNL     1       7.981  39.584  49.397  1.00  0.00     0.042 C 
HETATM    4  O3  UNL     1       8.705  41.245  50.958  1.00  0.00    -0.374 OA
HETATM    5  C9  UNL     1       8.155  42.269  51.646  1.00  0.00     0.170 C 
HETATM    6  C12 UNL     1       6.878  42.753  50.982  1.00  0.00     0.184 C 
ENDROOT
BRANCH   1   7
HETATM    7  O2  UNL     1       5.428  40.996  50.061  1.00  0.00    -0.351 OA
BRANCH   7   8
HETATM    8  C5  UNL     1       4.703  40.896  49.025  1.00  0.00     0.263 C 
HETATM    9  O1  UNL     1       3.950  39.754  48.914  1.00  0.00    -0.349 OA
HETATM   10  C4  UNL     1       2.671  39.867  49.457  1.00  0.00     0.183 C 
HETATM   11  C21 UNL     1       1.779  40.714  48.585  1.00  0.00     0.181 C 
HETATM   12  C20 UNL     1       2.724  41.726  47.884  1.00  0.00     0.219 C 
HETATM   13  C19 UNL     1       3.653  42.127  49.006  1.00  0.00     0.096 C 
BRANCH  10  14
HETATM   14  C2  UNL     1       2.033  38.558  49.635  1.00  0.00    -0.062 C 
HETATM   15  C1  UNL     1       2.660  37.407  49.274  1.00  0.00     0.016 C 
HETATM   16  C3  UNL     1       0.697  38.371  50.259  1.00  0.00     0.045 C 
ENDBRANCH  10  14
BRANCH  11  17
HETATM   17  O8  UNL     1       1.002  40.075  47.695  1.00  0.00    -0.391 OA
ATOM     18  H8  UNL     1       1.434  39.497  47.077  1.00  0.00     0.210 HD
ENDBRANCH  11  17
BRANCH  12  19
HETATM   19  N2  UNL     1       3.329  41.108  46.755  1.00  0.00    -0.072 N 
ATOM     20  H23 UNL     1       4.142  41.649  46.461  1.00  0.00     0.274 HD
ATOM     21  H22 UNL     1       3.778  40.238  47.039  1.00  0.00     0.274 HD
ATOM     22  H21 UNL     1       2.722  40.936  45.954  1.00  0.00     0.274 HD
ENDBRANCH  12  19
ENDBRANCH   7   8
ENDBRANCH   1   7
BRANCH   6  23
HETATM   23  O4  UNL     1       5.962  43.118  51.713  1.00  0.00    -0.373 OA
BRANCH  23  24
HETATM   24  C13 UNL     1       5.009  43.504  52.484  1.00  0.00     0.153 C 
HETATM   25  C14 UNL     1       3.754  42.562  52.269  1.00  0.00     0.037 C 
HETATM   26  C15 UNL     1       2.462  43.298  52.353  1.00  0.00     0.037 C 
HETATM   27  C16 UNL     1       2.383  44.320  53.431  1.00  0.00     0.149 C 
HETATM   28  C17 UNL     1       3.486  45.344  53.263  1.00  0.00     0.178 C 
HETATM   29  C18 UNL     1       4.587  44.935  52.337  1.00  0.00     0.178 C 
BRANCH  27  30
HETATM   30  O5  UNL     1       1.168  44.990  53.342  1.00  0.00    -0.393 OA
ATOM     31  H5  UNL     1       0.484  44.451  53.721  1.00  0.00     0.210 HD
ENDBRANCH  27  30
BRANCH  28  32
HETATM   32  O6  UNL     1       2.945  46.574  52.872  1.00  0.00    -0.390 OA
ATOM     33  H6  UNL     1       3.611  47.251  52.911  1.00  0.00     0.210 HD
ENDBRANCH  28  32
BRANCH  29  34
HETATM   34  O7  UNL     1       5.684  45.796  52.661  1.00  0.00    -0.390 OA
ATOM     35  H7  UNL     1       5.380  46.694  52.713  1.00  0.00     0.210 HD
ENDBRANCH  29  34
ENDBRANCH  23  24
ENDBRANCH   6  23
BRANCH   5  36
HETATM   36  C10 UNL     1       9.114  43.203  52.220  1.00  0.00     0.147 C 
BRANCH  36  37
HETATM   37  N1  UNL     1       8.721  44.519  52.573  1.00  0.00    -0.423 N 
HETATM   38  C11 UNL     1       9.323  45.577  51.821  1.00  0.00     0.139 C 
ATOM     39  H1  UNL     1       8.049  44.700  53.318  1.00  0.00     0.152 HD
ENDBRANCH  36  37
ENDBRANCH   5  36
TORSDOF 12
ENDMDL
MODEL 3
REMARK VINA RESULT: -6.239013844      2.115      5.214
REMARK  12 active torsions:
REMARK  status: ('A' for Active; 'I' for Inactive)
REMARK    1  A    between atoms: C2_2  and  C4_4 
REMARK    2  A    between atoms: C5_6  and  O2_7 
REMARK    3  A    between atoms: O2_7  and  C6_8 
REMARK    4  A    between atoms: C9_12  and  C10_13 
REMARK    5  A    between atoms: C10_13  and  N1_14 
REMARK    6  A    between atoms: C12_17  and  O4_18 
REMARK    7  A    between atoms: O4_18  and  C13_19 
REMARK    8  A    between atoms: C16_22  and  O5_23 
REMARK    9  A    between atoms: C17_25  and  O6_26 
REMARK   10  A    between atoms: C18_28  and  O7_29 
REMARK   11  A    between atoms: C20_32  and  N2_33 
REMARK   12  A    between atoms: C21_37  and  O8_38 
ROOT
HETATM    1  C6  UNL     1       7.539  42.630  51.737  1.00  0.00     0.184 C 
HETATM    2  C7  UNL     1       8.789  42.893  50.924  1.00  0.00     0.149 C 
HETATM    3  C8  UNL     1       9.660  41.721  50.753  1.00  0.00     0.042 C 
HETATM    4  O3  UNL     1       9.401  43.924  51.648  1.00  0.00    -0.374 OA
HETATM    5  C9  UNL     1       8.386  44.721  52.046  1.00  0.00     0.170 C 
HETATM    6  C12 UNL     1       7.075  44.302  51.404  1.00  0.00     0.184 C 
ENDROOT
BRANCH   1   7
HETATM    7  O2  UNL     1       6.709  41.879  51.219  1.00  0.00    -0.351 OA
BRANCH   7   8
HETATM    8  C5  UNL     1       6.169  40.793  50.851  1.00  0.00     0.263 C 
HETATM    9  O1  UNL     1       4.799  40.780  50.793  1.00  0.00    -0.349 OA
HETATM   10  C4  UNL     1       4.283  41.132  49.547  1.00  0.00     0.183 C 
HETATM   11  C21 UNL     1       4.480  40.027  48.540  1.00  0.00     0.181 C 
HETATM   12  C20 UNL     1       5.774  39.291  48.981  1.00  0.00     0.219 C 
HETATM   13  C19 UNL     1       6.682  40.438  49.357  1.00  0.00     0.096 C 
BRANCH  10  14
HETATM   14  C2  UNL     1       2.851  41.445  49.614  1.00  0.00    -0.062 C 
HETATM   15  C1  UNL     1       2.302  42.427  48.852  1.00  0.00     0.016 C 
HETATM   16  C3  UNL     1       1.884  40.699  50.462  1.00  0.00     0.045 C 
ENDBRANCH  10  14
BRANCH  11  17
HETATM   17  O8  UNL     1       3.465  39.166  48.365  1.00  0.00    -0.391 OA
ATOM     18  H8  UNL     1       2.622  39.531  48.124  1.00  0.00     0.210 HD
ENDBRANCH  11  17
BRANCH  12  19
HETATM   19  N2  UNL     1       5.465  38.365  50.015  1.00  0.00    -0.072 N 
ATOM     20  H23 UNL     1       6.288  38.213  50.598  1.00  0.00     0.274 HD
ATOM     21  H22 UNL     1       4.838  38.801  50.691  1.00  0.00     0.274 HD
ATOM     22  H21 UNL     1       5.082  37.468  49.720  1.00  0.00     0.274 HD
ENDBRANCH  12  19
ENDBRANCH   7   8
ENDBRANCH   1   7
BRANCH   6  23
HETATM   23  O4  UNL     1       6.056  44.399  52.081  1.00  0.00    -0.373 OA
BRANCH  23  24
HETATM   24  C13 UNL     1       4.991  44.508  52.793  1.00  0.00     0.153 C 
HETATM   25  C14 UNL     1       3.990  43.342  52.410  1.00  0.00     0.037 C 
HETATM   26  C15 UNL     1       2.566  43.777  52.433  1.00  0.00     0.037 C 
HETATM   27  C16 UNL     1       2.192  44.666  53.566  1.00  0.00     0.149 C 
HETATM   28  C17 UNL     1       3.054  45.912  53.560  1.00  0.00     0.178 C 
HETATM   29  C18 UNL     1       4.277  45.824  52.705  1.00  0.00     0.178 C 
BRANCH  27  30
HETATM   30  O5  UNL     1       0.869  45.066  53.419  1.00  0.00    -0.393 OA
ATOM     31  H5  UNL     1       0.297  44.323  53.569  1.00  0.00     0.210 HD
ENDBRANCH  27  30
BRANCH  28  32
HETATM   32  O6  UNL     1       2.285  47.026  53.208  1.00  0.00    -0.390 OA
ATOM     33  H6  UNL     1       2.785  47.602  52.642  1.00  0.00     0.210 HD
ENDBRANCH  28  32
BRANCH  29  34
HETATM   34  O7  UNL     1       5.135  46.868  53.177  1.00  0.00    -0.390 OA
ATOM     35  H7  UNL     1       5.526  46.610  54.004  1.00  0.00     0.210 HD
ENDBRANCH  29  34
ENDBRANCH  23  24
ENDBRANCH   6  23
BRANCH   5  36
HETATM   36  C10 UNL     1       8.740  46.126  52.203  1.00  0.00     0.147 C 
BRANCH  36  37
HETATM   37  N1  UNL     1       7.997  46.966  53.070  1.00  0.00    -0.423 N 
HETATM   38  C11 UNL     1       8.763  47.777  53.966  1.00  0.00     0.139 C 
ATOM     39  H1  UNL     1       6.977  46.991  53.056  1.00  0.00     0.152 HD
ENDBRANCH  36  37
ENDBRANCH   5  36
TORSDOF 12
ENDMDL
MODEL 4
REMARK VINA RESULT: -6.212729770      2.387      5.792
REMARK  12 active torsions:
REMARK  status: ('A' for Active; 'I' for Inactive)
REMARK    1  A    between atoms: C2_2  and  C4_4 
REMARK    2  A    between atoms: C5_6  and  O2_7 
REMARK    3  A    between atoms: O2_7  and  C6_8 
REMARK    4  A    between atoms: C9_12  and  C10_13 
REMARK    5  A    between atoms: C10_13  and  N1_14 
REMARK    6  A    between atoms: C12_17  and  O4_18 
REMARK    7  A    between atoms: O4_18  and  C13_19 
REMARK    8  A    between atoms: C16_22  and  O5_23 
REMARK    9  A    between atoms: C17_25  and  O6_26 
REMARK   10  A    between atoms: C18_28  and  O7_29 
REMARK   11  A    between atoms: C20_32  and  N2_33 
REMARK   12  A    between atoms: C21_37  and  O8_38 
ROOT
HETATM    1  C6  UNL     1       6.054  38.494  49.492  1.00  0.00     0.184 C 
HETATM    2  C7  UNL     1       6.299  37.405  48.470  1.00  0.00     0.149 C 
HETATM    3  C8  UNL     1       5.317  36.311  48.498  1.00  0.00     0.042 C 
HETATM    4  O3  UNL     1       7.594  36.982  48.794  1.00  0.00    -0.374 OA
HETATM    5  C9  UNL     1       8.264  38.113  49.103  1.00  0.00     0.170 C 
HETATM    6  C12 UNL     1       7.434  39.345  48.791  1.00  0.00     0.184 C 
ENDROOT
BRANCH   1   7
HETATM    7  O2  UNL     1       5.040  39.175  49.319  1.00  0.00    -0.351 OA
BRANCH   7   8
HETATM    8  C5  UNL     1       3.879  39.637  49.533  1.00  0.00     0.263 C 
HETATM    9  O1  UNL     1       3.777  40.619  50.486  1.00  0.00    -0.349 OA
HETATM   10  C4  UNL     1       3.893  41.912  49.978  1.00  0.00     0.183 C 
HETATM   11  C21 UNL     1       2.654  42.317  49.221  1.00  0.00     0.181 C 
HETATM   12  C20 UNL     1       2.075  40.999  48.640  1.00  0.00     0.219 C 
HETATM   13  C19 UNL     1       3.318  40.287  48.161  1.00  0.00     0.096 C 
BRANCH  10  14
HETATM   14  C2  UNL     1       4.129  42.899  51.038  1.00  0.00    -0.062 C 
HETATM   15  C1  UNL     1       4.918  43.986  50.834  1.00  0.00     0.016 C 
HETATM   16  C3  UNL     1       3.499  42.829  52.383  1.00  0.00     0.045 C 
ENDBRANCH  10  14
BRANCH  11  17
HETATM   17  O8  UNL     1       1.718  43.004  49.896  1.00  0.00    -0.391 OA
ATOM     18  H8  UNL     1       1.361  43.778  49.477  1.00  0.00     0.210 HD
ENDBRANCH  11  17
BRANCH  12  19
HETATM   19  N2  UNL     1       1.311  40.333  49.638  1.00  0.00    -0.072 N 
ATOM     20  H23 UNL     1       0.388  40.761  49.709  1.00  0.00     0.274 HD
ATOM     21  H22 UNL     1       1.058  39.401  49.313  1.00  0.00     0.274 HD
ATOM     22  H21 UNL     1       1.733  40.272  50.564  1.00  0.00     0.274 HD
ENDBRANCH  12  19
ENDBRANCH   7   8
ENDBRANCH   1   7
BRANCH   6  23
HETATM   23  O4  UNL     1       7.529  40.301  49.555  1.00  0.00    -0.373 OA
BRANCH  23  24
HETATM   24  C13 UNL     1       7.637  41.305  50.351  1.00  0.00     0.153 C 
HETATM   25  C14 UNL     1       9.005  42.049  50.064  1.00  0.00     0.037 C 
HETATM   26  C15 UNL     1       9.646  42.572  51.301  1.00  0.00     0.037 C 
HETATM   27  C16 UNL     1       8.716  43.190  52.285  1.00  0.00     0.149 C 
HETATM   28  C17 UNL     1       7.655  42.192  52.701  1.00  0.00     0.178 C 
HETATM   29  C18 UNL     1       7.539  40.994  51.815  1.00  0.00     0.178 C 
BRANCH  27  30
HETATM   30  O5  UNL     1       9.424  43.554  53.423  1.00  0.00    -0.393 OA
ATOM     31  H5  UNL     1       9.208  44.449  53.656  1.00  0.00     0.210 HD
ENDBRANCH  27  30
BRANCH  28  32
HETATM   32  O6  UNL     1       7.857  41.803  54.030  1.00  0.00    -0.390 OA
ATOM     33  H6  UNL     1       7.137  42.105  54.571  1.00  0.00     0.210 HD
ENDBRANCH  28  32
BRANCH  29  34
HETATM   34  O7  UNL     1       6.250  40.443  52.103  1.00  0.00    -0.390 OA
ATOM     35  H7  UNL     1       6.121  40.407  53.044  1.00  0.00     0.210 HD
ENDBRANCH  29  34
ENDBRANCH  23  24
ENDBRANCH   6  23
BRANCH   5  36
HETATM   36  C10 UNL     1       9.694  38.069  48.825  1.00  0.00     0.147 C 
BRANCH  36  37
HETATM   37  N1  UNL     1      10.595  38.904  49.533  1.00  0.00    -0.423 N 
HETATM   38  C11 UNL     1      10.576  38.779  50.958  1.00  0.00     0.139 C 
ATOM     39  H1  UNL     1      11.219  39.554  49.055  1.00  0.00     0.152 HD
ENDBRANCH  36  37
ENDBRANCH   5  36
TORSDOF 12
ENDMDL
MODEL 5
REMARK VINA RESULT: -6.176991653      1.345      2.352
REMARK  12 active torsions:
REMARK  status: ('A' for Active; 'I' for Inactive)
REMARK    1  A    between atoms: C2_2  and  C4_4 
REMARK    2  A    between atoms: C5_6  and  O2_7 
REMARK    3  A    between atoms: O2_7  and  C6_8 
REMARK    4  A    between atoms: C9_12  and  C10_13 
REMARK    5  A    between atoms: C10_13  and  N1_14 
REMARK    6  A    between atoms: C12_17  and  O4_18 
REMARK    7  A    between atoms: O4_18  and  C13_19 
REMARK    8  A    between atoms: C16_22  and  O5_23 
REMARK    9  A    between atoms: C17_25  and  O6_26 
REMARK   10  A    between atoms: C18_28  and  O7_29 
REMARK   11  A    between atoms: C20_32  and  N2_33 
REMARK   12  A    between atoms: C21_37  and  O8_38 
ROOT
HETATM    1  C6  UNL     1       4.217  41.200  49.491  1.00  0.00     0.184 C 
HETATM    2  C7  UNL     1       2.988  40.379  49.819  1.00  0.00     0.149 C 
HETATM    3  C8  UNL     1       2.572  39.455  48.754  1.00  0.00     0.042 C 
HETATM    4  O3  UNL     1       2.033  41.369  50.083  1.00  0.00    -0.374 OA
HETATM    5  C9  UNL     1       2.701  42.325  50.764  1.00  0.00     0.170 C 
HETATM    6  C12 UNL     1       4.102  41.865  51.123  1.00  0.00     0.184 C 
ENDROOT
BRANCH   1   7
HETATM    7  O2  UNL     1       5.273  40.571  49.394  1.00  0.00    -0.351 OA
BRANCH   7   8
HETATM    8  C5  UNL     1       6.222  39.801  49.730  1.00  0.00     0.263 C 
HETATM    9  O1  UNL     1       6.051  38.466  49.463  1.00  0.00    -0.349 OA
HETATM   10  C4  UNL     1       6.544  38.072  48.220  1.00  0.00     0.183 C 
HETATM   11  C21 UNL     1       8.051  38.027  48.218  1.00  0.00     0.181 C 
HETATM   12  C20 UNL     1       8.499  39.105  49.242  1.00  0.00     0.219 C 
HETATM   13  C19 UNL     1       7.559  40.247  48.935  1.00  0.00     0.096 C 
BRANCH  10  14
HETATM   14  C2  UNL     1       6.043  36.750  47.825  1.00  0.00    -0.062 C 
HETATM   15  C1  UNL     1       5.321  35.979  48.680  1.00  0.00     0.016 C 
HETATM   16  C3  UNL     1       6.232  36.170  46.469  1.00  0.00     0.045 C 
ENDBRANCH  10  14
BRANCH  11  17
HETATM   17  O8  UNL     1       8.632  36.843  48.472  1.00  0.00    -0.391 OA
ATOM     18  H8  UNL     1       9.229  36.502  47.816  1.00  0.00     0.210 HD
ENDBRANCH  11  17
BRANCH  12  19
HETATM   19  N2  UNL     1       8.433  38.569  50.557  1.00  0.00    -0.072 N 
ATOM     20  H23 UNL     1       7.603  38.923  51.032  1.00  0.00     0.274 HD
ATOM     21  H22 UNL     1       8.210  37.574  50.512  1.00  0.00     0.274 HD
ATOM     22  H21 UNL     1       9.253  38.711  51.146  1.00  0.00     0.274 HD
ENDBRANCH  12  19
ENDBRANCH   7   8
ENDBRANCH   1   7
BRANCH   6  23
HETATM   23  O4  UNL     1       4.999  42.703  51.095  1.00  0.00    -0.373 OA
BRANCH  23  24
HETATM   24  C13 UNL     1       5.936  43.583  51.075  1.00  0.00     0.153 C 
HETATM   25  C14 UNL     1       7.314  42.879  51.416  1.00  0.00     0.037 C 
HETATM   26  C15 UNL     1       8.210  43.739  52.237  1.00  0.00     0.037 C 
HETATM   27  C16 UNL     1       8.244  45.174  51.847  1.00  0.00     0.149 C 
HETATM   28  C17 UNL     1       6.852  45.767  51.911  1.00  0.00     0.178 C 
HETATM   29  C18 UNL     1       5.745  44.764  51.978  1.00  0.00     0.178 C 
BRANCH  27  30
HETATM   30  O5  UNL     1       9.044  45.875  52.742  1.00  0.00    -0.393 OA
ATOM     31  H5  UNL     1       8.869  45.571  53.625  1.00  0.00     0.210 HD
ENDBRANCH  27  30
BRANCH  28  32
HETATM   32  O6  UNL     1       6.763  46.671  52.976  1.00  0.00    -0.390 OA
ATOM     33  H6  UNL     1       6.354  47.477  52.686  1.00  0.00     0.210 HD
ENDBRANCH  28  32
BRANCH  29  34
HETATM   34  O7  UNL     1       4.570  45.482  51.588  1.00  0.00    -0.390 OA
ATOM     35  H7  UNL     1       4.021  45.632  52.349  1.00  0.00     0.210 HD
ENDBRANCH  29  34
ENDBRANCH  23  24
ENDBRANCH   6  23
BRANCH   5  36
HETATM   36  C10 UNL     1       1.887  43.086  51.702  1.00  0.00     0.147 C 
BRANCH  36  37
HETATM   37  N1  UNL     1       2.479  43.726  52.820  1.00  0.00    -0.423 N 
HETATM   38  C11 UNL     1       1.611  44.553  53.602  1.00  0.00     0.139 C 
ATOM     39  H1  UNL     1       3.464  43.604  53.054  1.00  0.00     0.152 HD
ENDBRANCH  36  37
ENDBRANCH   5  36
TORSDOF 12
ENDMDL
