MODEL 1
REMARK VINA RESULT: -7.284067909      0.000      0.000
REMARK  8 active torsions:
REMARK  status: ('A' for Active; 'I' for Inactive)
REMARK    1  A    between atoms: N1_1  and  C1_5 
REMARK    2  A    between atoms: C1_5  and  C2_6 
REMARK    3  A    between atoms: C2_6  and  N2_7 
REMARK    4  A    between atoms: C2_6  and  C3_11 
REMARK    5  A    between atoms: C3_11  and  C4_12 
REMARK    6  A    between atoms: C4_12  and  C5_13 
REMARK    7  A    between atoms: C5_13  and  O1_14 
REMARK    8  A    between atoms: O1_14  and  N3_15 
ROOT
HETATM    1  O1  UNL     1      43.002  31.057  17.649  1.00  0.00    -0.275 OA
ENDROOT
BRANCH   1   2
HETATM    2  C5  UNL     1      41.988  31.590  18.385  1.00  0.00     0.201 C 
BRANCH   2   3
HETATM    3  C4  UNL     1      41.669  30.631  19.513  1.00  0.00     0.031 C 
BRANCH   3   4
HETATM    4  C3  UNL     1      40.198  30.309  19.477  1.00  0.00     0.036 C 
BRANCH   4   5
HETATM    5  C2  UNL     1      39.928  28.861  19.213  1.00  0.00     0.208 C 
BRANCH   5   6
HETATM    6  C1  UNL     1      38.669  28.358  19.857  1.00  0.00     0.262 C 
BRANCH   6   7
HETATM    7  N1  UNL     1      37.672  29.407  19.785  1.00  0.00    -0.077 N 
ATOM      8  H13 UNL     1      37.160  29.525  20.660  1.00  0.00     0.274 HD
ATOM      9  H12 UNL     1      38.084  30.339  19.739  1.00  0.00     0.274 HD
ATOM     10  H11 UNL     1      37.058  29.209  18.994  1.00  0.00     0.274 HD
ENDBRANCH   6   7
ENDBRANCH   5   6
BRANCH   5  11
HETATM   11  N2  UNL     1      41.083  28.050  19.602  1.00  0.00    -0.073 N 
ATOM     12  H23 UNL     1      40.805  27.252  20.173  1.00  0.00     0.274 HD
ATOM     13  H22 UNL     1      41.471  27.544  18.805  1.00  0.00     0.274 HD
ATOM     14  H21 UNL     1      41.792  28.617  20.068  1.00  0.00     0.274 HD
ENDBRANCH   5  11
ENDBRANCH   4   5
ENDBRANCH   3   4
ENDBRANCH   2   3
ENDBRANCH   1   2
BRANCH   1  15
HETATM   15  N3  UNL     1      42.744  30.365  16.610  1.00  0.00    -0.221 N 
HETATM   16  C6  UNL     1      41.457  30.007  16.233  1.00  0.00     0.206 C 
HETATM   17  N4  UNL     1      41.612  28.703  15.610  1.00  0.00    -0.380 N 
HETATM   18  C7  UNL     1      42.906  28.794  14.956  1.00  0.00     0.178 C 
ATOM     19  H4  UNL     1      40.967  27.913  15.629  1.00  0.00     0.160 HD
HETATM   20  C8  UNL     1      43.728  29.573  15.994  1.00  0.00     0.167 C 
HETATM   21  C9  UNL     1      44.471  28.636  16.900  1.00  0.00     0.182 C 
HETATM   22  N6  UNL     1      44.766  30.352  15.355  1.00  0.00    -0.311 N 
HETATM   23  N5  UNL     1      45.726  28.416  16.209  1.00  0.00    -0.339 N 
HETATM   24  C10 UNL     1      45.969  29.609  15.446  1.00  0.00     0.318 C 
ATOM     25  H5  UNL     1      46.316  27.584  16.255  1.00  0.00     0.164 HD
HETATM   26  O2  UNL     1      47.067  29.928  14.948  1.00  0.00    -0.247 OA
ATOM     27  H6  UNL     1      44.653  31.268  14.920  1.00  0.00     0.167 HD
ENDBRANCH   1  15
TORSDOF 8
ENDMDL
MODEL 2
REMARK VINA RESULT: -7.098039224      0.701      1.249
REMARK  8 active torsions:
REMARK  status: ('A' for Active; 'I' for Inactive)
REMARK    1  A    between atoms: N1_1  and  C1_5 
REMARK    2  A    between atoms: C1_5  and  C2_6 
REMARK    3  A    between atoms: C2_6  and  N2_7 
REMARK    4  A    between atoms: C2_6  and  C3_11 
REMARK    5  A    between atoms: C3_11  and  C4_12 
REMARK    6  A    between atoms: C4_12  and  C5_13 
REMARK    7  A    between atoms: C5_13  and  O1_14 
REMARK    8  A    between atoms: O1_14  and  N3_15 
ROOT
HETATM    1  O1  UNL     1      43.051  31.002  17.681  1.00  0.00    -0.275 OA
ENDROOT
BRANCH   1   2
HETATM    2  C5  UNL     1      42.206  31.987  18.093  1.00  0.00     0.201 C 
BRANCH   2   3
HETATM    3  C4  UNL     1      41.613  31.574  19.424  1.00  0.00     0.031 C 
BRANCH   3   4
HETATM    4  C3  UNL     1      40.157  31.243  19.226  1.00  0.00     0.036 C 
BRANCH   4   5
HETATM    5  C2  UNL     1      39.807  29.864  19.689  1.00  0.00     0.208 C 
BRANCH   5   6
HETATM    6  C1  UNL     1      40.961  28.905  19.644  1.00  0.00     0.262 C 
BRANCH   6   7
HETATM    7  N1  UNL     1      40.429  27.559  19.562  1.00  0.00    -0.077 N 
ATOM      8  H13 UNL     1      40.646  26.999  20.388  1.00  0.00     0.274 HD
ATOM      9  H12 UNL     1      39.412  27.533  19.641  1.00  0.00     0.274 HD
ATOM     10  H11 UNL     1      40.768  27.134  18.699  1.00  0.00     0.274 HD
ENDBRANCH   6   7
ENDBRANCH   5   6
BRANCH   5  11
HETATM   11  N2  UNL     1      38.662  29.350  18.937  1.00  0.00    -0.073 N 
ATOM     12  H23 UNL     1      37.903  29.067  19.556  1.00  0.00     0.274 HD
ATOM     13  H22 UNL     1      38.181  30.095  18.431  1.00  0.00     0.274 HD
ATOM     14  H21 UNL     1      38.940  28.592  18.313  1.00  0.00     0.274 HD
ENDBRANCH   5  11
ENDBRANCH   4   5
ENDBRANCH   3   4
ENDBRANCH   2   3
ENDBRANCH   1   2
BRANCH   1  15
HETATM   15  N3  UNL     1      42.786  30.328  16.633  1.00  0.00    -0.221 N 
HETATM   16  C6  UNL     1      41.498  29.963  16.267  1.00  0.00     0.206 C 
HETATM   17  N4  UNL     1      41.658  28.674  15.616  1.00  0.00    -0.380 N 
HETATM   18  C7  UNL     1      42.941  28.791  14.945  1.00  0.00     0.178 C 
ATOM     19  H4  UNL     1      41.021  27.876  15.628  1.00  0.00     0.160 HD
HETATM   20  C8  UNL     1      43.769  29.559  15.987  1.00  0.00     0.167 C 
HETATM   21  C9  UNL     1      44.536  28.612  16.864  1.00  0.00     0.182 C 
HETATM   22  N6  UNL     1      44.790  30.361  15.349  1.00  0.00    -0.311 N 
HETATM   23  N5  UNL     1      45.783  28.419  16.151  1.00  0.00    -0.339 N 
HETATM   24  C10 UNL     1      46.002  29.630  15.408  1.00  0.00     0.318 C 
ATOM     25  H5  UNL     1      46.382  27.594  16.172  1.00  0.00     0.164 HD
HETATM   26  O2  UNL     1      47.089  29.971  14.901  1.00  0.00    -0.247 OA
ATOM     27  H6  UNL     1      44.661  31.284  14.934  1.00  0.00     0.167 HD
ENDBRANCH   1  15
TORSDOF 8
ENDMDL
MODEL 3
REMARK VINA RESULT: -6.211581484      1.832      3.259
REMARK  8 active torsions:
REMARK  status: ('A' for Active; 'I' for Inactive)
REMARK    1  A    between atoms: N1_1  and  C1_5 
REMARK    2  A    between atoms: C1_5  and  C2_6 
REMARK    3  A    between atoms: C2_6  and  N2_7 
REMARK    4  A    between atoms: C2_6  and  C3_11 
REMARK    5  A    between atoms: C3_11  and  C4_12 
REMARK    6  A    between atoms: C4_12  and  C5_13 
REMARK    7  A    between atoms: C5_13  and  O1_14 
REMARK    8  A    between atoms: O1_14  and  N3_15 
ROOT
HETATM    1  O1  UNL     1      41.626  28.603  19.332  1.00  0.00    -0.275 OA
ENDROOT
BRANCH   1   2
HETATM    2  C5  UNL     1      40.658  28.402  20.268  1.00  0.00     0.201 C 
BRANCH   2   3
HETATM    3  C4  UNL     1      39.541  27.605  19.628  1.00  0.00     0.031 C 
BRANCH   3   4
HETATM    4  C3  UNL     1      38.509  28.561  19.087  1.00  0.00     0.036 C 
BRANCH   4   5
HETATM    5  C2  UNL     1      37.988  29.501  20.129  1.00  0.00     0.208 C 
BRANCH   5   6
HETATM    6  C1  UNL     1      36.575  29.210  20.546  1.00  0.00     0.262 C 
BRANCH   6   7
HETATM    7  N1  UNL     1      36.540  29.121  21.993  1.00  0.00    -0.077 N 
ATOM      8  H13 UNL     1      37.317  29.611  22.437  1.00  0.00     0.274 HD
ATOM      9  H12 UNL     1      35.781  29.666  22.401  1.00  0.00     0.274 HD
ATOM     10  H11 UNL     1      36.499  28.135  22.251  1.00  0.00     0.274 HD
ENDBRANCH   6   7
ENDBRANCH   5   6
BRANCH   5  11
HETATM   11  N2  UNL     1      38.132  30.886  19.681  1.00  0.00    -0.073 N 
ATOM     12  H23 UNL     1      38.905  30.989  19.023  1.00  0.00     0.274 HD
ATOM     13  H22 UNL     1      37.367  31.163  19.066  1.00  0.00     0.274 HD
ATOM     14  H21 UNL     1      38.227  31.522  20.473  1.00  0.00     0.274 HD
ENDBRANCH   5  11
ENDBRANCH   4   5
ENDBRANCH   3   4
ENDBRANCH   2   3
ENDBRANCH   1   2
BRANCH   1  15
HETATM   15  N3  UNL     1      41.919  29.785  18.957  1.00  0.00    -0.221 N 
HETATM   16  C6  UNL     1      41.618  30.917  19.701  1.00  0.00     0.206 C 
HETATM   17  N4  UNL     1      41.354  31.944  18.707  1.00  0.00    -0.380 N 
HETATM   18  C7  UNL     1      42.274  31.615  17.631  1.00  0.00     0.178 C 
ATOM     19  H4  UNL     1      40.685  32.712  18.754  1.00  0.00     0.160 HD
HETATM   20  C8  UNL     1      42.195  30.081  17.611  1.00  0.00     0.167 C 
HETATM   21  C9  UNL     1      41.173  29.610  16.618  1.00  0.00     0.182 C 
HETATM   22  N6  UNL     1      43.438  29.504  17.146  1.00  0.00    -0.311 N 
HETATM   23  N5  UNL     1      41.923  29.495  15.383  1.00  0.00    -0.339 N 
HETATM   24  C10 UNL     1      43.276  29.202  15.771  1.00  0.00     0.318 C 
ATOM     25  H5  UNL     1      41.564  29.601  14.434  1.00  0.00     0.164 HD
HETATM   26  O2  UNL     1      44.156  28.753  15.010  1.00  0.00    -0.247 OA
ATOM     27  H6  UNL     1      44.276  29.344  17.705  1.00  0.00     0.167 HD
ENDBRANCH   1  15
TORSDOF 8
ENDMDL
MODEL 4
REMARK VINA RESULT: -6.067120149      2.056      2.845
REMARK  8 active torsions:
REMARK  status: ('A' for Active; 'I' for Inactive)
REMARK    1  A    between atoms: N1_1  and  C1_5 
REMARK    2  A    between atoms: C1_5  and  C2_6 
REMARK    3  A    between atoms: C2_6  and  N2_7 
REMARK    4  A    between atoms: C2_6  and  C3_11 
REMARK    5  A    between atoms: C3_11  and  C4_12 
REMARK    6  A    between atoms: C4_12  and  C5_13 
REMARK    7  A    between atoms: C5_13  and  O1_14 
REMARK    8  A    between atoms: O1_14  and  N3_15 
ROOT
HETATM    1  O1  UNL     1      41.967  30.239  16.019  1.00  0.00    -0.275 OA
ENDROOT
BRANCH   1   2
HETATM    2  C5  UNL     1      41.058  29.793  16.929  1.00  0.00     0.201 C 
BRANCH   2   3
HETATM    3  C4  UNL     1      40.889  30.861  17.989  1.00  0.00     0.031 C 
BRANCH   3   4
HETATM    4  C3  UNL     1      40.546  30.199  19.298  1.00  0.00     0.036 C 
BRANCH   4   5
HETATM    5  C2  UNL     1      39.887  28.868  19.118  1.00  0.00     0.208 C 
BRANCH   5   6
HETATM    6  C1  UNL     1      38.488  28.813  19.662  1.00  0.00     0.262 C 
BRANCH   6   7
HETATM    7  N1  UNL     1      37.982  30.168  19.750  1.00  0.00    -0.077 N 
ATOM      8  H13 UNL     1      37.309  30.289  20.508  1.00  0.00     0.274 HD
ATOM      9  H12 UNL     1      38.684  30.829  20.082  1.00  0.00     0.274 HD
ATOM     10  H11 UNL     1      37.599  30.425  18.840  1.00  0.00     0.274 HD
ENDBRANCH   6   7
ENDBRANCH   5   6
BRANCH   5  11
HETATM   11  N2  UNL     1      40.718  27.808  19.689  1.00  0.00    -0.073 N 
ATOM     12  H23 UNL     1      40.158  27.125  20.199  1.00  0.00     0.274 HD
ATOM     13  H22 UNL     1      41.092  27.194  18.965  1.00  0.00     0.274 HD
ATOM     14  H21 UNL     1      41.461  28.195  20.272  1.00  0.00     0.274 HD
ENDBRANCH   5  11
ENDBRANCH   4   5
ENDBRANCH   3   4
ENDBRANCH   2   3
ENDBRANCH   1   2
BRANCH   1  15
HETATM   15  N3  UNL     1      43.104  29.671  15.917  1.00  0.00    -0.221 N 
HETATM   16  C6  UNL     1      44.092  29.766  16.887  1.00  0.00     0.206 C 
HETATM   17  N4  UNL     1      45.337  29.734  16.139  1.00  0.00    -0.380 N 
HETATM   18  C7  UNL     1      45.042  28.842  15.031  1.00  0.00     0.178 C 
ATOM     19  H4  UNL     1      46.210  30.222  16.342  1.00  0.00     0.160 HD
HETATM   20  C8  UNL     1      43.606  29.251  14.673  1.00  0.00     0.167 C 
HETATM   21  C9  UNL     1      43.599  30.285  13.586  1.00  0.00     0.182 C 
HETATM   22  N6  UNL     1      42.873  28.137  14.112  1.00  0.00    -0.311 N 
HETATM   23  N5  UNL     1      43.579  29.500  12.368  1.00  0.00    -0.339 N 
HETATM   24  C10 UNL     1      42.912  28.272  12.702  1.00  0.00     0.318 C 
ATOM     25  H5  UNL     1      43.961  29.765  11.459  1.00  0.00     0.164 HD
HETATM   26  O2  UNL     1      42.445  27.464  11.875  1.00  0.00    -0.247 OA
ATOM     27  H6  UNL     1      42.413  27.391  14.635  1.00  0.00     0.167 HD
ENDBRANCH   1  15
TORSDOF 8
ENDMDL
MODEL 5
REMARK VINA RESULT: -6.032334977      2.084      5.971
REMARK  8 active torsions:
REMARK  status: ('A' for Active; 'I' for Inactive)
REMARK    1  A    between atoms: N1_1  and  C1_5 
REMARK    2  A    between atoms: C1_5  and  C2_6 
REMARK    3  A    between atoms: C2_6  and  N2_7 
REMARK    4  A    between atoms: C2_6  and  C3_11 
REMARK    5  A    between atoms: C3_11  and  C4_12 
REMARK    6  A    between atoms: C4_12  and  C5_13 
REMARK    7  A    between atoms: C5_13  and  O1_14 
REMARK    8  A    between atoms: O1_14  and  N3_15 
ROOT
HETATM    1  O1  UNL     1      41.382  29.896  16.564  1.00  0.00    -0.275 OA
ENDROOT
BRANCH   1   2
HETATM    2  C5  UNL     1      42.507  30.158  15.845  1.00  0.00     0.201 C 
BRANCH   2   3
HETATM    3  C4  UNL     1      42.958  28.871  15.188  1.00  0.00     0.031 C 
BRANCH   3   4
HETATM    4  C3  UNL     1      44.164  29.157  14.331  1.00  0.00     0.036 C 
BRANCH   4   5
HETATM    5  C2  UNL     1      45.454  28.959  15.062  1.00  0.00     0.208 C 
BRANCH   5   6
HETATM    6  C1  UNL     1      45.288  28.323  16.412  1.00  0.00     0.262 C 
BRANCH   6   7
HETATM    7  N1  UNL     1      45.709  29.278  17.418  1.00  0.00    -0.077 N 
ATOM      8  H13 UNL     1      46.704  29.496  17.362  1.00  0.00     0.274 HD
ATOM      9  H12 UNL     1      45.351  30.217  17.242  1.00  0.00     0.274 HD
ATOM     10  H11 UNL     1      45.436  28.919  18.333  1.00  0.00     0.274 HD
ENDBRANCH   6   7
ENDBRANCH   5   6
BRANCH   5  11
HETATM   11  N2  UNL     1      46.183  30.224  15.160  1.00  0.00    -0.073 N 
ATOM     12  H23 UNL     1      46.528  30.529  14.250  1.00  0.00     0.274 HD
ATOM     13  H22 UNL     1      45.555  31.004  15.357  1.00  0.00     0.274 HD
ATOM     14  H21 UNL     1      46.936  30.165  15.846  1.00  0.00     0.274 HD
ENDBRANCH   5  11
ENDBRANCH   4   5
ENDBRANCH   3   4
ENDBRANCH   2   3
ENDBRANCH   1   2
BRANCH   1  15
HETATM   15  N3  UNL     1      41.157  30.519  17.653  1.00  0.00    -0.221 N 
HETATM   16  C6  UNL     1      41.583  31.819  17.889  1.00  0.00     0.206 C 
HETATM   17  N4  UNL     1      41.866  31.854  19.313  1.00  0.00    -0.380 N 
HETATM   18  C7  UNL     1      40.867  30.963  19.878  1.00  0.00     0.178 C 
ATOM     19  H4  UNL     1      42.593  32.378  19.801  1.00  0.00     0.160 HD
HETATM   20  C8  UNL     1      40.829  29.835  18.836  1.00  0.00     0.167 C 
HETATM   21  C9  UNL     1      41.757  28.720  19.221  1.00  0.00     0.182 C 
HETATM   22  N6  UNL     1      39.523  29.214  18.790  1.00  0.00    -0.311 N 
HETATM   23  N5  UNL     1      40.932  27.859  20.046  1.00  0.00    -0.339 N 
HETATM   24  C10 UNL     1      39.585  28.038  19.578  1.00  0.00     0.318 C 
ATOM     25  H5  UNL     1      41.244  27.251  20.804  1.00  0.00     0.164 HD
HETATM   26  O2  UNL     1      38.633  27.274  19.831  1.00  0.00    -0.247 OA
ATOM     27  H6  UNL     1      38.708  29.560  18.284  1.00  0.00     0.167 HD
ENDBRANCH   1  15
TORSDOF 8
ENDMDL
