MODEL 1
REMARK VINA RESULT: -7.071390255      0.000      0.000
REMARK  12 active torsions:
REMARK  status: ('A' for Active; 'I' for Inactive)
REMARK    1  A    between atoms: N1_1  and  C1_5 
REMARK    2  A    between atoms: C1_5  and  N2_6 
REMARK    3  A    between atoms: C1_5  and  C2_10 
REMARK    4  A    between atoms: C2_10  and  C3_11 
REMARK    5  A    between atoms: C3_11  and  C4_12 
REMARK    6  A    between atoms: C4_12  and  N3_13 
REMARK    7  A    between atoms: C4_12  and  N4_17 
REMARK    8  A    between atoms: N4_17  and  C5_19 
REMARK    9  A    between atoms: C8_24  and  N6_25 
REMARK   10  A    between atoms: N6_25  and  C9_27 
REMARK   11  A    between atoms: C9_27  and  C10_28 
REMARK   12  A    between atoms: C10_28  and  O1_29 
ROOT
HETATM    1  C4  UNL     1      41.945  30.186  18.708  1.00  0.00     0.283 C 
ENDROOT
BRANCH   1   2
HETATM    2  C3  UNL     1      41.058  29.238  19.475  1.00  0.00     0.058 C 
BRANCH   2   3
HETATM    3  C2  UNL     1      39.684  29.126  18.808  1.00  0.00     0.066 C 
BRANCH   3   4
HETATM    4  C1  UNL     1      38.605  29.623  19.750  1.00  0.00     0.378 C 
BRANCH   4   5
HETATM    5  N1  UNL     1      38.299  31.011  19.473  1.00  0.00    -0.051 N 
ATOM      6  H13 UNL     1      38.786  31.340  18.640  1.00  0.00     0.276 HD
ATOM      7  H12 UNL     1      37.337  31.124  19.151  1.00  0.00     0.276 HD
ATOM      8  H11 UNL     1      38.494  31.606  20.278  1.00  0.00     0.276 HD
ENDBRANCH   4   5
BRANCH   4   9
HETATM    9  N2  UNL     1      37.443  28.782  19.593  1.00  0.00    -0.051 N 
ATOM     10  H23 UNL     1      37.701  27.796  19.543  1.00  0.00     0.276 HD
ATOM     11  H22 UNL     1      36.882  28.757  20.444  1.00  0.00     0.276 HD
ATOM     12  H21 UNL     1      36.884  29.062  18.787  1.00  0.00     0.276 HD
ENDBRANCH   4   9
ENDBRANCH   3   4
ENDBRANCH   2   3
ENDBRANCH   1   2
BRANCH   1  13
HETATM   13  N3  UNL     1      41.781  31.506  19.243  1.00  0.00    -0.058 N 
ATOM     14  H33 UNL     1      42.372  31.672  20.058  1.00  0.00     0.276 HD
ATOM     15  H32 UNL     1      42.174  32.224  18.635  1.00  0.00     0.276 HD
ATOM     16  H31 UNL     1      40.793  31.661  19.441  1.00  0.00     0.276 HD
ENDBRANCH   1  13
BRANCH   1  17
HETATM   17  N4  UNL     1      41.794  30.084  17.298  1.00  0.00    -0.348 N 
ATOM     18  H4  UNL     1      40.862  30.263  16.923  1.00  0.00     0.163 HD
BRANCH  17  19
HETATM   19  C5  UNL     1      42.699  29.793  16.458  1.00  0.00     0.119 A 
HETATM   20  C6  UNL     1      44.016  30.071  16.754  1.00  0.00     0.066 A 
HETATM   21  C7  UNL     1      44.959  29.734  15.807  1.00  0.00     0.110 A 
HETATM   22  N5  UNL     1      44.582  29.163  14.661  1.00  0.00    -0.202 N 
HETATM   23  C8  UNL     1      43.297  28.886  14.360  1.00  0.00     0.679 A 
ATOM     24  H5  UNL     1      45.301  28.924  13.978  1.00  0.00     0.183 HD
HETATM   25  N7  UNL     1      42.372  29.213  15.281  1.00  0.00    -0.177 N 
ATOM     26  H7  UNL     1      41.390  29.017  15.084  1.00  0.00     0.185 HD
BRANCH  23  27
HETATM   27  N6  UNL     1      42.928  28.335  13.255  1.00  0.00    -0.224 N 
ATOM     28  H6  UNL     1      42.342  27.501  13.313  1.00  0.00     0.177 HD
BRANCH  27  29
HETATM   29  C9  UNL     1      43.281  28.812  11.957  1.00  0.00     0.164 C 
BRANCH  29  30
HETATM   30  C10 UNL     1      42.879  27.741  10.939  1.00  0.00     0.184 C 
BRANCH  30  31
HETATM   31  O1  UNL     1      41.962  26.862  11.456  1.00  0.00    -0.399 OA
ATOM     32  H1  UNL     1      41.217  27.311  11.838  1.00  0.00     0.209 HD
ENDBRANCH  30  31
ENDBRANCH  29  30
ENDBRANCH  27  29
ENDBRANCH  23  27
ENDBRANCH  17  19
ENDBRANCH   1  17
TORSDOF 12
ENDMDL
MODEL 2
REMARK VINA RESULT: -7.053278326      0.900      1.224
REMARK  12 active torsions:
REMARK  status: ('A' for Active; 'I' for Inactive)
REMARK    1  A    between atoms: N1_1  and  C1_5 
REMARK    2  A    between atoms: C1_5  and  N2_6 
REMARK    3  A    between atoms: C1_5  and  C2_10 
REMARK    4  A    between atoms: C2_10  and  C3_11 
REMARK    5  A    between atoms: C3_11  and  C4_12 
REMARK    6  A    between atoms: C4_12  and  N3_13 
REMARK    7  A    between atoms: C4_12  and  N4_17 
REMARK    8  A    between atoms: N4_17  and  C5_19 
REMARK    9  A    between atoms: C8_24  and  N6_25 
REMARK   10  A    between atoms: N6_25  and  C9_27 
REMARK   11  A    between atoms: C9_27  and  C10_28 
REMARK   12  A    between atoms: C10_28  and  O1_29 
ROOT
HETATM    1  C4  UNL     1      42.049  30.174  18.273  1.00  0.00     0.283 C 
ENDROOT
BRANCH   1   2
HETATM    2  C3  UNL     1      40.676  29.583  18.075  1.00  0.00     0.058 C 
BRANCH   2   3
HETATM    3  C2  UNL     1      39.912  29.540  19.401  1.00  0.00     0.066 C 
BRANCH   3   4
HETATM    4  C1  UNL     1      38.731  30.490  19.354  1.00  0.00     0.378 C 
BRANCH   4   5
HETATM    5  N1  UNL     1      37.598  29.915  20.050  1.00  0.00    -0.051 N 
ATOM      6  H13 UNL     1      37.669  30.057  21.058  1.00  0.00     0.276 HD
ATOM      7  H12 UNL     1      36.744  30.446  19.874  1.00  0.00     0.276 HD
ATOM      8  H11 UNL     1      37.478  28.929  19.820  1.00  0.00     0.276 HD
ENDBRANCH   4   5
BRANCH   4   9
HETATM    9  N2  UNL     1      39.135  31.744  19.944  1.00  0.00    -0.051 N 
ATOM     10  H23 UNL     1      39.141  31.692  20.963  1.00  0.00     0.276 HD
ATOM     11  H22 UNL     1      40.126  31.927  19.787  1.00  0.00     0.276 HD
ATOM     12  H21 UNL     1      38.557  32.517  19.613  1.00  0.00     0.276 HD
ENDBRANCH   4   9
ENDBRANCH   3   4
ENDBRANCH   2   3
ENDBRANCH   1   2
BRANCH   1  13
HETATM   13  N3  UNL     1      42.075  31.487  17.700  1.00  0.00    -0.058 N 
ATOM     14  H33 UNL     1      42.926  31.998  17.934  1.00  0.00     0.276 HD
ATOM     15  H32 UNL     1      42.195  31.469  16.687  1.00  0.00     0.276 HD
ATOM     16  H31 UNL     1      41.231  31.986  17.983  1.00  0.00     0.276 HD
ENDBRANCH   1  13
BRANCH   1  17
HETATM   17  N4  UNL     1      43.100  29.312  17.852  1.00  0.00    -0.348 N 
ATOM     18  H4  UNL     1      43.415  28.612  18.524  1.00  0.00     0.163 HD
BRANCH  17  19
HETATM   19  C5  UNL     1      43.684  29.324  16.726  1.00  0.00     0.119 A 
HETATM   20  C6  UNL     1      44.991  29.752  16.642  1.00  0.00     0.066 A 
HETATM   21  C7  UNL     1      45.578  29.745  15.395  1.00  0.00     0.110 A 
HETATM   22  N5  UNL     1      44.883  29.335  14.331  1.00  0.00    -0.202 N 
HETATM   23  C8  UNL     1      43.604  28.914  14.401  1.00  0.00     0.679 A 
ATOM     24  H5  UNL     1      45.343  29.339  13.420  1.00  0.00     0.183 HD
HETATM   25  N7  UNL     1      43.027  28.919  15.615  1.00  0.00    -0.177 N 
ATOM     26  H7  UNL     1      42.059  28.607  15.702  1.00  0.00     0.185 HD
BRANCH  23  27
HETATM   27  N6  UNL     1      42.929  28.517  13.377  1.00  0.00    -0.224 N 
ATOM     28  H6  UNL     1      42.063  28.007  13.548  1.00  0.00     0.177 HD
BRANCH  27  29
HETATM   29  C9  UNL     1      43.311  28.744  12.020  1.00  0.00     0.164 C 
BRANCH  29  30
HETATM   30  C10 UNL     1      42.795  27.569  11.186  1.00  0.00     0.184 C 
BRANCH  30  31
HETATM   31  O1  UNL     1      41.948  26.764  11.904  1.00  0.00    -0.399 OA
ATOM     32  H1  UNL     1      42.393  26.337  12.626  1.00  0.00     0.209 HD
ENDBRANCH  30  31
ENDBRANCH  29  30
ENDBRANCH  27  29
ENDBRANCH  23  27
ENDBRANCH  17  19
ENDBRANCH   1  17
TORSDOF 12
ENDMDL
MODEL 3
REMARK VINA RESULT: -6.929437012      1.058      1.250
REMARK  12 active torsions:
REMARK  status: ('A' for Active; 'I' for Inactive)
REMARK    1  A    between atoms: N1_1  and  C1_5 
REMARK    2  A    between atoms: C1_5  and  N2_6 
REMARK    3  A    between atoms: C1_5  and  C2_10 
REMARK    4  A    between atoms: C2_10  and  C3_11 
REMARK    5  A    between atoms: C3_11  and  C4_12 
REMARK    6  A    between atoms: C4_12  and  N3_13 
REMARK    7  A    between atoms: C4_12  and  N4_17 
REMARK    8  A    between atoms: N4_17  and  C5_19 
REMARK    9  A    between atoms: C8_24  and  N6_25 
REMARK   10  A    between atoms: N6_25  and  C9_27 
REMARK   11  A    between atoms: C9_27  and  C10_28 
REMARK   12  A    between atoms: C10_28  and  O1_29 
ROOT
HETATM    1  C4  UNL     1      41.976  30.226  18.262  1.00  0.00     0.283 C 
ENDROOT
BRANCH   1   2
HETATM    2  C3  UNL     1      40.594  29.677  18.014  1.00  0.00     0.058 C 
BRANCH   2   3
HETATM    3  C2  UNL     1      39.683  29.947  19.216  1.00  0.00     0.066 C 
BRANCH   3   4
HETATM    4  C1  UNL     1      39.204  28.638  19.812  1.00  0.00     0.378 C 
BRANCH   4   5
HETATM    5  N1  UNL     1      37.785  28.471  19.576  1.00  0.00    -0.051 N 
ATOM      6  H13 UNL     1      37.578  27.551  19.185  1.00  0.00     0.276 HD
ATOM      7  H12 UNL     1      37.268  28.392  20.452  1.00  0.00     0.276 HD
ATOM      8  H11 UNL     1      37.412  29.217  18.989  1.00  0.00     0.276 HD
ENDBRANCH   4   5
BRANCH   4   9
HETATM    9  N2  UNL     1      39.969  27.565  19.224  1.00  0.00    -0.051 N 
ATOM     10  H23 UNL     1      40.379  27.845  18.332  1.00  0.00     0.276 HD
ATOM     11  H22 UNL     1      40.828  27.390  19.746  1.00  0.00     0.276 HD
ATOM     12  H21 UNL     1      39.413  26.716  19.128  1.00  0.00     0.276 HD
ENDBRANCH   4   9
ENDBRANCH   3   4
ENDBRANCH   2   3
ENDBRANCH   1   2
BRANCH   1  13
HETATM   13  N3  UNL     1      42.056  31.546  17.710  1.00  0.00    -0.058 N 
ATOM     14  H33 UNL     1      42.397  32.231  18.385  1.00  0.00     0.276 HD
ATOM     15  H32 UNL     1      42.806  31.638  17.025  1.00  0.00     0.276 HD
ATOM     16  H31 UNL     1      41.145  31.798  17.327  1.00  0.00     0.276 HD
ENDBRANCH   1  13
BRANCH   1  17
HETATM   17  N4  UNL     1      43.015  29.340  17.860  1.00  0.00    -0.348 N 
ATOM     18  H4  UNL     1      43.304  28.636  18.538  1.00  0.00     0.163 HD
BRANCH  17  19
HETATM   19  C5  UNL     1      43.617  29.338  16.743  1.00  0.00     0.119 A 
HETATM   20  C6  UNL     1      44.927  29.759  16.676  1.00  0.00     0.066 A 
HETATM   21  C7  UNL     1      45.535  29.736  15.439  1.00  0.00     0.110 A 
HETATM   22  N5  UNL     1      44.855  29.317  14.369  1.00  0.00    -0.202 N 
HETATM   23  C8  UNL     1      43.574  28.903  14.422  1.00  0.00     0.679 A 
ATOM     24  H5  UNL     1      45.330  29.309  13.466  1.00  0.00     0.183 HD
HETATM   25  N7  UNL     1      42.976  28.924  15.627  1.00  0.00    -0.177 N 
ATOM     26  H7  UNL     1      42.006  28.616  15.701  1.00  0.00     0.185 HD
BRANCH  23  27
HETATM   27  N6  UNL     1      42.914  28.497  13.392  1.00  0.00    -0.224 N 
ATOM     28  H6  UNL     1      42.064  27.957  13.554  1.00  0.00     0.177 HD
BRANCH  27  29
HETATM   29  C9  UNL     1      43.291  28.753  12.039  1.00  0.00     0.164 C 
BRANCH  29  30
HETATM   30  C10 UNL     1      42.823  27.569  11.190  1.00  0.00     0.184 C 
BRANCH  30  31
HETATM   31  O1  UNL     1      41.898  26.800  11.849  1.00  0.00    -0.399 OA
ATOM     32  H1  UNL     1      41.839  25.925  11.484  1.00  0.00     0.209 HD
ENDBRANCH  30  31
ENDBRANCH  29  30
ENDBRANCH  27  29
ENDBRANCH  23  27
ENDBRANCH  17  19
ENDBRANCH   1  17
TORSDOF 12
ENDMDL
MODEL 4
REMARK VINA RESULT: -6.746387380      2.962      6.707
REMARK  12 active torsions:
REMARK  status: ('A' for Active; 'I' for Inactive)
REMARK    1  A    between atoms: N1_1  and  C1_5 
REMARK    2  A    between atoms: C1_5  and  N2_6 
REMARK    3  A    between atoms: C1_5  and  C2_10 
REMARK    4  A    between atoms: C2_10  and  C3_11 
REMARK    5  A    between atoms: C3_11  and  C4_12 
REMARK    6  A    between atoms: C4_12  and  N3_13 
REMARK    7  A    between atoms: C4_12  and  N4_17 
REMARK    8  A    between atoms: N4_17  and  C5_19 
REMARK    9  A    between atoms: C8_24  and  N6_25 
REMARK   10  A    between atoms: N6_25  and  C9_27 
REMARK   11  A    between atoms: C9_27  and  C10_28 
REMARK   12  A    between atoms: C10_28  and  O1_29 
ROOT
HETATM    1  C4  UNL     1      44.231  29.727  16.235  1.00  0.00     0.283 C 
ENDROOT
BRANCH   1   2
HETATM    2  C3  UNL     1      44.506  29.184  14.856  1.00  0.00     0.058 C 
BRANCH   2   3
HETATM    3  C2  UNL     1      43.195  28.927  14.106  1.00  0.00     0.066 C 
BRANCH   3   4
HETATM    4  C1  UNL     1      43.481  28.594  12.655  1.00  0.00     0.378 C 
BRANCH   4   5
HETATM    5  N1  UNL     1      42.549  27.593  12.179  1.00  0.00    -0.051 N 
ATOM      6  H13 UNL     1      41.611  27.979  12.070  1.00  0.00     0.276 HD
ATOM      7  H12 UNL     1      42.733  27.345  11.206  1.00  0.00     0.276 HD
ATOM      8  H11 UNL     1      42.544  26.768  12.779  1.00  0.00     0.276 HD
ENDBRANCH   4   5
BRANCH   4   9
HETATM    9  N2  UNL     1      43.391  29.811  11.885  1.00  0.00    -0.051 N 
ATOM     10  H23 UNL     1      44.309  30.237  11.754  1.00  0.00     0.276 HD
ATOM     11  H22 UNL     1      43.164  29.619  10.909  1.00  0.00     0.276 HD
ATOM     12  H21 UNL     1      42.730  30.468  12.298  1.00  0.00     0.276 HD
ENDBRANCH   4   9
ENDBRANCH   3   4
ENDBRANCH   2   3
ENDBRANCH   1   2
BRANCH   1  13
HETATM   13  N3  UNL     1      44.810  28.844  17.204  1.00  0.00    -0.058 N 
ATOM     14  H33 UNL     1      44.988  29.306  18.096  1.00  0.00     0.276 HD
ATOM     15  H32 UNL     1      44.148  28.143  17.538  1.00  0.00     0.276 HD
ATOM     16  H31 UNL     1      45.652  28.426  16.808  1.00  0.00     0.276 HD
ENDBRANCH   1  13
BRANCH   1  17
HETATM   17  N4  UNL     1      42.862  30.046  16.453  1.00  0.00    -0.348 N 
ATOM     18  H4  UNL     1      42.271  30.118  15.624  1.00  0.00     0.163 HD
BRANCH  17  19
HETATM   19  C5  UNL     1      42.300  30.250  17.572  1.00  0.00     0.119 A 
HETATM   20  C6  UNL     1      42.235  31.530  18.077  1.00  0.00     0.066 A 
HETATM   21  C7  UNL     1      41.614  31.697  19.296  1.00  0.00     0.110 A 
HETATM   22  N5  UNL     1      41.106  30.641  19.937  1.00  0.00    -0.202 N 
HETATM   23  C8  UNL     1      41.163  29.384  19.452  1.00  0.00     0.679 A 
ATOM     24  H5  UNL     1      40.651  30.793  20.837  1.00  0.00     0.183 HD
HETATM   25  N7  UNL     1      41.768  29.217  18.263  1.00  0.00    -0.177 N 
ATOM     26  H7  UNL     1      41.829  28.277  17.869  1.00  0.00     0.185 HD
BRANCH  23  27
HETATM   27  N6  UNL     1      40.674  28.362  20.067  1.00  0.00    -0.224 N 
ATOM     28  H6  UNL     1      41.097  28.095  20.956  1.00  0.00     0.177 HD
BRANCH  27  29
HETATM   29  C9  UNL     1      39.580  27.579  19.588  1.00  0.00     0.164 C 
BRANCH  29  30
HETATM   30  C10 UNL     1      38.298  28.388  19.796  1.00  0.00     0.184 C 
BRANCH  30  31
HETATM   31  O1  UNL     1      37.790  28.227  21.060  1.00  0.00    -0.399 OA
ATOM     32  H1  UNL     1      36.922  27.843  21.047  1.00  0.00     0.209 HD
ENDBRANCH  30  31
ENDBRANCH  29  30
ENDBRANCH  27  29
ENDBRANCH  23  27
ENDBRANCH  17  19
ENDBRANCH   1  17
TORSDOF 12
ENDMDL
MODEL 5
REMARK VINA RESULT: -6.591234089      1.154      1.488
REMARK  12 active torsions:
REMARK  status: ('A' for Active; 'I' for Inactive)
REMARK    1  A    between atoms: N1_1  and  C1_5 
REMARK    2  A    between atoms: C1_5  and  N2_6 
REMARK    3  A    between atoms: C1_5  and  C2_10 
REMARK    4  A    between atoms: C2_10  and  C3_11 
REMARK    5  A    between atoms: C3_11  and  C4_12 
REMARK    6  A    between atoms: C4_12  and  N3_13 
REMARK    7  A    between atoms: C4_12  and  N4_17 
REMARK    8  A    between atoms: N4_17  and  C5_19 
REMARK    9  A    between atoms: C8_24  and  N6_25 
REMARK   10  A    between atoms: N6_25  and  C9_27 
REMARK   11  A    between atoms: C9_27  and  C10_28 
REMARK   12  A    between atoms: C10_28  and  O1_29 
ROOT
HETATM    1  C4  UNL     1      41.671  29.118  18.228  1.00  0.00     0.283 C 
ENDROOT
BRANCH   1   2
HETATM    2  C3  UNL     1      40.260  29.639  18.135  1.00  0.00     0.058 C 
BRANCH   2   3
HETATM    3  C2  UNL     1      40.214  31.134  18.465  1.00  0.00     0.066 C 
BRANCH   3   4
HETATM    4  C1  UNL     1      38.931  31.467  19.201  1.00  0.00     0.378 C 
BRANCH   4   5
HETATM    5  N1  UNL     1      38.315  30.257  19.705  1.00  0.00    -0.051 N 
ATOM      6  H13 UNL     1      38.490  30.138  20.703  1.00  0.00     0.276 HD
ATOM      7  H12 UNL     1      37.298  30.338  19.731  1.00  0.00     0.276 HD
ATOM      8  H11 UNL     1      38.611  29.437  19.175  1.00  0.00     0.276 HD
ENDBRANCH   4   5
BRANCH   4   9
HETATM    9  N2  UNL     1      39.245  32.386  20.268  1.00  0.00    -0.051 N 
ATOM     10  H23 UNL     1      39.788  31.932  21.003  1.00  0.00     0.276 HD
ATOM     11  H22 UNL     1      39.930  33.081  19.971  1.00  0.00     0.276 HD
ATOM     12  H21 UNL     1      38.405  32.827  20.642  1.00  0.00     0.276 HD
ENDBRANCH   4   9
ENDBRANCH   3   4
ENDBRANCH   2   3
ENDBRANCH   1   2
BRANCH   1  13
HETATM   13  N3  UNL     1      41.950  28.782  19.593  1.00  0.00    -0.058 N 
ATOM     14  H33 UNL     1      41.297  28.093  19.966  1.00  0.00     0.276 HD
ATOM     15  H32 UNL     1      42.805  28.235  19.693  1.00  0.00     0.276 HD
ATOM     16  H31 UNL     1      41.970  29.639  20.146  1.00  0.00     0.276 HD
ENDBRANCH   1  13
BRANCH   1  17
HETATM   17  N4  UNL     1      42.628  29.968  17.608  1.00  0.00    -0.348 N 
ATOM     18  H4  UNL     1      42.758  30.891  18.023  1.00  0.00     0.163 HD
BRANCH  17  19
HETATM   19  C5  UNL     1      43.337  29.696  16.592  1.00  0.00     0.119 A 
HETATM   20  C6  UNL     1      44.696  29.919  16.631  1.00  0.00     0.066 A 
HETATM   21  C7  UNL     1      45.419  29.606  15.500  1.00  0.00     0.110 A 
HETATM   22  N5  UNL     1      44.800  29.108  14.427  1.00  0.00    -0.202 N 
HETATM   23  C8  UNL     1      43.471  28.887  14.377  1.00  0.00     0.679 A 
ATOM     24  H5  UNL     1      45.359  28.885  13.603  1.00  0.00     0.183 HD
HETATM   25  N7  UNL     1      42.760  29.191  15.477  1.00  0.00    -0.177 N 
ATOM     26  H7  UNL     1      41.752  29.035  15.472  1.00  0.00     0.185 HD
BRANCH  23  27
HETATM   27  N6  UNL     1      42.868  28.407  13.343  1.00  0.00    -0.224 N 
ATOM     28  H6  UNL     1      42.064  27.799  13.502  1.00  0.00     0.177 HD
BRANCH  27  29
HETATM   29  C9  UNL     1      43.249  28.668  11.992  1.00  0.00     0.164 C 
BRANCH  29  30
HETATM   30  C10 UNL     1      42.770  27.494  11.135  1.00  0.00     0.184 C 
BRANCH  30  31
HETATM   31  O1  UNL     1      41.865  26.708  11.803  1.00  0.00    -0.399 OA
ATOM     32  H1  UNL     1      41.256  26.286  11.209  1.00  0.00     0.209 HD
ENDBRANCH  30  31
ENDBRANCH  29  30
ENDBRANCH  27  29
ENDBRANCH  23  27
ENDBRANCH  17  19
ENDBRANCH   1  17
TORSDOF 12
ENDMDL
