MODEL 1
REMARK VINA RESULT: -8.461077315      0.000      0.000
REMARK  11 active torsions:
REMARK  status: ('A' for Active; 'I' for Inactive)
REMARK       I    between atoms: N1_1  and  C1_4 
REMARK       I    between atoms: C1_4  and  N2_5 
REMARK    1  A    between atoms: N2_5  and  N3_7 
REMARK       I    between atoms: N4_10  and  C2_12 
REMARK    2  A    between atoms: C2_12  and  C3_14 
REMARK    3  A    between atoms: C3_14  and  C4_15 
REMARK    4  A    between atoms: C3_14  and  N5_18 
REMARK    5  A    between atoms: C4_15  and  O2_16 
REMARK    6  A    between atoms: N5_18  and  C5_20 
REMARK    7  A    between atoms: C8_25  and  C9_26 
REMARK    8  A    between atoms: C9_26  and  N7_27 
REMARK    9  A    between atoms: C11_29  and  C12_30 
REMARK   10  A    between atoms: C12_30  and  O4_31 
REMARK   11  A    between atoms: C12_30  and  O5_33 
ROOT
HETATM    1  C5  UNL     1      14.772 -13.020  49.615  1.00  0.00     0.108 A 
HETATM    2  C6  UNL     1      13.563 -13.518  49.233  1.00  0.00     0.123 A 
HETATM    3  C7  UNL     1      13.339 -14.209  48.031  1.00  0.00     0.257 A 
HETATM    4  O3  UNL     1      12.168 -14.604  47.822  1.00  0.00    -0.268 OA
HETATM    5  N6  UNL     1      14.380 -14.418  47.159  1.00  0.00    -0.260 N 
HETATM    6  C8  UNL     1      14.295 -15.041  46.004  1.00  0.00     0.048 A 
HETATM    7  C13 UNL     1      15.497 -15.129  45.285  1.00  0.00     0.080 A 
HETATM    8  S1  UNL     1      16.614 -14.341  46.277  1.00  0.00    -0.063 SA
HETATM    9  C14 UNL     1      15.533 -13.929  47.559  1.00  0.00     0.159 A 
HETATM   10  N10 UNL     1      15.758 -13.253  48.729  1.00  0.00    -0.322 N 
ATOM     11  H10 UNL     1      16.700 -12.918  48.935  1.00  0.00     0.169 HD
ENDROOT
BRANCH   1  12
HETATM   12  N5  UNL     1      15.041 -12.292  50.816  1.00  0.00    -0.361 N 
ATOM     13  H5  UNL     1      14.464 -12.504  51.630  1.00  0.00     0.162 HD
BRANCH  12  14
HETATM   14  C3  UNL     1      16.053 -11.290  50.974  1.00  0.00     0.199 C 
BRANCH  14  15
HETATM   15  C2  UNL     1      16.832 -11.599  52.195  1.00  0.00     0.260 C 
HETATM   16  N4  UNL     1      17.292 -12.972  52.489  1.00  0.00    -0.157 N 
HETATM   17  C1  UNL     1      17.984 -13.225  53.598  1.00  0.00     0.692 C 
ATOM     18  H4  UNL     1      17.078 -13.729  51.840  1.00  0.00     0.187 HD
HETATM   19  N1  UNL     1      18.619 -13.456  54.616  1.00  0.00    -0.233 N 
HETATM   20  N2  UNL     1      18.028 -14.966  53.254  1.00  0.00    -0.139 N 
ATOM     21  H12 UNL     1      19.150 -13.650  55.466  1.00  0.00     0.174 HD
ATOM     22  H11 UNL     1      18.594 -12.456  54.814  1.00  0.00     0.174 HD
ATOM     23  H2  UNL     1      17.356 -15.679  53.537  1.00  0.00     0.205 HD
HETATM   24  O1  UNL     1      17.111 -10.697  53.001  1.00  0.00    -0.270 OA
BRANCH  20  25
HETATM   25  N3  UNL     1      19.116 -15.122  52.556  1.00  0.00    -0.331 N 
ATOM     26  H32 UNL     1      20.075 -15.129  52.900  1.00  0.00     0.177 HD
ATOM     27  H31 UNL     1      18.781 -15.233  51.599  1.00  0.00     0.177 HD
ENDBRANCH  20  25
ENDBRANCH  14  15
BRANCH  14  28
HETATM   28  C4  UNL     1      15.322  -9.951  51.274  1.00  0.00     0.199 C 
BRANCH  28  29
HETATM   29  O2  UNL     1      16.081  -8.864  50.890  1.00  0.00    -0.398 OA
ATOM     30  H2  UNL     1      15.938  -8.646  49.976  1.00  0.00     0.209 HD
ENDBRANCH  28  29
ENDBRANCH  14  28
ENDBRANCH  12  14
ENDBRANCH   1  12
BRANCH   6  31
HETATM   31  C9  UNL     1      13.087 -15.649  45.318  1.00  0.00     0.208 C 
BRANCH  31  32
HETATM   32  N7  UNL     1      12.365 -14.756  44.483  1.00  0.00    -0.281 N 
HETATM   33  C10 UNL     1      12.651 -13.437  44.387  1.00  0.00     0.143 A 
HETATM   34  C11 UNL     1      11.763 -12.810  43.540  1.00  0.00     0.098 A 
HETATM   35  N8  UNL     1      10.932 -13.809  43.136  1.00  0.00    -0.284 N 
HETATM   36  N9  UNL     1      11.319 -14.949  43.714  1.00  0.00    -0.240 N 
ATOM     37  H8  UNL     1      10.144 -13.704  42.497  1.00  0.00     0.188 HD
ATOM     38  H9  UNL     1      10.863 -15.851  43.576  1.00  0.00     0.208 HD
BRANCH  34  39
HETATM   39  C12 UNL     1      11.763 -11.371  43.177  1.00  0.00     0.308 C 
BRANCH  39  40
HETATM   40  O4  UNL     1      13.001 -10.778  43.440  1.00  0.00    -0.366 OA
ATOM     41  H4  UNL     1      13.023 -10.392  44.308  1.00  0.00     0.213 HD
ENDBRANCH  39  40
BRANCH  39  42
HETATM   42  O5  UNL     1      11.420 -11.264  41.816  1.00  0.00    -0.366 OA
ATOM     43  H5  UNL     1      12.192 -11.468  41.302  1.00  0.00     0.213 HD
ENDBRANCH  39  42
ENDBRANCH  34  39
ENDBRANCH  31  32
ENDBRANCH   6  31
TORSDOF 11
ENDMDL
MODEL 2
REMARK VINA RESULT: -8.320013185      1.621      1.899
REMARK  11 active torsions:
REMARK  status: ('A' for Active; 'I' for Inactive)
REMARK       I    between atoms: N1_1  and  C1_4 
REMARK       I    between atoms: C1_4  and  N2_5 
REMARK    1  A    between atoms: N2_5  and  N3_7 
REMARK       I    between atoms: N4_10  and  C2_12 
REMARK    2  A    between atoms: C2_12  and  C3_14 
REMARK    3  A    between atoms: C3_14  and  C4_15 
REMARK    4  A    between atoms: C3_14  and  N5_18 
REMARK    5  A    between atoms: C4_15  and  O2_16 
REMARK    6  A    between atoms: N5_18  and  C5_20 
REMARK    7  A    between atoms: C8_25  and  C9_26 
REMARK    8  A    between atoms: C9_26  and  N7_27 
REMARK    9  A    between atoms: C11_29  and  C12_30 
REMARK   10  A    between atoms: C12_30  and  O4_31 
REMARK   11  A    between atoms: C12_30  and  O5_33 
ROOT
HETATM    1  C5  UNL     1      14.934 -13.116  50.194  1.00  0.00     0.108 A 
HETATM    2  C6  UNL     1      15.412 -12.931  48.932  1.00  0.00     0.123 A 
HETATM    3  C7  UNL     1      14.900 -13.575  47.793  1.00  0.00     0.257 A 
HETATM    4  O3  UNL     1      15.449 -13.301  46.700  1.00  0.00    -0.268 OA
HETATM    5  N6  UNL     1      13.850 -14.453  47.918  1.00  0.00    -0.260 N 
HETATM    6  C8  UNL     1      13.291 -15.119  46.933  1.00  0.00     0.048 A 
HETATM    7  C13 UNL     1      12.232 -15.961  47.308  1.00  0.00     0.080 A 
HETATM    8  S1  UNL     1      12.123 -15.744  48.979  1.00  0.00    -0.063 SA
HETATM    9  C14 UNL     1      13.410 -14.605  49.148  1.00  0.00     0.159 A 
HETATM   10  N10 UNL     1      13.905 -13.982  50.263  1.00  0.00    -0.322 N 
ATOM     11  H10 UNL     1      13.482 -14.179  51.170  1.00  0.00     0.169 HD
ENDROOT
BRANCH   1  12
HETATM   12  N5  UNL     1      15.437 -12.501  51.383  1.00  0.00    -0.361 N 
ATOM     13  H5  UNL     1      15.180 -12.927  52.273  1.00  0.00     0.162 HD
BRANCH  12  14
HETATM   14  C3  UNL     1      16.272 -11.338  51.430  1.00  0.00     0.199 C 
BRANCH  14  15
HETATM   15  C2  UNL     1      16.708 -11.130  52.830  1.00  0.00     0.260 C 
HETATM   16  N4  UNL     1      17.379 -12.202  53.595  1.00  0.00    -0.157 N 
HETATM   17  C1  UNL     1      17.754 -11.993  54.856  1.00  0.00     0.692 C 
ATOM     18  H4  UNL     1      17.556 -13.105  53.156  1.00  0.00     0.187 HD
HETATM   19  N1  UNL     1      18.098 -11.800  56.012  1.00  0.00    -0.233 N 
HETATM   20  N2  UNL     1      18.317 -13.667  55.036  1.00  0.00    -0.139 N 
ATOM     21  H12 UNL     1      18.385 -11.640  56.979  1.00  0.00     0.174 HD
ATOM     22  H11 UNL     1      17.774 -10.839  55.909  1.00  0.00     0.174 HD
ATOM     23  H2  UNL     1      17.786 -14.477  55.353  1.00  0.00     0.205 HD
HETATM   24  O1  UNL     1      16.511 -10.041  53.390  1.00  0.00    -0.270 OA
BRANCH  20  25
HETATM   25  N3  UNL     1      19.566 -13.620  54.671  1.00  0.00    -0.331 N 
ATOM     26  H32 UNL     1      19.929 -13.492  53.727  1.00  0.00     0.177 HD
ATOM     27  H31 UNL     1      20.082 -13.740  55.542  1.00  0.00     0.177 HD
ENDBRANCH  20  25
ENDBRANCH  14  15
BRANCH  14  28
HETATM   28  C4  UNL     1      15.369 -10.118  51.090  1.00  0.00     0.199 C 
BRANCH  28  29
HETATM   29  O2  UNL     1      16.115  -8.970  50.917  1.00  0.00    -0.398 OA
ATOM     30  H2  UNL     1      16.178  -8.732  50.000  1.00  0.00     0.209 HD
ENDBRANCH  28  29
ENDBRANCH  14  28
ENDBRANCH  12  14
ENDBRANCH   1  12
BRANCH   6  31
HETATM   31  C9  UNL     1      13.640 -15.142  45.457  1.00  0.00     0.208 C 
BRANCH  31  32
HETATM   32  N7  UNL     1      12.728 -14.448  44.619  1.00  0.00    -0.281 N 
HETATM   33  C10 UNL     1      12.863 -13.140  44.301  1.00  0.00     0.143 A 
HETATM   34  C11 UNL     1      11.813 -12.723  43.511  1.00  0.00     0.098 A 
HETATM   35  N8  UNL     1      11.044 -13.837  43.372  1.00  0.00    -0.284 N 
HETATM   36  N9  UNL     1      11.617 -14.841  44.041  1.00  0.00    -0.240 N 
ATOM     37  H8  UNL     1      10.173 -13.896  42.844  1.00  0.00     0.188 HD
ATOM     38  H9  UNL     1      11.242 -15.788  44.096  1.00  0.00     0.208 HD
BRANCH  34  39
HETATM   39  C12 UNL     1      11.618 -11.361  42.956  1.00  0.00     0.308 C 
BRANCH  39  40
HETATM   40  O4  UNL     1      12.780 -10.591  43.072  1.00  0.00    -0.366 OA
ATOM     41  H4  UNL     1      12.790  -9.882  42.441  1.00  0.00     0.213 HD
ENDBRANCH  39  40
BRANCH  39  42
HETATM   42  O5  UNL     1      11.219 -11.490  41.613  1.00  0.00    -0.366 OA
ATOM     43  H5  UNL     1      10.848 -10.661  41.335  1.00  0.00     0.213 HD
ENDBRANCH  39  42
ENDBRANCH  34  39
ENDBRANCH  31  32
ENDBRANCH   6  31
TORSDOF 11
ENDMDL
MODEL 3
REMARK VINA RESULT: -8.082177191      1.905      2.340
REMARK  11 active torsions:
REMARK  status: ('A' for Active; 'I' for Inactive)
REMARK       I    between atoms: N1_1  and  C1_4 
REMARK       I    between atoms: C1_4  and  N2_5 
REMARK    1  A    between atoms: N2_5  and  N3_7 
REMARK       I    between atoms: N4_10  and  C2_12 
REMARK    2  A    between atoms: C2_12  and  C3_14 
REMARK    3  A    between atoms: C3_14  and  C4_15 
REMARK    4  A    between atoms: C3_14  and  N5_18 
REMARK    5  A    between atoms: C4_15  and  O2_16 
REMARK    6  A    between atoms: N5_18  and  C5_20 
REMARK    7  A    between atoms: C8_25  and  C9_26 
REMARK    8  A    between atoms: C9_26  and  N7_27 
REMARK    9  A    between atoms: C11_29  and  C12_30 
REMARK   10  A    between atoms: C12_30  and  O4_31 
REMARK   11  A    between atoms: C12_30  and  O5_33 
ROOT
HETATM    1  C5  UNL     1      15.116 -12.573  49.747  1.00  0.00     0.108 A 
HETATM    2  C6  UNL     1      14.128 -12.082  48.948  1.00  0.00     0.123 A 
HETATM    3  C7  UNL     1      13.928 -12.470  47.612  1.00  0.00     0.257 A 
HETATM    4  O3  UNL     1      12.974 -11.925  47.008  1.00  0.00    -0.268 OA
HETATM    5  N6  UNL     1      14.759 -13.402  47.040  1.00  0.00    -0.260 N 
HETATM    6  C8  UNL     1      14.678 -13.839  45.803  1.00  0.00     0.048 A 
HETATM    7  C13 UNL     1      15.643 -14.793  45.443  1.00  0.00     0.080 A 
HETATM    8  S1  UNL     1      16.559 -14.983  46.849  1.00  0.00    -0.063 SA
HETATM    9  C14 UNL     1      15.699 -13.859  47.839  1.00  0.00     0.159 A 
HETATM   10  N10 UNL     1      15.900 -13.484  49.141  1.00  0.00    -0.322 N 
ATOM     11  H10 UNL     1      16.666 -13.908  49.666  1.00  0.00     0.169 HD
ENDROOT
BRANCH   1  12
HETATM   12  N5  UNL     1      15.371 -12.191  51.101  1.00  0.00    -0.361 N 
ATOM     13  H5  UNL     1      14.956 -12.766  51.834  1.00  0.00     0.162 HD
BRANCH  12  14
HETATM   14  C3  UNL     1      16.160 -11.069  51.516  1.00  0.00     0.199 C 
BRANCH  14  15
HETATM   15  C2  UNL     1      16.200 -11.047  52.996  1.00  0.00     0.260 C 
HETATM   16  N4  UNL     1      17.275 -11.726  53.749  1.00  0.00    -0.157 N 
HETATM   17  C1  UNL     1      17.284 -11.697  55.080  1.00  0.00     0.692 C 
ATOM     18  H4  UNL     1      18.014 -12.218  53.246  1.00  0.00     0.187 HD
HETATM   19  N1  UNL     1      17.292 -11.671  56.302  1.00  0.00    -0.233 N 
HETATM   20  N2  UNL     1      18.712 -12.750  55.160  1.00  0.00    -0.139 N 
ATOM     21  H12 UNL     1      17.298 -11.649  57.322  1.00  0.00     0.174 HD
ATOM     22  H11 UNL     1      16.472 -11.067  56.256  1.00  0.00     0.174 HD
ATOM     23  H2  UNL     1      18.739 -13.769  55.204  1.00  0.00     0.205 HD
HETATM   24  O1  UNL     1      15.317 -10.452  53.635  1.00  0.00    -0.270 OA
BRANCH  20  25
HETATM   25  N3  UNL     1      19.715 -11.921  55.149  1.00  0.00    -0.331 N 
ATOM     26  H32 UNL     1      19.750 -10.999  54.715  1.00  0.00     0.177 HD
ATOM     27  H31 UNL     1      20.444 -12.409  55.670  1.00  0.00     0.177 HD
ENDBRANCH  20  25
ENDBRANCH  14  15
BRANCH  14  28
HETATM   28  C4  UNL     1      15.381  -9.789  51.101  1.00  0.00     0.199 C 
BRANCH  28  29
HETATM   29  O2  UNL     1      16.104  -8.647  51.376  1.00  0.00    -0.398 OA
ATOM     30  H2  UNL     1      16.476  -8.273  50.585  1.00  0.00     0.209 HD
ENDBRANCH  28  29
ENDBRANCH  14  28
ENDBRANCH  12  14
ENDBRANCH   1  12
BRANCH   6  31
HETATM   31  C9  UNL     1      13.721 -13.442  44.695  1.00  0.00     0.208 C 
BRANCH  31  32
HETATM   32  N7  UNL     1      12.476 -14.124  44.711  1.00  0.00    -0.281 N 
HETATM   33  C10 UNL     1      11.607 -14.102  43.675  1.00  0.00     0.143 A 
HETATM   34  C11 UNL     1      10.467 -14.812  43.985  1.00  0.00     0.098 A 
HETATM   35  N8  UNL     1      10.690 -15.257  45.251  1.00  0.00    -0.284 N 
HETATM   36  N9  UNL     1      11.892 -14.831  45.650  1.00  0.00    -0.240 N 
ATOM     37  H8  UNL     1      10.047 -15.823  45.805  1.00  0.00     0.188 HD
ATOM     38  H9  UNL     1      12.302 -15.029  46.563  1.00  0.00     0.208 HD
BRANCH  34  39
HETATM   39  C12 UNL     1       9.294 -15.022  43.100  1.00  0.00     0.308 C 
BRANCH  39  40
HETATM   40  O4  UNL     1       8.913 -13.834  42.468  1.00  0.00    -0.366 OA
ATOM     41  H4  UNL     1       8.003 -13.627  42.640  1.00  0.00     0.213 HD
ENDBRANCH  39  40
BRANCH  39  42
HETATM   42  O5  UNL     1       9.628 -16.018  42.163  1.00  0.00    -0.366 OA
ATOM     43  H5  UNL     1       8.820 -16.372  41.811  1.00  0.00     0.213 HD
ENDBRANCH  39  42
ENDBRANCH  34  39
ENDBRANCH  31  32
ENDBRANCH   6  31
TORSDOF 11
ENDMDL
MODEL 4
REMARK VINA RESULT: -7.793585349      1.982      2.705
REMARK  11 active torsions:
REMARK  status: ('A' for Active; 'I' for Inactive)
REMARK       I    between atoms: N1_1  and  C1_4 
REMARK       I    between atoms: C1_4  and  N2_5 
REMARK    1  A    between atoms: N2_5  and  N3_7 
REMARK       I    between atoms: N4_10  and  C2_12 
REMARK    2  A    between atoms: C2_12  and  C3_14 
REMARK    3  A    between atoms: C3_14  and  C4_15 
REMARK    4  A    between atoms: C3_14  and  N5_18 
REMARK    5  A    between atoms: C4_15  and  O2_16 
REMARK    6  A    between atoms: N5_18  and  C5_20 
REMARK    7  A    between atoms: C8_25  and  C9_26 
REMARK    8  A    between atoms: C9_26  and  N7_27 
REMARK    9  A    between atoms: C11_29  and  C12_30 
REMARK   10  A    between atoms: C12_30  and  O4_31 
REMARK   11  A    between atoms: C12_30  and  O5_33 
ROOT
HETATM    1  C5  UNL     1      15.109 -12.617  49.725  1.00  0.00     0.108 A 
HETATM    2  C6  UNL     1      14.243 -12.024  48.856  1.00  0.00     0.123 A 
HETATM    3  C7  UNL     1      14.067 -12.427  47.522  1.00  0.00     0.257 A 
HETATM    4  O3  UNL     1      13.232 -11.779  46.847  1.00  0.00    -0.268 OA
HETATM    5  N6  UNL     1      14.794 -13.482  47.024  1.00  0.00    -0.260 N 
HETATM    6  C8  UNL     1      14.723 -13.945  45.796  1.00  0.00     0.048 A 
HETATM    7  C13 UNL     1      15.568 -15.032  45.520  1.00  0.00     0.080 A 
HETATM    8  S1  UNL     1      16.368 -15.296  46.983  1.00  0.00    -0.063 SA
HETATM    9  C14 UNL     1      15.616 -14.033  47.890  1.00  0.00     0.159 A 
HETATM   10  N10 UNL     1      15.794 -13.646  49.191  1.00  0.00    -0.322 N 
ATOM     11  H10 UNL     1      16.464 -14.150  49.772  1.00  0.00     0.169 HD
ENDROOT
BRANCH   1  12
HETATM   12  N5  UNL     1      15.338 -12.228  51.082  1.00  0.00    -0.361 N 
ATOM     13  H5  UNL     1      14.908 -12.798  51.810  1.00  0.00     0.162 HD
BRANCH  12  14
HETATM   14  C3  UNL     1      16.120 -11.104  51.506  1.00  0.00     0.199 C 
BRANCH  14  15
HETATM   15  C2  UNL     1      16.161 -11.095  52.986  1.00  0.00     0.260 C 
HETATM   16  N4  UNL     1      17.252 -11.757  53.731  1.00  0.00    -0.157 N 
HETATM   17  C1  UNL     1      17.261 -11.741  55.063  1.00  0.00     0.692 C 
ATOM     18  H4  UNL     1      18.000 -12.229  53.224  1.00  0.00     0.187 HD
HETATM   19  N1  UNL     1      17.270 -11.726  56.285  1.00  0.00    -0.233 N 
HETATM   20  N2  UNL     1      18.711 -12.764  55.131  1.00  0.00    -0.139 N 
ATOM     21  H12 UNL     1      17.278 -11.713  57.305  1.00  0.00     0.174 HD
ATOM     22  H11 UNL     1      16.438 -11.138  56.245  1.00  0.00     0.174 HD
ATOM     23  H2  UNL     1      18.760 -13.782  55.166  1.00  0.00     0.205 HD
HETATM   24  O1  UNL     1      15.267 -10.525  53.631  1.00  0.00    -0.270 OA
BRANCH  20  25
HETATM   25  N3  UNL     1      19.697 -11.914  55.127  1.00  0.00    -0.331 N 
ATOM     26  H32 UNL     1      19.678 -10.944  55.441  1.00  0.00     0.177 HD
ATOM     27  H31 UNL     1      20.478 -12.444  54.741  1.00  0.00     0.177 HD
ENDBRANCH  20  25
ENDBRANCH  14  15
BRANCH  14  28
HETATM   28  C4  UNL     1      15.332  -9.826  51.103  1.00  0.00     0.199 C 
BRANCH  28  29
HETATM   29  O2  UNL     1      16.083  -8.686  51.306  1.00  0.00    -0.398 OA
ATOM     30  H2  UNL     1      15.783  -8.203  52.067  1.00  0.00     0.209 HD
ENDBRANCH  28  29
ENDBRANCH  14  28
ENDBRANCH  12  14
ENDBRANCH   1  12
BRANCH   6  31
HETATM   31  C9  UNL     1      13.893 -13.460  44.623  1.00  0.00     0.208 C 
BRANCH  31  32
HETATM   32  N7  UNL     1      12.563 -13.955  44.591  1.00  0.00    -0.281 N 
HETATM   33  C10 UNL     1      12.062 -14.793  45.527  1.00  0.00     0.143 A 
HETATM   34  C11 UNL     1      10.764 -15.143  45.219  1.00  0.00     0.098 A 
HETATM   35  N8  UNL     1      10.512 -14.482  44.057  1.00  0.00    -0.284 N 
HETATM   36  N9  UNL     1      11.601 -13.787  43.714  1.00  0.00    -0.240 N 
ATOM     37  H8  UNL     1       9.637 -14.512  43.534  1.00  0.00     0.188 HD
ATOM     38  H9  UNL     1      11.674 -13.202  42.882  1.00  0.00     0.208 HD
BRANCH  34  39
HETATM   39  C12 UNL     1       9.884 -16.036  46.013  1.00  0.00     0.308 C 
BRANCH  39  40
HETATM   40  O4  UNL     1      10.358 -16.191  47.318  1.00  0.00    -0.366 OA
ATOM     41  H4  UNL     1      11.180 -16.666  47.334  1.00  0.00     0.213 HD
ENDBRANCH  39  40
BRANCH  39  42
HETATM   42  O5  UNL     1       8.586 -15.492  45.998  1.00  0.00    -0.366 OA
ATOM     43  H5  UNL     1       8.210 -15.604  46.863  1.00  0.00     0.213 HD
ENDBRANCH  39  42
ENDBRANCH  34  39
ENDBRANCH  31  32
ENDBRANCH   6  31
TORSDOF 11
ENDMDL
MODEL 5
REMARK VINA RESULT: -7.786061070      3.182      9.963
REMARK  11 active torsions:
REMARK  status: ('A' for Active; 'I' for Inactive)
REMARK       I    between atoms: N1_1  and  C1_4 
REMARK       I    between atoms: C1_4  and  N2_5 
REMARK    1  A    between atoms: N2_5  and  N3_7 
REMARK       I    between atoms: N4_10  and  C2_12 
REMARK    2  A    between atoms: C2_12  and  C3_14 
REMARK    3  A    between atoms: C3_14  and  C4_15 
REMARK    4  A    between atoms: C3_14  and  N5_18 
REMARK    5  A    between atoms: C4_15  and  O2_16 
REMARK    6  A    between atoms: N5_18  and  C5_20 
REMARK    7  A    between atoms: C8_25  and  C9_26 
REMARK    8  A    between atoms: C9_26  and  N7_27 
REMARK    9  A    between atoms: C11_29  and  C12_30 
REMARK   10  A    between atoms: C12_30  and  O4_31 
REMARK   11  A    between atoms: C12_30  and  O5_33 
ROOT
HETATM    1  C5  UNL     1      11.905 -15.135  45.161  1.00  0.00     0.108 A 
HETATM    2  C6  UNL     1      12.975 -14.302  45.023  1.00  0.00     0.123 A 
HETATM    3  C7  UNL     1      13.778 -13.868  46.090  1.00  0.00     0.257 A 
HETATM    4  O3  UNL     1      14.727 -13.100  45.800  1.00  0.00    -0.268 OA
HETATM    5  N6  UNL     1      13.503 -14.288  47.369  1.00  0.00    -0.260 N 
HETATM    6  C8  UNL     1      14.175 -13.946  48.446  1.00  0.00     0.048 A 
HETATM    7  C13 UNL     1      13.702 -14.502  49.645  1.00  0.00     0.080 A 
HETATM    8  S1  UNL     1      12.381 -15.434  49.157  1.00  0.00    -0.063 SA
HETATM    9  C14 UNL     1      12.468 -15.093  47.467  1.00  0.00     0.159 A 
HETATM   10  N10 UNL     1      11.679 -15.520  46.431  1.00  0.00    -0.322 N 
ATOM     11  H10 UNL     1      10.899 -16.147  46.629  1.00  0.00     0.169 HD
ENDROOT
BRANCH   1  12
HETATM   12  N5  UNL     1      11.046 -15.584  44.110  1.00  0.00    -0.361 N 
ATOM     13  H5  UNL     1      11.457 -16.188  43.398  1.00  0.00     0.162 HD
BRANCH  12  14
HETATM   14  C3  UNL     1       9.658 -15.257  43.971  1.00  0.00     0.199 C 
BRANCH  14  15
HETATM   15  C2  UNL     1       8.947 -16.445  43.448  1.00  0.00     0.260 C 
HETATM   16  N4  UNL     1       8.457 -16.499  42.054  1.00  0.00    -0.157 N 
HETATM   17  C1  UNL     1       7.813 -17.577  41.611  1.00  0.00     0.692 C 
ATOM     18  H4  UNL     1       8.613 -15.707  41.430  1.00  0.00     0.187 HD
HETATM   19  N1  UNL     1       7.222 -18.566  41.204  1.00  0.00    -0.233 N 
HETATM   20  N2  UNL     1       7.507 -16.826  40.031  1.00  0.00    -0.139 N 
ATOM     21  H12 UNL     1       6.729 -19.392  40.863  1.00  0.00     0.174 HD
ATOM     22  H11 UNL     1       7.398 -18.997  42.111  1.00  0.00     0.174 HD
ATOM     23  H2  UNL     1       6.707 -16.260  39.749  1.00  0.00     0.205 HD
HETATM   24  O1  UNL     1       8.747 -17.425  44.182  1.00  0.00    -0.270 OA
BRANCH  20  25
HETATM   25  N3  UNL     1       8.540 -17.165  39.315  1.00  0.00    -0.331 N 
ATOM     26  H32 UNL     1       9.475 -17.399  39.651  1.00  0.00     0.177 HD
ATOM     27  H31 UNL     1       8.195 -17.140  38.356  1.00  0.00     0.177 HD
ENDBRANCH  20  25
ENDBRANCH  14  15
BRANCH  14  28
HETATM   28  C4  UNL     1       9.556 -14.183  42.850  1.00  0.00     0.199 C 
BRANCH  28  29
HETATM   29  O2  UNL     1      10.676 -14.187  42.044  1.00  0.00    -0.398 OA
ATOM     30  H2  UNL     1      11.140 -13.359  42.090  1.00  0.00     0.209 HD
ENDBRANCH  28  29
ENDBRANCH  14  28
ENDBRANCH  12  14
ENDBRANCH   1  12
BRANCH   6  31
HETATM   31  C9  UNL     1      15.363 -13.015  48.592  1.00  0.00     0.208 C 
BRANCH  31  32
HETATM   32  N7  UNL     1      15.427 -12.321  49.829  1.00  0.00    -0.281 N 
HETATM   33  C10 UNL     1      15.169 -10.999  49.950  1.00  0.00     0.143 A 
HETATM   34  C11 UNL     1      15.350 -10.588  51.254  1.00  0.00     0.098 A 
HETATM   35  N8  UNL     1      15.730 -11.721  51.906  1.00  0.00    -0.284 N 
HETATM   36  N9  UNL     1      15.764 -12.729  51.030  1.00  0.00    -0.240 N 
ATOM     37  H8  UNL     1      15.952 -11.789  52.899  1.00  0.00     0.188 HD
ATOM     38  H9  UNL     1      16.018 -13.689  51.264  1.00  0.00     0.208 HD
BRANCH  34  39
HETATM   39  C12 UNL     1      15.153  -9.214  51.777  1.00  0.00     0.308 C 
BRANCH  39  40
HETATM   40  O4  UNL     1      16.166  -8.353  51.344  1.00  0.00    -0.366 OA
ATOM     41  H4  UNL     1      16.557  -7.884  52.072  1.00  0.00     0.213 HD
ENDBRANCH  39  40
BRANCH  39  42
HETATM   42  O5  UNL     1      13.885  -8.767  51.361  1.00  0.00    -0.366 OA
ATOM     43  H5  UNL     1      13.529  -8.215  52.046  1.00  0.00     0.213 HD
ENDBRANCH  39  42
ENDBRANCH  34  39
ENDBRANCH  31  32
ENDBRANCH   6  31
TORSDOF 11
ENDMDL
