MODEL 1
REMARK VINA RESULT: -7.242656061      0.000      0.000
REMARK  9 active torsions:
REMARK  status: ('A' for Active; 'I' for Inactive)
REMARK    1  A    between atoms: C2_7  and  N3_8 
REMARK    2  A    between atoms: C4_10  and  C5_11 
REMARK    3  A    between atoms: C5_11  and  O1_12 
REMARK    4  A    between atoms: C7_15  and  C8_16 
REMARK    5  A    between atoms: C8_16  and  S1_17 
REMARK    6  A    between atoms: S1_17  and  N4_18 
REMARK    7  A    between atoms: N10_33  and  C13_34 
REMARK    8  A    between atoms: C13_34  and  O2_35 
REMARK    9  A    between atoms: C14_40  and  O3_41 
ROOT
HETATM    1  N1  UNL     1      17.398 -11.953  57.143  1.00  0.00    -0.384 N 
ATOM      2  H11 UNL     1      17.265 -11.101  57.688  1.00  0.00     0.157 HD
ATOM      3  H12 UNL     1      17.805 -12.625  57.794  1.00  0.00     0.157 HD
HETATM    4  C1  UNL     1      17.144 -12.226  55.909  1.00  0.00     0.130 A 
HETATM    5  N2  UNL     1      17.324 -13.384  55.168  1.00  0.00    -0.324 N 
ATOM      6  H2  UNL     1      17.718 -14.242  55.550  1.00  0.00     0.169 HD
HETATM    7  C2  UNL     1      16.933 -13.256  53.917  1.00  0.00     0.158 A 
HETATM    8  C10 UNL     1      16.420 -11.878  53.734  1.00  0.00     0.116 A 
HETATM    9  C11 UNL     1      16.556 -11.253  54.967  1.00  0.00     0.108 A 
HETATM   10  N9  UNL     1      16.097 -10.005  54.822  1.00  0.00    -0.347 N 
ATOM     11  H9  UNL     1      16.060  -9.291  55.549  1.00  0.00     0.167 HD
HETATM   12  C12 UNL     1      15.698  -9.864  53.560  1.00  0.00     0.188 A 
HETATM   13  N10 UNL     1      15.885 -11.014  52.854  1.00  0.00    -0.286 N 
ENDROOT
BRANCH   7  14
HETATM   14  N3  UNL     1      17.020 -14.302  52.976  1.00  0.00    -0.248 N 
HETATM   15  C3  UNL     1      18.196 -15.077  52.907  1.00  0.00     0.127 A 
HETATM   16  C4  UNL     1      18.341 -16.054  52.036  1.00  0.00    -0.015 A 
HETATM   17  C6  UNL     1      17.237 -16.350  51.099  1.00  0.00     0.038 A 
HETATM   18  C7  UNL     1      16.115 -15.654  51.124  1.00  0.00     0.038 A 
HETATM   19  N8  UNL     1      15.989 -14.589  52.091  1.00  0.00    -0.296 N 
ATOM     20  H8  UNL     1      15.130 -14.040  52.124  1.00  0.00     0.187 HD
BRANCH  16  21
HETATM   21  C5  UNL     1      19.600 -16.831  52.012  1.00  0.00     0.204 C 
BRANCH  21  22
HETATM   22  O1  UNL     1      20.413 -16.237  51.028  1.00  0.00    -0.396 OA
ATOM     23  H1  UNL     1      20.453 -16.854  50.306  1.00  0.00     0.209 HD
ENDBRANCH  21  22
ENDBRANCH  16  21
BRANCH  18  24
HETATM   24  C8  UNL     1      15.050 -15.995  50.166  1.00  0.00     0.159 C 
BRANCH  24  25
HETATM   25  S1  UNL     1      15.494 -15.571  48.463  1.00  0.00    -0.003 SA
BRANCH  25  26
HETATM   26  N4  UNL     1      15.035 -13.866  48.214  1.00  0.00    -0.152 N 
HETATM   27  N5  UNL     1      13.813 -13.420  47.938  1.00  0.00    -0.267 N 
HETATM   28  C9  UNL     1      13.831 -12.093  47.817  1.00  0.00     0.218 A 
ATOM     29  H5  UNL     1      12.984 -14.007  47.836  1.00  0.00     0.190 HD
HETATM   30  N6  UNL     1      15.104 -11.710  48.023  1.00  0.00    -0.279 N 
HETATM   31  N7  UNL     1      15.803 -12.804  48.260  1.00  0.00    -0.214 N 
ATOM     32  H6  UNL     1      15.461 -10.756  48.002  1.00  0.00     0.189 HD
ATOM     33  H7  UNL     1      16.805 -12.821  48.452  1.00  0.00     0.211 HD
ENDBRANCH  25  26
ENDBRANCH  24  25
ENDBRANCH  18  24
ENDBRANCH   7  14
BRANCH  13  34
HETATM   34  C13 UNL     1      15.596 -11.284  51.490  1.00  0.00     0.275 C 
HETATM   35  N11 UNL     1      16.802 -11.607  50.716  1.00  0.00    -0.065 NA
HETATM   36  N12 UNL     1      17.236 -10.438  50.150  1.00  0.00    -0.032 NA
HETATM   37  N13 UNL     1      16.299  -9.451  50.277  1.00  0.00    -0.091 NA
HETATM   38  C14 UNL     1      15.115 -10.082  50.715  1.00  0.00     0.304 C 
BRANCH  34  39
HETATM   39  O2  UNL     1      14.645 -12.274  51.267  1.00  0.00    -0.353 OA
ATOM     40  H2  UNL     1      14.481 -12.483  50.355  1.00  0.00     0.214 HD
ENDBRANCH  34  39
BRANCH  38  41
HETATM   41  O3  UNL     1      14.194  -9.311  51.366  1.00  0.00    -0.372 OA
ATOM     42  H3  UNL     1      13.736  -8.687  50.815  1.00  0.00     0.212 HD
ENDBRANCH  38  41
ENDBRANCH  13  34
TORSDOF 9
ENDMDL
MODEL 2
REMARK VINA RESULT: -6.774219209      4.797      9.328
REMARK  9 active torsions:
REMARK  status: ('A' for Active; 'I' for Inactive)
REMARK    1  A    between atoms: C2_7  and  N3_8 
REMARK    2  A    between atoms: C4_10  and  C5_11 
REMARK    3  A    between atoms: C5_11  and  O1_12 
REMARK    4  A    between atoms: C7_15  and  C8_16 
REMARK    5  A    between atoms: C8_16  and  S1_17 
REMARK    6  A    between atoms: S1_17  and  N4_18 
REMARK    7  A    between atoms: N10_33  and  C13_34 
REMARK    8  A    between atoms: C13_34  and  O2_35 
REMARK    9  A    between atoms: C14_40  and  O3_41 
ROOT
HETATM    1  N1  UNL     1      11.291 -11.002  41.940  1.00  0.00    -0.384 N 
ATOM      2  H11 UNL     1      10.529 -10.988  41.261  1.00  0.00     0.157 HD
ATOM      3  H12 UNL     1      11.802 -10.133  41.784  1.00  0.00     0.157 HD
HETATM    4  C1  UNL     1      11.622 -11.869  42.834  1.00  0.00     0.130 A 
HETATM    5  N2  UNL     1      12.657 -11.888  43.757  1.00  0.00    -0.324 N 
ATOM      6  H2  UNL     1      13.347 -11.143  43.845  1.00  0.00     0.169 HD
HETATM    7  C2  UNL     1      12.653 -12.970  44.507  1.00  0.00     0.158 A 
HETATM    8  C10 UNL     1      11.509 -13.815  44.090  1.00  0.00     0.116 A 
HETATM    9  C11 UNL     1      10.882 -13.126  43.060  1.00  0.00     0.108 A 
HETATM   10  N9  UNL     1       9.843 -13.873  42.670  1.00  0.00    -0.347 N 
ATOM     11  H9  UNL     1       9.182 -13.643  41.929  1.00  0.00     0.167 HD
HETATM   12  C12 UNL     1       9.829 -14.972  43.421  1.00  0.00     0.188 A 
HETATM   13  N10 UNL     1      10.855 -14.966  44.318  1.00  0.00    -0.286 N 
ENDROOT
BRANCH   7  14
HETATM   14  N3  UNL     1      13.611 -13.208  45.514  1.00  0.00    -0.248 N 
HETATM   15  C3  UNL     1      14.787 -13.920  45.199  1.00  0.00     0.127 A 
HETATM   16  C4  UNL     1      15.707 -14.188  46.102  1.00  0.00    -0.015 A 
HETATM   17  C6  UNL     1      15.503 -13.729  47.492  1.00  0.00     0.038 A 
HETATM   18  C7  UNL     1      14.419 -13.059  47.837  1.00  0.00     0.038 A 
HETATM   19  N8  UNL     1      13.430 -12.782  46.824  1.00  0.00    -0.296 N 
ATOM     20  H8  UNL     1      12.586 -12.266  47.073  1.00  0.00     0.187 HD
BRANCH  16  21
HETATM   21  C5  UNL     1      16.919 -14.940  45.710  1.00  0.00     0.204 C 
BRANCH  21  22
HETATM   22  O1  UNL     1      17.912 -13.978  45.443  1.00  0.00    -0.396 OA
ATOM     23  H1  UNL     1      18.732 -14.351  45.745  1.00  0.00     0.209 HD
ENDBRANCH  21  22
ENDBRANCH  16  21
BRANCH  18  24
HETATM   24  C8  UNL     1      14.271 -12.627  49.239  1.00  0.00     0.159 C 
BRANCH  24  25
HETATM   25  S1  UNL     1      15.245 -11.148  49.610  1.00  0.00    -0.003 SA
BRANCH  25  26
HETATM   26  N4  UNL     1      16.163 -11.489  51.100  1.00  0.00    -0.152 N 
HETATM   27  N5  UNL     1      15.670 -12.020  52.215  1.00  0.00    -0.267 N 
HETATM   28  C9  UNL     1      16.635 -12.134  53.127  1.00  0.00     0.218 A 
ATOM     29  H5  UNL     1      14.698 -12.298  52.351  1.00  0.00     0.190 HD
HETATM   30  N6  UNL     1      17.756 -11.659  52.557  1.00  0.00    -0.279 N 
HETATM   31  N7  UNL     1      17.436 -11.277  51.335  1.00  0.00    -0.214 N 
ATOM     32  H6  UNL     1      18.679 -11.603  52.987  1.00  0.00     0.189 HD
ATOM     33  H7  UNL     1      18.090 -10.873  50.664  1.00  0.00     0.211 HD
ENDBRANCH  25  26
ENDBRANCH  24  25
ENDBRANCH  18  24
ENDBRANCH   7  14
BRANCH  13  34
HETATM   34  C13 UNL     1      11.196 -15.940  45.294  1.00  0.00     0.275 C 
HETATM   35  N11 UNL     1      12.359 -16.746  44.898  1.00  0.00    -0.065 NA
HETATM   36  N12 UNL     1      11.873 -17.869  44.285  1.00  0.00    -0.032 NA
HETATM   37  N13 UNL     1      10.524 -17.986  44.467  1.00  0.00    -0.091 NA
HETATM   38  C14 UNL     1      10.172 -17.038  45.450  1.00  0.00     0.304 C 
BRANCH  34  39
HETATM   39  O2  UNL     1      11.410 -15.449  46.578  1.00  0.00    -0.353 OA
ATOM     40  H2  UNL     1      12.262 -15.640  46.950  1.00  0.00     0.214 HD
ENDBRANCH  34  39
BRANCH  38  41
HETATM   41  O3  UNL     1       8.874 -16.611  45.478  1.00  0.00    -0.372 OA
ATOM     42  H3  UNL     1       8.406 -16.707  44.657  1.00  0.00     0.212 HD
ENDBRANCH  38  41
ENDBRANCH  13  34
TORSDOF 9
ENDMDL
MODEL 3
REMARK VINA RESULT: -6.448672120      3.867      8.116
REMARK  9 active torsions:
REMARK  status: ('A' for Active; 'I' for Inactive)
REMARK    1  A    between atoms: C2_7  and  N3_8 
REMARK    2  A    between atoms: C4_10  and  C5_11 
REMARK    3  A    between atoms: C5_11  and  O1_12 
REMARK    4  A    between atoms: C7_15  and  C8_16 
REMARK    5  A    between atoms: C8_16  and  S1_17 
REMARK    6  A    between atoms: S1_17  and  N4_18 
REMARK    7  A    between atoms: N10_33  and  C13_34 
REMARK    8  A    between atoms: C13_34  and  O2_35 
REMARK    9  A    between atoms: C14_40  and  O3_41 
ROOT
HETATM    1  N1  UNL     1      19.940 -14.831  43.782  1.00  0.00    -0.384 N 
ATOM      2  H11 UNL     1      20.778 -15.406  43.691  1.00  0.00     0.157 HD
ATOM      3  H12 UNL     1      20.000 -14.151  43.024  1.00  0.00     0.157 HD
HETATM    4  C1  UNL     1      18.967 -14.870  44.625  1.00  0.00     0.130 A 
HETATM    5  N2  UNL     1      17.828 -14.088  44.750  1.00  0.00    -0.324 N 
ATOM      6  H2  UNL     1      17.604 -13.314  44.126  1.00  0.00     0.169 HD
HETATM    7  C2  UNL     1      17.065 -14.453  45.759  1.00  0.00     0.158 A 
HETATM    8  C10 UNL     1      17.711 -15.607  46.430  1.00  0.00     0.116 A 
HETATM    9  C11 UNL     1      18.880 -15.854  45.723  1.00  0.00     0.108 A 
HETATM   10  N9  UNL     1      19.479 -16.894  46.313  1.00  0.00    -0.347 N 
ATOM     11  H9  UNL     1      20.360 -17.321  46.029  1.00  0.00     0.167 HD
HETATM   12  C12 UNL     1      18.717 -17.272  47.336  1.00  0.00     0.188 A 
HETATM   13  N10 UNL     1      17.606 -16.490  47.437  1.00  0.00    -0.286 N 
ENDROOT
BRANCH   7  14
HETATM   14  N3  UNL     1      15.856 -13.804  46.081  1.00  0.00    -0.248 N 
HETATM   15  C3  UNL     1      14.889 -13.601  45.075  1.00  0.00     0.127 A 
HETATM   16  C4  UNL     1      13.749 -12.985  45.313  1.00  0.00    -0.015 A 
HETATM   17  C6  UNL     1      13.473 -12.489  46.677  1.00  0.00     0.038 A 
HETATM   18  C7  UNL     1      14.346 -12.655  47.654  1.00  0.00     0.038 A 
HETATM   19  N8  UNL     1      15.585 -13.334  47.360  1.00  0.00    -0.296 N 
ATOM     20  H8  UNL     1      16.271 -13.470  48.102  1.00  0.00     0.187 HD
BRANCH  16  21
HETATM   21  C5  UNL     1      12.775 -12.801  44.215  1.00  0.00     0.204 C 
BRANCH  21  22
HETATM   22  O1  UNL     1      12.721 -11.418  43.960  1.00  0.00    -0.396 OA
ATOM     23  H1  UNL     1      13.032 -10.989  44.749  1.00  0.00     0.209 HD
ENDBRANCH  21  22
ENDBRANCH  16  21
BRANCH  18  24
HETATM   24  C8  UNL     1      14.014 -12.139  48.994  1.00  0.00     0.159 C 
BRANCH  24  25
HETATM   25  S1  UNL     1      15.378 -11.202  49.727  1.00  0.00    -0.003 SA
BRANCH  25  26
HETATM   26  N4  UNL     1      16.024 -12.184  51.067  1.00  0.00    -0.152 N 
HETATM   27  N5  UNL     1      16.803 -11.744  52.051  1.00  0.00    -0.267 N 
HETATM   28  C9  UNL     1      17.098 -12.747  52.878  1.00  0.00     0.218 A 
ATOM     29  H5  UNL     1      17.126 -10.782  52.157  1.00  0.00     0.190 HD
HETATM   30  N6  UNL     1      16.482 -13.837  52.388  1.00  0.00    -0.279 N 
HETATM   31  N7  UNL     1      15.844 -13.463  51.295  1.00  0.00    -0.214 N 
ATOM     32  H6  UNL     1      16.504 -14.776  52.786  1.00  0.00     0.189 HD
ATOM     33  H7  UNL     1      15.287 -14.084  50.708  1.00  0.00     0.211 HD
ENDBRANCH  25  26
ENDBRANCH  24  25
ENDBRANCH  18  24
ENDBRANCH   7  14
BRANCH  13  34
HETATM   34  C13 UNL     1      16.547 -16.556  48.382  1.00  0.00     0.275 C 
HETATM   35  N11 UNL     1      16.658 -15.523  49.420  1.00  0.00    -0.065 NA
HETATM   36  N12 UNL     1      17.322 -16.089  50.474  1.00  0.00    -0.032 NA
HETATM   37  N13 UNL     1      17.429 -17.442  50.321  1.00  0.00    -0.091 NA
HETATM   38  C14 UNL     1      16.576 -17.789  49.252  1.00  0.00     0.304 C 
BRANCH  34  39
HETATM   39  O2  UNL     1      15.265 -16.513  47.844  1.00  0.00    -0.353 OA
ATOM     40  H2  UNL     1      14.559 -16.662  48.462  1.00  0.00     0.214 HD
ENDBRANCH  34  39
BRANCH  38  41
HETATM   41  O3  UNL     1      16.841 -18.953  48.587  1.00  0.00    -0.372 OA
ATOM     42  H3  UNL     1      16.951 -18.859  47.648  1.00  0.00     0.212 HD
ENDBRANCH  38  41
ENDBRANCH  13  34
TORSDOF 9
ENDMDL
MODEL 4
REMARK VINA RESULT: -6.439124102      4.827      9.112
REMARK  9 active torsions:
REMARK  status: ('A' for Active; 'I' for Inactive)
REMARK    1  A    between atoms: C2_7  and  N3_8 
REMARK    2  A    between atoms: C4_10  and  C5_11 
REMARK    3  A    between atoms: C5_11  and  O1_12 
REMARK    4  A    between atoms: C7_15  and  C8_16 
REMARK    5  A    between atoms: C8_16  and  S1_17 
REMARK    6  A    between atoms: S1_17  and  N4_18 
REMARK    7  A    between atoms: N10_33  and  C13_34 
REMARK    8  A    between atoms: C13_34  and  O2_35 
REMARK    9  A    between atoms: C14_40  and  O3_41 
ROOT
HETATM    1  N1  UNL     1      11.569 -10.911  42.415  1.00  0.00    -0.384 N 
ATOM      2  H11 UNL     1      10.754 -10.751  41.822  1.00  0.00     0.157 HD
ATOM      3  H12 UNL     1      12.084 -10.030  42.402  1.00  0.00     0.157 HD
HETATM    4  C1  UNL     1      11.953 -11.949  43.075  1.00  0.00     0.130 A 
HETATM    5  N2  UNL     1      13.060 -12.167  43.882  1.00  0.00    -0.324 N 
ATOM      6  H2  UNL     1      13.771 -11.460  44.066  1.00  0.00     0.169 HD
HETATM    7  C2  UNL     1      13.095 -13.383  44.384  1.00  0.00     0.158 A 
HETATM    8  C10 UNL     1      11.902 -14.116  43.898  1.00  0.00     0.116 A 
HETATM    9  C11 UNL     1      11.207 -13.223  43.093  1.00  0.00     0.108 A 
HETATM   10  N9  UNL     1      10.125 -13.866  42.644  1.00  0.00    -0.347 N 
ATOM     11  H9  UNL     1       9.409 -13.482  42.028  1.00  0.00     0.167 HD
HETATM   12  C12 UNL     1      10.149 -15.099  43.146  1.00  0.00     0.188 A 
HETATM   13  N10 UNL     1      11.244 -15.287  43.933  1.00  0.00    -0.286 N 
ENDROOT
BRANCH   7  14
HETATM   14  N3  UNL     1      14.127 -13.832  45.233  1.00  0.00    -0.248 N 
HETATM   15  C3  UNL     1      15.430 -13.993  44.717  1.00  0.00     0.127 A 
HETATM   16  C4  UNL     1      16.428 -14.426  45.459  1.00  0.00    -0.015 A 
HETATM   17  C6  UNL     1      16.178 -14.758  46.877  1.00  0.00     0.038 A 
HETATM   18  C7  UNL     1      14.976 -14.624  47.407  1.00  0.00     0.038 A 
HETATM   19  N8  UNL     1      13.904 -14.147  46.568  1.00  0.00    -0.296 N 
ATOM     20  H8  UNL     1      12.969 -14.039  46.960  1.00  0.00     0.187 HD
BRANCH  16  21
HETATM   21  C5  UNL     1      17.772 -14.574  44.859  1.00  0.00     0.204 C 
BRANCH  21  22
HETATM   22  O1  UNL     1      18.261 -13.270  44.655  1.00  0.00    -0.396 OA
ATOM     23  H1  UNL     1      18.487 -13.210  43.734  1.00  0.00     0.209 HD
ENDBRANCH  21  22
ENDBRANCH  16  21
BRANCH  18  24
HETATM   24  C8  UNL     1      14.788 -14.970  48.827  1.00  0.00     0.159 C 
BRANCH  24  25
HETATM   25  S1  UNL     1      13.979 -13.645  49.757  1.00  0.00    -0.003 SA
BRANCH  25  26
HETATM   26  N4  UNL     1      15.062 -12.230  49.697  1.00  0.00    -0.152 N 
HETATM   27  N5  UNL     1      15.791 -11.763  50.706  1.00  0.00    -0.267 N 
HETATM   28  C9  UNL     1      16.482 -10.694  50.309  1.00  0.00     0.218 A 
ATOM     29  H5  UNL     1      15.817 -12.162  51.644  1.00  0.00     0.190 HD
HETATM   30  N6  UNL     1      16.169 -10.498  49.016  1.00  0.00    -0.279 N 
HETATM   31  N7  UNL     1      15.310 -11.441  48.679  1.00  0.00    -0.214 N 
ATOM     32  H6  UNL     1      16.527  -9.760  48.411  1.00  0.00     0.189 HD
ATOM     33  H7  UNL     1      14.895 -11.543  47.752  1.00  0.00     0.211 HD
ENDBRANCH  25  26
ENDBRANCH  24  25
ENDBRANCH  18  24
ENDBRANCH   7  14
BRANCH  13  34
HETATM   34  C13 UNL     1      11.644 -16.447  44.649  1.00  0.00     0.275 C 
HETATM   35  N11 UNL     1      11.006 -17.668  44.139  1.00  0.00    -0.065 NA
HETATM   36  N12 UNL     1       9.882 -17.874  44.894  1.00  0.00    -0.032 NA
HETATM   37  N13 UNL     1       9.868 -17.056  45.989  1.00  0.00    -0.091 NA
HETATM   38  C14 UNL     1      11.155 -16.486  46.076  1.00  0.00     0.304 C 
BRANCH  34  39
HETATM   39  O2  UNL     1      13.017 -16.659  44.723  1.00  0.00    -0.353 OA
ATOM     40  H2  UNL     1      13.304 -17.230  45.425  1.00  0.00     0.214 HD
ENDBRANCH  34  39
BRANCH  38  41
HETATM   41  O3  UNL     1      11.277 -15.307  46.757  1.00  0.00    -0.372 OA
ATOM     42  H3  UNL     1      11.154 -15.375  47.696  1.00  0.00     0.212 HD
ENDBRANCH  38  41
ENDBRANCH  13  34
TORSDOF 9
ENDMDL
MODEL 5
REMARK VINA RESULT: -6.249135270      5.821      9.381
REMARK  9 active torsions:
REMARK  status: ('A' for Active; 'I' for Inactive)
REMARK    1  A    between atoms: C2_7  and  N3_8 
REMARK    2  A    between atoms: C4_10  and  C5_11 
REMARK    3  A    between atoms: C5_11  and  O1_12 
REMARK    4  A    between atoms: C7_15  and  C8_16 
REMARK    5  A    between atoms: C8_16  and  S1_17 
REMARK    6  A    between atoms: S1_17  and  N4_18 
REMARK    7  A    between atoms: N10_33  and  C13_34 
REMARK    8  A    between atoms: C13_34  and  O2_35 
REMARK    9  A    between atoms: C14_40  and  O3_41 
ROOT
HETATM    1  N1  UNL     1      11.596 -10.890  42.187  1.00  0.00    -0.384 N 
ATOM      2  H11 UNL     1      10.909 -10.795  41.438  1.00  0.00     0.157 HD
ATOM      3  H12 UNL     1      12.153 -10.037  42.147  1.00  0.00     0.157 HD
HETATM    4  C1  UNL     1      11.799 -11.832  43.043  1.00  0.00     0.130 A 
HETATM    5  N2  UNL     1      12.732 -11.963  44.061  1.00  0.00    -0.324 N 
ATOM      6  H2  UNL     1      13.438 -11.258  44.273  1.00  0.00     0.169 HD
HETATM    7  C2  UNL     1      12.610 -13.093  44.725  1.00  0.00     0.158 A 
HETATM    8  C10 UNL     1      11.482 -13.853  44.134  1.00  0.00     0.116 A 
HETATM    9  C11 UNL     1      10.992 -13.067  43.100  1.00  0.00     0.108 A 
HETATM   10  N9  UNL     1       9.971 -13.737  42.554  1.00  0.00    -0.347 N 
ATOM     11  H9  UNL     1       9.399 -13.425  41.770  1.00  0.00     0.167 HD
HETATM   12  C12 UNL     1       9.838 -14.883  43.217  1.00  0.00     0.188 A 
HETATM   13  N10 UNL     1      10.764 -14.987  44.210  1.00  0.00    -0.286 N 
ENDROOT
BRANCH   7  14
HETATM   14  N3  UNL     1      13.448 -13.444  45.802  1.00  0.00    -0.248 N 
HETATM   15  C3  UNL     1      13.637 -12.532  46.861  1.00  0.00     0.127 A 
HETATM   16  C4  UNL     1      14.423 -12.799  47.883  1.00  0.00    -0.015 A 
HETATM   17  C6  UNL     1      15.132 -14.095  47.924  1.00  0.00     0.038 A 
HETATM   18  C7  UNL     1      14.988 -14.983  46.958  1.00  0.00     0.038 A 
HETATM   19  N8  UNL     1      14.120 -14.660  45.851  1.00  0.00    -0.296 N 
ATOM     20  H8  UNL     1      13.998 -15.333  45.095  1.00  0.00     0.187 HD
BRANCH  16  21
HETATM   21  C5  UNL     1      14.581 -11.801  48.963  1.00  0.00     0.204 C 
BRANCH  21  22
HETATM   22  O1  UNL     1      15.740 -11.064  48.656  1.00  0.00    -0.396 OA
ATOM     23  H1  UNL     1      16.303 -11.647  48.159  1.00  0.00     0.209 HD
ENDBRANCH  21  22
ENDBRANCH  16  21
BRANCH  18  24
HETATM   24  C8  UNL     1      15.721 -16.258  47.054  1.00  0.00     0.159 C 
BRANCH  24  25
HETATM   25  S1  UNL     1      17.499 -16.014  47.292  1.00  0.00    -0.003 SA
BRANCH  25  26
HETATM   26  N4  UNL     1      18.084 -15.059  45.905  1.00  0.00    -0.152 N 
HETATM   27  N5  UNL     1      19.035 -15.427  45.051  1.00  0.00    -0.267 N 
HETATM   28  C9  UNL     1      19.218 -14.472  44.138  1.00  0.00     0.218 A 
ATOM     29  H5  UNL     1      19.547 -16.308  45.089  1.00  0.00     0.190 HD
HETATM   30  N6  UNL     1      18.355 -13.487  44.441  1.00  0.00    -0.279 N 
HETATM   31  N7  UNL     1      17.686 -13.873  45.511  1.00  0.00    -0.214 N 
ATOM     32  H6  UNL     1      18.237 -12.608  43.938  1.00  0.00     0.189 HD
ATOM     33  H7  UNL     1      16.960 -13.322  45.970  1.00  0.00     0.211 HD
ENDBRANCH  25  26
ENDBRANCH  24  25
ENDBRANCH  18  24
ENDBRANCH   7  14
BRANCH  13  34
HETATM   34  C13 UNL     1      10.966 -16.041  45.140  1.00  0.00     0.275 C 
HETATM   35  N11 UNL     1      12.165 -16.833  44.837  1.00  0.00    -0.065 NA
HETATM   36  N12 UNL     1      11.758 -17.896  44.077  1.00  0.00    -0.032 NA
HETATM   37  N13 UNL     1      10.396 -18.003  44.068  1.00  0.00    -0.091 NA
HETATM   38  C14 UNL     1       9.923 -17.130  45.070  1.00  0.00     0.304 C 
BRANCH  34  39
HETATM   39  O2  UNL     1      11.010 -15.657  46.476  1.00  0.00    -0.353 OA
ATOM     40  H2  UNL     1      11.783 -15.169  46.735  1.00  0.00     0.214 HD
ENDBRANCH  34  39
BRANCH  38  41
HETATM   41  O3  UNL     1       8.635 -16.683  44.960  1.00  0.00    -0.372 OA
ATOM     42  H3  UNL     1       8.039 -17.290  44.538  1.00  0.00     0.212 HD
ENDBRANCH  38  41
ENDBRANCH  13  34
TORSDOF 9
ENDMDL
