MODEL 1
REMARK VINA RESULT: -7.754492272      0.000      0.000
REMARK  11 active torsions:
REMARK  status: ('A' for Active; 'I' for Inactive)
REMARK    1  A    between atoms: C2_5  and  N3_6 
REMARK    2  A    between atoms: C4_14  and  N6_15 
REMARK    3  A    between atoms: C5_18  and  N7_19 
REMARK    4  A    between atoms: N7_19  and  N8_21 
REMARK    5  A    between atoms: N8_21  and  C6_23 
REMARK    6  A    between atoms: C7_27  and  N11_28 
REMARK    7  A    between atoms: C8_33  and  N13_34 
REMARK    8  A    between atoms: N15_40  and  C10_41 
REMARK    9  A    between atoms: C10_41  and  O2_42 
REMARK   10  A    between atoms: O2_42  and  C11_43 
REMARK   11  A    between atoms: C11_43  and  C12_44 
ROOT
HETATM    1  C6  UNL     1      15.625 -12.623  50.847  1.00  0.00     0.731 A 
HETATM    2  N9  UNL     1      14.801 -13.669  50.657  1.00  0.00    -0.094 N 
ATOM      3  H9  UNL     1      14.598 -14.417  51.320  1.00  0.00     0.207 HD
HETATM    4  N10 UNL     1      14.306 -13.531  49.439  1.00  0.00     0.106 N 
HETATM    5  C7  UNL     1      13.434 -14.337  48.803  1.00  0.00     0.727 A 
HETATM    6  N12 UNL     1      13.032 -14.045  47.554  1.00  0.00    -0.020 N 
ATOM      7  H12 UNL     1      12.372 -14.641  47.056  1.00  0.00     0.203 HD
HETATM    8  C8  UNL     1      13.534 -12.940  46.991  1.00  0.00     0.705 A 
HETATM    9  N14 UNL     1      14.404 -12.126  47.611  1.00  0.00    -0.019 N 
ATOM     10  H14 UNL     1      14.754 -11.295  47.134  1.00  0.00     0.203 HD
HETATM   11  C9  UNL     1      14.816 -12.410  48.870  1.00  0.00     0.752 A 
HETATM   12  N15 UNL     1      15.644 -11.835  49.747  1.00  0.00     0.013 N 
ENDROOT
BRANCH   1  13
HETATM   13  N8  UNL     1      16.406 -12.302  51.994  1.00  0.00    -0.129 N 
ATOM     14  H8  UNL     1      16.976 -11.456  52.017  1.00  0.00     0.205 HD
BRANCH  13  15
HETATM   15  N7  UNL     1      16.375 -13.104  53.004  1.00  0.00    -0.280 N 
ATOM     16  H7  UNL     1      15.662 -13.831  53.060  1.00  0.00     0.188 HD
BRANCH  15  17
HETATM   17  C5  UNL     1      17.353 -12.965  54.050  1.00  0.00     0.139 A 
HETATM   18  C4  UNL     1      17.343 -11.881  54.897  1.00  0.00     0.135 A 
HETATM   19  N5  UNL     1      18.299 -11.854  55.835  1.00  0.00    -0.292 N 
HETATM   20  C3  UNL     1      19.229 -12.830  55.957  1.00  0.00     0.348 A 
ATOM     21  H5  UNL     1      18.328 -11.067  56.483  1.00  0.00     0.172 HD
HETATM   22  N4  UNL     1      19.224 -13.882  55.120  1.00  0.00    -0.076 N 
HETATM   23  O1  UNL     1      20.115 -12.777  56.848  1.00  0.00    -0.245 OA
HETATM   24  C2  UNL     1      20.001 -14.981  54.996  1.00  0.00     0.703 A 
HETATM   25  C13 UNL     1      18.286 -13.992  54.134  1.00  0.00     0.182 A 
HETATM   26  N2  UNL     1      19.520 -15.723  53.949  1.00  0.00    -0.128 N 
HETATM   27  N1  UNL     1      18.477 -15.122  53.423  1.00  0.00    -0.264 N 
ATOM     28  H2  UNL     1      19.913 -16.607  53.627  1.00  0.00     0.206 HD
HETATM   29  C1  UNL     1      17.660 -15.553  52.299  1.00  0.00     0.180 C 
BRANCH  18  30
HETATM   30  N6  UNL     1      16.459 -10.953  54.781  1.00  0.00    -0.383 N 
ATOM     31  H62 UNL     1      16.351 -10.235  55.497  1.00  0.00     0.157 HD
ATOM     32  H61 UNL     1      15.831 -10.890  53.981  1.00  0.00     0.157 HD
ENDBRANCH  18  30
BRANCH  24  33
HETATM   33  N3  UNL     1      21.013 -15.284  55.728  1.00  0.00    -0.233 N 
ATOM     34  H32 UNL     1      21.074 -15.193  56.742  1.00  0.00     0.174 HD
ATOM     35  H31 UNL     1      21.899 -15.660  55.392  1.00  0.00     0.174 HD
ENDBRANCH  24  33
ENDBRANCH  15  17
ENDBRANCH  13  15
ENDBRANCH   1  13
BRANCH  12  36
HETATM   36  C10 UNL     1      16.377 -10.629  49.517  1.00  0.00     0.337 C 
BRANCH  36  37
HETATM   37  O2  UNL     1      15.644  -9.482  49.801  1.00  0.00    -0.360 OA
BRANCH  37  38
HETATM   38  C11 UNL     1      15.955  -9.103  51.105  1.00  0.00     0.282 C 
BRANCH  38  39
HETATM   39  C12 UNL     1      14.771  -8.970  51.957  1.00  0.00     0.197 C 
HETATM   40  O3  UNL     1      13.710  -8.523  51.452  1.00  0.00    -0.646 OA
HETATM   41  O4  UNL     1      14.745  -9.309  53.300  1.00  0.00    -0.646 OA
ENDBRANCH  38  39
ENDBRANCH  37  38
ENDBRANCH  36  37
ENDBRANCH  12  36
BRANCH   5  42
HETATM   42  N11 UNL     1      12.962 -15.409  49.379  1.00  0.00    -0.232 N 
ATOM     43 2H11 UNL     1      12.388 -15.303  50.215  1.00  0.00     0.174 HD
ATOM     44 1H11 UNL     1      13.159 -16.338  49.006  1.00  0.00     0.174 HD
ENDBRANCH   5  42
BRANCH   8  45
HETATM   45  N13 UNL     1      13.176 -12.612  45.780  1.00  0.00    -0.234 N 
ATOM     46 2H13 UNL     1      12.280 -12.970  45.449  1.00  0.00     0.174 HD
ATOM     47 1H13 UNL     1      13.788 -12.023  45.215  1.00  0.00     0.174 HD
ENDBRANCH   8  45
TORSDOF 11
ENDMDL
MODEL 2
REMARK VINA RESULT: -7.747010883      1.617      7.406
REMARK  11 active torsions:
REMARK  status: ('A' for Active; 'I' for Inactive)
REMARK    1  A    between atoms: C2_5  and  N3_6 
REMARK    2  A    between atoms: C4_14  and  N6_15 
REMARK    3  A    between atoms: C5_18  and  N7_19 
REMARK    4  A    between atoms: N7_19  and  N8_21 
REMARK    5  A    between atoms: N8_21  and  C6_23 
REMARK    6  A    between atoms: C7_27  and  N11_28 
REMARK    7  A    between atoms: C8_33  and  N13_34 
REMARK    8  A    between atoms: N15_40  and  C10_41 
REMARK    9  A    between atoms: C10_41  and  O2_42 
REMARK   10  A    between atoms: O2_42  and  C11_43 
REMARK   11  A    between atoms: C11_43  and  C12_44 
ROOT
HETATM    1  C6  UNL     1      16.964 -13.375  52.882  1.00  0.00     0.731 A 
HETATM    2  N9  UNL     1      17.790 -14.432  52.970  1.00  0.00    -0.094 N 
ATOM      3  H9  UNL     1      17.807 -15.250  52.361  1.00  0.00     0.207 HD
HETATM    4  N10 UNL     1      18.576 -14.199  54.007  1.00  0.00     0.106 N 
HETATM    5  C7  UNL     1      19.565 -14.976  54.489  1.00  0.00     0.727 A 
HETATM    6  N12 UNL     1      20.272 -14.582  55.563  1.00  0.00    -0.020 N 
ATOM      7  H12 UNL     1      21.025 -15.155  55.942  1.00  0.00     0.203 HD
HETATM    8  C8  UNL     1      19.947 -13.407  56.113  1.00  0.00     0.705 A 
HETATM    9  N14 UNL     1      18.964 -12.620  55.646  1.00  0.00    -0.019 N 
ATOM     10  H14 UNL     1      18.758 -11.732  56.105  1.00  0.00     0.203 HD
HETATM   11  C9  UNL     1      18.244 -13.006  54.564  1.00  0.00     0.752 A 
HETATM   12  N15 UNL     1      17.234 -12.484  53.863  1.00  0.00     0.013 N 
ENDROOT
BRANCH   1  13
HETATM   13  N8  UNL     1      15.927 -13.133  51.936  1.00  0.00    -0.129 N 
ATOM     14  H8  UNL     1      15.230 -12.407  52.100  1.00  0.00     0.205 HD
BRANCH  13  15
HETATM   15  N7  UNL     1      15.889 -13.853  50.866  1.00  0.00    -0.280 N 
ATOM     16  H7  UNL     1      16.302 -14.786  50.860  1.00  0.00     0.188 HD
BRANCH  15  17
HETATM   17  C5  UNL     1      15.260 -13.332  49.681  1.00  0.00     0.139 A 
HETATM   18  C4  UNL     1      15.524 -12.055  49.237  1.00  0.00     0.135 A 
HETATM   19  N5  UNL     1      14.884 -11.673  48.123  1.00  0.00    -0.292 N 
HETATM   20  C3  UNL     1      14.026 -12.483  47.462  1.00  0.00     0.348 A 
ATOM     21  H5  UNL     1      15.050 -10.735  47.761  1.00  0.00     0.172 HD
HETATM   22  N4  UNL     1      13.780 -13.727  47.910  1.00  0.00    -0.076 N 
HETATM   23  O1  UNL     1      13.439 -12.096  46.418  1.00  0.00    -0.245 OA
HETATM   24  C2  UNL     1      12.995 -14.739  47.478  1.00  0.00     0.703 A 
HETATM   25  C13 UNL     1      14.388 -14.200  49.038  1.00  0.00     0.182 A 
HETATM   26  N2  UNL     1      13.145 -15.790  48.343  1.00  0.00    -0.128 N 
HETATM   27  N1  UNL     1      13.992 -15.464  49.293  1.00  0.00    -0.264 N 
ATOM     28  H2  UNL     1      12.670 -16.689  48.262  1.00  0.00     0.206 HD
HETATM   29  C1  UNL     1      14.442 -16.272  50.417  1.00  0.00     0.180 C 
BRANCH  18  30
HETATM   30  N6  UNL     1      16.339 -11.286  49.867  1.00  0.00    -0.383 N 
ATOM     31  H62 UNL     1      16.671 -10.416  49.451  1.00  0.00     0.157 HD
ATOM     32  H61 UNL     1      16.692 -11.504  50.799  1.00  0.00     0.157 HD
ENDBRANCH  18  30
BRANCH  24  33
HETATM   33  N3  UNL     1      12.240 -14.725  46.438  1.00  0.00    -0.233 N 
ATOM     34  H32 UNL     1      11.318 -15.154  46.355  1.00  0.00     0.174 HD
ATOM     35  H31 UNL     1      12.461 -14.279  45.548  1.00  0.00     0.174 HD
ENDBRANCH  24  33
ENDBRANCH  15  17
ENDBRANCH  13  15
ENDBRANCH   1  13
BRANCH  12  36
HETATM   36  C10 UNL     1      16.603 -11.231  54.140  1.00  0.00     0.337 C 
BRANCH  36  37
HETATM   37  O2  UNL     1      16.576 -10.380  53.041  1.00  0.00    -0.360 OA
BRANCH  37  38
HETATM   38  C11 UNL     1      15.351  -9.717  53.059  1.00  0.00     0.282 C 
BRANCH  38  39
HETATM   39  C12 UNL     1      15.093  -8.962  51.831  1.00  0.00     0.197 C 
HETATM   40  O3  UNL     1      16.067  -8.633  51.107  1.00  0.00    -0.646 OA
HETATM   41  O4  UNL     1      13.828  -8.584  51.409  1.00  0.00    -0.646 OA
ENDBRANCH  38  39
ENDBRANCH  37  38
ENDBRANCH  36  37
ENDBRANCH  12  36
BRANCH   5  42
HETATM   42  N11 UNL     1      19.859 -16.118  53.930  1.00  0.00    -0.232 N 
ATOM     43 2H11 UNL     1      20.081 -16.133  52.935  1.00  0.00     0.174 HD
ATOM     44 1H11 UNL     1      19.868 -16.983  54.471  1.00  0.00     0.174 HD
ENDBRANCH   5  42
BRANCH   8  45
HETATM   45  N13 UNL     1      20.601 -12.978  57.157  1.00  0.00    -0.234 N 
ATOM     46 2H13 UNL     1      20.067 -12.848  58.017  1.00  0.00     0.174 HD
ATOM     47 1H13 UNL     1      21.601 -12.791  57.085  1.00  0.00     0.174 HD
ENDBRANCH   8  45
TORSDOF 11
ENDMDL
MODEL 3
REMARK VINA RESULT: -7.555348762      1.418      1.493
REMARK  11 active torsions:
REMARK  status: ('A' for Active; 'I' for Inactive)
REMARK    1  A    between atoms: C2_5  and  N3_6 
REMARK    2  A    between atoms: C4_14  and  N6_15 
REMARK    3  A    between atoms: C5_18  and  N7_19 
REMARK    4  A    between atoms: N7_19  and  N8_21 
REMARK    5  A    between atoms: N8_21  and  C6_23 
REMARK    6  A    between atoms: C7_27  and  N11_28 
REMARK    7  A    between atoms: C8_33  and  N13_34 
REMARK    8  A    between atoms: N15_40  and  C10_41 
REMARK    9  A    between atoms: C10_41  and  O2_42 
REMARK   10  A    between atoms: O2_42  and  C11_43 
REMARK   11  A    between atoms: C11_43  and  C12_44 
ROOT
HETATM    1  C6  UNL     1      15.109 -12.686  50.634  1.00  0.00     0.731 A 
HETATM    2  N9  UNL     1      14.253 -13.640  50.229  1.00  0.00    -0.094 N 
ATOM      3  H9  UNL     1      13.870 -14.399  50.792  1.00  0.00     0.207 HD
HETATM    4  N10 UNL     1      14.008 -13.397  48.953  1.00  0.00     0.106 N 
HETATM    5  C7  UNL     1      13.208 -14.086  48.117  1.00  0.00     0.727 A 
HETATM    6  N12 UNL     1      13.072 -13.696  46.837  1.00  0.00    -0.020 N 
ATOM      7  H12 UNL     1      12.471 -14.203  46.189  1.00  0.00     0.203 HD
HETATM    8  C8  UNL     1      13.758 -12.615  46.450  1.00  0.00     0.705 A 
HETATM    9  N14 UNL     1      14.561 -11.917  47.270  1.00  0.00    -0.019 N 
ATOM     10  H14 UNL     1      15.061 -11.099  46.921  1.00  0.00     0.203 HD
HETATM   11  C9  UNL     1      14.705 -12.300  48.562  1.00  0.00     0.752 A 
HETATM   12  N15 UNL     1      15.398 -11.848  49.611  1.00  0.00     0.013 N 
ENDROOT
BRANCH   1  13
HETATM   13  N8  UNL     1      15.685 -12.496  51.923  1.00  0.00    -0.129 N 
ATOM     14  H8  UNL     1      15.271 -11.843  52.588  1.00  0.00     0.205 HD
BRANCH  13  15
HETATM   15  N7  UNL     1      16.742 -13.169  52.230  1.00  0.00    -0.280 N 
ATOM     16  H7  UNL     1      17.303 -13.604  51.499  1.00  0.00     0.188 HD
BRANCH  15  17
HETATM   17  C5  UNL     1      17.123 -13.300  53.612  1.00  0.00     0.139 A 
HETATM   18  C4  UNL     1      17.595 -12.223  54.327  1.00  0.00     0.135 A 
HETATM   19  N5  UNL     1      17.920 -12.459  55.606  1.00  0.00    -0.292 N 
HETATM   20  C3  UNL     1      17.794 -13.679  56.176  1.00  0.00     0.348 A 
ATOM     21  H5  UNL     1      18.275 -11.688  56.171  1.00  0.00     0.172 HD
HETATM   22  N4  UNL     1      17.331 -14.721  55.463  1.00  0.00    -0.076 N 
HETATM   23  O1  UNL     1      18.107 -13.871  57.380  1.00  0.00    -0.245 OA
HETATM   24  C2  UNL     1      17.103 -16.022  55.748  1.00  0.00     0.703 A 
HETATM   25  C13 UNL     1      16.977 -14.572  54.152  1.00  0.00     0.182 A 
HETATM   26  N2  UNL     1      16.620 -16.624  54.616  1.00  0.00    -0.128 N 
HETATM   27  N1  UNL     1      16.543 -15.744  53.644  1.00  0.00    -0.264 N 
ATOM     28  H2  UNL     1      16.360 -17.608  54.540  1.00  0.00     0.206 HD
HETATM   29  C1  UNL     1      16.087 -15.946  52.277  1.00  0.00     0.180 C 
BRANCH  18  30
HETATM   30  N6  UNL     1      17.714 -11.064  53.784  1.00  0.00    -0.383 N 
ATOM     31  H62 UNL     1      17.952 -10.243  54.340  1.00  0.00     0.157 HD
ATOM     32  H61 UNL     1      17.578 -10.908  52.786  1.00  0.00     0.157 HD
ENDBRANCH  18  30
BRANCH  24  33
HETATM   33  N3  UNL     1      17.300 -16.599  56.879  1.00  0.00    -0.233 N 
ATOM     34  H32 UNL     1      16.582 -16.974  57.499  1.00  0.00     0.174 HD
ATOM     35  H31 UNL     1      18.208 -16.762  57.314  1.00  0.00     0.174 HD
ENDBRANCH  24  33
ENDBRANCH  15  17
ENDBRANCH  13  15
ENDBRANCH   1  13
BRANCH  12  36
HETATM   36  C10 UNL     1      16.257 -10.705  49.599  1.00  0.00     0.337 C 
BRANCH  36  37
HETATM   37  O2  UNL     1      16.626 -10.286  50.872  1.00  0.00    -0.360 OA
BRANCH  37  38
HETATM   38  C11 UNL     1      16.041  -9.039  51.084  1.00  0.00     0.282 C 
BRANCH  38  39
HETATM   39  C12 UNL     1      14.884  -9.098  51.981  1.00  0.00     0.197 C 
HETATM   40  O3  UNL     1      13.791  -8.615  51.591  1.00  0.00    -0.646 OA
HETATM   41  O4  UNL     1      14.919  -9.660  53.247  1.00  0.00    -0.646 OA
ENDBRANCH  38  39
ENDBRANCH  37  38
ENDBRANCH  36  37
ENDBRANCH  12  36
BRANCH   5  42
HETATM   42  N11 UNL     1      12.551 -15.136  48.524  1.00  0.00    -0.232 N 
ATOM     43 2H11 UNL     1      11.590 -15.019  48.845  1.00  0.00     0.174 HD
ATOM     44 1H11 UNL     1      12.982 -16.061  48.526  1.00  0.00     0.174 HD
ENDBRANCH   5  42
BRANCH   8  45
HETATM   45  N13 UNL     1      13.662 -12.195  45.218  1.00  0.00    -0.234 N 
ATOM     46 2H13 UNL     1      12.897 -11.554  45.006  1.00  0.00     0.174 HD
ATOM     47 1H13 UNL     1      14.337 -12.512  44.522  1.00  0.00     0.174 HD
ENDBRANCH   8  45
TORSDOF 11
ENDMDL
MODEL 4
REMARK VINA RESULT: -7.540407380      1.921      7.138
REMARK  11 active torsions:
REMARK  status: ('A' for Active; 'I' for Inactive)
REMARK    1  A    between atoms: C2_5  and  N3_6 
REMARK    2  A    between atoms: C4_14  and  N6_15 
REMARK    3  A    between atoms: C5_18  and  N7_19 
REMARK    4  A    between atoms: N7_19  and  N8_21 
REMARK    5  A    between atoms: N8_21  and  C6_23 
REMARK    6  A    between atoms: C7_27  and  N11_28 
REMARK    7  A    between atoms: C8_33  and  N13_34 
REMARK    8  A    between atoms: N15_40  and  C10_41 
REMARK    9  A    between atoms: C10_41  and  O2_42 
REMARK   10  A    between atoms: O2_42  and  C11_43 
REMARK   11  A    between atoms: C11_43  and  C12_44 
ROOT
HETATM    1  C6  UNL     1      17.253 -12.995  52.788  1.00  0.00     0.731 A 
HETATM    2  N9  UNL     1      18.118 -14.019  52.887  1.00  0.00    -0.094 N 
ATOM      3  H9  UNL     1      18.425 -14.637  52.136  1.00  0.00     0.207 HD
HETATM    4  N10 UNL     1      18.491 -14.065  54.154  1.00  0.00     0.106 N 
HETATM    5  C7  UNL     1      19.350 -14.926  54.735  1.00  0.00     0.727 A 
HETATM    6  N12 UNL     1      19.618 -14.828  56.049  1.00  0.00    -0.020 N 
ATOM      7  H12 UNL     1      20.265 -15.469  56.507  1.00  0.00     0.203 HD
HETATM    8  C8  UNL     1      19.002 -13.856  56.731  1.00  0.00     0.705 A 
HETATM    9  N14 UNL     1      18.143 -12.990  56.167  1.00  0.00    -0.019 N 
ATOM     10  H14 UNL     1      17.701 -12.267  56.735  1.00  0.00     0.203 HD
HETATM   11  C9  UNL     1      17.864 -13.078  54.844  1.00  0.00     0.752 A 
HETATM   12  N15 UNL     1      17.087 -12.403  53.994  1.00  0.00     0.013 N 
ENDROOT
BRANCH   1  13
HETATM   13  N8  UNL     1      16.561 -12.522  51.637  1.00  0.00    -0.129 N 
ATOM     14  H8  UNL     1      16.879 -11.689  51.142  1.00  0.00     0.205 HD
BRANCH  13  15
HETATM   15  N7  UNL     1      15.522 -13.172  51.233  1.00  0.00    -0.280 N 
ATOM     16  H7  UNL     1      14.871 -13.569  51.910  1.00  0.00     0.188 HD
BRANCH  15  17
HETATM   17  C5  UNL     1      15.289 -13.332  49.822  1.00  0.00     0.139 A 
HETATM   18  C4  UNL     1      15.129 -12.241  48.997  1.00  0.00     0.135 A 
HETATM   19  N5  UNL     1      14.918 -12.506  47.701  1.00  0.00    -0.292 N 
HETATM   20  C3  UNL     1      14.864 -13.767  47.214  1.00  0.00     0.348 A 
ATOM     21  H5  UNL     1      14.793 -11.726  47.056  1.00  0.00     0.172 HD
HETATM   22  N4  UNL     1      15.023 -14.821  48.034  1.00  0.00    -0.076 N 
HETATM   23  O1  UNL     1      14.665 -13.985  45.990  1.00  0.00    -0.245 OA
HETATM   24  C2  UNL     1      15.020 -16.160  47.847  1.00  0.00     0.703 A 
HETATM   25  C13 UNL     1      15.242 -14.645  49.370  1.00  0.00     0.182 A 
HETATM   26  N2  UNL     1      15.235 -16.757  49.061  1.00  0.00    -0.128 N 
HETATM   27  N1  UNL     1      15.370 -15.836  49.989  1.00  0.00    -0.264 N 
ATOM     28  H2  UNL     1      15.283 -17.763  49.220  1.00  0.00     0.206 HD
HETATM   29  C1  UNL     1      15.611 -16.019  51.413  1.00  0.00     0.180 C 
BRANCH  18  30
HETATM   30  N6  UNL     1      15.180 -11.043  49.461  1.00  0.00    -0.383 N 
ATOM     31  H62 UNL     1      15.167 -10.865  50.465  1.00  0.00     0.157 HD
ATOM     32  H61 UNL     1      15.234 -10.222  48.858  1.00  0.00     0.157 HD
ENDBRANCH  18  30
BRANCH  24  33
HETATM   33  N3  UNL     1      14.847 -16.772  46.731  1.00  0.00    -0.233 N 
ATOM     34  H32 UNL     1      13.983 -17.209  46.409  1.00  0.00     0.174 HD
ATOM     35  H31 UNL     1      15.555 -16.904  46.008  1.00  0.00     0.174 HD
ENDBRANCH  24  33
ENDBRANCH  15  17
ENDBRANCH  13  15
ENDBRANCH   1  13
BRANCH  12  36
HETATM   36  C10 UNL     1      16.263 -11.286  54.342  1.00  0.00     0.337 C 
BRANCH  36  37
HETATM   37  O2  UNL     1      15.409 -10.897  53.316  1.00  0.00    -0.360 OA
BRANCH  37  38
HETATM   38  C11 UNL     1      15.455  -9.507  53.243  1.00  0.00     0.282 C 
BRANCH  38  39
HETATM   39  C12 UNL     1      15.188  -8.999  51.895  1.00  0.00     0.197 C 
HETATM   40  O3  UNL     1      16.158  -8.799  51.121  1.00  0.00    -0.646 OA
HETATM   41  O4  UNL     1      13.919  -8.723  51.413  1.00  0.00    -0.646 OA
ENDBRANCH  38  39
ENDBRANCH  37  38
ENDBRANCH  36  37
ENDBRANCH  12  36
BRANCH   5  42
HETATM   42  N11 UNL     1      19.936 -15.864  54.044  1.00  0.00    -0.232 N 
ATOM     43 2H11 UNL     1      19.851 -16.830  54.360  1.00  0.00     0.174 HD
ATOM     44 1H11 UNL     1      20.471 -15.644  53.204  1.00  0.00     0.174 HD
ENDBRANCH   5  42
BRANCH   8  45
HETATM   45  N13 UNL     1      19.227 -13.719  58.008  1.00  0.00    -0.234 N 
ATOM     46 2H13 UNL     1      19.653 -14.510  58.491  1.00  0.00     0.174 HD
ATOM     47 1H13 UNL     1      18.977 -12.847  58.475  1.00  0.00     0.174 HD
ENDBRANCH   8  45
TORSDOF 11
ENDMDL
MODEL 5
REMARK VINA RESULT: -7.482352438      1.686      1.797
REMARK  11 active torsions:
REMARK  status: ('A' for Active; 'I' for Inactive)
REMARK    1  A    between atoms: C2_5  and  N3_6 
REMARK    2  A    between atoms: C4_14  and  N6_15 
REMARK    3  A    between atoms: C5_18  and  N7_19 
REMARK    4  A    between atoms: N7_19  and  N8_21 
REMARK    5  A    between atoms: N8_21  and  C6_23 
REMARK    6  A    between atoms: C7_27  and  N11_28 
REMARK    7  A    between atoms: C8_33  and  N13_34 
REMARK    8  A    between atoms: N15_40  and  C10_41 
REMARK    9  A    between atoms: C10_41  and  O2_42 
REMARK   10  A    between atoms: O2_42  and  C11_43 
REMARK   11  A    between atoms: C11_43  and  C12_44 
ROOT
HETATM    1  C6  UNL     1      15.712 -14.159  50.344  1.00  0.00     0.731 A 
HETATM    2  N9  UNL     1      15.917 -15.224  49.549  1.00  0.00    -0.094 N 
ATOM      3  H9  UNL     1      16.245 -16.147  49.833  1.00  0.00     0.207 HD
HETATM    4  N10 UNL     1      15.608 -14.834  48.325  1.00  0.00     0.106 N 
HETATM    5  C7  UNL     1      15.655 -15.556  47.188  1.00  0.00     0.727 A 
HETATM    6  N12 UNL     1      15.302 -14.996  46.018  1.00  0.00    -0.020 N 
ATOM      7  H12 UNL     1      15.330 -15.526  45.147  1.00  0.00     0.203 HD
HETATM    8  C8  UNL     1      14.913 -13.717  46.042  1.00  0.00     0.705 A 
HETATM    9  N14 UNL     1      14.860 -12.983  47.166  1.00  0.00    -0.019 N 
ATOM     10  H14 UNL     1      14.555 -12.010  47.126  1.00  0.00     0.203 HD
HETATM   11  C9  UNL     1      15.213 -13.536  48.352  1.00  0.00     0.752 A 
HETATM   12  N15 UNL     1      15.275 -13.106  49.615  1.00  0.00     0.013 N 
ENDROOT
BRANCH   1  13
HETATM   13  N8  UNL     1      15.895 -14.051  51.753  1.00  0.00    -0.129 N 
ATOM     14  H8  UNL     1      15.151 -14.318  52.398  1.00  0.00     0.205 HD
BRANCH  13  15
HETATM   15  N7  UNL     1      17.024 -13.609  52.194  1.00  0.00    -0.280 N 
ATOM     16  H7  UNL     1      17.758 -13.336  51.541  1.00  0.00     0.188 HD
BRANCH  15  17
HETATM   17  C5  UNL     1      17.238 -13.503  53.613  1.00  0.00     0.139 A 
HETATM   18  C4  UNL     1      16.616 -12.526  54.358  1.00  0.00     0.135 A 
HETATM   19  N5  UNL     1      16.887 -12.520  55.670  1.00  0.00    -0.292 N 
HETATM   20  C3  UNL     1      17.721 -13.417  56.246  1.00  0.00     0.348 A 
ATOM     21  H5  UNL     1      16.448 -11.812  56.257  1.00  0.00     0.172 HD
HETATM   22  N4  UNL     1      18.320 -14.364  55.503  1.00  0.00    -0.076 N 
HETATM   23  O1  UNL     1      17.956 -13.386  57.482  1.00  0.00    -0.245 OA
HETATM   24  C2  UNL     1      19.179 -15.369  55.785  1.00  0.00     0.703 A 
HETATM   25  C13 UNL     1      18.102 -14.445  54.158  1.00  0.00     0.182 A 
HETATM   26  N2  UNL     1      19.458 -16.027  54.617  1.00  0.00    -0.128 N 
HETATM   27  N1  UNL     1      18.804 -15.466  53.625  1.00  0.00    -0.264 N 
ATOM     28  H2  UNL     1      20.080 -16.831  54.530  1.00  0.00     0.206 HD
HETATM   29  C1  UNL     1      18.805 -15.838  52.218  1.00  0.00     0.180 C 
BRANCH  18  30
HETATM   30  N6  UNL     1      15.824 -11.674  53.809  1.00  0.00    -0.383 N 
ATOM     31  H62 UNL     1      14.820 -11.844  53.757  1.00  0.00     0.157 HD
ATOM     32  H61 UNL     1      16.154 -10.798  53.404  1.00  0.00     0.157 HD
ENDBRANCH  18  30
BRANCH  24  33
HETATM   33  N3  UNL     1      19.654 -15.661  56.943  1.00  0.00    -0.233 N 
ATOM     34  H32 UNL     1      19.224 -16.275  57.635  1.00  0.00     0.174 HD
ATOM     35  H31 UNL     1      20.532 -15.316  57.331  1.00  0.00     0.174 HD
ENDBRANCH  24  33
ENDBRANCH  15  17
ENDBRANCH  13  15
ENDBRANCH   1  13
BRANCH  12  36
HETATM   36  C10 UNL     1      14.937 -11.787  50.053  1.00  0.00     0.337 C 
BRANCH  36  37
HETATM   37  O2  UNL     1      15.931 -11.197  50.824  1.00  0.00    -0.360 OA
BRANCH  37  38
HETATM   38  C11 UNL     1      15.898  -9.828  50.568  1.00  0.00     0.282 C 
BRANCH  38  39
HETATM   39  C12 UNL     1      15.151  -9.078  51.580  1.00  0.00     0.197 C 
HETATM   40  O3  UNL     1      15.724  -8.779  52.658  1.00  0.00    -0.646 OA
HETATM   41  O4  UNL     1      13.835  -8.671  51.423  1.00  0.00    -0.646 OA
ENDBRANCH  38  39
ENDBRANCH  37  38
ENDBRANCH  36  37
ENDBRANCH  12  36
BRANCH   5  42
HETATM   42  N11 UNL     1      16.040 -16.802  47.196  1.00  0.00    -0.232 N 
ATOM     43 2H11 UNL     1      15.752 -17.398  47.973  1.00  0.00     0.174 HD
ATOM     44 1H11 UNL     1      16.617 -17.181  46.446  1.00  0.00     0.174 HD
ENDBRANCH   5  42
BRANCH   8  45
HETATM   45  N13 UNL     1      14.561 -13.127  44.933  1.00  0.00    -0.234 N 
ATOM     46 2H13 UNL     1      15.060 -12.272  44.685  1.00  0.00     0.174 HD
ATOM     47 1H13 UNL     1      13.816 -13.526  44.362  1.00  0.00     0.174 HD
ENDBRANCH   8  45
TORSDOF 11
ENDMDL
