MODEL 1
REMARK VINA RESULT: -10.214853652      0.000      0.000
REMARK  9 active torsions:
REMARK  status: ('A' for Active; 'I' for Inactive)
REMARK    1  A    between atoms: C2_2  and  C3_4 
REMARK    2  A    between atoms: C3_4  and  C4_5 
REMARK    3  A    between atoms: C3_4  and  N1_12 
REMARK    4  A    between atoms: C4_5  and  C5_6 
REMARK       I    between atoms: N1_12  and  C11_14 
REMARK    5  A    between atoms: C11_14  and  C12_16 
REMARK    6  A    between atoms: C12_16  and  N2_17 
REMARK    7  A    between atoms: C12_16  and  C29_41 
REMARK       I    between atoms: N2_17  and  C13_19 
REMARK       I    between atoms: C13_19  and  N3_21 
REMARK    8  A    between atoms: C16_24  and  C17_25 
REMARK       I    between atoms: C17_25  and  N4_27 
REMARK    9  A    between atoms: N4_27  and  C18_29 
ROOT
HETATM    1  N2  UNL     1     -20.965 -32.709  19.368  1.00  0.00    -0.326 N 
ATOM      2  H2  UNL     1     -21.220 -31.762  19.088  1.00  0.00     0.165 HD
HETATM    3  C13 UNL     1     -20.596 -33.665  18.387  1.00  0.00     0.319 C 
HETATM    4  O2  UNL     1     -20.279 -34.858  18.774  1.00  0.00    -0.247 OA
HETATM    5  N3  UNL     1     -20.541 -33.422  16.998  1.00  0.00    -0.334 N 
HETATM    6  C14 UNL     1     -20.886 -32.119  16.483  1.00  0.00     0.128 C 
HETATM    7  C15 UNL     1     -19.892 -31.720  15.374  1.00  0.00     0.034 C 
HETATM    8  C16 UNL     1     -19.904 -32.828  14.361  1.00  0.00     0.081 C 
HETATM    9  C27 UNL     1     -19.205 -34.015  15.031  1.00  0.00     0.034 C 
HETATM   10  C28 UNL     1     -20.129 -34.504  16.111  1.00  0.00     0.128 C 
ENDROOT
BRANCH   1  11
HETATM   11  C12 UNL     1     -20.978 -33.090  20.796  1.00  0.00     0.211 C 
BRANCH  11  12
HETATM   12  C11 UNL     1     -19.638 -32.800  21.335  1.00  0.00     0.245 C 
HETATM   13  N1  UNL     1     -18.500 -33.619  21.219  1.00  0.00    -0.348 N 
ATOM     14  H1  UNL     1     -18.580 -34.508  20.726  1.00  0.00     0.163 HD
HETATM   15  O1  UNL     1     -19.473 -31.709  21.966  1.00  0.00    -0.271 OA
BRANCH  13  16
HETATM   16  C3  UNL     1     -17.185 -33.228  21.790  1.00  0.00     0.141 C 
BRANCH  16  17
HETATM   17  C2  UNL     1     -16.439 -32.423  20.777  1.00  0.00     0.192 C 
HETATM   18  C1  UNL     1     -15.035 -33.076  20.557  1.00  0.00     0.047 C 
HETATM   19  F1  UNL     1     -17.035 -32.351  19.536  1.00  0.00    -0.247 F 
ENDBRANCH  16  17
BRANCH  16  20
HETATM   20  C4  UNL     1     -16.606 -34.426  22.372  1.00  0.00     0.004 C 
BRANCH  20  21
HETATM   21  C5  UNL     1     -16.110 -34.545  23.739  1.00  0.00    -0.082 C 
HETATM   22  C6  UNL     1     -14.821 -33.830  24.068  1.00  0.00     0.034 C 
HETATM   23  C7  UNL     1     -14.830 -33.615  25.583  1.00  0.00     0.004 C 
HETATM   24  C8  UNL     1     -15.098 -34.855  26.364  1.00  0.00     0.001 C 
HETATM   25  C9  UNL     1     -16.399 -35.541  25.927  1.00  0.00     0.004 C 
HETATM   26  C10 UNL     1     -16.128 -35.869  24.428  1.00  0.00     0.034 C 
ENDBRANCH  20  21
ENDBRANCH  16  20
ENDBRANCH  13  16
ENDBRANCH  11  12
BRANCH  11  27
HETATM   27  C29 UNL     1     -22.069 -32.383  21.459  1.00  0.00    -0.026 A 
HETATM   28  C30 UNL     1     -22.521 -31.182  20.920  1.00  0.00     0.010 A 
HETATM   29  C31 UNL     1     -23.560 -30.492  21.518  1.00  0.00     0.001 A 
HETATM   30  C32 UNL     1     -24.169 -30.969  22.649  1.00  0.00     0.000 A 
HETATM   31  C33 UNL     1     -23.700 -32.172  23.171  1.00  0.00     0.001 A 
HETATM   32  C34 UNL     1     -22.673 -32.862  22.587  1.00  0.00     0.010 A 
ENDBRANCH  11  27
ENDBRANCH   1  11
BRANCH   8  33
HETATM   33  C17 UNL     1     -19.222 -32.495  13.094  1.00  0.00     0.222 C 
HETATM   34  O3  UNL     1     -18.599 -31.398  13.062  1.00  0.00    -0.273 OA
HETATM   35  N4  UNL     1     -19.284 -33.379  12.006  1.00  0.00    -0.356 N 
ATOM     36  H4  UNL     1     -19.810 -34.249  12.097  1.00  0.00     0.162 HD
BRANCH  35  37
HETATM   37  C18 UNL     1     -18.624 -33.083  10.773  1.00  0.00     0.086 C 
HETATM   38  C19 UNL     1     -17.217 -33.627  10.719  1.00  0.00     0.027 C 
HETATM   39  C20 UNL     1     -17.150 -35.069  10.341  1.00  0.00     0.030 C 
HETATM   40  C21 UNL     1     -17.541 -35.220   8.869  1.00  0.00     0.237 C 
HETATM   41  N5  UNL     1     -18.897 -35.731   8.779  1.00  0.00    -0.067 N 
HETATM   42  C22 UNL     1     -18.911 -37.088   9.276  1.00  0.00     0.239 C 
HETATM   43  C24 UNL     1     -19.314 -36.204   7.496  1.00  0.00     0.239 C 
HETATM   44  C25 UNL     1     -19.831 -34.911   9.513  1.00  0.00     0.239 C 
HETATM   45  C23 UNL     1     -19.787 -37.489   8.126  1.00  0.00     0.056 C 
HETATM   46  C26 UNL     1     -19.464 -33.474   9.581  1.00  0.00     0.053 C 
ENDBRANCH  35  37
ENDBRANCH   8  33
TORSDOF 9
ENDMDL
MODEL 2
REMARK VINA RESULT: -10.096835339      0.912      1.174
REMARK  9 active torsions:
REMARK  status: ('A' for Active; 'I' for Inactive)
REMARK    1  A    between atoms: C2_2  and  C3_4 
REMARK    2  A    between atoms: C3_4  and  C4_5 
REMARK    3  A    between atoms: C3_4  and  N1_12 
REMARK    4  A    between atoms: C4_5  and  C5_6 
REMARK       I    between atoms: N1_12  and  C11_14 
REMARK    5  A    between atoms: C11_14  and  C12_16 
REMARK    6  A    between atoms: C12_16  and  N2_17 
REMARK    7  A    between atoms: C12_16  and  C29_41 
REMARK       I    between atoms: N2_17  and  C13_19 
REMARK       I    between atoms: C13_19  and  N3_21 
REMARK    8  A    between atoms: C16_24  and  C17_25 
REMARK       I    between atoms: C17_25  and  N4_27 
REMARK    9  A    between atoms: N4_27  and  C18_29 
ROOT
HETATM    1  N2  UNL     1     -20.617 -32.664  19.623  1.00  0.00    -0.326 N 
ATOM      2  H2  UNL     1     -20.798 -31.683  19.411  1.00  0.00     0.165 HD
HETATM    3  C13 UNL     1     -20.397 -33.591  18.573  1.00  0.00     0.319 C 
HETATM    4  O2  UNL     1     -20.170 -34.828  18.875  1.00  0.00    -0.247 OA
HETATM    5  N3  UNL     1     -20.401 -33.274  17.197  1.00  0.00    -0.334 N 
HETATM    6  C14 UNL     1     -20.652 -31.917  16.774  1.00  0.00     0.128 C 
HETATM    7  C15 UNL     1     -19.691 -31.546  15.627  1.00  0.00     0.034 C 
HETATM    8  C16 UNL     1     -19.867 -32.588  14.560  1.00  0.00     0.081 C 
HETATM    9  C27 UNL     1     -19.243 -33.869  15.120  1.00  0.00     0.034 C 
HETATM   10  C28 UNL     1     -20.144 -34.335  16.230  1.00  0.00     0.128 C 
ENDROOT
BRANCH   1  11
HETATM   11  C12 UNL     1     -20.582 -33.124  21.027  1.00  0.00     0.211 C 
BRANCH  11  12
HETATM   12  C11 UNL     1     -19.176 -33.072  21.466  1.00  0.00     0.245 C 
HETATM   13  N1  UNL     1     -18.460 -34.111  22.088  1.00  0.00    -0.348 N 
ATOM     14  H1  UNL     1     -18.933 -34.994  22.274  1.00  0.00     0.163 HD
HETATM   15  O1  UNL     1     -18.531 -31.995  21.270  1.00  0.00    -0.271 OA
BRANCH  13  16
HETATM   16  C3  UNL     1     -17.036 -33.961  22.483  1.00  0.00     0.141 C 
BRANCH  16  17
HETATM   17  C2  UNL     1     -16.179 -34.128  21.270  1.00  0.00     0.192 C 
HETATM   18  C1  UNL     1     -15.359 -32.814  21.054  1.00  0.00     0.047 C 
HETATM   19  F1  UNL     1     -15.262 -35.154  21.341  1.00  0.00    -0.247 F 
ENDBRANCH  16  17
BRANCH  16  20
HETATM   20  C4  UNL     1     -16.836 -34.783  23.662  1.00  0.00     0.004 C 
BRANCH  20  21
HETATM   21  C5  UNL     1     -15.899 -34.495  24.743  1.00  0.00    -0.082 C 
HETATM   22  C6  UNL     1     -14.707 -33.631  24.408  1.00  0.00     0.034 C 
HETATM   23  C7  UNL     1     -14.244 -33.017  25.731  1.00  0.00     0.004 C 
HETATM   24  C8  UNL     1     -14.034 -34.016  26.816  1.00  0.00     0.001 C 
HETATM   25  C9  UNL     1     -15.278 -34.882  27.052  1.00  0.00     0.004 C 
HETATM   26  C10 UNL     1     -15.475 -35.583  25.674  1.00  0.00     0.034 C 
ENDBRANCH  20  21
ENDBRANCH  16  20
ENDBRANCH  13  16
ENDBRANCH  11  12
BRANCH  11  27
HETATM   27  C29 UNL     1     -21.498 -32.303  21.812  1.00  0.00    -0.026 A 
HETATM   28  C30 UNL     1     -22.614 -32.902  22.389  1.00  0.00     0.010 A 
HETATM   29  C31 UNL     1     -23.497 -32.154  23.147  1.00  0.00     0.001 A 
HETATM   30  C32 UNL     1     -23.298 -30.814  23.351  1.00  0.00     0.000 A 
HETATM   31  C33 UNL     1     -22.175 -30.236  22.764  1.00  0.00     0.001 A 
HETATM   32  C34 UNL     1     -21.296 -30.966  22.012  1.00  0.00     0.010 A 
ENDBRANCH  11  27
ENDBRANCH   1  11
BRANCH   8  33
HETATM   33  C17 UNL     1     -19.232 -32.245  13.272  1.00  0.00     0.222 C 
HETATM   34  O3  UNL     1     -18.628 -31.137  13.219  1.00  0.00    -0.273 OA
HETATM   35  N4  UNL     1     -19.314 -33.130  12.187  1.00  0.00    -0.356 N 
ATOM     36  H4  UNL     1     -19.822 -34.008  12.295  1.00  0.00     0.162 HD
BRANCH  35  37
HETATM   37  C18 UNL     1     -18.700 -32.824  10.933  1.00  0.00     0.086 C 
HETATM   38  C19 UNL     1     -17.275 -33.314  10.846  1.00  0.00     0.027 C 
HETATM   39  C20 UNL     1     -17.162 -34.757  10.483  1.00  0.00     0.030 C 
HETATM   40  C21 UNL     1     -17.586 -34.942   9.024  1.00  0.00     0.237 C 
HETATM   41  N5  UNL     1     -18.923 -35.505   8.976  1.00  0.00    -0.067 N 
HETATM   42  C22 UNL     1     -18.872 -36.856   9.489  1.00  0.00     0.239 C 
HETATM   43  C24 UNL     1     -19.356 -36.010   7.711  1.00  0.00     0.239 C 
HETATM   44  C25 UNL     1     -19.869 -34.713   9.727  1.00  0.00     0.239 C 
HETATM   45  C23 UNL     1     -19.762 -37.304   8.369  1.00  0.00     0.056 C 
HETATM   46  C26 UNL     1     -19.555 -33.262   9.768  1.00  0.00     0.053 C 
ENDBRANCH  35  37
ENDBRANCH   8  33
TORSDOF 9
ENDMDL
MODEL 3
REMARK VINA RESULT: -9.872435401      1.695      2.204
REMARK  9 active torsions:
REMARK  status: ('A' for Active; 'I' for Inactive)
REMARK    1  A    between atoms: C2_2  and  C3_4 
REMARK    2  A    between atoms: C3_4  and  C4_5 
REMARK    3  A    between atoms: C3_4  and  N1_12 
REMARK    4  A    between atoms: C4_5  and  C5_6 
REMARK       I    between atoms: N1_12  and  C11_14 
REMARK    5  A    between atoms: C11_14  and  C12_16 
REMARK    6  A    between atoms: C12_16  and  N2_17 
REMARK    7  A    between atoms: C12_16  and  C29_41 
REMARK       I    between atoms: N2_17  and  C13_19 
REMARK       I    between atoms: C13_19  and  N3_21 
REMARK    8  A    between atoms: C16_24  and  C17_25 
REMARK       I    between atoms: C17_25  and  N4_27 
REMARK    9  A    between atoms: N4_27  and  C18_29 
ROOT
HETATM    1  N2  UNL     1     -20.790 -32.990  19.301  1.00  0.00    -0.326 N 
ATOM      2  H2  UNL     1     -20.888 -32.062  18.889  1.00  0.00     0.165 HD
HETATM    3  C13 UNL     1     -20.552 -34.115  18.470  1.00  0.00     0.319 C 
HETATM    4  O2  UNL     1     -20.432 -35.278  19.023  1.00  0.00    -0.247 OA
HETATM    5  N3  UNL     1     -20.429 -34.074  17.064  1.00  0.00    -0.334 N 
HETATM    6  C14 UNL     1     -20.556 -32.816  16.370  1.00  0.00     0.128 C 
HETATM    7  C15 UNL     1     -19.488 -32.725  15.262  1.00  0.00     0.034 C 
HETATM    8  C16 UNL     1     -19.650 -33.946  14.402  1.00  0.00     0.081 C 
HETATM    9  C27 UNL     1     -19.157 -35.122  15.250  1.00  0.00     0.034 C 
HETATM   10  C28 UNL     1     -20.170 -35.316  16.345  1.00  0.00     0.128 C 
ENDROOT
BRANCH   1  11
HETATM   11  C12 UNL     1     -20.893 -33.167  20.764  1.00  0.00     0.211 C 
BRANCH  11  12
HETATM   12  C11 UNL     1     -19.569 -32.861  21.333  1.00  0.00     0.245 C 
HETATM   13  N1  UNL     1     -18.424 -33.675  21.262  1.00  0.00    -0.348 N 
ATOM     14  H1  UNL     1     -18.486 -34.573  20.784  1.00  0.00     0.163 HD
HETATM   15  O1  UNL     1     -19.426 -31.757  21.949  1.00  0.00    -0.271 OA
BRANCH  13  16
HETATM   16  C3  UNL     1     -17.127 -33.267  21.862  1.00  0.00     0.141 C 
BRANCH  16  17
HETATM   17  C2  UNL     1     -16.378 -32.437  20.871  1.00  0.00     0.192 C 
HETATM   18  C1  UNL     1     -14.963 -33.069  20.660  1.00  0.00     0.047 C 
HETATM   19  F1  UNL     1     -16.958 -32.353  19.623  1.00  0.00    -0.247 F 
ENDBRANCH  16  17
BRANCH  16  20
HETATM   20  C4  UNL     1     -16.537 -34.460  22.441  1.00  0.00     0.004 C 
BRANCH  20  21
HETATM   21  C5  UNL     1     -16.053 -34.582  23.812  1.00  0.00    -0.082 C 
HETATM   22  C6  UNL     1     -14.779 -33.849  24.160  1.00  0.00     0.034 C 
HETATM   23  C7  UNL     1     -14.808 -33.646  25.676  1.00  0.00     0.004 C 
HETATM   24  C8  UNL     1     -15.064 -34.896  26.445  1.00  0.00     0.001 C 
HETATM   25  C9  UNL     1     -16.349 -35.600  25.989  1.00  0.00     0.004 C 
HETATM   26  C10 UNL     1     -16.057 -35.912  24.490  1.00  0.00     0.034 C 
ENDBRANCH  20  21
ENDBRANCH  16  20
ENDBRANCH  13  16
ENDBRANCH  11  12
BRANCH  11  27
HETATM   27  C29 UNL     1     -21.980 -32.331  21.262  1.00  0.00    -0.026 A 
HETATM   28  C30 UNL     1     -22.619 -32.688  22.445  1.00  0.00     0.010 A 
HETATM   29  C31 UNL     1     -23.647 -31.911  22.950  1.00  0.00     0.001 A 
HETATM   30  C32 UNL     1     -24.061 -30.777  22.303  1.00  0.00     0.000 A 
HETATM   31  C33 UNL     1     -23.407 -30.439  21.120  1.00  0.00     0.001 A 
HETATM   32  C34 UNL     1     -22.390 -31.200  20.613  1.00  0.00     0.010 A 
ENDBRANCH  11  27
ENDBRANCH   1  11
BRANCH   8  33
HETATM   33  C17 UNL     1     -18.897 -33.895  13.133  1.00  0.00     0.222 C 
HETATM   34  O3  UNL     1     -18.799 -32.763  12.582  1.00  0.00    -0.273 OA
HETATM   35  N4  UNL     1     -18.332 -35.063  12.601  1.00  0.00    -0.356 N 
ATOM     36  H4  UNL     1     -18.452 -35.948  13.094  1.00  0.00     0.162 HD
BRANCH  35  37
HETATM   37  C18 UNL     1     -17.590 -35.037  11.379  1.00  0.00     0.086 C 
HETATM   38  C19 UNL     1     -16.176 -34.544  11.564  1.00  0.00     0.027 C 
HETATM   39  C20 UNL     1     -15.235 -35.598  12.044  1.00  0.00     0.030 C 
HETATM   40  C21 UNL     1     -15.007 -36.615  10.923  1.00  0.00     0.237 C 
HETATM   41  N5  UNL     1     -15.773 -37.817  11.198  1.00  0.00    -0.067 N 
HETATM   42  C22 UNL     1     -15.213 -38.464  12.363  1.00  0.00     0.239 C 
HETATM   43  C24 UNL     1     -15.452 -38.968  10.413  1.00  0.00     0.239 C 
HETATM   44  C25 UNL     1     -17.173 -37.529  11.401  1.00  0.00     0.239 C 
HETATM   45  C23 UNL     1     -15.332 -39.789  11.672  1.00  0.00     0.056 C 
HETATM   46  C26 UNL     1     -17.673 -36.354  10.645  1.00  0.00     0.053 C 
ENDBRANCH  35  37
ENDBRANCH   8  33
TORSDOF 9
ENDMDL
MODEL 4
REMARK VINA RESULT: -9.863774648      1.820      2.255
REMARK  9 active torsions:
REMARK  status: ('A' for Active; 'I' for Inactive)
REMARK    1  A    between atoms: C2_2  and  C3_4 
REMARK    2  A    between atoms: C3_4  and  C4_5 
REMARK    3  A    between atoms: C3_4  and  N1_12 
REMARK    4  A    between atoms: C4_5  and  C5_6 
REMARK       I    between atoms: N1_12  and  C11_14 
REMARK    5  A    between atoms: C11_14  and  C12_16 
REMARK    6  A    between atoms: C12_16  and  N2_17 
REMARK    7  A    between atoms: C12_16  and  C29_41 
REMARK       I    between atoms: N2_17  and  C13_19 
REMARK       I    between atoms: C13_19  and  N3_21 
REMARK    8  A    between atoms: C16_24  and  C17_25 
REMARK       I    between atoms: C17_25  and  N4_27 
REMARK    9  A    between atoms: N4_27  and  C18_29 
ROOT
HETATM    1  N2  UNL     1     -20.023 -33.200  19.816  1.00  0.00    -0.326 N 
ATOM      2  H2  UNL     1     -19.699 -32.265  19.566  1.00  0.00     0.165 HD
HETATM    3  C13 UNL     1     -20.277 -34.159  18.802  1.00  0.00     0.319 C 
HETATM    4  O2  UNL     1     -20.687 -35.335  19.151  1.00  0.00    -0.247 OA
HETATM    5  N3  UNL     1     -20.117 -33.938  17.417  1.00  0.00    -0.334 N 
HETATM    6  C14 UNL     1     -19.669 -32.651  16.944  1.00  0.00     0.128 C 
HETATM    7  C15 UNL     1     -18.642 -32.844  15.810  1.00  0.00     0.034 C 
HETATM    8  C16 UNL     1     -19.297 -33.711  14.774  1.00  0.00     0.081 C 
HETATM    9  C27 UNL     1     -19.384 -35.109  15.393  1.00  0.00     0.034 C 
HETATM   10  C28 UNL     1     -20.405 -35.028  16.493  1.00  0.00     0.128 C 
ENDROOT
BRANCH   1  11
HETATM   11  C12 UNL     1     -20.227 -33.559  21.235  1.00  0.00     0.211 C 
BRANCH  11  12
HETATM   12  C11 UNL     1     -18.904 -33.533  21.884  1.00  0.00     0.245 C 
HETATM   13  N1  UNL     1     -17.658 -33.640  21.240  1.00  0.00    -0.348 N 
ATOM     14  H1  UNL     1     -17.635 -33.755  20.227  1.00  0.00     0.163 HD
HETATM   15  O1  UNL     1     -18.864 -33.398  23.148  1.00  0.00    -0.271 OA
BRANCH  13  16
HETATM   16  C3  UNL     1     -16.376 -33.590  21.988  1.00  0.00     0.141 C 
BRANCH  16  17
HETATM   17  C2  UNL     1     -15.256 -33.425  21.013  1.00  0.00     0.192 C 
HETATM   18  C1  UNL     1     -15.746 -32.514  19.840  1.00  0.00     0.047 C 
HETATM   19  F1  UNL     1     -14.123 -32.828  21.523  1.00  0.00    -0.247 F 
ENDBRANCH  16  17
BRANCH  16  20
HETATM   20  C4  UNL     1     -16.395 -34.694  22.931  1.00  0.00     0.004 C 
BRANCH  20  21
HETATM   21  C5  UNL     1     -15.803 -34.675  24.264  1.00  0.00    -0.082 C 
HETATM   22  C6  UNL     1     -16.610 -35.287  25.384  1.00  0.00     0.034 C 
HETATM   23  C7  UNL     1     -15.604 -35.666  26.473  1.00  0.00     0.004 C 
HETATM   24  C8  UNL     1     -14.696 -34.552  26.865  1.00  0.00     0.001 C 
HETATM   25  C9  UNL     1     -13.958 -33.958  25.659  1.00  0.00     0.004 C 
HETATM   26  C10 UNL     1     -15.124 -33.442  24.762  1.00  0.00     0.034 C 
ENDBRANCH  20  21
ENDBRANCH  16  20
ENDBRANCH  13  16
ENDBRANCH  11  12
BRANCH  11  27
HETATM   27  C29 UNL     1     -21.209 -32.648  21.812  1.00  0.00    -0.026 A 
HETATM   28  C30 UNL     1     -20.980 -31.277  21.744  1.00  0.00     0.010 A 
HETATM   29  C31 UNL     1     -21.896 -30.386  22.273  1.00  0.00     0.001 A 
HETATM   30  C32 UNL     1     -23.047 -30.825  22.873  1.00  0.00     0.000 A 
HETATM   31  C33 UNL     1     -23.256 -32.201  22.929  1.00  0.00     0.001 A 
HETATM   32  C34 UNL     1     -22.356 -33.091  22.410  1.00  0.00     0.010 A 
ENDBRANCH  11  27
ENDBRANCH   1  11
BRANCH   8  33
HETATM   33  C17 UNL     1     -18.567 -33.776  13.492  1.00  0.00     0.222 C 
HETATM   34  O3  UNL     1     -18.659 -32.766  12.740  1.00  0.00    -0.273 OA
HETATM   35  N4  UNL     1     -17.818 -34.917  13.164  1.00  0.00    -0.356 N 
ATOM     36  H4  UNL     1     -17.790 -35.701  13.816  1.00  0.00     0.162 HD
BRANCH  35  37
HETATM   37  C18 UNL     1     -17.096 -34.999  11.934  1.00  0.00     0.086 C 
HETATM   38  C19 UNL     1     -15.638 -35.333  12.134  1.00  0.00     0.027 C 
HETATM   39  C20 UNL     1     -15.379 -36.792  12.316  1.00  0.00     0.030 C 
HETATM   40  C21 UNL     1     -15.628 -37.514  10.990  1.00  0.00     0.237 C 
HETATM   41  N5  UNL     1     -16.907 -38.199  11.045  1.00  0.00    -0.067 N 
HETATM   42  C22 UNL     1     -16.812 -39.275  12.005  1.00  0.00     0.239 C 
HETATM   43  C24 UNL     1     -17.161 -39.154  10.011  1.00  0.00     0.239 C 
HETATM   44  C25 UNL     1     -17.984 -37.302  11.391  1.00  0.00     0.239 C 
HETATM   45  C23 UNL     1     -17.540 -40.176  11.053  1.00  0.00     0.056 C 
HETATM   46  C26 UNL     1     -17.785 -35.902  10.939  1.00  0.00     0.053 C 
ENDBRANCH  35  37
ENDBRANCH   8  33
TORSDOF 9
ENDMDL
MODEL 5
REMARK VINA RESULT: -9.591029393      3.178      5.796
REMARK  9 active torsions:
REMARK  status: ('A' for Active; 'I' for Inactive)
REMARK    1  A    between atoms: C2_2  and  C3_4 
REMARK    2  A    between atoms: C3_4  and  C4_5 
REMARK    3  A    between atoms: C3_4  and  N1_12 
REMARK    4  A    between atoms: C4_5  and  C5_6 
REMARK       I    between atoms: N1_12  and  C11_14 
REMARK    5  A    between atoms: C11_14  and  C12_16 
REMARK    6  A    between atoms: C12_16  and  N2_17 
REMARK    7  A    between atoms: C12_16  and  C29_41 
REMARK       I    between atoms: N2_17  and  C13_19 
REMARK       I    between atoms: C13_19  and  N3_21 
REMARK    8  A    between atoms: C16_24  and  C17_25 
REMARK       I    between atoms: C17_25  and  N4_27 
REMARK    9  A    between atoms: N4_27  and  C18_29 
ROOT
HETATM    1  N2  UNL     1     -19.288 -32.778  17.888  1.00  0.00    -0.326 N 
ATOM      2  H2  UNL     1     -19.411 -33.791  17.861  1.00  0.00     0.165 HD
HETATM    3  C13 UNL     1     -19.060 -32.058  16.687  1.00  0.00     0.319 C 
HETATM    4  O2  UNL     1     -18.908 -30.775  16.755  1.00  0.00    -0.247 OA
HETATM    5  N3  UNL     1     -18.986 -32.630  15.399  1.00  0.00    -0.334 N 
HETATM    6  C14 UNL     1     -19.140 -34.056  15.237  1.00  0.00     0.128 C 
HETATM    7  C15 UNL     1     -20.016 -34.346  14.003  1.00  0.00     0.034 C 
HETATM    8  C16 UNL     1     -19.378 -33.639  12.842  1.00  0.00     0.081 C 
HETATM    9  C27 UNL     1     -19.616 -32.145  13.081  1.00  0.00     0.034 C 
HETATM   10  C28 UNL     1     -18.759 -31.756  14.254  1.00  0.00     0.128 C 
ENDROOT
BRANCH   1  11
HETATM   11  C12 UNL     1     -19.348 -32.058  19.177  1.00  0.00     0.211 C 
BRANCH  11  12
HETATM   12  C11 UNL     1     -20.771 -31.934  19.539  1.00  0.00     0.245 C 
HETATM   13  N1  UNL     1     -21.327 -32.146  20.813  1.00  0.00    -0.348 N 
ATOM     14  H1  UNL     1     -20.714 -32.422  21.579  1.00  0.00     0.163 HD
HETATM   15  O1  UNL     1     -21.590 -31.600  18.626  1.00  0.00    -0.271 OA
BRANCH  13  16
HETATM   16  C3  UNL     1     -22.780 -31.983  21.077  1.00  0.00     0.141 C 
BRANCH  16  17
HETATM   17  C2  UNL     1     -22.961 -30.963  22.154  1.00  0.00     0.192 C 
HETATM   18  C1  UNL     1     -23.724 -31.628  23.346  1.00  0.00     0.047 C 
HETATM   19  F1  UNL     1     -21.793 -30.451  22.675  1.00  0.00    -0.247 F 
ENDBRANCH  16  17
BRANCH  16  20
HETATM   20  C4  UNL     1     -23.339 -33.317  21.204  1.00  0.00     0.004 C 
BRANCH  20  21
HETATM   21  C5  UNL     1     -22.664 -34.554  20.825  1.00  0.00    -0.082 C 
HETATM   22  C6  UNL     1     -22.776 -34.983  19.381  1.00  0.00     0.034 C 
HETATM   23  C7  UNL     1     -21.579 -35.900  19.118  1.00  0.00     0.004 C 
HETATM   24  C8  UNL     1     -21.437 -37.002  20.111  1.00  0.00     0.001 C 
HETATM   25  C9  UNL     1     -21.384 -36.476  21.552  1.00  0.00     0.004 C 
HETATM   26  C10 UNL     1     -22.758 -35.756  21.705  1.00  0.00     0.034 C 
ENDBRANCH  20  21
ENDBRANCH  16  20
ENDBRANCH  13  16
ENDBRANCH  11  12
BRANCH  11  27
HETATM   27  C29 UNL     1     -18.529 -32.772  20.151  1.00  0.00    -0.026 A 
HETATM   28  C30 UNL     1     -17.238 -32.320  20.407  1.00  0.00     0.010 A 
HETATM   29  C31 UNL     1     -16.440 -32.968  21.333  1.00  0.00     0.001 A 
HETATM   30  C32 UNL     1     -16.893 -34.064  22.017  1.00  0.00     0.000 A 
HETATM   31  C33 UNL     1     -18.188 -34.499  21.744  1.00  0.00     0.001 A 
HETATM   32  C34 UNL     1     -18.986 -33.866  20.831  1.00  0.00     0.010 A 
ENDBRANCH  11  27
ENDBRANCH   1  11
BRANCH   8  33
HETATM   33  C17 UNL     1     -19.923 -34.028  11.526  1.00  0.00     0.222 C 
HETATM   34  O3  UNL     1     -19.103 -34.067  10.566  1.00  0.00    -0.273 OA
HETATM   35  N4  UNL     1     -21.286 -34.332  11.388  1.00  0.00    -0.356 N 
ATOM     36  H4  UNL     1     -21.896 -34.275  12.204  1.00  0.00     0.162 HD
BRANCH  35  37
HETATM   37  C18 UNL     1     -21.834 -34.719  10.126  1.00  0.00     0.086 C 
HETATM   38  C19 UNL     1     -22.717 -35.940  10.223  1.00  0.00     0.027 C 
HETATM   39  C20 UNL     1     -24.108 -35.636  10.669  1.00  0.00     0.030 C 
HETATM   40  C21 UNL     1     -24.837 -34.880   9.556  1.00  0.00     0.237 C 
HETATM   41  N5  UNL     1     -24.908 -33.470   9.895  1.00  0.00    -0.067 N 
HETATM   42  C22 UNL     1     -25.779 -33.315  11.038  1.00  0.00     0.239 C 
HETATM   43  C24 UNL     1     -25.803 -32.673   9.115  1.00  0.00     0.239 C 
HETATM   44  C25 UNL     1     -23.604 -32.916  10.171  1.00  0.00     0.239 C 
HETATM   45  C23 UNL     1     -26.416 -32.128  10.379  1.00  0.00     0.056 C 
HETATM   46  C26 UNL     1     -22.495 -33.558   9.423  1.00  0.00     0.053 C 
ENDBRANCH  35  37
ENDBRANCH   8  33
TORSDOF 9
ENDMDL
