MODEL 1
REMARK VINA RESULT: -9.188941484      0.000      0.000
REMARK  12 active torsions:
REMARK  status: ('A' for Active; 'I' for Inactive)
REMARK    1  A    between atoms: C7_8  and  N1_9 
REMARK       I    between atoms: N1_9  and  C8_11 
REMARK    2  A    between atoms: N3_13  and  C9_15 
REMARK    3  A    between atoms: C9_15  and  C10_16 
REMARK    4  A    between atoms: C10_16  and  C11_17 
REMARK       I    between atoms: C11_17  and  N4_19 
REMARK    5  A    between atoms: N4_19  and  C12_20 
REMARK    6  A    between atoms: N4_19  and  C27_40 
REMARK    7  A    between atoms: C12_20  and  C13_21 
REMARK    8  A    between atoms: C13_21  and  C14_22 
REMARK    9  A    between atoms: C14_22  and  N5_23 
REMARK       I    between atoms: N5_23  and  C15_25 
REMARK   10  A    between atoms: C15_25  and  C16_27 
REMARK   11  A    between atoms: C16_27  and  C19_30 
REMARK   12  A    between atoms: C26_37  and  O3_38 
ROOT
HETATM    1  C11 UNL     1     -21.260 -31.615  20.195  1.00  0.00     0.222 C 
HETATM    2  O1  UNL     1     -22.123 -31.313  19.323  1.00  0.00    -0.273 OA
HETATM    3  N4  UNL     1     -20.119 -32.395  19.738  1.00  0.00    -0.344 N 
ENDROOT
BRANCH   3   4
HETATM    4  C12 UNL     1     -19.185 -32.752  20.744  1.00  0.00     0.128 C 
BRANCH   4   5
HETATM    5  C13 UNL     1     -18.036 -31.862  20.934  1.00  0.00     0.039 C 
BRANCH   5   6
HETATM    6  C14 UNL     1     -16.721 -32.459  21.238  1.00  0.00     0.124 C 
BRANCH   6   7
HETATM    7  N5  UNL     1     -16.834 -33.526  22.243  1.00  0.00    -0.360 N 
HETATM    8  C15 UNL     1     -15.931 -34.611  22.232  1.00  0.00     0.226 C 
HETATM    9  O2  UNL     1     -15.039 -34.648  21.358  1.00  0.00    -0.273 OA
ATOM     10  H5  UNL     1     -17.567 -33.482  22.951  1.00  0.00     0.162 HD
BRANCH   8  11
HETATM   11  C16 UNL     1     -15.982 -35.726  23.213  1.00  0.00     0.038 C 
HETATM   12  C17 UNL     1     -17.253 -35.740  23.970  1.00  0.00     0.025 C 
HETATM   13  C18 UNL     1     -15.905 -37.021  22.393  1.00  0.00     0.025 C 
BRANCH  11  14
HETATM   14  C19 UNL     1     -14.719 -35.685  24.025  1.00  0.00     0.009 C 
HETATM   15  C20 UNL     1     -14.673 -36.629  25.179  1.00  0.00     0.007 C 
HETATM   16  C21 UNL     1     -14.494 -35.977  26.514  1.00  0.00     0.007 C 
HETATM   17  C22 UNL     1     -13.464 -34.880  26.531  1.00  0.00     0.015 C 
HETATM   18  C23 UNL     1     -14.211 -33.572  26.721  1.00  0.00     0.007 C 
HETATM   19  C26 UNL     1     -12.905 -34.612  25.127  1.00  0.00     0.126 C 
HETATM   20  C24 UNL     1     -15.021 -33.582  25.417  1.00  0.00     0.008 C 
HETATM   21  C25 UNL     1     -14.235 -34.324  24.404  1.00  0.00     0.020 C 
BRANCH  19  22
HETATM   22  O3  UNL     1     -12.151 -33.452  25.208  1.00  0.00    -0.395 OA
ATOM     23  H3  UNL     1     -11.385 -33.582  24.662  1.00  0.00     0.210 HD
ENDBRANCH  19  22
ENDBRANCH  11  14
ENDBRANCH   8  11
ENDBRANCH   6   7
ENDBRANCH   5   6
ENDBRANCH   4   5
ENDBRANCH   3   4
BRANCH   3  24
HETATM   24  C27 UNL     1     -20.096 -32.612  18.320  1.00  0.00     0.024 C 
HETATM   25  C28 UNL     1     -20.245 -34.126  18.118  1.00  0.00     0.037 C 
HETATM   26  C29 UNL     1     -18.755 -32.160  17.731  1.00  0.00     0.037 C 
HETATM   27  C30 UNL     1     -21.182 -31.980  17.537  1.00  0.00     0.037 C 
ENDBRANCH   3  24
BRANCH   1  28
HETATM   28  C10 UNL     1     -21.456 -31.174  21.567  1.00  0.00     0.122 C 
BRANCH  28  29
HETATM   29  C9  UNL     1     -22.754 -31.768  22.155  1.00  0.00     0.131 C 
BRANCH  29  30
HETATM   30  N3  UNL     1     -22.458 -33.130  22.539  1.00  0.00    -0.364 N 
HETATM   31  C8  UNL     1     -22.794 -34.155  21.870  1.00  0.00     0.188 C 
HETATM   32  N1  UNL     1     -22.458 -35.446  22.329  1.00  0.00    -0.330 N 
HETATM   33  N2  UNL     1     -23.511 -34.016  20.660  1.00  0.00    -0.064 NA
ATOM     34  H1  UNL     1     -22.845 -35.755  23.220  1.00  0.00     0.168 HD
ATOM     35  H3  UNL     1     -21.944 -33.277  23.408  1.00  0.00     0.162 HD
BRANCH  32  36
HETATM   36  C7  UNL     1     -21.616 -36.333  21.626  1.00  0.00     0.041 A 
HETATM   37  C2  UNL     1     -22.159 -37.371  20.917  1.00  0.00    -0.018 A 
HETATM   38  C1  UNL     1     -23.630 -37.621  20.850  1.00  0.00     0.052 C 
HETATM   39  C3  UNL     1     -21.328 -38.228  20.236  1.00  0.00     0.019 A 
HETATM   40 BR1  UNL     1     -22.081 -39.674  19.249  1.00  0.00    -0.051 Br
HETATM   41  C4  UNL     1     -19.965 -38.062  20.252  1.00  0.00     0.020 A 
HETATM   42  C5  UNL     1     -19.425 -37.025  20.959  1.00  0.00     0.004 A 
HETATM   43  C6  UNL     1     -20.250 -36.159  21.647  1.00  0.00     0.030 A 
ENDBRANCH  32  36
ENDBRANCH  29  30
ENDBRANCH  28  29
ENDBRANCH   1  28
TORSDOF 12
ENDMDL
MODEL 2
REMARK VINA RESULT: -9.088464019      2.410      4.556
REMARK  12 active torsions:
REMARK  status: ('A' for Active; 'I' for Inactive)
REMARK    1  A    between atoms: C7_8  and  N1_9 
REMARK       I    between atoms: N1_9  and  C8_11 
REMARK    2  A    between atoms: N3_13  and  C9_15 
REMARK    3  A    between atoms: C9_15  and  C10_16 
REMARK    4  A    between atoms: C10_16  and  C11_17 
REMARK       I    between atoms: C11_17  and  N4_19 
REMARK    5  A    between atoms: N4_19  and  C12_20 
REMARK    6  A    between atoms: N4_19  and  C27_40 
REMARK    7  A    between atoms: C12_20  and  C13_21 
REMARK    8  A    between atoms: C13_21  and  C14_22 
REMARK    9  A    between atoms: C14_22  and  N5_23 
REMARK       I    between atoms: N5_23  and  C15_25 
REMARK   10  A    between atoms: C15_25  and  C16_27 
REMARK   11  A    between atoms: C16_27  and  C19_30 
REMARK   12  A    between atoms: C26_37  and  O3_38 
ROOT
HETATM    1  C11 UNL     1     -21.843 -34.699  21.317  1.00  0.00     0.222 C 
HETATM    2  O1  UNL     1     -23.066 -34.401  21.426  1.00  0.00    -0.273 OA
HETATM    3  N4  UNL     1     -21.529 -35.873  20.516  1.00  0.00    -0.344 N 
ENDROOT
BRANCH   3   4
HETATM    4  C12 UNL     1     -20.152 -36.207  20.440  1.00  0.00     0.128 C 
BRANCH   4   5
HETATM    5  C13 UNL     1     -19.756 -37.525  20.944  1.00  0.00     0.039 C 
BRANCH   5   6
HETATM    6  C14 UNL     1     -19.264 -37.634  22.331  1.00  0.00     0.124 C 
BRANCH   6   7
HETATM    7  N5  UNL     1     -18.556 -36.416  22.748  1.00  0.00    -0.360 N 
HETATM    8  C15 UNL     1     -17.150 -36.339  22.643  1.00  0.00     0.226 C 
HETATM    9  O2  UNL     1     -16.522 -37.320  22.191  1.00  0.00    -0.273 OA
ATOM     10  H5  UNL     1     -19.082 -35.623  23.116  1.00  0.00     0.162 HD
BRANCH   8  11
HETATM   11  C16 UNL     1     -16.365 -35.144  23.045  1.00  0.00     0.038 C 
HETATM   12  C17 UNL     1     -15.771 -34.453  21.879  1.00  0.00     0.025 C 
HETATM   13  C18 UNL     1     -17.361 -34.182  23.708  1.00  0.00     0.025 C 
BRANCH  11  14
HETATM   14  C19 UNL     1     -15.417 -35.558  24.133  1.00  0.00     0.009 C 
HETATM   15  C20 UNL     1     -16.059 -36.083  25.373  1.00  0.00     0.007 C 
HETATM   16  C21 UNL     1     -15.741 -35.314  26.616  1.00  0.00     0.007 C 
HETATM   17  C22 UNL     1     -14.293 -34.928  26.750  1.00  0.00     0.015 C 
HETATM   18  C23 UNL     1     -14.218 -33.421  26.580  1.00  0.00     0.007 C 
HETATM   19  C26 UNL     1     -13.488 -35.329  25.506  1.00  0.00     0.126 C 
HETATM   20  C24 UNL     1     -14.708 -33.331  25.128  1.00  0.00     0.008 C 
HETATM   21  C25 UNL     1     -14.324 -34.588  24.444  1.00  0.00     0.020 C 
BRANCH  19  22
HETATM   22  O3  UNL     1     -12.241 -34.735  25.624  1.00  0.00    -0.395 OA
ATOM     23  H3  UNL     1     -11.598 -35.433  25.584  1.00  0.00     0.210 HD
ENDBRANCH  19  22
ENDBRANCH  11  14
ENDBRANCH   8  11
ENDBRANCH   6   7
ENDBRANCH   5   6
ENDBRANCH   4   5
ENDBRANCH   3   4
BRANCH   3  24
HETATM   24  C27 UNL     1     -22.670 -36.459  19.873  1.00  0.00     0.024 C 
HETATM   25  C28 UNL     1     -23.336 -37.359  20.923  1.00  0.00     0.037 C 
HETATM   26  C29 UNL     1     -22.231 -37.320  18.684  1.00  0.00     0.037 C 
HETATM   27  C30 UNL     1     -23.718 -35.523  19.405  1.00  0.00     0.037 C 
ENDBRANCH   3  24
BRANCH   1  28
HETATM   28  C10 UNL     1     -20.851 -33.869  21.981  1.00  0.00     0.122 C 
BRANCH  28  29
HETATM   29  C9  UNL     1     -21.024 -32.386  21.590  1.00  0.00     0.131 C 
BRANCH  29  30
HETATM   30  N3  UNL     1     -21.413 -32.359  20.198  1.00  0.00    -0.364 N 
HETATM   31  C8  UNL     1     -20.641 -32.044  19.241  1.00  0.00     0.188 C 
HETATM   32  N1  UNL     1     -21.116 -32.049  17.913  1.00  0.00    -0.330 N 
HETATM   33  N2  UNL     1     -19.298 -31.683  19.494  1.00  0.00    -0.064 NA
ATOM     34  H1  UNL     1     -21.872 -31.408  17.670  1.00  0.00     0.168 HD
ATOM     35  H3  UNL     1     -22.376 -32.610  19.969  1.00  0.00     0.162 HD
BRANCH  32  36
HETATM   36  C7  UNL     1     -20.607 -32.890  16.901  1.00  0.00     0.041 A 
HETATM   37  C2  UNL     1     -20.304 -32.371  15.671  1.00  0.00    -0.018 A 
HETATM   38  C1  UNL     1     -20.492 -30.927  15.335  1.00  0.00     0.052 C 
HETATM   39  C3  UNL     1     -19.808 -33.200  14.694  1.00  0.00     0.019 A 
HETATM   40 BR1  UNL     1     -19.386 -32.480  12.981  1.00  0.00    -0.051 Br
HETATM   41  C4  UNL     1     -19.610 -34.539  14.928  1.00  0.00     0.020 A 
HETATM   42  C5  UNL     1     -19.911 -35.055  16.157  1.00  0.00     0.004 A 
HETATM   43  C6  UNL     1     -20.411 -34.231  17.145  1.00  0.00     0.030 A 
ENDBRANCH  32  36
ENDBRANCH  29  30
ENDBRANCH  28  29
ENDBRANCH   1  28
TORSDOF 12
ENDMDL
MODEL 3
REMARK VINA RESULT: -9.009461790      3.052      4.547
REMARK  12 active torsions:
REMARK  status: ('A' for Active; 'I' for Inactive)
REMARK    1  A    between atoms: C7_8  and  N1_9 
REMARK       I    between atoms: N1_9  and  C8_11 
REMARK    2  A    between atoms: N3_13  and  C9_15 
REMARK    3  A    between atoms: C9_15  and  C10_16 
REMARK    4  A    between atoms: C10_16  and  C11_17 
REMARK       I    between atoms: C11_17  and  N4_19 
REMARK    5  A    between atoms: N4_19  and  C12_20 
REMARK    6  A    between atoms: N4_19  and  C27_40 
REMARK    7  A    between atoms: C12_20  and  C13_21 
REMARK    8  A    between atoms: C13_21  and  C14_22 
REMARK    9  A    between atoms: C14_22  and  N5_23 
REMARK       I    between atoms: N5_23  and  C15_25 
REMARK   10  A    between atoms: C15_25  and  C16_27 
REMARK   11  A    between atoms: C16_27  and  C19_30 
REMARK   12  A    between atoms: C26_37  and  O3_38 
ROOT
HETATM    1  C11 UNL     1     -20.449 -32.074  18.434  1.00  0.00     0.222 C 
HETATM    2  O1  UNL     1     -21.602 -31.690  18.085  1.00  0.00    -0.273 OA
HETATM    3  N4  UNL     1     -20.317 -32.589  19.789  1.00  0.00    -0.344 N 
ENDROOT
BRANCH   3   4
HETATM    4  C12 UNL     1     -19.007 -32.978  20.167  1.00  0.00     0.128 C 
BRANCH   4   5
HETATM    5  C13 UNL     1     -18.129 -31.934  20.704  1.00  0.00     0.039 C 
BRANCH   5   6
HETATM    6  C14 UNL     1     -16.794 -32.318  21.200  1.00  0.00     0.124 C 
BRANCH   6   7
HETATM    7  N5  UNL     1     -16.884 -33.349  22.244  1.00  0.00    -0.360 N 
HETATM    8  C15 UNL     1     -16.022 -34.468  22.215  1.00  0.00     0.226 C 
HETATM    9  O2  UNL     1     -15.186 -34.565  21.291  1.00  0.00    -0.273 OA
ATOM     10  H5  UNL     1     -17.571 -33.256  22.992  1.00  0.00     0.162 HD
BRANCH   8  11
HETATM   11  C16 UNL     1     -16.053 -35.549  23.233  1.00  0.00     0.038 C 
HETATM   12  C17 UNL     1     -17.247 -35.458  24.101  1.00  0.00     0.025 C 
HETATM   13  C18 UNL     1     -16.136 -36.869  22.452  1.00  0.00     0.025 C 
BRANCH  11  14
HETATM   14  C19 UNL     1     -14.721 -35.571  23.925  1.00  0.00     0.009 C 
HETATM   15  C20 UNL     1     -14.514 -36.703  24.874  1.00  0.00     0.007 C 
HETATM   16  C21 UNL     1     -14.239 -36.294  26.286  1.00  0.00     0.007 C 
HETATM   17  C22 UNL     1     -13.269 -35.151  26.420  1.00  0.00     0.015 C 
HETATM   18  C23 UNL     1     -14.060 -33.954  26.915  1.00  0.00     0.007 C 
HETATM   19  C26 UNL     1     -12.865 -34.595  25.047  1.00  0.00     0.126 C 
HETATM   20  C24 UNL     1     -14.992 -33.782  25.707  1.00  0.00     0.008 C 
HETATM   21  C25 UNL     1     -14.272 -34.271  24.509  1.00  0.00     0.020 C 
BRANCH  19  22
HETATM   22  O3  UNL     1     -12.167 -33.420  25.278  1.00  0.00    -0.395 OA
ATOM     23  H3  UNL     1     -11.512 -33.349  24.594  1.00  0.00     0.210 HD
ENDBRANCH  19  22
ENDBRANCH  11  14
ENDBRANCH   8  11
ENDBRANCH   6   7
ENDBRANCH   5   6
ENDBRANCH   4   5
ENDBRANCH   3   4
BRANCH   3  24
HETATM   24  C27 UNL     1     -21.562 -32.683  20.497  1.00  0.00     0.024 C 
HETATM   25  C28 UNL     1     -21.206 -33.097  21.932  1.00  0.00     0.037 C 
HETATM   26  C29 UNL     1     -22.452 -33.763  19.872  1.00  0.00     0.037 C 
HETATM   27  C30 UNL     1     -22.354 -31.438  20.609  1.00  0.00     0.037 C 
ENDBRANCH   3  24
BRANCH   1  28
HETATM   28  C10 UNL     1     -19.354 -31.981  17.481  1.00  0.00     0.122 C 
BRANCH  28  29
HETATM   29  C9  UNL     1     -19.890 -31.804  16.044  1.00  0.00     0.131 C 
BRANCH  29  30
HETATM   30  N3  UNL     1     -20.143 -33.128  15.522  1.00  0.00    -0.364 N 
HETATM   31  C8  UNL     1     -19.293 -33.826  14.889  1.00  0.00     0.188 C 
HETATM   32  N1  UNL     1     -19.636 -35.111  14.419  1.00  0.00    -0.330 N 
HETATM   33  N2  UNL     1     -17.993 -33.325  14.646  1.00  0.00    -0.064 NA
ATOM     34  H1  UNL     1     -20.385 -35.187  13.731  1.00  0.00     0.168 HD
ATOM     35  H3  UNL     1     -21.070 -33.528  15.672  1.00  0.00     0.162 HD
BRANCH  32  36
HETATM   36  C7  UNL     1     -19.003 -36.298  14.846  1.00  0.00     0.041 A 
HETATM   37  C2  UNL     1     -17.954 -36.806  14.129  1.00  0.00    -0.018 A 
HETATM   38  C1  UNL     1     -17.434 -36.159  12.887  1.00  0.00     0.052 C 
HETATM   39  C3  UNL     1     -17.344 -37.962  14.555  1.00  0.00     0.019 A 
HETATM   40 BR1  UNL     1     -15.885 -38.674  13.559  1.00  0.00    -0.051 Br
HETATM   41  C4  UNL     1     -17.768 -38.615  15.688  1.00  0.00     0.020 A 
HETATM   42  C5  UNL     1     -18.815 -38.105  16.402  1.00  0.00     0.004 A 
HETATM   43  C6  UNL     1     -19.434 -36.944  15.982  1.00  0.00     0.030 A 
ENDBRANCH  32  36
ENDBRANCH  29  30
ENDBRANCH  28  29
ENDBRANCH   1  28
TORSDOF 12
ENDMDL
MODEL 4
REMARK VINA RESULT: -9.008641997      3.312      7.862
REMARK  12 active torsions:
REMARK  status: ('A' for Active; 'I' for Inactive)
REMARK    1  A    between atoms: C7_8  and  N1_9 
REMARK       I    between atoms: N1_9  and  C8_11 
REMARK    2  A    between atoms: N3_13  and  C9_15 
REMARK    3  A    between atoms: C9_15  and  C10_16 
REMARK    4  A    between atoms: C10_16  and  C11_17 
REMARK       I    between atoms: C11_17  and  N4_19 
REMARK    5  A    between atoms: N4_19  and  C12_20 
REMARK    6  A    between atoms: N4_19  and  C27_40 
REMARK    7  A    between atoms: C12_20  and  C13_21 
REMARK    8  A    between atoms: C13_21  and  C14_22 
REMARK    9  A    between atoms: C14_22  and  N5_23 
REMARK       I    between atoms: N5_23  and  C15_25 
REMARK   10  A    between atoms: C15_25  and  C16_27 
REMARK   11  A    between atoms: C16_27  and  C19_30 
REMARK   12  A    between atoms: C26_37  and  O3_38 
ROOT
HETATM    1  C11 UNL     1     -21.004 -38.599  20.386  1.00  0.00     0.222 C 
HETATM    2  O1  UNL     1     -21.279 -38.857  21.593  1.00  0.00    -0.273 OA
HETATM    3  N4  UNL     1     -22.082 -38.047  19.578  1.00  0.00    -0.344 N 
ENDROOT
BRANCH   3   4
HETATM    4  C12 UNL     1     -21.758 -37.802  18.219  1.00  0.00     0.128 C 
BRANCH   4   5
HETATM    5  C13 UNL     1     -21.641 -36.402  17.802  1.00  0.00     0.039 C 
BRANCH   5   6
HETATM    6  C14 UNL     1     -20.350 -35.712  17.990  1.00  0.00     0.124 C 
BRANCH   6   7
HETATM    7  N5  UNL     1     -20.528 -34.404  18.637  1.00  0.00    -0.360 N 
HETATM    8  C15 UNL     1     -20.264 -34.251  20.016  1.00  0.00     0.226 C 
HETATM    9  O2  UNL     1     -19.878 -35.242  20.672  1.00  0.00    -0.273 OA
ATOM     10  H5  UNL     1     -20.844 -33.604  18.088  1.00  0.00     0.162 HD
BRANCH   8  11
HETATM   11  C16 UNL     1     -20.421 -32.963  20.739  1.00  0.00     0.038 C 
HETATM   12  C17 UNL     1     -19.676 -32.950  22.016  1.00  0.00     0.025 C 
HETATM   13  C18 UNL     1     -19.817 -31.885  19.828  1.00  0.00     0.025 C 
BRANCH  11  14
HETATM   14  C19 UNL     1     -21.888 -32.652  20.816  1.00  0.00     0.009 C 
HETATM   15  C20 UNL     1     -22.358 -31.564  19.911  1.00  0.00     0.007 C 
HETATM   16  C21 UNL     1     -22.984 -30.398  20.608  1.00  0.00     0.007 C 
HETATM   17  C22 UNL     1     -23.933 -30.776  21.712  1.00  0.00     0.015 C 
HETATM   18  C23 UNL     1     -23.277 -30.371  23.020  1.00  0.00     0.007 C 
HETATM   19  C26 UNL     1     -23.954 -32.295  21.939  1.00  0.00     0.126 C 
HETATM   20  C24 UNL     1     -22.058 -31.303  22.961  1.00  0.00     0.008 C 
HETATM   21  C25 UNL     1     -22.449 -32.508  22.193  1.00  0.00     0.020 C 
BRANCH  19  22
HETATM   22  O3  UNL     1     -24.666 -32.518  23.107  1.00  0.00    -0.395 OA
ATOM     23  H3  UNL     1     -24.159 -33.131  23.626  1.00  0.00     0.210 HD
ENDBRANCH  19  22
ENDBRANCH  11  14
ENDBRANCH   8  11
ENDBRANCH   6   7
ENDBRANCH   5   6
ENDBRANCH   4   5
ENDBRANCH   3   4
BRANCH   3  24
HETATM   24  C27 UNL     1     -23.281 -37.774  20.318  1.00  0.00     0.024 C 
HETATM   25  C28 UNL     1     -24.396 -37.611  19.277  1.00  0.00     0.037 C 
HETATM   26  C29 UNL     1     -23.138 -36.467  21.105  1.00  0.00     0.037 C 
HETATM   27  C30 UNL     1     -23.736 -38.830  21.251  1.00  0.00     0.037 C 
ENDBRANCH   3  24
BRANCH   1  28
HETATM   28  C10 UNL     1     -19.662 -38.863  19.894  1.00  0.00     0.122 C 
BRANCH  28  29
HETATM   29  C9  UNL     1     -18.652 -38.929  21.060  1.00  0.00     0.131 C 
BRANCH  29  30
HETATM   30  N3  UNL     1     -18.587 -37.605  21.637  1.00  0.00    -0.364 N 
HETATM   31  C8  UNL     1     -18.014 -37.326  22.735  1.00  0.00     0.188 C 
HETATM   32  N1  UNL     1     -18.004 -36.000  23.216  1.00  0.00    -0.330 N 
HETATM   33  N2  UNL     1     -17.381 -38.339  23.490  1.00  0.00    -0.064 NA
ATOM     34  H1  UNL     1     -18.899 -35.561  23.436  1.00  0.00     0.168 HD
ATOM     35  H3  UNL     1     -19.034 -36.842  21.127  1.00  0.00     0.162 HD
BRANCH  32  36
HETATM   36  C7  UNL     1     -16.828 -35.244  23.409  1.00  0.00     0.041 A 
HETATM   37  C2  UNL     1     -16.334 -35.063  24.672  1.00  0.00    -0.018 A 
HETATM   38  C1  UNL     1     -16.991 -35.634  25.886  1.00  0.00     0.052 C 
HETATM   39  C3  UNL     1     -15.187 -34.326  24.848  1.00  0.00     0.019 A 
HETATM   40 BR1  UNL     1     -14.497 -34.072  26.605  1.00  0.00    -0.051 Br
HETATM   41  C4  UNL     1     -14.528 -33.769  23.778  1.00  0.00     0.020 A 
HETATM   42  C5  UNL     1     -15.023 -33.951  22.518  1.00  0.00     0.004 A 
HETATM   43  C6  UNL     1     -16.174 -34.689  22.331  1.00  0.00     0.030 A 
ENDBRANCH  32  36
ENDBRANCH  29  30
ENDBRANCH  28  29
ENDBRANCH   1  28
TORSDOF 12
ENDMDL
MODEL 5
REMARK VINA RESULT: -9.001021473      2.644      4.092
REMARK  12 active torsions:
REMARK  status: ('A' for Active; 'I' for Inactive)
REMARK    1  A    between atoms: C7_8  and  N1_9 
REMARK       I    between atoms: N1_9  and  C8_11 
REMARK    2  A    between atoms: N3_13  and  C9_15 
REMARK    3  A    between atoms: C9_15  and  C10_16 
REMARK    4  A    between atoms: C10_16  and  C11_17 
REMARK       I    between atoms: C11_17  and  N4_19 
REMARK    5  A    between atoms: N4_19  and  C12_20 
REMARK    6  A    between atoms: N4_19  and  C27_40 
REMARK    7  A    between atoms: C12_20  and  C13_21 
REMARK    8  A    between atoms: C13_21  and  C14_22 
REMARK    9  A    between atoms: C14_22  and  N5_23 
REMARK       I    between atoms: N5_23  and  C15_25 
REMARK   10  A    between atoms: C15_25  and  C16_27 
REMARK   11  A    between atoms: C16_27  and  C19_30 
REMARK   12  A    between atoms: C26_37  and  O3_38 
ROOT
HETATM    1  C11 UNL     1     -20.187 -32.057  18.198  1.00  0.00     0.222 C 
HETATM    2  O1  UNL     1     -21.325 -31.725  17.761  1.00  0.00    -0.273 OA
HETATM    3  N4  UNL     1     -20.143 -32.609  19.544  1.00  0.00    -0.344 N 
ENDROOT
BRANCH   3   4
HETATM    4  C12 UNL     1     -18.849 -32.940  20.023  1.00  0.00     0.128 C 
BRANCH   4   5
HETATM    5  C13 UNL     1     -18.142 -31.915  20.796  1.00  0.00     0.039 C 
BRANCH   5   6
HETATM    6  C14 UNL     1     -16.807 -32.234  21.340  1.00  0.00     0.124 C 
BRANCH   6   7
HETATM    7  N5  UNL     1     -16.878 -33.302  22.347  1.00  0.00    -0.360 N 
HETATM    8  C15 UNL     1     -16.040 -34.435  22.241  1.00  0.00     0.226 C 
HETATM    9  O2  UNL     1     -15.243 -34.512  21.282  1.00  0.00    -0.273 OA
ATOM     10  H5  UNL     1     -17.533 -33.225  23.125  1.00  0.00     0.162 HD
BRANCH   8  11
HETATM   11  C16 UNL     1     -16.054 -35.554  23.218  1.00  0.00     0.038 C 
HETATM   12  C17 UNL     1     -17.247 -35.511  24.093  1.00  0.00     0.025 C 
HETATM   13  C18 UNL     1     -16.121 -36.845  22.389  1.00  0.00     0.025 C 
BRANCH  11  14
HETATM   14  C19 UNL     1     -14.720 -35.584  23.906  1.00  0.00     0.009 C 
HETATM   15  C20 UNL     1     -14.508 -36.728  24.838  1.00  0.00     0.007 C 
HETATM   16  C21 UNL     1     -14.229 -36.338  26.256  1.00  0.00     0.007 C 
HETATM   17  C22 UNL     1     -13.261 -35.196  26.402  1.00  0.00     0.015 C 
HETATM   18  C23 UNL     1     -14.051 -34.007  26.916  1.00  0.00     0.007 C 
HETATM   19  C26 UNL     1     -12.861 -34.621  25.035  1.00  0.00     0.126 C 
HETATM   20  C24 UNL     1     -14.987 -33.819  25.714  1.00  0.00     0.008 C 
HETATM   21  C25 UNL     1     -14.271 -34.291  24.507  1.00  0.00     0.020 C 
BRANCH  19  22
HETATM   22  O3  UNL     1     -12.164 -33.449  25.281  1.00  0.00    -0.395 OA
ATOM     23  H3  UNL     1     -11.331 -33.523  24.830  1.00  0.00     0.210 HD
ENDBRANCH  19  22
ENDBRANCH  11  14
ENDBRANCH   8  11
ENDBRANCH   6   7
ENDBRANCH   5   6
ENDBRANCH   4   5
ENDBRANCH   3   4
BRANCH   3  24
HETATM   24  C27 UNL     1     -21.436 -32.795  20.138  1.00  0.00     0.024 C 
HETATM   25  C28 UNL     1     -22.087 -33.964  19.387  1.00  0.00     0.037 C 
HETATM   26  C29 UNL     1     -22.295 -31.540  19.949  1.00  0.00     0.037 C 
HETATM   27  C30 UNL     1     -21.457 -33.160  21.573  1.00  0.00     0.037 C 
ENDBRANCH   3  24
BRANCH   1  28
HETATM   28  C10 UNL     1     -19.022 -31.873  17.347  1.00  0.00     0.122 C 
BRANCH  28  29
HETATM   29  C9  UNL     1     -19.424 -31.872  15.857  1.00  0.00     0.131 C 
BRANCH  29  30
HETATM   30  N3  UNL     1     -19.840 -33.218  15.531  1.00  0.00    -0.364 N 
HETATM   31  C8  UNL     1     -19.154 -34.036  14.843  1.00  0.00     0.188 C 
HETATM   32  N1  UNL     1     -19.648 -35.331  14.579  1.00  0.00    -0.330 N 
HETATM   33  N2  UNL     1     -17.891 -33.659  14.333  1.00  0.00    -0.064 NA
ATOM     34  H1  UNL     1     -20.509 -35.416  14.039  1.00  0.00     0.168 HD
ATOM     35  H3  UNL     1     -20.747 -33.531  15.877  1.00  0.00     0.162 HD
BRANCH  32  36
HETATM   36  C7  UNL     1     -19.019 -36.515  15.019  1.00  0.00     0.041 A 
HETATM   37  C2  UNL     1     -19.438 -37.121  16.172  1.00  0.00    -0.018 A 
HETATM   38  C1  UNL     1     -20.550 -36.581  17.011  1.00  0.00     0.052 C 
HETATM   39  C3  UNL     1     -18.819 -38.275  16.591  1.00  0.00     0.019 A 
HETATM   40 BR1  UNL     1     -19.399 -39.121  18.196  1.00  0.00    -0.051 Br
HETATM   41  C4  UNL     1     -17.787 -38.830  15.872  1.00  0.00     0.020 A 
HETATM   42  C5  UNL     1     -17.371 -38.224  14.721  1.00  0.00     0.004 A 
HETATM   43  C6  UNL     1     -17.986 -37.064  14.293  1.00  0.00     0.030 A 
ENDBRANCH  32  36
ENDBRANCH  29  30
ENDBRANCH  28  29
ENDBRANCH   1  28
TORSDOF 12
ENDMDL
