MODEL 1
REMARK VINA RESULT: -8.823182472      0.000      0.000
REMARK  14 active torsions:
REMARK  status: ('A' for Active; 'I' for Inactive)
REMARK    1  A    between atoms: C2_2  and  C3_3 
REMARK    2  A    between atoms: C4_4  and  C5_5 
REMARK    3  A    between atoms: C9_9  and  C10_10 
REMARK    4  A    between atoms: C10_10  and  C11_11 
REMARK    5  A    between atoms: C11_11  and  C12_12 
REMARK    6  A    between atoms: C12_12  and  O1_13 
REMARK    7  A    between atoms: C12_12  and  N1_15 
REMARK    8  A    between atoms: C20_23  and  C21_24 
REMARK       I    between atoms: C21_24  and  N2_26 
REMARK    9  A    between atoms: N2_26  and  C22_28 
REMARK   10  A    between atoms: C22_28  and  C23_29 
REMARK   11  A    between atoms: C24_30  and  C25_31 
REMARK   12  A    between atoms: C25_31  and  C26_32 
REMARK   13  A    between atoms: C26_32  and  C27_33 
REMARK   14  A    between atoms: C27_33  and  C28_34 
REMARK       I    between atoms: C28_34  and  N3_36 
REMARK       I    between atoms: N3_36  and  C29_37 
ROOT
HETATM    1  N1  UNL     1     -14.789 -37.127  25.840  1.00  0.00    -0.326 N 
HETATM    2  C13 UNL     1     -14.256 -38.363  26.358  1.00  0.00     0.013 C 
HETATM    3  C14 UNL     1     -12.784 -38.723  26.348  1.00  0.00     0.068 C 
HETATM    4  C15 UNL     1     -15.176 -39.140  26.845  1.00  0.00    -0.055 C 
HETATM    5  C16 UNL     1     -14.962 -40.484  27.453  1.00  0.00     0.046 C 
HETATM    6  C17 UNL     1     -16.464 -38.488  26.721  1.00  0.00     0.044 C 
HETATM    7  C18 UNL     1     -17.352 -38.991  25.613  1.00  0.00     0.005 C 
HETATM    8  C19 UNL     1     -16.520 -39.563  24.485  1.00  0.00     0.011 C 
HETATM    9  C20 UNL     1     -18.112 -37.747  25.246  1.00  0.00     0.084 C 
HETATM   10  C30 UNL     1     -17.117 -36.658  25.305  1.00  0.00     0.041 C 
HETATM   11  C31 UNL     1     -16.141 -37.043  26.395  1.00  0.00     0.101 C 
ENDROOT
BRANCH   1  12
HETATM   12  C12 UNL     1     -14.182 -36.328  24.860  1.00  0.00     0.142 C 
BRANCH  12  13
HETATM   13  C11 UNL     1     -14.084 -34.950  24.645  1.00  0.00     0.057 C 
BRANCH  13  14
HETATM   14  C10 UNL     1     -14.561 -33.933  24.041  1.00  0.00     0.015 C 
BRANCH  14  15
HETATM   15  C9  UNL     1     -15.402 -33.610  22.925  1.00  0.00    -0.034 A 
HETATM   16  C8  UNL     1     -14.849 -33.268  21.680  1.00  0.00     0.019 A 
HETATM   17  C6  UNL     1     -15.675 -32.933  20.657  1.00  0.00    -0.041 A 
HETATM   18  C5  UNL     1     -17.049 -32.906  20.760  1.00  0.00     0.045 A 
HETATM   19  C7  UNL     1     -15.062 -32.586  19.345  1.00  0.00     0.050 C 
HETATM   20  C33 UNL     1     -17.585 -33.239  21.976  1.00  0.00     0.054 A 
HETATM   21  C32 UNL     1     -16.787 -33.586  23.042  1.00  0.00     0.036 A 
HETATM   22 CL1  UNL     1     -19.344 -33.192  22.112  1.00  0.00    -0.083 Cl
BRANCH  18  23
HETATM   23  C4  UNL     1     -17.847 -32.535  19.616  1.00  0.00    -0.065 C 
HETATM   24  C3  UNL     1     -18.494 -32.260  18.638  1.00  0.00    -0.101 C 
BRANCH  24  25
HETATM   25  C2  UNL     1     -19.268 -31.974  17.434  1.00  0.00     0.090 C 
HETATM   26  C1  UNL     1     -18.359 -31.539  16.283  1.00  0.00     0.018 C 
ENDBRANCH  24  25
ENDBRANCH  18  23
ENDBRANCH  14  15
ENDBRANCH  13  14
ENDBRANCH  12  13
BRANCH  12  27
HETATM   27  O1  UNL     1     -13.585 -37.081  23.934  1.00  0.00    -0.346 OA
ATOM     28  H1  UNL     1     -13.180 -37.873  24.268  1.00  0.00     0.219 HD
ENDBRANCH  12  27
ENDBRANCH   1  12
BRANCH   9  29
HETATM   29  C21 UNL     1     -18.718 -37.863  23.882  1.00  0.00     0.222 C 
HETATM   30  O2  UNL     1     -19.347 -38.875  23.498  1.00  0.00    -0.273 OA
HETATM   31  N2  UNL     1     -18.566 -36.784  22.991  1.00  0.00    -0.357 N 
ATOM     32  H2  UNL     1     -18.074 -35.962  23.340  1.00  0.00     0.162 HD
BRANCH  31  33
HETATM   33  C22 UNL     1     -19.039 -36.735  21.645  1.00  0.00     0.149 C 
BRANCH  33  34
HETATM   34  C23 UNL     1     -20.464 -36.587  21.376  1.00  0.00    -0.011 C 
HETATM   35  C24 UNL     1     -20.927 -35.924  20.303  1.00  0.00    -0.029 C 
BRANCH  35  36
HETATM   36  C25 UNL     1     -22.364 -35.762  20.025  1.00  0.00     0.027 C 
BRANCH  36  37
HETATM   37  C26 UNL     1     -22.723 -34.304  20.333  1.00  0.00     0.014 C 
BRANCH  37  38
HETATM   38  C27 UNL     1     -21.846 -33.418  19.505  1.00  0.00     0.120 C 
BRANCH  38  39
HETATM   39  C28 UNL     1     -22.160 -31.973  19.840  1.00  0.00     0.294 C 
HETATM   40  O3  UNL     1     -22.254 -31.174  18.852  1.00  0.00    -0.257 OA
HETATM   41  N3  UNL     1     -22.333 -31.539  21.088  1.00  0.00    -0.340 NA
HETATM   42  C29 UNL     1     -22.428 -31.103  22.175  1.00  0.00     0.278 C 
HETATM   43  N4  UNL     1     -21.672 -30.009  22.738  1.00  0.00    -0.052 NA
HETATM   44  N5  UNL     1     -23.394 -31.671  23.104  1.00  0.00    -0.052 NA
ENDBRANCH  38  39
ENDBRANCH  37  38
ENDBRANCH  36  37
ENDBRANCH  35  36
ENDBRANCH  33  34
ENDBRANCH  31  33
ENDBRANCH   9  29
TORSDOF 14
ENDMDL
MODEL 2
REMARK VINA RESULT: -8.650060683      3.281      7.664
REMARK  14 active torsions:
REMARK  status: ('A' for Active; 'I' for Inactive)
REMARK    1  A    between atoms: C2_2  and  C3_3 
REMARK    2  A    between atoms: C4_4  and  C5_5 
REMARK    3  A    between atoms: C9_9  and  C10_10 
REMARK    4  A    between atoms: C10_10  and  C11_11 
REMARK    5  A    between atoms: C11_11  and  C12_12 
REMARK    6  A    between atoms: C12_12  and  O1_13 
REMARK    7  A    between atoms: C12_12  and  N1_15 
REMARK    8  A    between atoms: C20_23  and  C21_24 
REMARK       I    between atoms: C21_24  and  N2_26 
REMARK    9  A    between atoms: N2_26  and  C22_28 
REMARK   10  A    between atoms: C22_28  and  C23_29 
REMARK   11  A    between atoms: C24_30  and  C25_31 
REMARK   12  A    between atoms: C25_31  and  C26_32 
REMARK   13  A    between atoms: C26_32  and  C27_33 
REMARK   14  A    between atoms: C27_33  and  C28_34 
REMARK       I    between atoms: C28_34  and  N3_36 
REMARK       I    between atoms: N3_36  and  C29_37 
ROOT
HETATM    1  N1  UNL     1     -22.488 -39.127  20.416  1.00  0.00    -0.326 N 
HETATM    2  C13 UNL     1     -21.682 -39.542  19.294  1.00  0.00     0.013 C 
HETATM    3  C14 UNL     1     -20.672 -40.670  19.346  1.00  0.00     0.068 C 
HETATM    4  C15 UNL     1     -21.920 -38.848  18.222  1.00  0.00    -0.055 C 
HETATM    5  C16 UNL     1     -21.260 -39.021  16.897  1.00  0.00     0.046 C 
HETATM    6  C17 UNL     1     -22.953 -37.873  18.507  1.00  0.00     0.044 C 
HETATM    7  C18 UNL     1     -22.484 -36.455  18.698  1.00  0.00     0.005 C 
HETATM    8  C19 UNL     1     -21.059 -36.432  19.208  1.00  0.00     0.011 C 
HETATM    9  C20 UNL     1     -23.496 -35.930  19.677  1.00  0.00     0.084 C 
HETATM   10  C30 UNL     1     -23.720 -37.039  20.627  1.00  0.00     0.041 C 
HETATM   11  C31 UNL     1     -23.553 -38.312  19.828  1.00  0.00     0.101 C 
ENDROOT
BRANCH   1  12
HETATM   12  C12 UNL     1     -22.159 -39.315  21.766  1.00  0.00     0.142 C 
BRANCH  12  13
HETATM   13  C11 UNL     1     -21.038 -39.019  22.548  1.00  0.00     0.057 C 
BRANCH  13  14
HETATM   14  C10 UNL     1     -19.786 -38.773  22.561  1.00  0.00     0.015 C 
BRANCH  14  15
HETATM   15  C9  UNL     1     -18.855 -37.835  23.117  1.00  0.00    -0.034 A 
HETATM   16  C8  UNL     1     -18.416 -37.955  24.446  1.00  0.00     0.019 A 
HETATM   17  C6  UNL     1     -17.563 -37.028  24.949  1.00  0.00    -0.041 A 
HETATM   18  C5  UNL     1     -17.087 -35.954  24.227  1.00  0.00     0.045 A 
HETATM   19  C7  UNL     1     -17.105 -37.185  26.356  1.00  0.00     0.050 C 
HETATM   20  C33 UNL     1     -17.516 -35.841  22.931  1.00  0.00     0.054 A 
HETATM   21  C32 UNL     1     -18.382 -36.757  22.378  1.00  0.00     0.036 A 
HETATM   22 CL1  UNL     1     -16.917 -34.459  22.011  1.00  0.00    -0.083 Cl
BRANCH  18  23
HETATM   23  C4  UNL     1     -16.181 -35.017  24.847  1.00  0.00    -0.065 C 
HETATM   24  C3  UNL     1     -15.394 -34.247  25.335  1.00  0.00    -0.101 C 
BRANCH  24  25
HETATM   25  C2  UNL     1     -14.410 -33.317  25.883  1.00  0.00     0.090 C 
HETATM   26  C1  UNL     1     -14.219 -33.537  27.384  1.00  0.00     0.018 C 
ENDBRANCH  24  25
ENDBRANCH  18  23
ENDBRANCH  14  15
ENDBRANCH  13  14
ENDBRANCH  12  13
BRANCH  12  27
HETATM   27  O1  UNL     1     -23.149 -39.925  22.418  1.00  0.00    -0.346 OA
ATOM     28  H1  UNL     1     -23.624 -40.569  21.906  1.00  0.00     0.219 HD
ENDBRANCH  12  27
ENDBRANCH   1  12
BRANCH   9  29
HETATM   29  C21 UNL     1     -22.993 -34.705  20.376  1.00  0.00     0.222 C 
HETATM   30  O2  UNL     1     -23.435 -33.556  20.143  1.00  0.00    -0.273 OA
HETATM   31  N2  UNL     1     -21.973 -34.854  21.333  1.00  0.00    -0.357 N 
ATOM     32  H2  UNL     1     -21.651 -35.803  21.523  1.00  0.00     0.162 HD
BRANCH  31  33
HETATM   33  C22 UNL     1     -21.346 -33.799  22.063  1.00  0.00     0.149 C 
BRANCH  33  34
HETATM   34  C23 UNL     1     -20.137 -33.170  21.544  1.00  0.00    -0.011 C 
HETATM   35  C24 UNL     1     -19.924 -33.001  20.228  1.00  0.00    -0.029 C 
BRANCH  35  36
HETATM   36  C25 UNL     1     -18.705 -32.374  19.693  1.00  0.00     0.027 C 
BRANCH  36  37
HETATM   37  C26 UNL     1     -18.868 -32.292  18.170  1.00  0.00     0.014 C 
BRANCH  37  38
HETATM   38  C27 UNL     1     -20.232 -32.795  17.815  1.00  0.00     0.120 C 
BRANCH  38  39
HETATM   39  C28 UNL     1     -20.813 -31.905  16.735  1.00  0.00     0.294 C 
HETATM   40  O3  UNL     1     -21.644 -31.019  17.122  1.00  0.00    -0.257 OA
HETATM   41  N3  UNL     1     -20.490 -32.021  15.448  1.00  0.00    -0.340 NA
HETATM   42  C29 UNL     1     -20.283 -32.132  14.297  1.00  0.00     0.278 C 
HETATM   43  N4  UNL     1     -21.264 -32.317  13.254  1.00  0.00    -0.052 NA
HETATM   44  N5  UNL     1     -18.916 -32.079  13.796  1.00  0.00    -0.052 NA
ENDBRANCH  38  39
ENDBRANCH  37  38
ENDBRANCH  36  37
ENDBRANCH  35  36
ENDBRANCH  33  34
ENDBRANCH  31  33
ENDBRANCH   9  29
TORSDOF 14
ENDMDL
MODEL 3
REMARK VINA RESULT: -8.619806871      3.423      7.456
REMARK  14 active torsions:
REMARK  status: ('A' for Active; 'I' for Inactive)
REMARK    1  A    between atoms: C2_2  and  C3_3 
REMARK    2  A    between atoms: C4_4  and  C5_5 
REMARK    3  A    between atoms: C9_9  and  C10_10 
REMARK    4  A    between atoms: C10_10  and  C11_11 
REMARK    5  A    between atoms: C11_11  and  C12_12 
REMARK    6  A    between atoms: C12_12  and  O1_13 
REMARK    7  A    between atoms: C12_12  and  N1_15 
REMARK    8  A    between atoms: C20_23  and  C21_24 
REMARK       I    between atoms: C21_24  and  N2_26 
REMARK    9  A    between atoms: N2_26  and  C22_28 
REMARK   10  A    between atoms: C22_28  and  C23_29 
REMARK   11  A    between atoms: C24_30  and  C25_31 
REMARK   12  A    between atoms: C25_31  and  C26_32 
REMARK   13  A    between atoms: C26_32  and  C27_33 
REMARK   14  A    between atoms: C27_33  and  C28_34 
REMARK       I    between atoms: C28_34  and  N3_36 
REMARK       I    between atoms: N3_36  and  C29_37 
ROOT
HETATM    1  N1  UNL     1     -22.352 -39.166  20.571  1.00  0.00    -0.326 N 
HETATM    2  C13 UNL     1     -21.464 -39.554  19.503  1.00  0.00     0.013 C 
HETATM    3  C14 UNL     1     -20.372 -40.595  19.642  1.00  0.00     0.068 C 
HETATM    4  C15 UNL     1     -21.705 -38.918  18.396  1.00  0.00    -0.055 C 
HETATM    5  C16 UNL     1     -20.971 -39.082  17.109  1.00  0.00     0.046 C 
HETATM    6  C17 UNL     1     -22.823 -38.019  18.598  1.00  0.00     0.044 C 
HETATM    7  C18 UNL     1     -22.475 -36.562  18.757  1.00  0.00     0.005 C 
HETATM    8  C19 UNL     1     -21.082 -36.409  19.328  1.00  0.00     0.011 C 
HETATM    9  C20 UNL     1     -23.570 -36.087  19.670  1.00  0.00     0.084 C 
HETATM   10  C30 UNL     1     -23.752 -37.177  20.649  1.00  0.00     0.041 C 
HETATM   11  C31 UNL     1     -23.448 -38.459  19.907  1.00  0.00     0.101 C 
ENDROOT
BRANCH   1  12
HETATM   12  C12 UNL     1     -22.073 -39.282  21.941  1.00  0.00     0.142 C 
BRANCH  12  13
HETATM   13  C11 UNL     1     -21.053 -38.810  22.773  1.00  0.00     0.057 C 
BRANCH  13  14
HETATM   14  C10 UNL     1     -19.796 -38.661  22.933  1.00  0.00     0.015 C 
BRANCH  14  15
HETATM   15  C9  UNL     1     -18.862 -37.733  23.501  1.00  0.00    -0.034 A 
HETATM   16  C8  UNL     1     -18.389 -36.638  22.758  1.00  0.00     0.019 A 
HETATM   17  C6  UNL     1     -17.478 -35.802  23.317  1.00  0.00    -0.041 A 
HETATM   18  C5  UNL     1     -16.975 -35.959  24.590  1.00  0.00     0.045 A 
HETATM   19  C7  UNL     1     -17.004 -34.643  22.512  1.00  0.00     0.050 C 
HETATM   20  C33 UNL     1     -17.437 -37.028  25.311  1.00  0.00     0.054 A 
HETATM   21  C32 UNL     1     -18.361 -37.902  24.787  1.00  0.00     0.036 A 
HETATM   22 CL1  UNL     1     -16.782 -37.236  26.937  1.00  0.00    -0.083 Cl
BRANCH  18  23
HETATM   23  C4  UNL     1     -16.006 -35.018  25.099  1.00  0.00    -0.065 C 
HETATM   24  C3  UNL     1     -15.164 -34.260  25.509  1.00  0.00    -0.101 C 
BRANCH  24  25
HETATM   25  C2  UNL     1     -14.109 -33.363  25.972  1.00  0.00     0.090 C 
HETATM   26  C1  UNL     1     -12.759 -33.735  25.359  1.00  0.00     0.018 C 
ENDBRANCH  24  25
ENDBRANCH  18  23
ENDBRANCH  14  15
ENDBRANCH  13  14
ENDBRANCH  12  13
BRANCH  12  27
HETATM   27  O1  UNL     1     -22.997 -40.022  22.555  1.00  0.00    -0.346 OA
ATOM     28  H1  UNL     1     -22.709 -40.894  22.800  1.00  0.00     0.219 HD
ENDBRANCH  12  27
ENDBRANCH   1  12
BRANCH   9  29
HETATM   29  C21 UNL     1     -23.198 -34.802  20.343  1.00  0.00     0.222 C 
HETATM   30  O2  UNL     1     -23.151 -33.705  19.742  1.00  0.00    -0.273 OA
HETATM   31  N2  UNL     1     -22.881 -34.835  21.714  1.00  0.00    -0.357 N 
ATOM     32  H2  UNL     1     -22.955 -35.737  22.184  1.00  0.00     0.162 HD
BRANCH  31  33
HETATM   33  C22 UNL     1     -22.467 -33.723  22.506  1.00  0.00     0.149 C 
BRANCH  33  34
HETATM   34  C23 UNL     1     -21.538 -32.741  21.958  1.00  0.00    -0.011 C 
HETATM   35  C24 UNL     1     -20.254 -33.036  21.697  1.00  0.00    -0.029 C 
BRANCH  35  36
HETATM   36  C25 UNL     1     -19.306 -32.051  21.150  1.00  0.00     0.027 C 
BRANCH  36  37
HETATM   37  C26 UNL     1     -18.644 -32.692  19.924  1.00  0.00     0.014 C 
BRANCH  37  38
HETATM   38  C27 UNL     1     -19.720 -33.243  19.042  1.00  0.00     0.120 C 
BRANCH  38  39
HETATM   39  C28 UNL     1     -19.974 -32.263  17.915  1.00  0.00     0.294 C 
HETATM   40  O3  UNL     1     -21.067 -31.609  17.973  1.00  0.00    -0.257 OA
HETATM   41  N3  UNL     1     -19.120 -32.076  16.909  1.00  0.00    -0.340 NA
HETATM   42  C29 UNL     1     -18.427 -31.929  15.973  1.00  0.00     0.278 C 
HETATM   43  N4  UNL     1     -18.806 -32.060  14.586  1.00  0.00    -0.052 NA
HETATM   44  N5  UNL     1     -17.028 -31.568  16.154  1.00  0.00    -0.052 NA
ENDBRANCH  38  39
ENDBRANCH  37  38
ENDBRANCH  36  37
ENDBRANCH  35  36
ENDBRANCH  33  34
ENDBRANCH  31  33
ENDBRANCH   9  29
TORSDOF 14
ENDMDL
MODEL 4
REMARK VINA RESULT: -8.446166188      1.989      8.439
REMARK  14 active torsions:
REMARK  status: ('A' for Active; 'I' for Inactive)
REMARK    1  A    between atoms: C2_2  and  C3_3 
REMARK    2  A    between atoms: C4_4  and  C5_5 
REMARK    3  A    between atoms: C9_9  and  C10_10 
REMARK    4  A    between atoms: C10_10  and  C11_11 
REMARK    5  A    between atoms: C11_11  and  C12_12 
REMARK    6  A    between atoms: C12_12  and  O1_13 
REMARK    7  A    between atoms: C12_12  and  N1_15 
REMARK    8  A    between atoms: C20_23  and  C21_24 
REMARK       I    between atoms: C21_24  and  N2_26 
REMARK    9  A    between atoms: N2_26  and  C22_28 
REMARK   10  A    between atoms: C22_28  and  C23_29 
REMARK   11  A    between atoms: C24_30  and  C25_31 
REMARK   12  A    between atoms: C25_31  and  C26_32 
REMARK   13  A    between atoms: C26_32  and  C27_33 
REMARK   14  A    between atoms: C27_33  and  C28_34 
REMARK       I    between atoms: C28_34  and  N3_36 
REMARK       I    between atoms: N3_36  and  C29_37 
ROOT
HETATM    1  N1  UNL     1     -22.489 -32.409  19.874  1.00  0.00    -0.326 N 
HETATM    2  C13 UNL     1     -22.895 -31.773  21.103  1.00  0.00     0.013 C 
HETATM    3  C14 UNL     1     -22.697 -30.301  21.403  1.00  0.00     0.068 C 
HETATM    4  C15 UNL     1     -23.461 -32.599  21.931  1.00  0.00    -0.055 C 
HETATM    5  C16 UNL     1     -23.990 -32.264  23.284  1.00  0.00     0.046 C 
HETATM    6  C17 UNL     1     -23.515 -33.914  21.328  1.00  0.00     0.044 C 
HETATM    7  C18 UNL     1     -22.504 -34.911  21.831  1.00  0.00     0.005 C 
HETATM    8  C19 UNL     1     -21.265 -34.201  22.334  1.00  0.00     0.011 C 
HETATM    9  C20 UNL     1     -22.275 -35.755  20.608  1.00  0.00     0.084 C 
HETATM   10  C30 UNL     1     -22.253 -34.799  19.482  1.00  0.00     0.041 C 
HETATM   11  C31 UNL     1     -23.204 -33.686  19.862  1.00  0.00     0.101 C 
ENDROOT
BRANCH   1  12
HETATM   12  C12 UNL     1     -21.472 -31.954  19.022  1.00  0.00     0.142 C 
BRANCH  12  13
HETATM   13  C11 UNL     1     -20.078 -32.059  19.021  1.00  0.00     0.057 C 
BRANCH  13  14
HETATM   14  C10 UNL     1     -19.068 -32.790  19.294  1.00  0.00     0.015 C 
BRANCH  14  15
HETATM   15  C9  UNL     1     -18.096 -32.980  20.332  1.00  0.00    -0.034 A 
HETATM   16  C8  UNL     1     -16.754 -32.608  20.141  1.00  0.00     0.019 A 
HETATM   17  C6  UNL     1     -15.856 -32.836  21.131  1.00  0.00    -0.041 A 
HETATM   18  C5  UNL     1     -16.178 -33.420  22.338  1.00  0.00     0.045 A 
HETATM   19  C7  UNL     1     -14.444 -32.422  20.906  1.00  0.00     0.050 C 
HETATM   20  C33 UNL     1     -17.487 -33.781  22.520  1.00  0.00     0.054 A 
HETATM   21  C32 UNL     1     -18.434 -33.570  21.544  1.00  0.00     0.036 A 
HETATM   22 CL1  UNL     1     -17.897 -34.541  24.060  1.00  0.00    -0.083 Cl
BRANCH  18  23
HETATM   23  C4  UNL     1     -15.153 -33.624  23.332  1.00  0.00    -0.065 C 
HETATM   24  C3  UNL     1     -14.327 -33.816  24.188  1.00  0.00    -0.101 C 
BRANCH  24  25
HETATM   25  C2  UNL     1     -13.358 -34.087  25.246  1.00  0.00     0.090 C 
HETATM   26  C1  UNL     1     -13.967 -33.849  26.628  1.00  0.00     0.018 C 
ENDBRANCH  24  25
ENDBRANCH  18  23
ENDBRANCH  14  15
ENDBRANCH  13  14
ENDBRANCH  12  13
BRANCH  12  27
HETATM   27  O1  UNL     1     -21.980 -31.260  18.002  1.00  0.00    -0.346 OA
ATOM     28  H1  UNL     1     -22.547 -30.541  18.254  1.00  0.00     0.219 HD
ENDBRANCH  12  27
ENDBRANCH   1  12
BRANCH   9  29
HETATM   29  C21 UNL     1     -20.990 -36.516  20.706  1.00  0.00     0.222 C 
HETATM   30  O2  UNL     1     -20.001 -36.283  19.973  1.00  0.00    -0.273 OA
HETATM   31  N2  UNL     1     -20.894 -37.544  21.661  1.00  0.00    -0.357 N 
ATOM     32  H2  UNL     1     -21.704 -37.693  22.263  1.00  0.00     0.162 HD
BRANCH  31  33
HETATM   33  C22 UNL     1     -19.768 -38.397  21.867  1.00  0.00     0.149 C 
BRANCH  33  34
HETATM   34  C23 UNL     1     -18.619 -37.918  22.628  1.00  0.00    -0.011 C 
HETATM   35  C24 UNL     1     -17.424 -37.694  22.057  1.00  0.00    -0.029 C 
BRANCH  35  36
HETATM   36  C25 UNL     1     -16.256 -37.217  22.817  1.00  0.00     0.027 C 
BRANCH  36  37
HETATM   37  C26 UNL     1     -16.212 -38.013  24.126  1.00  0.00     0.014 C 
BRANCH  37  38
HETATM   38  C27 UNL     1     -15.490 -37.195  25.151  1.00  0.00     0.120 C 
BRANCH  38  39
HETATM   39  C28 UNL     1     -16.127 -37.437  26.504  1.00  0.00     0.294 C 
HETATM   40  O3  UNL     1     -16.622 -36.415  27.084  1.00  0.00    -0.257 OA
HETATM   41  N3  UNL     1     -16.182 -38.639  27.076  1.00  0.00    -0.340 NA
HETATM   42  C29 UNL     1     -16.193 -39.668  27.643  1.00  0.00     0.278 C 
HETATM   43  N4  UNL     1     -15.683 -39.932  28.968  1.00  0.00    -0.052 NA
HETATM   44  N5  UNL     1     -16.773 -40.843  27.007  1.00  0.00    -0.052 NA
ENDBRANCH  38  39
ENDBRANCH  37  38
ENDBRANCH  36  37
ENDBRANCH  35  36
ENDBRANCH  33  34
ENDBRANCH  31  33
ENDBRANCH   9  29
TORSDOF 14
ENDMDL
MODEL 5
REMARK VINA RESULT: -8.445345766      3.402      7.842
REMARK  14 active torsions:
REMARK  status: ('A' for Active; 'I' for Inactive)
REMARK    1  A    between atoms: C2_2  and  C3_3 
REMARK    2  A    between atoms: C4_4  and  C5_5 
REMARK    3  A    between atoms: C9_9  and  C10_10 
REMARK    4  A    between atoms: C10_10  and  C11_11 
REMARK    5  A    between atoms: C11_11  and  C12_12 
REMARK    6  A    between atoms: C12_12  and  O1_13 
REMARK    7  A    between atoms: C12_12  and  N1_15 
REMARK    8  A    between atoms: C20_23  and  C21_24 
REMARK       I    between atoms: C21_24  and  N2_26 
REMARK    9  A    between atoms: N2_26  and  C22_28 
REMARK   10  A    between atoms: C22_28  and  C23_29 
REMARK   11  A    between atoms: C24_30  and  C25_31 
REMARK   12  A    between atoms: C25_31  and  C26_32 
REMARK   13  A    between atoms: C26_32  and  C27_33 
REMARK   14  A    between atoms: C27_33  and  C28_34 
REMARK       I    between atoms: C28_34  and  N3_36 
REMARK       I    between atoms: N3_36  and  C29_37 
ROOT
HETATM    1  N1  UNL     1     -20.946 -32.273  19.832  1.00  0.00    -0.326 N 
HETATM    2  C13 UNL     1     -21.539 -31.832  21.071  1.00  0.00     0.013 C 
HETATM    3  C14 UNL     1     -20.927 -30.786  21.980  1.00  0.00     0.068 C 
HETATM    4  C15 UNL     1     -22.667 -32.425  21.325  1.00  0.00    -0.055 C 
HETATM    5  C16 UNL     1     -23.530 -32.200  22.520  1.00  0.00     0.046 C 
HETATM    6  C17 UNL     1     -22.975 -33.343  20.248  1.00  0.00     0.044 C 
HETATM    7  C18 UNL     1     -22.735 -34.802  20.538  1.00  0.00     0.005 C 
HETATM    8  C19 UNL     1     -21.644 -34.964  21.575  1.00  0.00     0.011 C 
HETATM    9  C20 UNL     1     -22.372 -35.326  19.177  1.00  0.00     0.084 C 
HETATM   10  C30 UNL     1     -21.519 -34.279  18.578  1.00  0.00     0.041 C 
HETATM   11  C31 UNL     1     -22.027 -32.964  19.127  1.00  0.00     0.101 C 
ENDROOT
BRANCH   1  12
HETATM   12  C12 UNL     1     -19.581 -32.211  19.519  1.00  0.00     0.142 C 
BRANCH  12  13
HETATM   13  C11 UNL     1     -18.417 -32.699  20.120  1.00  0.00     0.057 C 
BRANCH  13  14
HETATM   14  C10 UNL     1     -17.702 -32.734  21.177  1.00  0.00     0.015 C 
BRANCH  14  15
HETATM   15  C9  UNL     1     -17.112 -33.683  22.075  1.00  0.00    -0.034 A 
HETATM   16  C8  UNL     1     -15.843 -33.456  22.635  1.00  0.00     0.019 A 
HETATM   17  C6  UNL     1     -15.302 -34.394  23.452  1.00  0.00    -0.041 A 
HETATM   18  C5  UNL     1     -15.926 -35.579  23.777  1.00  0.00     0.045 A 
HETATM   19  C7  UNL     1     -13.962 -34.122  24.040  1.00  0.00     0.050 C 
HETATM   20  C33 UNL     1     -17.163 -35.797  23.230  1.00  0.00     0.054 A 
HETATM   21  C32 UNL     1     -17.752 -34.875  22.396  1.00  0.00     0.036 A 
HETATM   22 CL1  UNL     1     -17.957 -37.321  23.635  1.00  0.00    -0.083 Cl
BRANCH  18  23
HETATM   23  C4  UNL     1     -15.271 -36.518  24.655  1.00  0.00    -0.065 C 
HETATM   24  C3  UNL     1     -14.687 -37.276  25.388  1.00  0.00    -0.101 C 
BRANCH  24  25
HETATM   25  C2  UNL     1     -13.944 -38.155  26.286  1.00  0.00     0.090 C 
HETATM   26  C1  UNL     1     -12.484 -37.718  26.405  1.00  0.00     0.018 C 
ENDBRANCH  24  25
ENDBRANCH  18  23
ENDBRANCH  14  15
ENDBRANCH  13  14
ENDBRANCH  12  13
BRANCH  12  27
HETATM   27  O1  UNL     1     -19.380 -31.514  18.399  1.00  0.00    -0.346 OA
ATOM     28  H1  UNL     1     -20.008 -30.818  18.247  1.00  0.00     0.219 HD
ENDBRANCH  12  27
ENDBRANCH   1  12
BRANCH   9  29
HETATM   29  C21 UNL     1     -21.647 -36.633  19.273  1.00  0.00     0.222 C 
HETATM   30  O2  UNL     1     -21.917 -37.501  20.135  1.00  0.00    -0.273 OA
HETATM   31  N2  UNL     1     -20.614 -36.892  18.354  1.00  0.00    -0.357 N 
ATOM     32  H2  UNL     1     -20.435 -36.180  17.646  1.00  0.00     0.162 HD
BRANCH  31  33
HETATM   33  C22 UNL     1     -19.793 -38.059  18.322  1.00  0.00     0.149 C 
BRANCH  33  34
HETATM   34  C23 UNL     1     -19.080 -38.416  17.101  1.00  0.00    -0.011 C 
HETATM   35  C24 UNL     1     -18.958 -37.567  16.066  1.00  0.00    -0.029 C 
BRANCH  35  36
HETATM   36  C25 UNL     1     -18.247 -37.919  14.827  1.00  0.00     0.027 C 
BRANCH  36  37
HETATM   37  C26 UNL     1     -17.888 -36.606  14.121  1.00  0.00     0.014 C 
BRANCH  37  38
HETATM   38  C27 UNL     1     -18.856 -35.554  14.564  1.00  0.00     0.120 C 
BRANCH  38  39
HETATM   39  C28 UNL     1     -18.374 -34.208  14.063  1.00  0.00     0.294 C 
HETATM   40  O3  UNL     1     -17.626 -34.226  13.031  1.00  0.00    -0.257 OA
HETATM   41  N3  UNL     1     -18.701 -33.056  14.649  1.00  0.00    -0.340 NA
HETATM   42  C29 UNL     1     -18.911 -32.025  15.173  1.00  0.00     0.278 C 
HETATM   43  N4  UNL     1     -17.929 -31.070  15.628  1.00  0.00    -0.052 NA
HETATM   44  N5  UNL     1     -20.282 -31.598  15.413  1.00  0.00    -0.052 NA
ENDBRANCH  38  39
ENDBRANCH  37  38
ENDBRANCH  36  37
ENDBRANCH  35  36
ENDBRANCH  33  34
ENDBRANCH  31  33
ENDBRANCH   9  29
TORSDOF 14
ENDMDL
