MODEL 1
REMARK VINA RESULT: -8.050428729      0.000      0.000
REMARK  9 active torsions:
REMARK  status: ('A' for Active; 'I' for Inactive)
REMARK    1  A    between atoms: C2_2  and  N1_3 
REMARK       I    between atoms: N1_3  and  C3_5 
REMARK       I    between atoms: C3_5  and  N2_7 
REMARK    2  A    between atoms: N2_7  and  C5_9 
REMARK    3  A    between atoms: C5_9  and  C6_10 
REMARK    4  A    between atoms: C6_10  and  C7_11 
REMARK    5  A    between atoms: C7_11  and  C8_12 
REMARK    6  A    between atoms: C8_12  and  C9_13 
REMARK    7  A    between atoms: C9_13  and  C10_14 
REMARK    8  A    between atoms: C10_14  and  C11_15 
REMARK       I    between atoms: N4_18  and  C12_20 
REMARK    9  A    between atoms: C12_20  and  C13_22 
ROOT
HETATM    1  C13 UNL     1     -13.765 -35.047  25.232  1.00  0.00     0.042 C 
HETATM    2  C14 UNL     1     -14.007 -35.727  26.591  1.00  0.00     0.026 C 
HETATM    3  C15 UNL     1     -14.035 -33.577  25.438  1.00  0.00     0.020 C 
HETATM    4  C16 UNL     1     -15.223 -33.218  24.573  1.00  0.00     0.011 C 
HETATM    5  C17 UNL     1     -15.343 -34.294  23.543  1.00  0.00    -0.031 C 
HETATM    6  C18 UNL     1     -14.538 -33.884  22.353  1.00  0.00     0.016 C 
HETATM    7  C19 UNL     1     -14.751 -35.484  24.279  1.00  0.00     0.012 C 
HETATM    8  C20 UNL     1     -14.439 -36.502  23.248  1.00  0.00     0.007 C 
HETATM    9  C21 UNL     1     -15.800 -36.982  22.722  1.00  0.00     0.006 C 
HETATM   10  C22 UNL     1     -16.697 -35.895  22.274  1.00  0.00     0.000 C 
HETATM   11  C23 UNL     1     -18.080 -36.473  22.071  1.00  0.00     0.063 C 
HETATM   12  C24 UNL     1     -19.058 -35.364  21.966  1.00  0.00     0.017 A 
HETATM   13  N5  UNL     1     -20.394 -35.415  21.763  1.00  0.00    -0.358 N 
ATOM     14  H5  UNL     1     -20.927 -36.277  21.649  1.00  0.00     0.166 HD
HETATM   15  C25 UNL     1     -20.927 -34.184  21.732  1.00  0.00     0.043 A 
HETATM   16  C26 UNL     1     -22.224 -33.699  21.558  1.00  0.00     0.033 A 
HETATM   17  C27 UNL     1     -22.504 -32.353  21.568  1.00  0.00     0.044 A 
HETATM   18  C28 UNL     1     -21.467 -31.458  21.758  1.00  0.00     0.117 A 
HETATM   19  F1  UNL     1     -21.714 -30.112  21.773  1.00  0.00    -0.206 F 
HETATM   20  C29 UNL     1     -20.197 -31.932  21.930  1.00  0.00     0.056 A 
HETATM   21  C30 UNL     1     -19.899 -33.293  21.919  1.00  0.00     0.002 A 
HETATM   22  C31 UNL     1     -18.751 -34.029  22.064  1.00  0.00    -0.022 A 
HETATM   23  C32 UNL     1     -17.331 -33.572  22.301  1.00  0.00     0.052 C 
HETATM   24  C33 UNL     1     -16.727 -34.681  23.179  1.00  0.00    -0.028 C 
HETATM   25  C34 UNL     1     -17.645 -34.862  24.344  1.00  0.00     0.016 C 
ENDROOT
BRANCH   1  26
HETATM   26  C12 UNL     1     -12.322 -35.301  24.945  1.00  0.00     0.230 C 
HETATM   27  N4  UNL     1     -11.758 -36.418  25.445  1.00  0.00    -0.334 N 
HETATM   28  C8  UNL     1     -10.911 -37.283  25.518  1.00  0.00    -0.010 C 
ATOM     29  H4  UNL     1     -12.415 -36.689  26.177  1.00  0.00     0.168 HD
HETATM   30  O3  UNL     1     -11.701 -34.456  24.243  1.00  0.00    -0.272 OA
BRANCH  28  31
HETATM   31  C7  UNL     1     -11.114 -38.347  26.572  1.00  0.00     0.054 C 
BRANCH  31  32
HETATM   32  C6  UNL     1     -11.798 -39.558  26.134  1.00  0.00     0.026 C 
BRANCH  32  33
HETATM   33  C5  UNL     1     -13.231 -39.704  25.914  1.00  0.00     0.127 C 
BRANCH  33  34
HETATM   34  N2  UNL     1     -14.055 -39.863  27.077  1.00  0.00    -0.339 N 
HETATM   35  C3  UNL     1     -15.389 -39.314  27.092  1.00  0.00     0.317 C 
HETATM   36  N1  UNL     1     -15.941 -38.657  25.991  1.00  0.00    -0.343 N 
HETATM   37  O1  UNL     1     -16.078 -39.434  28.131  1.00  0.00    -0.247 OA
ATOM     38  H1  UNL     1     -15.373 -38.561  25.148  1.00  0.00     0.164 HD
HETATM   39  C4  UNL     1     -13.607 -40.518  28.277  1.00  0.00     0.154 C 
BRANCH  36  40
HETATM   40  C2  UNL     1     -17.289 -38.101  25.988  1.00  0.00     0.120 C 
HETATM   41  C1  UNL     1     -18.189 -38.804  25.014  1.00  0.00     0.026 C 
ENDBRANCH  36  40
ENDBRANCH  33  34
ENDBRANCH  32  33
ENDBRANCH  31  32
ENDBRANCH  28  31
BRANCH  28  42
HETATM   42  C9  UNL     1      -9.725 -37.309  24.663  1.00  0.00     0.061 C 
BRANCH  42  43
HETATM   43  C10 UNL     1     -10.042 -37.475  23.183  1.00  0.00     0.105 C 
BRANCH  43  44
HETATM   44  C11 UNL     1     -10.608 -38.758  22.807  1.00  0.00     0.231 C 
HETATM   45  N3  UNL     1     -11.852 -38.812  22.130  1.00  0.00    -0.062 NA
HETATM   46  O2  UNL     1     -10.046 -39.833  23.057  1.00  0.00    -0.277 OA
ENDBRANCH  43  44
ENDBRANCH  42  43
ENDBRANCH  28  42
ENDBRANCH   1  26
TORSDOF 9
ENDMDL
MODEL 2
REMARK VINA RESULT: -7.968319405      4.275      9.286
REMARK  9 active torsions:
REMARK  status: ('A' for Active; 'I' for Inactive)
REMARK    1  A    between atoms: C2_2  and  N1_3 
REMARK       I    between atoms: N1_3  and  C3_5 
REMARK       I    between atoms: C3_5  and  N2_7 
REMARK    2  A    between atoms: N2_7  and  C5_9 
REMARK    3  A    between atoms: C5_9  and  C6_10 
REMARK    4  A    between atoms: C6_10  and  C7_11 
REMARK    5  A    between atoms: C7_11  and  C8_12 
REMARK    6  A    between atoms: C8_12  and  C9_13 
REMARK    7  A    between atoms: C9_13  and  C10_14 
REMARK    8  A    between atoms: C10_14  and  C11_15 
REMARK       I    between atoms: N4_18  and  C12_20 
REMARK    9  A    between atoms: C12_20  and  C13_22 
ROOT
HETATM    1  C13 UNL     1     -15.482 -34.697  23.810  1.00  0.00     0.042 C 
HETATM    2  C14 UNL     1     -14.107 -34.154  24.241  1.00  0.00     0.026 C 
HETATM    3  C15 UNL     1     -16.418 -34.445  24.967  1.00  0.00     0.020 C 
HETATM    4  C16 UNL     1     -16.868 -35.796  25.476  1.00  0.00     0.011 C 
HETATM    5  C17 UNL     1     -16.603 -36.776  24.380  1.00  0.00    -0.031 C 
HETATM    6  C18 UNL     1     -17.827 -36.855  23.525  1.00  0.00     0.016 C 
HETATM    7  C19 UNL     1     -15.426 -36.127  23.672  1.00  0.00     0.012 C 
HETATM    8  C20 UNL     1     -15.324 -36.777  22.343  1.00  0.00     0.007 C 
HETATM    9  C21 UNL     1     -14.885 -38.222  22.627  1.00  0.00     0.006 C 
HETATM   10  C22 UNL     1     -15.734 -38.934  23.607  1.00  0.00     0.000 C 
HETATM   11  C23 UNL     1     -15.027 -40.210  24.008  1.00  0.00     0.063 C 
HETATM   12  C24 UNL     1     -15.672 -40.758  25.225  1.00  0.00     0.017 A 
HETATM   13  N5  UNL     1     -15.383 -41.884  25.916  1.00  0.00    -0.358 N 
ATOM     14  H5  UNL     1     -14.640 -42.537  25.668  1.00  0.00     0.166 HD
HETATM   15  C25 UNL     1     -16.202 -42.031  26.969  1.00  0.00     0.043 A 
HETATM   16  C26 UNL     1     -16.318 -42.994  27.972  1.00  0.00     0.033 A 
HETATM   17  C27 UNL     1     -17.270 -42.902  28.960  1.00  0.00     0.044 A 
HETATM   18  C28 UNL     1     -18.133 -41.822  28.956  1.00  0.00     0.117 A 
HETATM   19  F1  UNL     1     -19.091 -41.702  29.926  1.00  0.00    -0.206 F 
HETATM   20  C29 UNL     1     -18.019 -40.877  27.974  1.00  0.00     0.056 A 
HETATM   21  C30 UNL     1     -17.060 -40.960  26.967  1.00  0.00     0.002 A 
HETATM   22  C31 UNL     1     -16.726 -40.179  25.889  1.00  0.00    -0.022 A 
HETATM   23  C32 UNL     1     -17.329 -38.881  25.409  1.00  0.00     0.052 C 
HETATM   24  C33 UNL     1     -16.136 -38.114  24.815  1.00  0.00    -0.028 C 
HETATM   25  C34 UNL     1     -15.071 -38.087  25.864  1.00  0.00     0.016 C 
ENDROOT
BRANCH   1  26
HETATM   26  C12 UNL     1     -15.848 -33.870  22.622  1.00  0.00     0.230 C 
HETATM   27  N4  UNL     1     -17.154 -33.718  22.328  1.00  0.00    -0.334 N 
HETATM   28  C8  UNL     1     -18.105 -33.186  21.795  1.00  0.00    -0.010 C 
ATOM     29  H4  UNL     1     -17.589 -34.479  22.848  1.00  0.00     0.168 HD
HETATM   30  O3  UNL     1     -14.913 -33.352  21.951  1.00  0.00    -0.272 OA
BRANCH  28  31
HETATM   31  C7  UNL     1     -19.463 -33.793  22.065  1.00  0.00     0.054 C 
BRANCH  31  32
HETATM   32  C6  UNL     1     -20.588 -32.867  22.064  1.00  0.00     0.026 C 
BRANCH  32  33
HETATM   33  C5  UNL     1     -21.856 -33.056  21.370  1.00  0.00     0.127 C 
BRANCH  33  34
HETATM   34  N2  UNL     1     -22.499 -31.881  20.858  1.00  0.00    -0.339 N 
HETATM   35  C3  UNL     1     -23.381 -31.119  21.708  1.00  0.00     0.317 C 
HETATM   36  N1  UNL     1     -23.610 -31.455  23.043  1.00  0.00    -0.343 N 
HETATM   37  O1  UNL     1     -23.961 -30.117  21.230  1.00  0.00    -0.247 OA
ATOM     38  H1  UNL     1     -23.137 -32.274  23.426  1.00  0.00     0.164 HD
HETATM   39  C4  UNL     1     -22.348 -31.427  19.502  1.00  0.00     0.154 C 
BRANCH  36  40
HETATM   40  C2  UNL     1     -24.495 -30.693  23.916  1.00  0.00     0.120 C 
HETATM   41  C1  UNL     1     -23.758 -29.633  24.683  1.00  0.00     0.026 C 
ENDBRANCH  36  40
ENDBRANCH  33  34
ENDBRANCH  32  33
ENDBRANCH  31  32
ENDBRANCH  28  31
BRANCH  28  42
HETATM   42  C9  UNL     1     -17.977 -32.033  20.905  1.00  0.00     0.061 C 
BRANCH  42  43
HETATM   43  C10 UNL     1     -17.713 -32.408  19.453  1.00  0.00     0.105 C 
BRANCH  43  44
HETATM   44  C11 UNL     1     -18.887 -32.470  18.603  1.00  0.00     0.231 C 
HETATM   45  N3  UNL     1     -19.182 -31.398  17.723  1.00  0.00    -0.062 NA
HETATM   46  O2  UNL     1     -19.665 -33.434  18.609  1.00  0.00    -0.277 OA
ENDBRANCH  43  44
ENDBRANCH  42  43
ENDBRANCH  28  42
ENDBRANCH   1  26
TORSDOF 9
ENDMDL
MODEL 3
REMARK VINA RESULT: -7.838471229      1.278      1.570
REMARK  9 active torsions:
REMARK  status: ('A' for Active; 'I' for Inactive)
REMARK    1  A    between atoms: C2_2  and  N1_3 
REMARK       I    between atoms: N1_3  and  C3_5 
REMARK       I    between atoms: C3_5  and  N2_7 
REMARK    2  A    between atoms: N2_7  and  C5_9 
REMARK    3  A    between atoms: C5_9  and  C6_10 
REMARK    4  A    between atoms: C6_10  and  C7_11 
REMARK    5  A    between atoms: C7_11  and  C8_12 
REMARK    6  A    between atoms: C8_12  and  C9_13 
REMARK    7  A    between atoms: C9_13  and  C10_14 
REMARK    8  A    between atoms: C10_14  and  C11_15 
REMARK       I    between atoms: N4_18  and  C12_20 
REMARK    9  A    between atoms: C12_20  and  C13_22 
ROOT
HETATM    1  C13 UNL     1     -14.027 -34.856  25.197  1.00  0.00     0.042 C 
HETATM    2  C14 UNL     1     -14.276 -35.508  26.569  1.00  0.00     0.026 C 
HETATM    3  C15 UNL     1     -14.301 -33.382  25.372  1.00  0.00     0.020 C 
HETATM    4  C16 UNL     1     -15.484 -33.043  24.493  1.00  0.00     0.011 C 
HETATM    5  C17 UNL     1     -15.596 -34.140  23.485  1.00  0.00    -0.031 C 
HETATM    6  C18 UNL     1     -14.785 -33.754  22.291  1.00  0.00     0.016 C 
HETATM    7  C19 UNL     1     -15.006 -35.314  24.248  1.00  0.00     0.012 C 
HETATM    8  C20 UNL     1     -14.686 -36.353  23.240  1.00  0.00     0.007 C 
HETATM    9  C21 UNL     1     -16.044 -36.846  22.716  1.00  0.00     0.006 C 
HETATM   10  C22 UNL     1     -16.940 -35.770  22.241  1.00  0.00     0.000 C 
HETATM   11  C23 UNL     1     -18.321 -36.354  22.042  1.00  0.00     0.063 C 
HETATM   12  C24 UNL     1     -19.300 -35.249  21.909  1.00  0.00     0.017 A 
HETATM   13  N5  UNL     1     -20.635 -35.307  21.699  1.00  0.00    -0.358 N 
ATOM     14  H5  UNL     1     -21.166 -36.173  21.600  1.00  0.00     0.166 HD
HETATM   15  C25 UNL     1     -21.170 -34.078  21.639  1.00  0.00     0.043 A 
HETATM   16  C26 UNL     1     -22.467 -33.600  21.448  1.00  0.00     0.033 A 
HETATM   17  C27 UNL     1     -22.749 -32.254  21.429  1.00  0.00     0.044 A 
HETATM   18  C28 UNL     1     -21.715 -31.354  21.606  1.00  0.00     0.117 A 
HETATM   19  F1  UNL     1     -21.965 -30.008  21.593  1.00  0.00    -0.206 F 
HETATM   20  C29 UNL     1     -20.445 -31.821  21.795  1.00  0.00     0.056 A 
HETATM   21  C30 UNL     1     -20.145 -33.181  21.814  1.00  0.00     0.002 A 
HETATM   22  C31 UNL     1     -18.996 -33.913  21.980  1.00  0.00    -0.022 A 
HETATM   23  C32 UNL     1     -17.578 -33.448  22.217  1.00  0.00     0.052 C 
HETATM   24  C33 UNL     1     -16.978 -34.537  23.121  1.00  0.00    -0.028 C 
HETATM   25  C34 UNL     1     -17.902 -34.697  24.284  1.00  0.00     0.016 C 
ENDROOT
BRANCH   1  26
HETATM   26  C12 UNL     1     -12.582 -35.113  24.924  1.00  0.00     0.230 C 
HETATM   27  N4  UNL     1     -12.036 -36.252  25.392  1.00  0.00    -0.334 N 
HETATM   28  C8  UNL     1     -11.198 -37.128  25.447  1.00  0.00    -0.010 C 
ATOM     29  H4  UNL     1     -12.707 -36.543  26.103  1.00  0.00     0.168 HD
HETATM   30  O3  UNL     1     -11.942 -34.248  24.264  1.00  0.00    -0.272 OA
BRANCH  28  31
HETATM   31  C7  UNL     1     -11.428 -38.227  26.458  1.00  0.00     0.054 C 
BRANCH  31  32
HETATM   32  C6  UNL     1     -12.819 -38.570  26.724  1.00  0.00     0.026 C 
BRANCH  32  33
HETATM   33  C5  UNL     1     -13.508 -39.774  26.278  1.00  0.00     0.127 C 
BRANCH  33  34
HETATM   34  N2  UNL     1     -14.922 -39.674  26.066  1.00  0.00    -0.339 N 
HETATM   35  C3  UNL     1     -15.468 -39.904  24.750  1.00  0.00     0.317 C 
HETATM   36  N1  UNL     1     -14.672 -40.265  23.662  1.00  0.00    -0.343 N 
HETATM   37  O1  UNL     1     -16.702 -39.776  24.579  1.00  0.00    -0.247 OA
ATOM     38  H1  UNL     1     -13.667 -40.365  23.807  1.00  0.00     0.164 HD
HETATM   39  C4  UNL     1     -15.851 -39.309  27.102  1.00  0.00     0.154 C 
BRANCH  36  40
HETATM   40  C2  UNL     1     -15.208 -40.504  22.327  1.00  0.00     0.120 C 
HETATM   41  C1  UNL     1     -14.420 -39.796  21.264  1.00  0.00     0.026 C 
ENDBRANCH  36  40
ENDBRANCH  33  34
ENDBRANCH  32  33
ENDBRANCH  31  32
ENDBRANCH  28  31
BRANCH  28  42
HETATM   42  C9  UNL     1      -9.999 -37.133  24.610  1.00  0.00     0.061 C 
BRANCH  42  43
HETATM   43  C10 UNL     1      -9.752 -38.459  23.905  1.00  0.00     0.105 C 
BRANCH  43  44
HETATM   44  C11 UNL     1     -10.812 -38.898  23.015  1.00  0.00     0.231 C 
HETATM   45  N3  UNL     1     -11.499 -40.110  23.277  1.00  0.00    -0.062 NA
HETATM   46  O2  UNL     1     -11.153 -38.254  22.014  1.00  0.00    -0.277 OA
ENDBRANCH  43  44
ENDBRANCH  42  43
ENDBRANCH  28  42
ENDBRANCH   1  26
TORSDOF 9
ENDMDL
MODEL 4
REMARK VINA RESULT: -7.798089351      4.444      7.523
REMARK  9 active torsions:
REMARK  status: ('A' for Active; 'I' for Inactive)
REMARK    1  A    between atoms: C2_2  and  N1_3 
REMARK       I    between atoms: N1_3  and  C3_5 
REMARK       I    between atoms: C3_5  and  N2_7 
REMARK    2  A    between atoms: N2_7  and  C5_9 
REMARK    3  A    between atoms: C5_9  and  C6_10 
REMARK    4  A    between atoms: C6_10  and  C7_11 
REMARK    5  A    between atoms: C7_11  and  C8_12 
REMARK    6  A    between atoms: C8_12  and  C9_13 
REMARK    7  A    between atoms: C9_13  and  C10_14 
REMARK    8  A    between atoms: C10_14  and  C11_15 
REMARK       I    between atoms: N4_18  and  C12_20 
REMARK    9  A    between atoms: C12_20  and  C13_22 
ROOT
HETATM    1  C13 UNL     1     -21.701 -39.170  18.850  1.00  0.00     0.042 C 
HETATM    2  C14 UNL     1     -22.843 -39.581  17.903  1.00  0.00     0.026 C 
HETATM    3  C15 UNL     1     -22.247 -39.293  20.252  1.00  0.00     0.020 C 
HETATM    4  C16 UNL     1     -22.251 -37.904  20.850  1.00  0.00     0.011 C 
HETATM    5  C17 UNL     1     -21.308 -37.083  20.032  1.00  0.00    -0.031 C 
HETATM    6  C18 UNL     1     -19.952 -37.185  20.650  1.00  0.00     0.016 C 
HETATM    7  C19 UNL     1     -21.399 -37.774  18.682  1.00  0.00     0.012 C 
HETATM    8  C20 UNL     1     -20.225 -37.320  17.898  1.00  0.00     0.007 C 
HETATM    9  C21 UNL     1     -20.474 -35.831  17.613  1.00  0.00     0.006 C 
HETATM   10  C22 UNL     1     -20.771 -35.023  18.816  1.00  0.00     0.000 C 
HETATM   11  C23 UNL     1     -21.281 -33.672  18.366  1.00  0.00     0.063 C 
HETATM   12  C24 UNL     1     -21.907 -32.982  19.519  1.00  0.00     0.017 A 
HETATM   13  N5  UNL     1     -22.473 -31.755  19.581  1.00  0.00    -0.358 N 
ATOM     14  H5  UNL     1     -22.541 -31.112  18.792  1.00  0.00     0.166 HD
HETATM   15  C25 UNL     1     -22.932 -31.494  20.814  1.00  0.00     0.043 A 
HETATM   16  C26 UNL     1     -23.582 -30.402  21.389  1.00  0.00     0.033 A 
HETATM   17  C27 UNL     1     -23.953 -30.392  22.713  1.00  0.00     0.044 A 
HETATM   18  C28 UNL     1     -23.673 -31.500  23.492  1.00  0.00     0.117 A 
HETATM   19  F1  UNL     1     -24.030 -31.521  24.813  1.00  0.00    -0.206 F 
HETATM   20  C29 UNL     1     -23.038 -32.571  22.929  1.00  0.00     0.056 A 
HETATM   21  C30 UNL     1     -22.654 -32.592  21.590  1.00  0.00     0.002 A 
HETATM   22  C31 UNL     1     -22.023 -33.505  20.783  1.00  0.00    -0.022 A 
HETATM   23  C32 UNL     1     -21.503 -34.886  21.105  1.00  0.00     0.052 C 
HETATM   24  C33 UNL     1     -21.716 -35.675  19.804  1.00  0.00    -0.028 C 
HETATM   25  C34 UNL     1     -23.150 -35.502  19.419  1.00  0.00     0.016 C 
ENDROOT
BRANCH   1  26
HETATM   26  C12 UNL     1     -20.629 -40.176  18.593  1.00  0.00     0.230 C 
HETATM   27  N4  UNL     1     -19.775 -40.470  19.592  1.00  0.00    -0.334 N 
HETATM   28  C8  UNL     1     -18.942 -41.142  20.164  1.00  0.00    -0.010 C 
ATOM     29  H4  UNL     1     -19.897 -39.682  20.227  1.00  0.00     0.168 HD
HETATM   30  O3  UNL     1     -20.577 -40.705  17.447  1.00  0.00    -0.272 OA
BRANCH  28  31
HETATM   31  C7  UNL     1     -18.432 -40.614  21.485  1.00  0.00     0.054 C 
BRANCH  31  32
HETATM   32  C6  UNL     1     -17.445 -39.544  21.406  1.00  0.00     0.026 C 
BRANCH  32  33
HETATM   33  C5  UNL     1     -17.061 -38.649  22.490  1.00  0.00     0.127 C 
BRANCH  33  34
HETATM   34  N2  UNL     1     -15.900 -37.834  22.280  1.00  0.00    -0.339 N 
HETATM   35  C3  UNL     1     -16.009 -36.397  22.357  1.00  0.00     0.317 C 
HETATM   36  N1  UNL     1     -17.206 -35.753  22.672  1.00  0.00    -0.343 N 
HETATM   37  O1  UNL     1     -14.991 -35.703  22.134  1.00  0.00    -0.247 OA
ATOM     38  H1  UNL     1     -18.033 -36.324  22.850  1.00  0.00     0.164 HD
HETATM   39  C4  UNL     1     -14.608 -38.372  21.947  1.00  0.00     0.154 C 
BRANCH  36  40
HETATM   40  C2  UNL     1     -17.332 -34.302  22.759  1.00  0.00     0.120 C 
HETATM   41  C1  UNL     1     -18.181 -33.741  21.654  1.00  0.00     0.026 C 
ENDBRANCH  36  40
ENDBRANCH  33  34
ENDBRANCH  32  33
ENDBRANCH  31  32
ENDBRANCH  28  31
BRANCH  28  42
HETATM   42  C9  UNL     1     -18.416 -42.392  19.617  1.00  0.00     0.061 C 
BRANCH  42  43
HETATM   43  C10 UNL     1     -17.741 -42.229  18.262  1.00  0.00     0.105 C 
BRANCH  43  44
HETATM   44  C11 UNL     1     -16.825 -41.108  18.153  1.00  0.00     0.231 C 
HETATM   45  N3  UNL     1     -15.537 -41.186  18.739  1.00  0.00    -0.062 NA
HETATM   46  O2  UNL     1     -17.121 -40.060  17.562  1.00  0.00    -0.277 OA
ENDBRANCH  43  44
ENDBRANCH  42  43
ENDBRANCH  28  42
ENDBRANCH   1  26
TORSDOF 9
ENDMDL
MODEL 5
REMARK VINA RESULT: -7.766430220      3.939      9.026
REMARK  9 active torsions:
REMARK  status: ('A' for Active; 'I' for Inactive)
REMARK    1  A    between atoms: C2_2  and  N1_3 
REMARK       I    between atoms: N1_3  and  C3_5 
REMARK       I    between atoms: C3_5  and  N2_7 
REMARK    2  A    between atoms: N2_7  and  C5_9 
REMARK    3  A    between atoms: C5_9  and  C6_10 
REMARK    4  A    between atoms: C6_10  and  C7_11 
REMARK    5  A    between atoms: C7_11  and  C8_12 
REMARK    6  A    between atoms: C8_12  and  C9_13 
REMARK    7  A    between atoms: C9_13  and  C10_14 
REMARK    8  A    between atoms: C10_14  and  C11_15 
REMARK       I    between atoms: N4_18  and  C12_20 
REMARK    9  A    between atoms: C12_20  and  C13_22 
ROOT
HETATM    1  C13 UNL     1     -14.804 -34.483  23.784  1.00  0.00     0.042 C 
HETATM    2  C14 UNL     1     -13.379 -33.906  23.858  1.00  0.00     0.026 C 
HETATM    3  C15 UNL     1     -15.492 -34.082  25.066  1.00  0.00     0.020 C 
HETATM    4  C16 UNL     1     -15.810 -35.356  25.816  1.00  0.00     0.011 C 
HETATM    5  C17 UNL     1     -15.758 -36.466  24.816  1.00  0.00    -0.031 C 
HETATM    6  C18 UNL     1     -17.127 -36.634  24.242  1.00  0.00     0.016 C 
HETATM    7  C19 UNL     1     -14.757 -35.920  23.811  1.00  0.00     0.012 C 
HETATM    8  C20 UNL     1     -14.916 -36.727  22.578  1.00  0.00     0.007 C 
HETATM    9  C21 UNL     1     -14.408 -38.132  22.940  1.00  0.00     0.006 C 
HETATM   10  C22 UNL     1     -15.031 -38.711  24.151  1.00  0.00     0.000 C 
HETATM   11  C23 UNL     1     -14.240 -39.935  24.553  1.00  0.00     0.063 C 
HETATM   12  C24 UNL     1     -14.618 -40.324  25.932  1.00  0.00     0.017 A 
HETATM   13  N5  UNL     1     -14.180 -41.361  26.681  1.00  0.00    -0.358 N 
ATOM     14  H5  UNL     1     -13.493 -42.047  26.369  1.00  0.00     0.166 HD
HETATM   15  C25 UNL     1     -14.767 -41.370  27.888  1.00  0.00     0.043 A 
HETATM   16  C26 UNL     1     -14.665 -42.202  29.003  1.00  0.00     0.033 A 
HETATM   17  C27 UNL     1     -15.399 -41.981  30.144  1.00  0.00     0.044 A 
HETATM   18  C28 UNL     1     -16.260 -40.900  30.184  1.00  0.00     0.117 A 
HETATM   19  F1  UNL     1     -17.004 -40.653  31.305  1.00  0.00    -0.206 F 
HETATM   20  C29 UNL     1     -16.360 -40.083  29.092  1.00  0.00     0.056 A 
HETATM   21  C30 UNL     1     -15.623 -40.298  27.930  1.00  0.00     0.002 A 
HETATM   22  C31 UNL     1     -15.525 -39.658  26.720  1.00  0.00    -0.022 A 
HETATM   23  C32 UNL     1     -16.231 -38.421  26.218  1.00  0.00     0.052 C 
HETATM   24  C33 UNL     1     -15.193 -37.746  25.307  1.00  0.00    -0.028 C 
HETATM   25  C34 UNL     1     -13.939 -37.602  26.107  1.00  0.00     0.016 C 
ENDROOT
BRANCH   1  26
HETATM   26  C12 UNL     1     -15.414 -33.803  22.603  1.00  0.00     0.230 C 
HETATM   27  N4  UNL     1     -16.754 -33.841  22.466  1.00  0.00    -0.334 N 
HETATM   28  C8  UNL     1     -17.824 -33.477  22.024  1.00  0.00    -0.010 C 
ATOM     29  H4  UNL     1     -17.018 -34.609  23.081  1.00  0.00     0.168 HD
HETATM   30  O3  UNL     1     -14.643 -33.223  21.790  1.00  0.00    -0.272 OA
BRANCH  28  31
HETATM   31  C7  UNL     1     -19.046 -34.229  22.499  1.00  0.00     0.054 C 
BRANCH  31  32
HETATM   32  C6  UNL     1     -19.531 -35.282  21.615  1.00  0.00     0.026 C 
BRANCH  32  33
HETATM   33  C5  UNL     1     -20.870 -35.857  21.618  1.00  0.00     0.127 C 
BRANCH  33  34
HETATM   34  N2  UNL     1     -21.825 -35.286  20.714  1.00  0.00    -0.339 N 
HETATM   35  C3  UNL     1     -22.696 -34.227  21.166  1.00  0.00     0.317 C 
HETATM   36  N1  UNL     1     -22.622 -33.696  22.455  1.00  0.00    -0.343 N 
HETATM   37  O1  UNL     1     -23.547 -33.767  20.372  1.00  0.00    -0.247 OA
ATOM     38  H1  UNL     1     -21.928 -34.077  23.098  1.00  0.00     0.164 HD
HETATM   39  C4  UNL     1     -22.003 -35.742  19.362  1.00  0.00     0.154 C 
BRANCH  36  40
HETATM   40  C2  UNL     1     -23.492 -32.624  22.926  1.00  0.00     0.120 C 
HETATM   41  C1  UNL     1     -22.836 -31.277  22.823  1.00  0.00     0.026 C 
ENDBRANCH  36  40
ENDBRANCH  33  34
ENDBRANCH  32  33
ENDBRANCH  31  32
ENDBRANCH  28  31
BRANCH  28  42
HETATM   42  C9  UNL     1     -17.957 -32.389  21.057  1.00  0.00     0.061 C 
BRANCH  42  43
HETATM   43  C10 UNL     1     -19.374 -31.845  20.940  1.00  0.00     0.105 C 
BRANCH  43  44
HETATM   44  C11 UNL     1     -19.919 -31.811  19.595  1.00  0.00     0.231 C 
HETATM   45  N3  UNL     1     -19.046 -31.777  18.478  1.00  0.00    -0.062 NA
HETATM   46  O2  UNL     1     -21.136 -31.806  19.368  1.00  0.00    -0.277 OA
ENDBRANCH  43  44
ENDBRANCH  42  43
ENDBRANCH  28  42
ENDBRANCH   1  26
TORSDOF 9
ENDMDL
