MODEL 1
REMARK VINA RESULT: -9.730825046      0.000      0.000
REMARK  15 active torsions:
REMARK  status: ('A' for Active; 'I' for Inactive)
REMARK    1  A    between atoms: C2_2  and  O1_3 
REMARK    2  A    between atoms: O1_3  and  C3_4 
REMARK    3  A    between atoms: C3_4  and  C4_6 
REMARK    4  A    between atoms: C4_6  and  C5_7 
REMARK    5  A    between atoms: C5_7  and  C6_8 
REMARK    6  A    between atoms: C6_8  and  N1_9 
REMARK    7  A    between atoms: C6_8  and  C30_44 
REMARK       I    between atoms: N1_9  and  C7_11 
REMARK    8  A    between atoms: C7_11  and  C8_13 
REMARK    9  A    between atoms: C8_13  and  C9_14 
REMARK   10  A    between atoms: C9_14  and  C10_15 
REMARK   11  A    between atoms: C10_15  and  C11_16 
REMARK   12  A    between atoms: C11_16  and  C12_17 
REMARK   13  A    between atoms: C12_17  and  C13_18 
REMARK   14  A    between atoms: C15_23  and  C16_24 
REMARK   15  A    between atoms: C16_24  and  C17_25 
ROOT
HETATM    1  C13 UNL     1      13.382  22.489   6.258  1.00  0.00     0.176 C 
HETATM    2  N2  UNL     1      13.337  23.816   6.829  1.00  0.00    -0.347 N 
ATOM      3  H2  UNL     1      14.129  24.006   7.443  1.00  0.00     0.163 HD
HETATM    4  C14 UNL     1      12.476  24.875   6.736  1.00  0.00     0.224 C 
HETATM    5  O4  UNL     1      12.903  25.990   6.317  1.00  0.00    -0.273 OA
HETATM    6  C15 UNL     1      11.004  25.000   7.060  1.00  0.00     0.100 C 
HETATM    7  C23 UNL     1      10.186  25.313   5.882  1.00  0.00     0.091 C 
HETATM    8  C24 UNL     1       8.906  24.512   5.876  1.00  0.00     0.033 C 
HETATM    9  N3  UNL     1      10.906  25.213   4.622  1.00  0.00    -0.377 N 
ATOM     10  H3  UNL     1      11.436  26.050   4.380  1.00  0.00     0.160 HD
HETATM   11  C25 UNL     1      11.005  24.204   3.696  1.00  0.00     0.101 C 
HETATM   12  S1  UNL     1      10.881  24.655   2.087  1.00  0.00    -0.063 SA
HETATM   13  C26 UNL     1      11.223  22.751   3.805  1.00  0.00     0.078 C 
HETATM   14  C27 UNL     1      10.152  22.100   2.881  1.00  0.00     0.046 C 
HETATM   15  C28 UNL     1      12.530  22.424   3.054  1.00  0.00     0.046 C 
HETATM   16  N4  UNL     1      11.105  22.146   5.066  1.00  0.00    -0.344 N 
ATOM     17  H4  UNL     1      10.186  21.741   5.244  1.00  0.00     0.163 HD
HETATM   18  C29 UNL     1      12.009  21.988   6.130  1.00  0.00     0.241 C 
HETATM   19  O5  UNL     1      11.591  21.308   7.145  1.00  0.00    -0.271 OA
ENDROOT
BRANCH   1  20
HETATM   20  C12 UNL     1      14.126  21.548   7.243  1.00  0.00     0.035 C 
BRANCH  20  21
HETATM   21  C11 UNL     1      14.989  22.251   8.209  1.00  0.00     0.002 C 
BRANCH  21  22
HETATM   22  C10 UNL     1      15.141  21.518   9.533  1.00  0.00     0.001 C 
BRANCH  22  23
HETATM   23  C9  UNL     1      15.639  20.131   9.358  1.00  0.00     0.009 C 
BRANCH  23  24
HETATM   24  C8  UNL     1      17.121  20.012   9.282  1.00  0.00     0.103 C 
BRANCH  24  25
HETATM   25  C7  UNL     1      17.671  20.103   7.922  1.00  0.00     0.222 C 
HETATM   26  N1  UNL     1      16.998  19.474   6.817  1.00  0.00    -0.325 N 
ATOM     27  H1  UNL     1      16.132  18.969   7.003  1.00  0.00     0.169 HD
HETATM   28  O3  UNL     1      18.719  20.710   7.637  1.00  0.00    -0.273 OA
BRANCH  26  29
HETATM   29  C6  UNL     1      17.482  19.520   5.457  1.00  0.00     0.089 C 
BRANCH  29  30
HETATM   30  C5  UNL     1      16.508  20.135   4.522  1.00  0.00     0.074 C 
BRANCH  30  31
HETATM   31  C4  UNL     1      15.177  19.560   4.356  1.00  0.00     0.117 C 
BRANCH  31  32
HETATM   32  C3  UNL     1      14.980  18.270   3.702  1.00  0.00     0.259 C 
HETATM   33  O2  UNL     1      14.984  17.130   4.192  1.00  0.00    -0.265 OA
BRANCH  32  34
HETATM   34  O1  UNL     1      14.740  18.261   2.287  1.00  0.00    -0.322 OA
BRANCH  34  35
HETATM   35  C2  UNL     1      15.739  18.646   1.382  1.00  0.00     0.174 C 
HETATM   36  C1  UNL     1      16.536  17.427   0.936  1.00  0.00     0.034 C 
ENDBRANCH  34  35
ENDBRANCH  32  34
ENDBRANCH  31  32
ENDBRANCH  30  31
ENDBRANCH  29  30
BRANCH  29  37
HETATM   37  C30 UNL     1      18.177  18.326   5.035  1.00  0.00     0.222 C 
HETATM   38  O6  UNL     1      18.455  17.345   5.801  1.00  0.00    -0.643 OA
HETATM   39  O7  UNL     1      18.588  18.223   3.690  1.00  0.00    -0.643 OA
ENDBRANCH  29  37
ENDBRANCH  26  29
ENDBRANCH  24  25
ENDBRANCH  23  24
ENDBRANCH  22  23
ENDBRANCH  21  22
ENDBRANCH  20  21
ENDBRANCH   1  20
BRANCH   6  40
HETATM   40  C16 UNL     1      10.926  25.901   8.209  1.00  0.00     0.020 C 
BRANCH  40  41
HETATM   41  C17 UNL     1       9.767  26.596   8.721  1.00  0.00    -0.014 C 
HETATM   42  C18 UNL     1       9.627  27.085  10.095  1.00  0.00     0.005 C 
HETATM   43  C19 UNL     1       8.895  28.429  10.182  1.00  0.00     0.000 C 
HETATM   44  C20 UNL     1       7.593  28.423   9.455  1.00  0.00     0.000 C 
HETATM   45  C21 UNL     1       7.852  27.973   8.035  1.00  0.00     0.000 C 
HETATM   46  C22 UNL     1       9.317  27.740   7.777  1.00  0.00     0.005 C 
ENDBRANCH  40  41
ENDBRANCH   6  40
TORSDOF 15
ENDMDL
MODEL 2
REMARK VINA RESULT: -9.260717104      1.220      1.752
REMARK  15 active torsions:
REMARK  status: ('A' for Active; 'I' for Inactive)
REMARK    1  A    between atoms: C2_2  and  O1_3 
REMARK    2  A    between atoms: O1_3  and  C3_4 
REMARK    3  A    between atoms: C3_4  and  C4_6 
REMARK    4  A    between atoms: C4_6  and  C5_7 
REMARK    5  A    between atoms: C5_7  and  C6_8 
REMARK    6  A    between atoms: C6_8  and  N1_9 
REMARK    7  A    between atoms: C6_8  and  C30_44 
REMARK       I    between atoms: N1_9  and  C7_11 
REMARK    8  A    between atoms: C7_11  and  C8_13 
REMARK    9  A    between atoms: C8_13  and  C9_14 
REMARK   10  A    between atoms: C9_14  and  C10_15 
REMARK   11  A    between atoms: C10_15  and  C11_16 
REMARK   12  A    between atoms: C11_16  and  C12_17 
REMARK   13  A    between atoms: C12_17  and  C13_18 
REMARK   14  A    between atoms: C15_23  and  C16_24 
REMARK   15  A    between atoms: C16_24  and  C17_25 
ROOT
HETATM    1  C13 UNL     1      13.247  22.328   5.869  1.00  0.00     0.176 C 
HETATM    2  N2  UNL     1      13.302  23.642   6.468  1.00  0.00    -0.347 N 
ATOM      3  H2  UNL     1      14.149  23.787   7.018  1.00  0.00     0.163 HD
HETATM    4  C14 UNL     1      12.481  24.736   6.467  1.00  0.00     0.224 C 
HETATM    5  O4  UNL     1      12.917  25.843   6.035  1.00  0.00    -0.273 OA
HETATM    6  C15 UNL     1      11.047  24.911   6.913  1.00  0.00     0.100 C 
HETATM    7  C23 UNL     1      10.148  25.283   5.813  1.00  0.00     0.091 C 
HETATM    8  C24 UNL     1       8.841  24.533   5.898  1.00  0.00     0.033 C 
HETATM    9  N3  UNL     1      10.758  25.183   4.496  1.00  0.00    -0.377 N 
ATOM     10  H3  UNL     1      11.300  26.004   4.227  1.00  0.00     0.160 HD
HETATM   11  C25 UNL     1      10.740  24.192   3.546  1.00  0.00     0.101 C 
HETATM   12  S1  UNL     1      10.503  24.684   1.961  1.00  0.00    -0.063 SA
HETATM   13  C26 UNL     1      10.907  22.730   3.609  1.00  0.00     0.078 C 
HETATM   14  C27 UNL     1       9.738  22.142   2.763  1.00  0.00     0.046 C 
HETATM   15  C28 UNL     1      12.133  22.369   2.745  1.00  0.00     0.046 C 
HETATM   16  N4  UNL     1      10.868  22.101   4.862  1.00  0.00    -0.344 N 
ATOM     17  H4  UNL     1       9.950  21.729   5.108  1.00  0.00     0.163 HD
HETATM   18  C29 UNL     1      11.848  21.884   5.845  1.00  0.00     0.241 C 
HETATM   19  O5  UNL     1      11.487  21.198   6.878  1.00  0.00    -0.271 OA
ENDROOT
BRANCH   1  20
HETATM   20  C12 UNL     1      14.030  21.336   6.771  1.00  0.00     0.035 C 
BRANCH  20  21
HETATM   21  C11 UNL     1      14.598  21.949   7.984  1.00  0.00     0.002 C 
BRANCH  21  22
HETATM   22  C10 UNL     1      15.900  21.306   8.436  1.00  0.00     0.001 C 
BRANCH  22  23
HETATM   23  C9  UNL     1      16.839  21.079   7.309  1.00  0.00     0.009 C 
BRANCH  23  24
HETATM   24  C8  UNL     1      17.811  19.973   7.529  1.00  0.00     0.103 C 
BRANCH  24  25
HETATM   25  C7  UNL     1      18.198  19.250   6.310  1.00  0.00     0.222 C 
HETATM   26  N1  UNL     1      18.008  17.827   6.212  1.00  0.00    -0.325 N 
ATOM     27  H1  UNL     1      17.598  17.339   7.008  1.00  0.00     0.169 HD
HETATM   28  O3  UNL     1      18.697  19.795   5.309  1.00  0.00    -0.273 OA
BRANCH  26  29
HETATM   29  C6  UNL     1      18.368  17.052   5.048  1.00  0.00     0.089 C 
BRANCH  29  30
HETATM   30  C5  UNL     1      17.382  17.182   3.945  1.00  0.00     0.074 C 
BRANCH  30  31
HETATM   31  C4  UNL     1      17.826  17.485   2.589  1.00  0.00     0.117 C 
BRANCH  31  32
HETATM   32  C3  UNL     1      16.872  17.732   1.512  1.00  0.00     0.259 C 
HETATM   33  O2  UNL     1      16.552  17.001   0.561  1.00  0.00    -0.265 OA
BRANCH  32  34
HETATM   34  O1  UNL     1      16.176  18.986   1.502  1.00  0.00    -0.322 OA
BRANCH  34  35
HETATM   35  C2  UNL     1      14.904  19.112   2.079  1.00  0.00     0.174 C 
HETATM   36  C1  UNL     1      14.992  19.936   3.358  1.00  0.00     0.034 C 
ENDBRANCH  34  35
ENDBRANCH  32  34
ENDBRANCH  31  32
ENDBRANCH  30  31
ENDBRANCH  29  30
BRANCH  29  37
HETATM   37  C30 UNL     1      18.892  15.739   5.347  1.00  0.00     0.222 C 
HETATM   38  O6  UNL     1      18.364  14.925   6.173  1.00  0.00    -0.643 OA
HETATM   39  O7  UNL     1      20.068  15.315   4.694  1.00  0.00    -0.643 OA
ENDBRANCH  29  37
ENDBRANCH  26  29
ENDBRANCH  24  25
ENDBRANCH  23  24
ENDBRANCH  22  23
ENDBRANCH  21  22
ENDBRANCH  20  21
ENDBRANCH   1  20
BRANCH   6  40
HETATM   40  C16 UNL     1      11.099  25.788   8.082  1.00  0.00     0.020 C 
BRANCH  40  41
HETATM   41  C17 UNL     1      10.006  26.466   8.740  1.00  0.00    -0.014 C 
HETATM   42  C18 UNL     1      10.000  26.869  10.149  1.00  0.00     0.005 C 
HETATM   43  C19 UNL     1       9.305  28.215  10.384  1.00  0.00     0.000 C 
HETATM   44  C20 UNL     1       7.943  28.273   9.780  1.00  0.00     0.000 C 
HETATM   45  C21 UNL     1       8.065  27.911   8.318  1.00  0.00     0.000 C 
HETATM   46  C22 UNL     1       9.495  27.674   7.913  1.00  0.00     0.005 C 
ENDBRANCH  40  41
ENDBRANCH   6  40
TORSDOF 15
ENDMDL
MODEL 3
REMARK VINA RESULT: -8.842724193      1.361      2.937
REMARK  15 active torsions:
REMARK  status: ('A' for Active; 'I' for Inactive)
REMARK    1  A    between atoms: C2_2  and  O1_3 
REMARK    2  A    between atoms: O1_3  and  C3_4 
REMARK    3  A    between atoms: C3_4  and  C4_6 
REMARK    4  A    between atoms: C4_6  and  C5_7 
REMARK    5  A    between atoms: C5_7  and  C6_8 
REMARK    6  A    between atoms: C6_8  and  N1_9 
REMARK    7  A    between atoms: C6_8  and  C30_44 
REMARK       I    between atoms: N1_9  and  C7_11 
REMARK    8  A    between atoms: C7_11  and  C8_13 
REMARK    9  A    between atoms: C8_13  and  C9_14 
REMARK   10  A    between atoms: C9_14  and  C10_15 
REMARK   11  A    between atoms: C10_15  and  C11_16 
REMARK   12  A    between atoms: C11_16  and  C12_17 
REMARK   13  A    between atoms: C12_17  and  C13_18 
REMARK   14  A    between atoms: C15_23  and  C16_24 
REMARK   15  A    between atoms: C16_24  and  C17_25 
ROOT
HETATM    1  C13 UNL     1      13.352  22.506   6.005  1.00  0.00     0.176 C 
HETATM    2  N2  UNL     1      13.340  23.822   6.603  1.00  0.00    -0.347 N 
ATOM      3  H2  UNL     1      14.176  24.008   7.157  1.00  0.00     0.163 HD
HETATM    4  C14 UNL     1      12.467  24.874   6.597  1.00  0.00     0.224 C 
HETATM    5  O4  UNL     1      12.850  26.001   6.167  1.00  0.00    -0.273 OA
HETATM    6  C15 UNL     1      11.023  24.979   7.036  1.00  0.00     0.100 C 
HETATM    7  C23 UNL     1      10.113  25.306   5.932  1.00  0.00     0.091 C 
HETATM    8  C24 UNL     1       8.844  24.492   6.010  1.00  0.00     0.033 C 
HETATM    9  N3  UNL     1      10.734  25.235   4.618  1.00  0.00    -0.377 N 
ATOM     10  H3  UNL     1      11.237  26.082   4.351  1.00  0.00     0.160 HD
HETATM   11  C25 UNL     1      10.769  24.244   3.668  1.00  0.00     0.101 C 
HETATM   12  S1  UNL     1      10.517  24.724   2.082  1.00  0.00    -0.063 SA
HETATM   13  C26 UNL     1      11.007  22.792   3.732  1.00  0.00     0.078 C 
HETATM   14  C27 UNL     1       9.873  22.147   2.882  1.00  0.00     0.046 C 
HETATM   15  C28 UNL     1      12.254  22.491   2.876  1.00  0.00     0.046 C 
HETATM   16  N4  UNL     1      10.993  22.162   4.986  1.00  0.00    -0.344 N 
ATOM     17  H4  UNL     1      10.093  21.746   5.227  1.00  0.00     0.163 HD
HETATM   18  C29 UNL     1      11.977  21.994   5.974  1.00  0.00     0.241 C 
HETATM   19  O5  UNL     1      11.645  21.291   7.005  1.00  0.00    -0.271 OA
ENDROOT
BRANCH   1  20
HETATM   20  C12 UNL     1      14.179  21.554   6.911  1.00  0.00     0.035 C 
BRANCH  20  21
HETATM   21  C11 UNL     1      14.878  22.234   8.016  1.00  0.00     0.002 C 
BRANCH  21  22
HETATM   22  C10 UNL     1      15.907  21.358   8.712  1.00  0.00     0.001 C 
BRANCH  22  23
HETATM   23  C9  UNL     1      16.332  20.209   7.875  1.00  0.00     0.009 C 
BRANCH  23  24
HETATM   24  C8  UNL     1      17.714  20.316   7.333  1.00  0.00     0.103 C 
BRANCH  24  25
HETATM   25  C7  UNL     1      17.923  19.621   6.055  1.00  0.00     0.222 C 
HETATM   26  N1  UNL     1      17.036  18.565   5.642  1.00  0.00    -0.325 N 
ATOM     27  H1  UNL     1      16.261  18.318   6.258  1.00  0.00     0.169 HD
HETATM   28  O3  UNL     1      18.846  19.885   5.265  1.00  0.00    -0.273 OA
BRANCH  26  29
HETATM   29  C6  UNL     1      17.183  17.838   4.404  1.00  0.00     0.089 C 
BRANCH  29  30
HETATM   30  C5  UNL     1      18.379  16.959   4.393  1.00  0.00     0.074 C 
BRANCH  30  31
HETATM   31  C4  UNL     1      18.510  15.879   5.365  1.00  0.00     0.117 C 
BRANCH  31  32
HETATM   32  C3  UNL     1      19.422  15.981   6.501  1.00  0.00     0.259 C 
HETATM   33  O2  UNL     1      20.496  15.393   6.703  1.00  0.00    -0.265 OA
BRANCH  32  34
HETATM   34  O1  UNL     1      19.074  16.877   7.566  1.00  0.00    -0.322 OA
BRANCH  34  35
HETATM   35  C2  UNL     1      18.692  16.391   8.824  1.00  0.00     0.174 C 
HETATM   36  C1  UNL     1      18.300  17.549   9.733  1.00  0.00     0.034 C 
ENDBRANCH  34  35
ENDBRANCH  32  34
ENDBRANCH  31  32
ENDBRANCH  30  31
ENDBRANCH  29  30
BRANCH  29  37
HETATM   37  C30 UNL     1      16.894  18.616   3.221  1.00  0.00     0.222 C 
HETATM   38  O6  UNL     1      15.814  19.267   3.033  1.00  0.00    -0.643 OA
HETATM   39  O7  UNL     1      17.858  18.667   2.193  1.00  0.00    -0.643 OA
ENDBRANCH  29  37
ENDBRANCH  26  29
ENDBRANCH  24  25
ENDBRANCH  23  24
ENDBRANCH  22  23
ENDBRANCH  21  22
ENDBRANCH  20  21
ENDBRANCH   1  20
BRANCH   6  40
HETATM   40  C16 UNL     1      11.027  25.858   8.204  1.00  0.00     0.020 C 
BRANCH  40  41
HETATM   41  C17 UNL     1       9.912  26.558   8.799  1.00  0.00    -0.014 C 
HETATM   42  C18 UNL     1       9.844  26.984  10.199  1.00  0.00     0.005 C 
HETATM   43  C19 UNL     1       9.154  28.342  10.380  1.00  0.00     0.000 C 
HETATM   44  C20 UNL     1       7.823  28.405   9.711  1.00  0.00     0.000 C 
HETATM   45  C21 UNL     1       8.010  28.017   8.262  1.00  0.00     0.000 C 
HETATM   46  C22 UNL     1       9.454  27.758   7.929  1.00  0.00     0.005 C 
ENDBRANCH  40  41
ENDBRANCH   6  40
TORSDOF 15
ENDMDL
MODEL 4
REMARK VINA RESULT: -8.800584083      1.408      1.968
REMARK  15 active torsions:
REMARK  status: ('A' for Active; 'I' for Inactive)
REMARK    1  A    between atoms: C2_2  and  O1_3 
REMARK    2  A    between atoms: O1_3  and  C3_4 
REMARK    3  A    between atoms: C3_4  and  C4_6 
REMARK    4  A    between atoms: C4_6  and  C5_7 
REMARK    5  A    between atoms: C5_7  and  C6_8 
REMARK    6  A    between atoms: C6_8  and  N1_9 
REMARK    7  A    between atoms: C6_8  and  C30_44 
REMARK       I    between atoms: N1_9  and  C7_11 
REMARK    8  A    between atoms: C7_11  and  C8_13 
REMARK    9  A    between atoms: C8_13  and  C9_14 
REMARK   10  A    between atoms: C9_14  and  C10_15 
REMARK   11  A    between atoms: C10_15  and  C11_16 
REMARK   12  A    between atoms: C11_16  and  C12_17 
REMARK   13  A    between atoms: C12_17  and  C13_18 
REMARK   14  A    between atoms: C15_23  and  C16_24 
REMARK   15  A    between atoms: C16_24  and  C17_25 
ROOT
HETATM    1  C13 UNL     1      13.394  22.444   5.957  1.00  0.00     0.176 C 
HETATM    2  N2  UNL     1      13.392  23.762   6.551  1.00  0.00    -0.347 N 
ATOM      3  H2  UNL     1      14.228  23.943   7.106  1.00  0.00     0.163 HD
HETATM    4  C14 UNL     1      12.527  24.821   6.539  1.00  0.00     0.224 C 
HETATM    5  O4  UNL     1      12.920  25.943   6.106  1.00  0.00    -0.273 OA
HETATM    6  C15 UNL     1      11.084  24.940   6.975  1.00  0.00     0.100 C 
HETATM    7  C23 UNL     1      10.178  25.270   5.868  1.00  0.00     0.091 C 
HETATM    8  C24 UNL     1       8.902  24.467   5.947  1.00  0.00     0.033 C 
HETATM    9  N3  UNL     1      10.800  25.190   4.556  1.00  0.00    -0.377 N 
ATOM     10  H3  UNL     1      11.311  26.031   4.287  1.00  0.00     0.160 HD
HETATM   11  C25 UNL     1      10.830  24.195   3.610  1.00  0.00     0.101 C 
HETATM   12  S1  UNL     1      10.584  24.671   2.021  1.00  0.00    -0.063 SA
HETATM   13  C26 UNL     1      11.056  22.741   3.679  1.00  0.00     0.078 C 
HETATM   14  C27 UNL     1       9.917  22.102   2.829  1.00  0.00     0.046 C 
HETATM   15  C28 UNL     1      12.301  22.427   2.826  1.00  0.00     0.046 C 
HETATM   16  N4  UNL     1      11.034  22.116   4.936  1.00  0.00    -0.344 N 
ATOM     17  H4  UNL     1      10.130  21.708   5.177  1.00  0.00     0.163 HD
HETATM   18  C29 UNL     1      12.015  21.943   5.925  1.00  0.00     0.241 C 
HETATM   19  O5  UNL     1      11.675  21.247   6.959  1.00  0.00    -0.271 OA
ENDROOT
BRANCH   1  20
HETATM   20  C12 UNL     1      14.211  21.489   6.868  1.00  0.00     0.035 C 
BRANCH  20  21
HETATM   21  C11 UNL     1      15.533  22.012   7.255  1.00  0.00     0.002 C 
BRANCH  21  22
HETATM   22  C10 UNL     1      15.755  22.050   8.758  1.00  0.00     0.001 C 
BRANCH  22  23
HETATM   23  C9  UNL     1      15.418  20.761   9.413  1.00  0.00     0.009 C 
BRANCH  23  24
HETATM   24  C8  UNL     1      16.480  20.226  10.308  1.00  0.00     0.103 C 
BRANCH  24  25
HETATM   25  C7  UNL     1      17.623  19.624   9.607  1.00  0.00     0.222 C 
HETATM   26  N1  UNL     1      17.454  18.426   8.827  1.00  0.00    -0.325 N 
ATOM     27  H1  UNL     1      16.523  18.012   8.774  1.00  0.00     0.169 HD
HETATM   28  O3  UNL     1      18.776  20.089   9.633  1.00  0.00    -0.273 OA
BRANCH  26  29
HETATM   29  C6  UNL     1      18.531  17.779   8.116  1.00  0.00     0.089 C 
BRANCH  29  30
HETATM   30  C5  UNL     1      18.421  17.935   6.644  1.00  0.00     0.074 C 
BRANCH  30  31
HETATM   31  C4  UNL     1      18.118  19.236   6.059  1.00  0.00     0.117 C 
BRANCH  31  32
HETATM   32  C3  UNL     1      17.462  19.355   4.760  1.00  0.00     0.259 C 
HETATM   33  O2  UNL     1      16.355  19.840   4.479  1.00  0.00    -0.265 OA
BRANCH  32  34
HETATM   34  O1  UNL     1      18.154  18.855   3.607  1.00  0.00    -0.322 OA
BRANCH  34  35
HETATM   35  C2  UNL     1      17.895  17.571   3.108  1.00  0.00     0.174 C 
HETATM   36  C1  UNL     1      17.073  17.666   1.829  1.00  0.00     0.034 C 
ENDBRANCH  34  35
ENDBRANCH  32  34
ENDBRANCH  31  32
ENDBRANCH  30  31
ENDBRANCH  29  30
BRANCH  29  37
HETATM   37  C30 UNL     1      18.895  16.484   8.643  1.00  0.00     0.222 C 
HETATM   38  O6  UNL     1      18.258  15.405   8.407  1.00  0.00    -0.643 OA
HETATM   39  O7  UNL     1      20.027  16.388   9.479  1.00  0.00    -0.643 OA
ENDBRANCH  29  37
ENDBRANCH  26  29
ENDBRANCH  24  25
ENDBRANCH  23  24
ENDBRANCH  22  23
ENDBRANCH  21  22
ENDBRANCH  20  21
ENDBRANCH   1  20
BRANCH   6  40
HETATM   40  C16 UNL     1      11.092  25.822   8.141  1.00  0.00     0.020 C 
BRANCH  40  41
HETATM   41  C17 UNL     1       9.975  26.504   8.753  1.00  0.00    -0.014 C 
HETATM   42  C18 UNL     1       9.920  26.923  10.156  1.00  0.00     0.005 C 
HETATM   43  C19 UNL     1       9.214  28.269  10.353  1.00  0.00     0.000 C 
HETATM   44  C20 UNL     1       7.874  28.316   9.702  1.00  0.00     0.000 C 
HETATM   45  C21 UNL     1       8.046  27.938   8.249  1.00  0.00     0.000 C 
HETATM   46  C22 UNL     1       9.489  27.701   7.896  1.00  0.00     0.005 C 
ENDBRANCH  40  41
ENDBRANCH   6  40
TORSDOF 15
ENDMDL
MODEL 5
REMARK VINA RESULT: -8.779770186      3.713     10.024
REMARK  15 active torsions:
REMARK  status: ('A' for Active; 'I' for Inactive)
REMARK    1  A    between atoms: C2_2  and  O1_3 
REMARK    2  A    between atoms: O1_3  and  C3_4 
REMARK    3  A    between atoms: C3_4  and  C4_6 
REMARK    4  A    between atoms: C4_6  and  C5_7 
REMARK    5  A    between atoms: C5_7  and  C6_8 
REMARK    6  A    between atoms: C6_8  and  N1_9 
REMARK    7  A    between atoms: C6_8  and  C30_44 
REMARK       I    between atoms: N1_9  and  C7_11 
REMARK    8  A    between atoms: C7_11  and  C8_13 
REMARK    9  A    between atoms: C8_13  and  C9_14 
REMARK   10  A    between atoms: C9_14  and  C10_15 
REMARK   11  A    between atoms: C10_15  and  C11_16 
REMARK   12  A    between atoms: C11_16  and  C12_17 
REMARK   13  A    between atoms: C12_17  and  C13_18 
REMARK   14  A    between atoms: C15_23  and  C16_24 
REMARK   15  A    between atoms: C16_24  and  C17_25 
ROOT
HETATM    1  C13 UNL     1      11.122  24.526   6.779  1.00  0.00     0.176 C 
HETATM    2  N2  UNL     1      11.642  23.226   7.137  1.00  0.00    -0.347 N 
ATOM      3  H2  UNL     1      11.676  23.081   8.146  1.00  0.00     0.163 HD
HETATM    4  C14 UNL     1      12.099  22.145   6.434  1.00  0.00     0.224 C 
HETATM    5  O4  UNL     1      11.535  21.022   6.581  1.00  0.00    -0.273 OA
HETATM    6  C15 UNL     1      13.230  22.002   5.441  1.00  0.00     0.100 C 
HETATM    7  C23 UNL     1      12.769  21.619   4.101  1.00  0.00     0.091 C 
HETATM    8  C24 UNL     1      13.499  22.391   3.029  1.00  0.00     0.033 C 
HETATM    9  N3  UNL     1      11.325  21.678   3.937  1.00  0.00    -0.377 N 
ATOM     10  H3  UNL     1      10.836  20.843   4.260  1.00  0.00     0.160 HD
HETATM   11  C25 UNL     1      10.495  22.647   3.429  1.00  0.00     0.101 C 
HETATM   12  S1  UNL     1       9.278  22.120   2.402  1.00  0.00    -0.063 SA
HETATM   13  C26 UNL     1      10.420  24.107   3.605  1.00  0.00     0.078 C 
HETATM   14  C27 UNL     1      10.289  24.693   2.168  1.00  0.00     0.046 C 
HETATM   15  C28 UNL     1       9.035  24.428   4.204  1.00  0.00     0.046 C 
HETATM   16  N4  UNL     1      11.493  24.766   4.224  1.00  0.00    -0.344 N 
ATOM     17  H4  UNL     1      12.169  25.158   3.568  1.00  0.00     0.163 HD
HETATM   18  C29 UNL     1      11.816  24.991   5.572  1.00  0.00     0.241 C 
HETATM   19  O5  UNL     1      12.866  25.707   5.802  1.00  0.00    -0.271 OA
ENDROOT
BRANCH   1  20
HETATM   20  C12 UNL     1      11.457  25.527   7.918  1.00  0.00     0.035 C 
BRANCH  20  21
HETATM   21  C11 UNL     1      10.413  26.538   8.156  1.00  0.00     0.002 C 
BRANCH  21  22
HETATM   22  C10 UNL     1      10.524  27.219   9.511  1.00  0.00     0.001 C 
BRANCH  22  23
HETATM   23  C9  UNL     1       9.220  27.296  10.215  1.00  0.00     0.009 C 
BRANCH  23  24
HETATM   24  C8  UNL     1       8.515  28.598  10.069  1.00  0.00     0.103 C 
BRANCH  24  25
HETATM   25  C7  UNL     1       7.640  28.690   8.893  1.00  0.00     0.222 C 
HETATM   26  N1  UNL     1       7.246  27.504   8.180  1.00  0.00    -0.325 N 
ATOM     27  H1  UNL     1       7.588  26.603   8.515  1.00  0.00     0.169 HD
HETATM   28  O3  UNL     1       7.190  29.760   8.444  1.00  0.00    -0.273 OA
BRANCH  26  29
HETATM   29  C6  UNL     1       6.393  27.519   7.015  1.00  0.00     0.089 C 
BRANCH  29  30
HETATM   30  C5  UNL     1       5.121  26.783   7.226  1.00  0.00     0.074 C 
BRANCH  30  31
HETATM   31  C4  UNL     1       3.923  27.489   7.668  1.00  0.00     0.117 C 
BRANCH  31  32
HETATM   32  C3  UNL     1       2.588  26.943   7.441  1.00  0.00     0.259 C 
HETATM   33  O2  UNL     1       1.481  27.485   7.586  1.00  0.00    -0.265 OA
BRANCH  32  34
HETATM   34  O1  UNL     1       2.483  25.588   6.982  1.00  0.00    -0.322 OA
BRANCH  34  35
HETATM   35  C2  UNL     1       2.039  25.296   5.685  1.00  0.00     0.174 C 
HETATM   36  C1  UNL     1       3.192  24.756   4.849  1.00  0.00     0.034 C 
ENDBRANCH  34  35
ENDBRANCH  32  34
ENDBRANCH  31  32
ENDBRANCH  30  31
ENDBRANCH  29  30
BRANCH  29  37
HETATM   37  C30 UNL     1       7.092  27.334   5.764  1.00  0.00     0.222 C 
HETATM   38  O6  UNL     1       8.302  27.679   5.559  1.00  0.00    -0.643 OA
HETATM   39  O7  UNL     1       6.404  26.739   4.687  1.00  0.00    -0.643 OA
ENDBRANCH  29  37
ENDBRANCH  26  29
ENDBRANCH  24  25
ENDBRANCH  23  24
ENDBRANCH  22  23
ENDBRANCH  21  22
ENDBRANCH  20  21
ENDBRANCH   1  20
BRANCH   6  40
HETATM   40  C16 UNL     1      14.226  21.153   6.093  1.00  0.00     0.020 C 
BRANCH  40  41
HETATM   41  C17 UNL     1      15.411  21.558   6.813  1.00  0.00    -0.014 C 
HETATM   42  C18 UNL     1      15.685  22.923   7.270  1.00  0.00     0.005 C 
HETATM   43  C19 UNL     1      16.382  22.969   8.635  1.00  0.00     0.000 C 
HETATM   44  C20 UNL     1      17.597  22.106   8.691  1.00  0.00     0.000 C 
HETATM   45  C21 UNL     1      17.198  20.710   8.270  1.00  0.00     0.000 C 
HETATM   46  C22 UNL     1      15.722  20.605   7.995  1.00  0.00     0.005 C 
ENDBRANCH  40  41
ENDBRANCH   6  40
TORSDOF 15
ENDMDL
