MODEL 1
REMARK VINA RESULT: -8.559084498      0.000      0.000
REMARK  16 active torsions:
REMARK  status: ('A' for Active; 'I' for Inactive)
REMARK    1  A    between atoms: C2_2  and  N1_3 
REMARK    2  A    between atoms: C2_2  and  C20_25 
REMARK    3  A    between atoms: N1_3  and  C3_5 
REMARK    4  A    between atoms: C3_5  and  C4_6 
REMARK    5  A    between atoms: C3_5  and  C7_9 
REMARK    6  A    between atoms: C7_9  and  N2_10 
REMARK    7  A    between atoms: C7_9  and  C14_19 
REMARK       I    between atoms: N2_10  and  C8_12 
REMARK    8  A    between atoms: C8_12  and  C9_14 
REMARK    9  A    between atoms: C9_14  and  C10_15 
REMARK       I    between atoms: C20_25  and  N3_27 
REMARK       I    between atoms: N3_27  and  C21_29 
REMARK   10  A    between atoms: C21_29  and  C22_31 
REMARK   11  A    between atoms: C22_31  and  C23_33 
REMARK   12  A    between atoms: C23_33  and  O5_34 
REMARK   13  A    between atoms: C23_33  and  N4_36 
REMARK   14  A    between atoms: C27_40  and  C28_41 
REMARK       I    between atoms: C28_41  and  N5_43 
REMARK   15  A    between atoms: N5_43  and  C29_45 
REMARK   16  A    between atoms: C29_45  and  C31_47 
ROOT
HETATM    1  C20 UNL     1      13.794  22.012   4.099  1.00  0.00     0.246 C 
HETATM    2  O2  UNL     1      14.553  21.097   3.605  1.00  0.00    -0.271 OA
HETATM    3  N3  UNL     1      12.831  22.547   3.246  1.00  0.00    -0.289 N 
ATOM      4  H3  UNL     1      12.782  22.129   2.318  1.00  0.00     0.172 HD
HETATM    5  C21 UNL     1      11.908  23.597   3.498  1.00  0.00     0.298 C 
HETATM    6  O3  UNL     1      11.869  24.168   4.617  1.00  0.00    -0.264 OA
ENDROOT
BRANCH   1   7
HETATM    7  C2  UNL     1      14.045  22.386   5.522  1.00  0.00     0.170 C 
HETATM    8  C1  UNL     1      13.247  21.470   6.458  1.00  0.00     0.042 C 
BRANCH   7   9
HETATM    9  N1  UNL     1      15.435  22.297   5.832  1.00  0.00    -0.375 N 
ATOM     10  H1  UNL     1      16.153  22.554   5.156  1.00  0.00     0.160 HD
BRANCH   9  11
HETATM   11  C3  UNL     1      15.767  21.825   7.147  1.00  0.00     0.053 C 
BRANCH  11  12
HETATM   12  C4  UNL     1      16.051  22.924   8.051  1.00  0.00    -0.059 C 
HETATM   13  C5  UNL     1      17.460  23.045   8.570  1.00  0.00     0.045 C 
HETATM   14  C6  UNL     1      15.018  23.190   9.131  1.00  0.00     0.045 C 
ENDBRANCH  11  12
BRANCH  11  15
HETATM   15  C7  UNL     1      16.473  20.544   7.086  1.00  0.00     0.043 C 
BRANCH  15  16
HETATM   16  N2  UNL     1      16.450  19.952   5.758  1.00  0.00    -0.328 N 
HETATM   17  C8  UNL     1      17.556  19.643   4.955  1.00  0.00     0.222 C 
HETATM   18  O1  UNL     1      18.711  19.879   5.370  1.00  0.00    -0.273 OA
ATOM     19  H2  UNL     1      15.531  19.740   5.370  1.00  0.00     0.168 HD
BRANCH  17  20
HETATM   20  C9  UNL     1      17.391  19.040   3.618  1.00  0.00     0.111 C 
BRANCH  20  21
HETATM   21  C10 UNL     1      17.039  17.569   3.700  1.00  0.00    -0.043 C 
HETATM   22  C11 UNL     1      17.278  16.913   2.356  1.00  0.00     0.015 C 
HETATM   23  C12 UNL     1      15.534  17.410   3.966  1.00  0.00     0.015 C 
HETATM   24  C13 UNL     1      17.771  16.830   4.768  1.00  0.00     0.015 C 
ENDBRANCH  20  21
ENDBRANCH  17  20
ENDBRANCH  15  16
BRANCH  15  25
HETATM   25  C14 UNL     1      16.594  19.577   8.173  1.00  0.00     0.038 C 
HETATM   26  C15 UNL     1      15.799  19.833   9.431  1.00  0.00     0.011 C 
HETATM   27  C16 UNL     1      16.635  19.571  10.682  1.00  0.00     0.001 C 
HETATM   28  C17 UNL     1      17.388  18.278  10.625  1.00  0.00     0.000 C 
HETATM   29  C18 UNL     1      18.191  18.144   9.343  1.00  0.00     0.001 C 
HETATM   30  C19 UNL     1      18.067  19.464   8.615  1.00  0.00     0.011 C 
ENDBRANCH  15  25
ENDBRANCH  11  15
ENDBRANCH   9  11
ENDBRANCH   7   9
ENDBRANCH   1   7
BRANCH   5  31
HETATM   31  C22 UNL     1      10.979  24.030   2.432  1.00  0.00     0.275 C 
HETATM   32  O4  UNL     1      11.480  24.403   1.356  1.00  0.00    -0.282 OA
BRANCH  31  33
HETATM   33  C23 UNL     1       9.549  24.009   2.667  1.00  0.00     0.438 C 
BRANCH  33  34
HETATM   34  O5  UNL     1       9.222  23.262   3.839  1.00  0.00    -0.362 OA
ATOM     35  H5  UNL     1       8.397  22.802   3.739  1.00  0.00     0.212 HD
ENDBRANCH  33  34
BRANCH  33  36
HETATM   36  N4  UNL     1       8.907  25.280   2.868  1.00  0.00     0.138 N 
HETATM   37  C24 UNL     1       7.954  25.685   1.912  1.00  0.00     0.277 C 
HETATM   38  C25 UNL     1       6.609  25.203   2.395  1.00  0.00     0.033 C 
HETATM   39  C26 UNL     1       6.759  25.446   3.900  1.00  0.00     0.047 C 
HETATM   40  C27 UNL     1       8.224  25.221   4.138  1.00  0.00     0.318 C 
BRANCH  40  41
HETATM   41  C28 UNL     1       8.787  26.136   5.164  1.00  0.00     0.251 C 
HETATM   42  O6  UNL     1       8.666  27.374   5.120  1.00  0.00    -0.271 OA
HETATM   43  N5  UNL     1       9.503  25.583   6.254  1.00  0.00    -0.355 N 
ATOM     44  H5  UNL     1       9.604  24.570   6.300  1.00  0.00     0.162 HD
BRANCH  43  45
HETATM   45  C29 UNL     1      10.099  26.384   7.310  1.00  0.00     0.083 C 
HETATM   46  C30 UNL     1      11.302  25.640   7.842  1.00  0.00     0.032 C 
BRANCH  45  47
HETATM   47  C31 UNL     1       9.119  26.561   8.460  1.00  0.00    -0.000 C 
HETATM   48  C32 UNL     1       9.735  26.258   9.793  1.00  0.00     0.011 C 
HETATM   49  C33 UNL     1       8.698  28.035   8.435  1.00  0.00     0.011 C 
ENDBRANCH  45  47
ENDBRANCH  43  45
ENDBRANCH  40  41
ENDBRANCH  33  36
ENDBRANCH  31  33
ENDBRANCH   5  31
TORSDOF 16
ENDMDL
MODEL 2
REMARK VINA RESULT: -8.491702386      3.314     10.927
REMARK  16 active torsions:
REMARK  status: ('A' for Active; 'I' for Inactive)
REMARK    1  A    between atoms: C2_2  and  N1_3 
REMARK    2  A    between atoms: C2_2  and  C20_25 
REMARK    3  A    between atoms: N1_3  and  C3_5 
REMARK    4  A    between atoms: C3_5  and  C4_6 
REMARK    5  A    between atoms: C3_5  and  C7_9 
REMARK    6  A    between atoms: C7_9  and  N2_10 
REMARK    7  A    between atoms: C7_9  and  C14_19 
REMARK       I    between atoms: N2_10  and  C8_12 
REMARK    8  A    between atoms: C8_12  and  C9_14 
REMARK    9  A    between atoms: C9_14  and  C10_15 
REMARK       I    between atoms: C20_25  and  N3_27 
REMARK       I    between atoms: N3_27  and  C21_29 
REMARK   10  A    between atoms: C21_29  and  C22_31 
REMARK   11  A    between atoms: C22_31  and  C23_33 
REMARK   12  A    between atoms: C23_33  and  O5_34 
REMARK   13  A    between atoms: C23_33  and  N4_36 
REMARK   14  A    between atoms: C27_40  and  C28_41 
REMARK       I    between atoms: C28_41  and  N5_43 
REMARK   15  A    between atoms: N5_43  and  C29_45 
REMARK   16  A    between atoms: C29_45  and  C31_47 
ROOT
HETATM    1  C20 UNL     1      18.422  18.221   4.533  1.00  0.00     0.246 C 
HETATM    2  O2  UNL     1      18.375  18.492   3.276  1.00  0.00    -0.271 OA
HETATM    3  N3  UNL     1      19.019  17.013   4.885  1.00  0.00    -0.289 N 
ATOM      4  H3  UNL     1      19.410  16.472   4.114  1.00  0.00     0.172 HD
HETATM    5  C21 UNL     1      19.155  16.433   6.175  1.00  0.00     0.298 C 
HETATM    6  O3  UNL     1      18.726  17.025   7.198  1.00  0.00    -0.264 OA
ENDROOT
BRANCH   1   7
HETATM    7  C2  UNL     1      17.828  19.235   5.454  1.00  0.00     0.170 C 
HETATM    8  C1  UNL     1      18.920  20.172   5.983  1.00  0.00     0.042 C 
BRANCH   7   9
HETATM    9  N1  UNL     1      16.822  19.996   4.788  1.00  0.00    -0.375 N 
ATOM     10  H1  UNL     1      17.056  20.713   4.102  1.00  0.00     0.160 HD
BRANCH   9  11
HETATM   11  C3  UNL     1      15.460  19.697   5.135  1.00  0.00     0.053 C 
BRANCH  11  12
HETATM   12  C4  UNL     1      14.768  19.030   4.048  1.00  0.00    -0.059 C 
HETATM   13  C5  UNL     1      14.814  17.525   4.020  1.00  0.00     0.045 C 
HETATM   14  C6  UNL     1      14.948  19.635   2.667  1.00  0.00     0.045 C 
ENDBRANCH  11  12
BRANCH  11  15
HETATM   15  C7  UNL     1      14.905  20.721   6.023  1.00  0.00     0.043 C 
BRANCH  15  16
HETATM   16  N2  UNL     1      13.940  21.580   5.356  1.00  0.00    -0.328 N 
HETATM   17  C8  UNL     1      12.567  21.667   5.621  1.00  0.00     0.222 C 
HETATM   18  O1  UNL     1      12.058  20.953   6.511  1.00  0.00    -0.273 OA
ATOM     19  H2  UNL     1      14.302  22.184   4.618  1.00  0.00     0.168 HD
BRANCH  17  20
HETATM   20  C9  UNL     1      11.696  22.589   4.865  1.00  0.00     0.111 C 
BRANCH  20  21
HETATM   21  C10 UNL     1      11.687  23.979   5.465  1.00  0.00    -0.043 C 
HETATM   22  C11 UNL     1      10.449  24.722   5.010  1.00  0.00     0.015 C 
HETATM   23  C12 UNL     1      12.871  24.789   4.912  1.00  0.00     0.015 C 
HETATM   24  C13 UNL     1      11.779  23.998   6.953  1.00  0.00     0.015 C 
ENDBRANCH  20  21
ENDBRANCH  17  20
ENDBRANCH  15  16
BRANCH  15  25
HETATM   25  C14 UNL     1      15.594  21.348   7.146  1.00  0.00     0.038 C 
HETATM   26  C15 UNL     1      15.317  20.809   8.528  1.00  0.00     0.011 C 
HETATM   27  C16 UNL     1      15.129  21.937   9.540  1.00  0.00     0.001 C 
HETATM   28  C17 UNL     1      16.182  22.997   9.440  1.00  0.00     0.000 C 
HETATM   29  C18 UNL     1      16.346  23.504   8.018  1.00  0.00     0.001 C 
HETATM   30  C19 UNL     1      15.256  22.852   7.198  1.00  0.00     0.011 C 
ENDBRANCH  15  25
ENDBRANCH  11  15
ENDBRANCH   9  11
ENDBRANCH   7   9
ENDBRANCH   1   7
BRANCH   5  31
HETATM   31  C22 UNL     1      19.807  15.114   6.324  1.00  0.00     0.275 C 
HETATM   32  O4  UNL     1      19.301  14.156   5.712  1.00  0.00    -0.282 OA
BRANCH  31  33
HETATM   33  C23 UNL     1      20.986  14.980   7.155  1.00  0.00     0.438 C 
BRANCH  33  34
HETATM   34  O5  UNL     1      21.721  16.203   7.222  1.00  0.00    -0.362 OA
ATOM     35  H5  UNL     1      21.964  16.511   6.357  1.00  0.00     0.212 HD
ENDBRANCH  33  34
BRANCH  33  36
HETATM   36  N4  UNL     1      20.771  14.622   8.531  1.00  0.00     0.138 N 
HETATM   37  C24 UNL     1      21.110  13.311   8.921  1.00  0.00     0.277 C 
HETATM   38  C25 UNL     1      22.537  13.347   9.407  1.00  0.00     0.033 C 
HETATM   39  C26 UNL     1      22.540  14.696  10.134  1.00  0.00     0.047 C 
HETATM   40  C27 UNL     1      21.567  15.516   9.337  1.00  0.00     0.318 C 
BRANCH  40  41
HETATM   41  C28 UNL     1      20.763  16.434  10.184  1.00  0.00     0.251 C 
HETATM   42  O6  UNL     1      21.254  17.373  10.837  1.00  0.00    -0.271 OA
HETATM   43  N5  UNL     1      19.362  16.240  10.262  1.00  0.00    -0.355 N 
ATOM     44  H5  UNL     1      18.950  15.476   9.728  1.00  0.00     0.162 HD
BRANCH  43  45
HETATM   45  C29 UNL     1      18.480  17.075  11.062  1.00  0.00     0.083 C 
HETATM   46  C30 UNL     1      17.487  16.175  11.760  1.00  0.00     0.032 C 
BRANCH  45  47
HETATM   47  C31 UNL     1      17.696  18.026  10.171  1.00  0.00    -0.000 C 
HETATM   48  C32 UNL     1      16.237  18.066  10.515  1.00  0.00     0.011 C 
HETATM   49  C33 UNL     1      18.297  19.417  10.405  1.00  0.00     0.011 C 
ENDBRANCH  45  47
ENDBRANCH  43  45
ENDBRANCH  40  41
ENDBRANCH  33  36
ENDBRANCH  31  33
ENDBRANCH   5  31
TORSDOF 16
ENDMDL
MODEL 3
REMARK VINA RESULT: -8.375361103      2.031     10.762
REMARK  16 active torsions:
REMARK  status: ('A' for Active; 'I' for Inactive)
REMARK    1  A    between atoms: C2_2  and  N1_3 
REMARK    2  A    between atoms: C2_2  and  C20_25 
REMARK    3  A    between atoms: N1_3  and  C3_5 
REMARK    4  A    between atoms: C3_5  and  C4_6 
REMARK    5  A    between atoms: C3_5  and  C7_9 
REMARK    6  A    between atoms: C7_9  and  N2_10 
REMARK    7  A    between atoms: C7_9  and  C14_19 
REMARK       I    between atoms: N2_10  and  C8_12 
REMARK    8  A    between atoms: C8_12  and  C9_14 
REMARK    9  A    between atoms: C9_14  and  C10_15 
REMARK       I    between atoms: C20_25  and  N3_27 
REMARK       I    between atoms: N3_27  and  C21_29 
REMARK   10  A    between atoms: C21_29  and  C22_31 
REMARK   11  A    between atoms: C22_31  and  C23_33 
REMARK   12  A    between atoms: C23_33  and  O5_34 
REMARK   13  A    between atoms: C23_33  and  N4_36 
REMARK   14  A    between atoms: C27_40  and  C28_41 
REMARK       I    between atoms: C28_41  and  N5_43 
REMARK   15  A    between atoms: N5_43  and  C29_45 
REMARK   16  A    between atoms: C29_45  and  C31_47 
ROOT
HETATM    1  C20 UNL     1      12.571  24.503   6.879  1.00  0.00     0.246 C 
HETATM    2  O2  UNL     1      11.847  25.473   7.319  1.00  0.00    -0.271 OA
HETATM    3  N3  UNL     1      13.701  24.183   7.627  1.00  0.00    -0.289 N 
ATOM      4  H3  UNL     1      13.828  24.717   8.487  1.00  0.00     0.172 HD
HETATM    5  C21 UNL     1      14.703  23.213   7.352  1.00  0.00     0.298 C 
HETATM    6  O3  UNL     1      14.633  22.486   6.329  1.00  0.00    -0.264 OA
ENDROOT
BRANCH   1   7
HETATM    7  C2  UNL     1      12.108  23.847   5.620  1.00  0.00     0.170 C 
HETATM    8  C1  UNL     1      11.267  22.608   5.949  1.00  0.00     0.042 C 
BRANCH   7   9
HETATM    9  N1  UNL     1      11.341  24.754   4.829  1.00  0.00    -0.375 N 
ATOM     10  H1  UNL     1      11.559  25.749   4.789  1.00  0.00     0.160 HD
BRANCH   9  11
HETATM   11  C3  UNL     1      10.245  24.188   4.091  1.00  0.00     0.053 C 
BRANCH  11  12
HETATM   12  C4  UNL     1      10.669  23.722   2.784  1.00  0.00    -0.059 C 
HETATM   13  C5  UNL     1      10.490  24.665   1.623  1.00  0.00     0.045 C 
HETATM   14  C6  UNL     1      10.294  22.295   2.426  1.00  0.00     0.045 C 
ENDBRANCH  11  12
BRANCH  11  15
HETATM   15  C7  UNL     1       8.989  24.869   4.408  1.00  0.00     0.043 C 
BRANCH  15  16
HETATM   16  N2  UNL     1       9.025  25.547   5.694  1.00  0.00    -0.328 N 
HETATM   17  C8  UNL     1       8.906  26.925   5.921  1.00  0.00     0.222 C 
HETATM   18  O1  UNL     1       8.752  27.704   4.957  1.00  0.00    -0.273 OA
ATOM     19  H2  UNL     1       9.151  24.958   6.516  1.00  0.00     0.168 HD
BRANCH  17  20
HETATM   20  C9  UNL     1       8.960  27.485   7.286  1.00  0.00     0.111 C 
BRANCH  20  21
HETATM   21  C10 UNL     1       7.594  27.511   7.941  1.00  0.00    -0.043 C 
HETATM   22  C11 UNL     1       7.614  28.460   9.121  1.00  0.00     0.015 C 
HETATM   23  C12 UNL     1       7.281  26.130   8.539  1.00  0.00     0.015 C 
HETATM   24  C13 UNL     1       6.483  27.868   7.014  1.00  0.00     0.015 C 
ENDBRANCH  20  21
ENDBRANCH  17  20
ENDBRANCH  15  16
BRANCH  15  25
HETATM   25  C14 UNL     1       7.656  24.449   3.986  1.00  0.00     0.038 C 
HETATM   26  C15 UNL     1       7.556  23.280   3.037  1.00  0.00     0.011 C 
HETATM   27  C16 UNL     1       6.536  23.544   1.931  1.00  0.00     0.001 C 
HETATM   28  C17 UNL     1       5.242  24.094   2.445  1.00  0.00     0.000 C 
HETATM   29  C18 UNL     1       5.453  25.296   3.350  1.00  0.00     0.001 C 
HETATM   30  C19 UNL     1       6.929  25.622   3.297  1.00  0.00     0.011 C 
ENDBRANCH  15  25
ENDBRANCH  11  15
ENDBRANCH   9  11
ENDBRANCH   7   9
ENDBRANCH   1   7
BRANCH   5  31
HETATM   31  C22 UNL     1      15.845  23.053   8.277  1.00  0.00     0.275 C 
HETATM   32  O4  UNL     1      16.453  24.084   8.616  1.00  0.00    -0.282 OA
BRANCH  31  33
HETATM   33  C23 UNL     1      16.212  21.734   8.750  1.00  0.00     0.438 C 
BRANCH  33  34
HETATM   34  O5  UNL     1      15.192  20.775   8.472  1.00  0.00    -0.362 OA
ATOM     35  H5  UNL     1      14.839  20.400   9.270  1.00  0.00     0.212 HD
ENDBRANCH  33  34
BRANCH  33  36
HETATM   36  N4  UNL     1      17.404  21.154   8.191  1.00  0.00     0.138 N 
HETATM   37  C24 UNL     1      18.487  20.929   9.064  1.00  0.00     0.277 C 
HETATM   38  C25 UNL     1      18.346  19.525   9.595  1.00  0.00     0.033 C 
HETATM   39  C26 UNL     1      17.841  18.811   8.337  1.00  0.00     0.047 C 
HETATM   40  C27 UNL     1      17.040  19.872   7.639  1.00  0.00     0.318 C 
BRANCH  40  41
HETATM   41  C28 UNL     1      17.159  19.801   6.160  1.00  0.00     0.251 C 
HETATM   42  O6  UNL     1      18.246  19.708   5.562  1.00  0.00    -0.271 OA
HETATM   43  N5  UNL     1      15.979  19.843   5.378  1.00  0.00    -0.355 N 
ATOM     44  H5  UNL     1      15.082  19.916   5.859  1.00  0.00     0.162 HD
BRANCH  43  45
HETATM   45  C29 UNL     1      15.977  19.787   3.925  1.00  0.00     0.083 C 
HETATM   46  C30 UNL     1      14.814  20.611   3.423  1.00  0.00     0.032 C 
BRANCH  45  47
HETATM   47  C31 UNL     1      15.769  18.357   3.450  1.00  0.00    -0.000 C 
HETATM   48  C32 UNL     1      14.880  17.569   4.364  1.00  0.00     0.011 C 
HETATM   49  C33 UNL     1      15.095  18.462   2.076  1.00  0.00     0.011 C 
ENDBRANCH  45  47
ENDBRANCH  43  45
ENDBRANCH  40  41
ENDBRANCH  33  36
ENDBRANCH  31  33
ENDBRANCH   5  31
TORSDOF 16
ENDMDL
MODEL 4
REMARK VINA RESULT: -8.352535293      1.694     10.323
REMARK  16 active torsions:
REMARK  status: ('A' for Active; 'I' for Inactive)
REMARK    1  A    between atoms: C2_2  and  N1_3 
REMARK    2  A    between atoms: C2_2  and  C20_25 
REMARK    3  A    between atoms: N1_3  and  C3_5 
REMARK    4  A    between atoms: C3_5  and  C4_6 
REMARK    5  A    between atoms: C3_5  and  C7_9 
REMARK    6  A    between atoms: C7_9  and  N2_10 
REMARK    7  A    between atoms: C7_9  and  C14_19 
REMARK       I    between atoms: N2_10  and  C8_12 
REMARK    8  A    between atoms: C8_12  and  C9_14 
REMARK    9  A    between atoms: C9_14  and  C10_15 
REMARK       I    between atoms: C20_25  and  N3_27 
REMARK       I    between atoms: N3_27  and  C21_29 
REMARK   10  A    between atoms: C21_29  and  C22_31 
REMARK   11  A    between atoms: C22_31  and  C23_33 
REMARK   12  A    between atoms: C23_33  and  O5_34 
REMARK   13  A    between atoms: C23_33  and  N4_36 
REMARK   14  A    between atoms: C27_40  and  C28_41 
REMARK       I    between atoms: C28_41  and  N5_43 
REMARK   15  A    between atoms: N5_43  and  C29_45 
REMARK   16  A    between atoms: C29_45  and  C31_47 
ROOT
HETATM    1  C20 UNL     1      12.423  24.545   5.215  1.00  0.00     0.246 C 
HETATM    2  O2  UNL     1      12.787  25.777   5.297  1.00  0.00    -0.271 OA
HETATM    3  N3  UNL     1      13.349  23.660   4.666  1.00  0.00    -0.289 N 
ATOM      4  H3  UNL     1      14.254  24.062   4.423  1.00  0.00     0.172 HD
HETATM    5  C21 UNL     1      13.200  22.273   4.399  1.00  0.00     0.298 C 
HETATM    6  O3  UNL     1      12.132  21.672   4.679  1.00  0.00    -0.264 OA
ENDROOT
BRANCH   1   7
HETATM    7  C2  UNL     1      11.054  24.221   5.714  1.00  0.00     0.170 C 
HETATM    8  C1  UNL     1      10.944  24.553   7.207  1.00  0.00     0.042 C 
BRANCH   7   9
HETATM    9  N1  UNL     1      10.065  24.947   4.985  1.00  0.00    -0.375 N 
ATOM     10  H1  UNL     1       9.973  25.959   5.067  1.00  0.00     0.160 HD
BRANCH   9  11
HETATM   11  C3  UNL     1       9.206  24.175   4.131  1.00  0.00     0.053 C 
BRANCH  11  12
HETATM   12  C4  UNL     1       9.967  23.429   3.145  1.00  0.00    -0.059 C 
HETATM   13  C5  UNL     1      10.553  24.205   1.995  1.00  0.00     0.045 C 
HETATM   14  C6  UNL     1       9.373  22.104   2.701  1.00  0.00     0.045 C 
ENDBRANCH  11  12
BRANCH  11  15
HETATM   15  C7  UNL     1       7.929  24.856   3.911  1.00  0.00     0.043 C 
BRANCH  15  16
HETATM   16  N2  UNL     1       7.526  25.674   5.044  1.00  0.00    -0.328 N 
HETATM   17  C8  UNL     1       7.836  27.024   5.260  1.00  0.00     0.222 C 
HETATM   18  O1  UNL     1       8.531  27.643   4.427  1.00  0.00    -0.273 OA
ATOM     19  H2  UNL     1       6.958  25.217   5.757  1.00  0.00     0.168 HD
BRANCH  17  20
HETATM   20  C9  UNL     1       7.359  27.739   6.460  1.00  0.00     0.111 C 
BRANCH  20  21
HETATM   21  C10 UNL     1       8.109  27.315   7.706  1.00  0.00    -0.043 C 
HETATM   22  C11 UNL     1       7.632  25.947   8.147  1.00  0.00     0.015 C 
HETATM   23  C12 UNL     1       7.758  28.259   8.868  1.00  0.00     0.015 C 
HETATM   24  C13 UNL     1       9.592  27.316   7.552  1.00  0.00     0.015 C 
ENDBRANCH  20  21
ENDBRANCH  17  20
ENDBRANCH  15  16
BRANCH  15  25
HETATM   25  C14 UNL     1       6.820  24.361   3.102  1.00  0.00     0.038 C 
HETATM   26  C15 UNL     1       6.816  24.702   1.632  1.00  0.00     0.011 C 
HETATM   27  C16 UNL     1       5.427  25.124   1.160  1.00  0.00     0.001 C 
HETATM   28  C17 UNL     1       4.343  24.204   1.629  1.00  0.00     0.000 C 
HETATM   29  C18 UNL     1       4.407  23.967   3.128  1.00  0.00     0.001 C 
HETATM   30  C19 UNL     1       5.482  24.885   3.665  1.00  0.00     0.011 C 
ENDBRANCH  15  25
ENDBRANCH  11  15
ENDBRANCH   9  11
ENDBRANCH   7   9
ENDBRANCH   1   7
BRANCH   5  31
HETATM   31  C22 UNL     1      14.313  21.519   3.782  1.00  0.00     0.275 C 
HETATM   32  O4  UNL     1      14.160  21.136   2.608  1.00  0.00    -0.282 OA
BRANCH  31  33
HETATM   33  C23 UNL     1      15.517  21.257   4.542  1.00  0.00     0.438 C 
BRANCH  33  34
HETATM   34  O5  UNL     1      15.714  22.233   5.566  1.00  0.00    -0.362 OA
ATOM     35  H5  UNL     1      15.679  21.841   6.431  1.00  0.00     0.212 HD
ENDBRANCH  33  34
BRANCH  33  36
HETATM   36  N4  UNL     1      15.584  19.999   5.237  1.00  0.00     0.138 N 
HETATM   37  C24 UNL     1      14.997  18.881   4.611  1.00  0.00     0.277 C 
HETATM   38  C25 UNL     1      16.075  18.210   3.798  1.00  0.00     0.033 C 
HETATM   39  C26 UNL     1      17.271  18.383   4.740  1.00  0.00     0.047 C 
HETATM   40  C27 UNL     1      16.979  19.685   5.428  1.00  0.00     0.318 C 
BRANCH  40  41
HETATM   41  C28 UNL     1      17.404  19.691   6.851  1.00  0.00     0.251 C 
HETATM   42  O6  UNL     1      18.520  19.297   7.236  1.00  0.00    -0.271 OA
HETATM   43  N5  UNL     1      16.500  20.168   7.832  1.00  0.00    -0.355 N 
ATOM     44  H5  UNL     1      15.585  20.496   7.526  1.00  0.00     0.162 HD
BRANCH  43  45
HETATM   45  C29 UNL     1      16.809  20.214   9.252  1.00  0.00     0.083 C 
HETATM   46  C30 UNL     1      16.145  19.030   9.916  1.00  0.00     0.032 C 
BRANCH  45  47
HETATM   47  C31 UNL     1      16.237  21.476   9.879  1.00  0.00    -0.000 C 
HETATM   48  C32 UNL     1      15.957  22.547   8.866  1.00  0.00     0.011 C 
HETATM   49  C33 UNL     1      14.915  21.061  10.535  1.00  0.00     0.011 C 
ENDBRANCH  45  47
ENDBRANCH  43  45
ENDBRANCH  40  41
ENDBRANCH  33  36
ENDBRANCH  31  33
ENDBRANCH   5  31
TORSDOF 16
ENDMDL
MODEL 5
REMARK VINA RESULT: -8.265221632      1.885     10.583
REMARK  16 active torsions:
REMARK  status: ('A' for Active; 'I' for Inactive)
REMARK    1  A    between atoms: C2_2  and  N1_3 
REMARK    2  A    between atoms: C2_2  and  C20_25 
REMARK    3  A    between atoms: N1_3  and  C3_5 
REMARK    4  A    between atoms: C3_5  and  C4_6 
REMARK    5  A    between atoms: C3_5  and  C7_9 
REMARK    6  A    between atoms: C7_9  and  N2_10 
REMARK    7  A    between atoms: C7_9  and  C14_19 
REMARK       I    between atoms: N2_10  and  C8_12 
REMARK    8  A    between atoms: C8_12  and  C9_14 
REMARK    9  A    between atoms: C9_14  and  C10_15 
REMARK       I    between atoms: C20_25  and  N3_27 
REMARK       I    between atoms: N3_27  and  C21_29 
REMARK   10  A    between atoms: C21_29  and  C22_31 
REMARK   11  A    between atoms: C22_31  and  C23_33 
REMARK   12  A    between atoms: C23_33  and  O5_34 
REMARK   13  A    between atoms: C23_33  and  N4_36 
REMARK   14  A    between atoms: C27_40  and  C28_41 
REMARK       I    between atoms: C28_41  and  N5_43 
REMARK   15  A    between atoms: N5_43  and  C29_45 
REMARK   16  A    between atoms: C29_45  and  C31_47 
ROOT
HETATM    1  C20 UNL     1      12.348  24.416   5.731  1.00  0.00     0.246 C 
HETATM    2  O2  UNL     1      12.797  25.505   5.212  1.00  0.00    -0.271 OA
HETATM    3  N3  UNL     1      13.229  23.338   5.770  1.00  0.00    -0.289 N 
ATOM      4  H3  UNL     1      14.171  23.524   5.426  1.00  0.00     0.172 HD
HETATM    5  C21 UNL     1      12.991  22.013   6.224  1.00  0.00     0.298 C 
HETATM    6  O3  UNL     1      11.871  21.681   6.687  1.00  0.00    -0.264 OA
ENDROOT
BRANCH   1   7
HETATM    7  C2  UNL     1      10.939  24.446   6.222  1.00  0.00     0.170 C 
HETATM    8  C1  UNL     1      10.872  25.127   7.594  1.00  0.00     0.042 C 
BRANCH   7   9
HETATM    9  N1  UNL     1      10.096  25.138   5.301  1.00  0.00    -0.375 N 
ATOM     10  H1  UNL     1      10.022  26.154   5.300  1.00  0.00     0.160 HD
BRANCH   9  11
HETATM   11  C3  UNL     1       9.359  24.323   4.374  1.00  0.00     0.053 C 
BRANCH  11  12
HETATM   12  C4  UNL     1      10.244  23.623   3.461  1.00  0.00    -0.059 C 
HETATM   13  C5  UNL     1      10.803  24.408   2.304  1.00  0.00     0.045 C 
HETATM   14  C6  UNL     1       9.815  22.225   3.053  1.00  0.00     0.045 C 
ENDBRANCH  11  12
BRANCH  11  15
HETATM   15  C7  UNL     1       8.072  24.936   4.042  1.00  0.00     0.043 C 
BRANCH  15  16
HETATM   16  N2  UNL     1       7.529  25.730   5.131  1.00  0.00    -0.328 N 
HETATM   17  C8  UNL     1       7.756  27.092   5.374  1.00  0.00     0.222 C 
HETATM   18  O1  UNL     1       8.495  27.746   4.608  1.00  0.00    -0.273 OA
ATOM     19  H2  UNL     1       6.919  25.245   5.789  1.00  0.00     0.168 HD
BRANCH  17  20
HETATM   20  C9  UNL     1       7.137  27.781   6.524  1.00  0.00     0.111 C 
BRANCH  20  21
HETATM   21  C10 UNL     1       7.890  27.517   7.812  1.00  0.00    -0.043 C 
HETATM   22  C11 UNL     1       7.596  26.112   8.294  1.00  0.00     0.015 C 
HETATM   23  C12 UNL     1       7.360  28.443   8.919  1.00  0.00     0.015 C 
HETATM   24  C13 UNL     1       9.362  27.727   7.709  1.00  0.00     0.015 C 
ENDBRANCH  20  21
ENDBRANCH  17  20
ENDBRANCH  15  16
BRANCH  15  25
HETATM   25  C14 UNL     1       7.065  24.382   3.141  1.00  0.00     0.038 C 
HETATM   26  C15 UNL     1       7.149  24.757   1.681  1.00  0.00     0.011 C 
HETATM   27  C16 UNL     1       5.772  25.091   1.111  1.00  0.00     0.001 C 
HETATM   28  C17 UNL     1       4.725  24.086   1.479  1.00  0.00     0.000 C 
HETATM   29  C18 UNL     1       4.693  23.820   2.974  1.00  0.00     0.001 C 
HETATM   30  C19 UNL     1       5.655  24.798   3.608  1.00  0.00     0.011 C 
ENDBRANCH  15  25
ENDBRANCH  11  15
ENDBRANCH   9  11
ENDBRANCH   7   9
ENDBRANCH   1   7
BRANCH   5  31
HETATM   31  C22 UNL     1      14.071  21.006   6.152  1.00  0.00     0.275 C 
HETATM   32  O4  UNL     1      14.698  20.767   7.200  1.00  0.00    -0.282 OA
BRANCH  31  33
HETATM   33  C23 UNL     1      14.360  20.343   4.897  1.00  0.00     0.438 C 
BRANCH  33  34
HETATM   34  O5  UNL     1      14.998  21.226   3.974  1.00  0.00    -0.362 OA
ATOM     35  H5  UNL     1      15.371  20.752   3.239  1.00  0.00     0.212 HD
ENDBRANCH  33  34
BRANCH  33  36
HETATM   36  N4  UNL     1      15.233  19.202   4.953  1.00  0.00     0.138 N 
HETATM   37  C24 UNL     1      14.865  18.066   4.203  1.00  0.00     0.277 C 
HETATM   38  C25 UNL     1      15.521  18.195   2.851  1.00  0.00     0.033 C 
HETATM   39  C26 UNL     1      16.870  18.795   3.262  1.00  0.00     0.047 C 
HETATM   40  C27 UNL     1      16.524  19.623   4.465  1.00  0.00     0.318 C 
BRANCH  40  41
HETATM   41  C28 UNL     1      17.590  19.604   5.500  1.00  0.00     0.251 C 
HETATM   42  O6  UNL     1      18.791  19.816   5.253  1.00  0.00    -0.271 OA
HETATM   43  N5  UNL     1      17.232  19.330   6.843  1.00  0.00    -0.355 N 
ATOM     44  H5  UNL     1      16.250  19.158   7.056  1.00  0.00     0.162 HD
BRANCH  43  45
HETATM   45  C29 UNL     1      18.192  19.282   7.934  1.00  0.00     0.083 C 
HETATM   46  C30 UNL     1      18.129  17.905   8.555  1.00  0.00     0.032 C 
BRANCH  45  47
HETATM   47  C31 UNL     1      17.823  20.291   9.011  1.00  0.00    -0.000 C 
HETATM   48  C32 UNL     1      18.306  19.885  10.371  1.00  0.00     0.011 C 
HETATM   49  C33 UNL     1      18.511  21.603   8.614  1.00  0.00     0.011 C 
ENDBRANCH  45  47
ENDBRANCH  43  45
ENDBRANCH  40  41
ENDBRANCH  33  36
ENDBRANCH  31  33
ENDBRANCH   5  31
TORSDOF 16
ENDMDL
