MODEL 1
REMARK VINA RESULT: -7.790815985      0.000      0.000
REMARK  17 active torsions:
REMARK  status: ('A' for Active; 'I' for Inactive)
REMARK    1  A    between atoms: C2_2  and  N1_3 
REMARK       I    between atoms: N1_3  and  C3_4 
REMARK    2  A    between atoms: N1_3  and  C22_40 
REMARK    3  A    between atoms: C3_4  and  C4_6 
REMARK    4  A    between atoms: C4_6  and  N2_7 
REMARK    5  A    between atoms: C4_6  and  C11_17 
REMARK    6  A    between atoms: N2_7  and  C5_9 
REMARK    7  A    between atoms: C5_9  and  C6_10 
REMARK    8  A    between atoms: C5_9  and  C7_13 
REMARK    9  A    between atoms: C11_17  and  C12_18 
REMARK   10  A    between atoms: C11_17  and  C19_30 
REMARK   11  A    between atoms: C12_18  and  C13_19 
REMARK   12  A    between atoms: C13_19  and  C14_20 
REMARK   13  A    between atoms: C14_20  and  N4_21 
REMARK       I    between atoms: N4_21  and  C15_23 
REMARK       I    between atoms: C15_23  and  N5_25 
REMARK   14  A    between atoms: N5_25  and  C16_27 
REMARK   15  A    between atoms: C19_30  and  C20_31 
REMARK   16  A    between atoms: C21_34  and  O4_35 
REMARK   17  A    between atoms: C25_43  and  C26_44 
ROOT
HETATM    1  C4  UNL     1      15.617  20.977   5.727  1.00  0.00     0.182 C 
ENDROOT
BRANCH   1   2
HETATM    2  C3  UNL     1      14.964  21.112   7.064  1.00  0.00     0.243 C 
HETATM    3  N1  UNL     1      15.901  21.281   8.171  1.00  0.00    -0.346 N 
HETATM    4  O1  UNL     1      13.786  21.132   7.239  1.00  0.00    -0.271 OA
BRANCH   3   5
HETATM    5  C2  UNL     1      15.389  22.263   9.148  1.00  0.00     0.122 C 
HETATM    6  C1  UNL     1      14.869  21.549  10.337  1.00  0.00     0.026 C 
ENDBRANCH   3   5
BRANCH   3   7
HETATM    7  C22 UNL     1      17.157  20.613   8.347  1.00  0.00     0.087 C 
HETATM    8  C23 UNL     1      17.039  19.106   8.534  1.00  0.00     0.026 C 
HETATM    9  C24 UNL     1      16.944  18.647   9.938  1.00  0.00     0.007 C 
HETATM   10  C25 UNL     1      17.901  19.291  10.906  1.00  0.00    -0.007 C 
HETATM   11  C30 UNL     1      18.846  20.156  10.087  1.00  0.00     0.007 C 
HETATM   12  C31 UNL     1      18.000  21.233   9.435  1.00  0.00     0.026 C 
BRANCH  10  13
HETATM   13  C26 UNL     1      18.612  18.301  11.783  1.00  0.00    -0.048 C 
HETATM   14  C27 UNL     1      19.764  17.734  10.974  1.00  0.00     0.015 C 
HETATM   15  C28 UNL     1      19.173  19.046  12.955  1.00  0.00     0.015 C 
HETATM   16  C29 UNL     1      17.728  17.147  12.229  1.00  0.00     0.015 C 
ENDBRANCH  10  13
ENDBRANCH   3   7
ENDBRANCH   1   2
BRANCH   1  17
HETATM   17  N2  UNL     1      15.424  19.729   5.157  1.00  0.00    -0.375 N 
ATOM     18  H2  UNL     1      14.608  19.185   5.436  1.00  0.00     0.160 HD
BRANCH  17  19
HETATM   19  C5  UNL     1      16.309  19.180   4.208  1.00  0.00     0.079 C 
BRANCH  19  20
HETATM   20  C6  UNL     1      17.624  18.654   4.641  1.00  0.00     0.277 C 
HETATM   21  N3  UNL     1      17.698  17.315   5.198  1.00  0.00    -0.056 NA
HETATM   22  O2  UNL     1      18.664  19.316   4.632  1.00  0.00    -0.270 OA
ENDBRANCH  19  20
BRANCH  19  23
HETATM   23  C7  UNL     1      15.790  18.408   3.053  1.00  0.00    -0.004 C 
HETATM   24  C8  UNL     1      16.801  17.740   2.187  1.00  0.00     0.021 C 
HETATM   25  C9  UNL     1      14.753  17.415   3.514  1.00  0.00     0.021 C 
HETATM   26  C10 UNL     1      15.012  19.487   2.225  1.00  0.00     0.021 C 
ENDBRANCH  19  23
ENDBRANCH  17  19
ENDBRANCH   1  17
BRANCH   1  27
HETATM   27  C11 UNL     1      14.799  22.103   4.951  1.00  0.00     0.044 C 
BRANCH  27  28
HETATM   28  C12 UNL     1      13.416  21.584   4.705  1.00  0.00     0.013 C 
BRANCH  28  29
HETATM   29  C13 UNL     1      12.623  22.317   3.673  1.00  0.00     0.020 C 
BRANCH  29  30
HETATM   30  C14 UNL     1      11.128  22.156   3.829  1.00  0.00     0.124 C 
BRANCH  30  31
HETATM   31  N4  UNL     1      10.685  23.319   4.506  1.00  0.00    -0.343 N 
HETATM   32  C15 UNL     1       9.757  24.272   3.976  1.00  0.00     0.316 C 
HETATM   33  O3  UNL     1       9.059  23.982   3.035  1.00  0.00    -0.247 OA
HETATM   34  N5  UNL     1       9.692  25.482   4.683  1.00  0.00    -0.339 N 
ATOM     35  H5  UNL     1      10.545  25.991   4.916  1.00  0.00     0.164 HD
ATOM     36  H4  UNL     1      11.054  23.490   5.441  1.00  0.00     0.164 HD
BRANCH  34  37
HETATM   37  C16 UNL     1       8.394  26.002   5.079  1.00  0.00     0.078 C 
HETATM   38  C17 UNL     1       8.623  25.978   6.692  1.00  0.00     0.032 C 
HETATM   39  C18 UNL     1       8.111  27.384   4.733  1.00  0.00     0.032 C 
ENDBRANCH  34  37
ENDBRANCH  30  31
ENDBRANCH  29  30
ENDBRANCH  28  29
ENDBRANCH  27  28
BRANCH  27  40
HETATM   40  C19 UNL     1      14.852  23.376   5.634  1.00  0.00     0.031 C 
BRANCH  40  41
HETATM   41  C20 UNL     1      13.804  24.294   5.942  1.00  0.00     0.126 A 
HETATM   42  N6  UNL     1      13.182  24.234   7.244  1.00  0.00    -0.300 N 
HETATM   43  C21 UNL     1      12.294  25.225   7.209  1.00  0.00     0.286 A 
ATOM     44  H6  UNL     1      13.377  23.587   8.008  1.00  0.00     0.171 HD
HETATM   45  O5  UNL     1      12.301  25.853   6.082  1.00  0.00    -0.192 OA
HETATM   46  N7  UNL     1      13.216  25.257   5.413  1.00  0.00    -0.241 N 
ATOM     47  H7  UNL     1      13.457  25.564   4.470  1.00  0.00     0.196 HD
BRANCH  43  48
HETATM   48  O4  UNL     1      11.525  25.567   8.216  1.00  0.00    -0.325 OA
ATOM     49  H4  UNL     1      11.358  26.463   8.483  1.00  0.00     0.221 HD
ENDBRANCH  43  48
ENDBRANCH  40  41
ENDBRANCH  27  40
ENDBRANCH   1  27
TORSDOF 17
ENDMDL
MODEL 2
REMARK VINA RESULT: -7.533470054      4.860      9.408
REMARK  17 active torsions:
REMARK  status: ('A' for Active; 'I' for Inactive)
REMARK    1  A    between atoms: C2_2  and  N1_3 
REMARK       I    between atoms: N1_3  and  C3_4 
REMARK    2  A    between atoms: N1_3  and  C22_40 
REMARK    3  A    between atoms: C3_4  and  C4_6 
REMARK    4  A    between atoms: C4_6  and  N2_7 
REMARK    5  A    between atoms: C4_6  and  C11_17 
REMARK    6  A    between atoms: N2_7  and  C5_9 
REMARK    7  A    between atoms: C5_9  and  C6_10 
REMARK    8  A    between atoms: C5_9  and  C7_13 
REMARK    9  A    between atoms: C11_17  and  C12_18 
REMARK   10  A    between atoms: C11_17  and  C19_30 
REMARK   11  A    between atoms: C12_18  and  C13_19 
REMARK   12  A    between atoms: C13_19  and  C14_20 
REMARK   13  A    between atoms: C14_20  and  N4_21 
REMARK       I    between atoms: N4_21  and  C15_23 
REMARK       I    between atoms: C15_23  and  N5_25 
REMARK   14  A    between atoms: N5_25  and  C16_27 
REMARK   15  A    between atoms: C19_30  and  C20_31 
REMARK   16  A    between atoms: C21_34  and  O4_35 
REMARK   17  A    between atoms: C25_43  and  C26_44 
ROOT
HETATM    1  C4  UNL     1       8.021  26.325   6.052  1.00  0.00     0.182 C 
ENDROOT
BRANCH   1   2
HETATM    2  C3  UNL     1       8.632  25.716   7.272  1.00  0.00     0.243 C 
HETATM    3  N1  UNL     1      10.075  25.516   7.181  1.00  0.00    -0.346 N 
HETATM    4  O1  UNL     1       8.030  25.449   8.264  1.00  0.00    -0.271 OA
BRANCH   3   5
HETATM    5  C2  UNL     1      10.732  25.834   8.465  1.00  0.00     0.122 C 
HETATM    6  C1  UNL     1      10.395  27.221   8.859  1.00  0.00     0.026 C 
ENDBRANCH   3   5
BRANCH   3   7
HETATM    7  C22 UNL     1      10.814  25.070   6.036  1.00  0.00     0.087 C 
HETATM    8  C23 UNL     1      10.701  23.576   5.768  1.00  0.00     0.026 C 
HETATM    9  C24 UNL     1      11.752  22.739   6.391  1.00  0.00     0.007 C 
HETATM   10  C25 UNL     1      13.160  23.259   6.274  1.00  0.00    -0.007 C 
HETATM   11  C30 UNL     1      13.111  24.474   5.363  1.00  0.00     0.007 C 
HETATM   12  C31 UNL     1      12.256  25.512   6.064  1.00  0.00     0.026 C 
BRANCH  10  13
HETATM   13  C26 UNL     1      14.140  22.214   5.819  1.00  0.00    -0.048 C 
HETATM   14  C27 UNL     1      15.179  22.071   6.916  1.00  0.00     0.015 C 
HETATM   15  C28 UNL     1      13.401  20.918   5.690  1.00  0.00     0.015 C 
HETATM   16  C29 UNL     1      14.854  22.579   4.528  1.00  0.00     0.015 C 
ENDBRANCH  10  13
ENDBRANCH   3   7
ENDBRANCH   1   2
BRANCH   1  17
HETATM   17  N2  UNL     1       7.563  25.380   5.149  1.00  0.00    -0.375 N 
ATOM     18  H2  UNL     1       7.263  24.472   5.503  1.00  0.00     0.160 HD
BRANCH  17  19
HETATM   19  C5  UNL     1       7.495  25.621   3.763  1.00  0.00     0.079 C 
BRANCH  19  20
HETATM   20  C6  UNL     1       8.669  26.179   3.051  1.00  0.00     0.277 C 
HETATM   21  N3  UNL     1       8.638  27.565   2.621  1.00  0.00    -0.056 NA
HETATM   22  O2  UNL     1       9.654  25.513   2.727  1.00  0.00    -0.270 OA
ENDBRANCH  19  20
BRANCH  19  23
HETATM   23  C7  UNL     1       6.729  24.711   2.878  1.00  0.00    -0.004 C 
HETATM   24  C8  UNL     1       5.263  24.614   3.128  1.00  0.00     0.021 C 
HETATM   25  C9  UNL     1       6.994  25.045   1.431  1.00  0.00     0.021 C 
HETATM   26  C10 UNL     1       7.404  23.320   3.128  1.00  0.00     0.021 C 
ENDBRANCH  19  23
ENDBRANCH  17  19
ENDBRANCH   1  17
BRANCH   1  27
HETATM   27  C11 UNL     1       6.813  27.093   6.752  1.00  0.00     0.044 C 
BRANCH  27  28
HETATM   28  C12 UNL     1       7.273  28.481   7.078  1.00  0.00     0.013 C 
BRANCH  28  29
HETATM   29  C13 UNL     1       7.116  28.897   8.504  1.00  0.00     0.020 C 
BRANCH  29  30
HETATM   30  C14 UNL     1       5.772  29.515   8.811  1.00  0.00     0.124 C 
BRANCH  30  31
HETATM   31  N4  UNL     1       5.433  30.284   7.670  1.00  0.00    -0.343 N 
HETATM   32  C15 UNL     1       4.106  30.453   7.161  1.00  0.00     0.316 C 
HETATM   33  O3  UNL     1       3.151  30.197   7.855  1.00  0.00    -0.247 OA
HETATM   34  N5  UNL     1       4.038  30.998   5.870  1.00  0.00    -0.339 N 
ATOM     35  H5  UNL     1       4.602  30.609   5.115  1.00  0.00     0.164 HD
ATOM     36  H4  UNL     1       6.191  30.753   7.174  1.00  0.00     0.164 HD
BRANCH  34  37
HETATM   37  C16 UNL     1       3.153  32.124   5.622  1.00  0.00     0.078 C 
HETATM   38  C17 UNL     1       4.199  33.318   5.990  1.00  0.00     0.032 C 
HETATM   39  C18 UNL     1       2.753  32.349   4.245  1.00  0.00     0.032 C 
ENDBRANCH  34  37
ENDBRANCH  30  31
ENDBRANCH  29  30
ENDBRANCH  28  29
ENDBRANCH  27  28
BRANCH  27  40
HETATM   40  C19 UNL     1       5.604  27.030   5.962  1.00  0.00     0.031 C 
BRANCH  40  41
HETATM   41  C20 UNL     1       4.326  26.484   6.286  1.00  0.00     0.126 A 
HETATM   42  N6  UNL     1       3.556  27.090   7.348  1.00  0.00    -0.300 N 
HETATM   43  C21 UNL     1       2.434  26.374   7.363  1.00  0.00     0.286 A 
ATOM     44  H6  UNL     1       3.812  27.877   7.943  1.00  0.00     0.171 HD
HETATM   45  O5  UNL     1       2.432  25.441   6.472  1.00  0.00    -0.192 OA
HETATM   46  N7  UNL     1       3.561  25.586   5.884  1.00  0.00    -0.241 N 
ATOM     47  H7  UNL     1       3.826  24.982   5.106  1.00  0.00     0.196 HD
BRANCH  43  48
HETATM   48  O4  UNL     1       1.415  26.611   8.155  1.00  0.00    -0.325 OA
ATOM     49  H4  UNL     1       1.404  26.422   9.086  1.00  0.00     0.221 HD
ENDBRANCH  43  48
ENDBRANCH  40  41
ENDBRANCH  27  40
ENDBRANCH   1  27
TORSDOF 17
ENDMDL
MODEL 3
REMARK VINA RESULT: -7.509269383      2.874     10.607
REMARK  17 active torsions:
REMARK  status: ('A' for Active; 'I' for Inactive)
REMARK    1  A    between atoms: C2_2  and  N1_3 
REMARK       I    between atoms: N1_3  and  C3_4 
REMARK    2  A    between atoms: N1_3  and  C22_40 
REMARK    3  A    between atoms: C3_4  and  C4_6 
REMARK    4  A    between atoms: C4_6  and  N2_7 
REMARK    5  A    between atoms: C4_6  and  C11_17 
REMARK    6  A    between atoms: N2_7  and  C5_9 
REMARK    7  A    between atoms: C5_9  and  C6_10 
REMARK    8  A    between atoms: C5_9  and  C7_13 
REMARK    9  A    between atoms: C11_17  and  C12_18 
REMARK   10  A    between atoms: C11_17  and  C19_30 
REMARK   11  A    between atoms: C12_18  and  C13_19 
REMARK   12  A    between atoms: C13_19  and  C14_20 
REMARK   13  A    between atoms: C14_20  and  N4_21 
REMARK       I    between atoms: N4_21  and  C15_23 
REMARK       I    between atoms: C15_23  and  N5_25 
REMARK   14  A    between atoms: N5_25  and  C16_27 
REMARK   15  A    between atoms: C19_30  and  C20_31 
REMARK   16  A    between atoms: C21_34  and  O4_35 
REMARK   17  A    between atoms: C25_43  and  C26_44 
ROOT
HETATM    1  C4  UNL     1       9.753  25.005   6.421  1.00  0.00     0.182 C 
ENDROOT
BRANCH   1   2
HETATM    2  C3  UNL     1       9.816  25.980   7.552  1.00  0.00     0.243 C 
HETATM    3  N1  UNL     1       8.545  26.634   7.847  1.00  0.00    -0.346 N 
HETATM    4  O1  UNL     1      10.790  26.193   8.203  1.00  0.00    -0.271 OA
BRANCH   3   5
HETATM    5  C2  UNL     1       8.353  26.776   9.305  1.00  0.00     0.122 C 
HETATM    6  C1  UNL     1       9.036  28.004   9.774  1.00  0.00     0.026 C 
ENDBRANCH   3   5
BRANCH   3   7
HETATM    7  C22 UNL     1       7.575  27.102   6.900  1.00  0.00     0.087 C 
HETATM    8  C23 UNL     1       7.260  28.587   7.018  1.00  0.00     0.026 C 
HETATM    9  C24 UNL     1       6.118  28.926   7.896  1.00  0.00     0.007 C 
HETATM   10  C25 UNL     1       4.890  28.070   7.735  1.00  0.00    -0.007 C 
HETATM   11  C30 UNL     1       5.135  27.161   6.542  1.00  0.00     0.007 C 
HETATM   12  C31 UNL     1       6.312  26.276   6.902  1.00  0.00     0.026 C 
BRANCH  10  13
HETATM   13  C26 UNL     1       3.622  28.869   7.623  1.00  0.00    -0.048 C 
HETATM   14  C27 UNL     1       3.083  28.656   6.221  1.00  0.00     0.015 C 
HETATM   15  C28 UNL     1       2.638  28.307   8.603  1.00  0.00     0.015 C 
HETATM   16  C29 UNL     1       3.828  30.360   7.835  1.00  0.00     0.015 C 
ENDBRANCH  10  13
ENDBRANCH   3   7
ENDBRANCH   1   2
BRANCH   1  17
HETATM   17  N2  UNL     1       9.862  25.611   5.180  1.00  0.00    -0.375 N 
ATOM     18  H2  UNL     1      10.564  26.339   5.051  1.00  0.00     0.160 HD
BRANCH  17  19
HETATM   19  C5  UNL     1       9.042  25.263   4.089  1.00  0.00     0.079 C 
BRANCH  19  20
HETATM   20  C6  UNL     1       7.959  26.178   3.657  1.00  0.00     0.277 C 
HETATM   21  N3  UNL     1       6.636  25.635   3.407  1.00  0.00    -0.056 NA
HETATM   22  O2  UNL     1       8.128  27.375   3.417  1.00  0.00    -0.270 OA
ENDBRANCH  19  20
BRANCH  19  23
HETATM   23  C7  UNL     1       9.604  24.531   2.928  1.00  0.00    -0.004 C 
HETATM   24  C8  UNL     1       9.232  25.036   1.576  1.00  0.00     0.021 C 
HETATM   25  C9  UNL     1      11.103  24.423   3.055  1.00  0.00     0.021 C 
HETATM   26  C10 UNL     1       9.051  23.079   3.123  1.00  0.00     0.021 C 
ENDBRANCH  19  23
ENDBRANCH  17  19
ENDBRANCH   1  17
BRANCH   1  27
HETATM   27  C11 UNL     1      11.056  24.157   6.769  1.00  0.00     0.044 C 
BRANCH  27  28
HETATM   28  C12 UNL     1      10.882  22.784   6.197  1.00  0.00     0.013 C 
BRANCH  28  29
HETATM   29  C13 UNL     1      11.912  21.779   6.599  1.00  0.00     0.020 C 
BRANCH  29  30
HETATM   30  C14 UNL     1      12.593  21.107   5.429  1.00  0.00     0.124 C 
BRANCH  30  31
HETATM   31  N4  UNL     1      13.852  20.676   5.914  1.00  0.00    -0.343 N 
HETATM   32  C15 UNL     1      14.852  20.020   5.126  1.00  0.00     0.316 C 
HETATM   33  O3  UNL     1      14.804  20.066   3.921  1.00  0.00    -0.247 OA
HETATM   34  N5  UNL     1      15.882  19.422   5.867  1.00  0.00    -0.339 N 
ATOM     35  H5  UNL     1      15.665  18.806   6.651  1.00  0.00     0.164 HD
ATOM     36  H4  UNL     1      14.063  20.846   6.897  1.00  0.00     0.164 HD
BRANCH  34  37
HETATM   37  C16 UNL     1      17.264  19.690   5.504  1.00  0.00     0.078 C 
HETATM   38  C17 UNL     1      17.902  19.657   7.003  1.00  0.00     0.032 C 
HETATM   39  C18 UNL     1      17.953  18.658   4.750  1.00  0.00     0.032 C 
ENDBRANCH  34  37
ENDBRANCH  30  31
ENDBRANCH  29  30
ENDBRANCH  28  29
ENDBRANCH  27  28
BRANCH  27  40
HETATM   40  C19 UNL     1      12.266  24.832   6.356  1.00  0.00     0.031 C 
BRANCH  40  41
HETATM   41  C20 UNL     1      13.565  24.304   6.092  1.00  0.00     0.126 A 
HETATM   42  N6  UNL     1      14.374  23.854   7.200  1.00  0.00    -0.300 N 
HETATM   43  C21 UNL     1      15.480  23.402   6.612  1.00  0.00     0.286 A 
ATOM     44  H6  UNL     1      14.153  23.876   8.195  1.00  0.00     0.171 HD
HETATM   45  O5  UNL     1      15.439  23.522   5.328  1.00  0.00    -0.192 OA
HETATM   46  N7  UNL     1      14.289  24.041   5.112  1.00  0.00    -0.241 N 
ATOM     47  H7  UNL     1      13.972  24.233   4.161  1.00  0.00     0.196 HD
BRANCH  43  48
HETATM   48  O4  UNL     1      16.485  22.849   7.249  1.00  0.00    -0.325 OA
ATOM     49  H4  UNL     1      17.371  22.794   6.909  1.00  0.00     0.221 HD
ENDBRANCH  43  48
ENDBRANCH  40  41
ENDBRANCH  27  40
ENDBRANCH   1  27
TORSDOF 17
ENDMDL
MODEL 4
REMARK VINA RESULT: -7.460836179      2.718     10.258
REMARK  17 active torsions:
REMARK  status: ('A' for Active; 'I' for Inactive)
REMARK    1  A    between atoms: C2_2  and  N1_3 
REMARK       I    between atoms: N1_3  and  C3_4 
REMARK    2  A    between atoms: N1_3  and  C22_40 
REMARK    3  A    between atoms: C3_4  and  C4_6 
REMARK    4  A    between atoms: C4_6  and  N2_7 
REMARK    5  A    between atoms: C4_6  and  C11_17 
REMARK    6  A    between atoms: N2_7  and  C5_9 
REMARK    7  A    between atoms: C5_9  and  C6_10 
REMARK    8  A    between atoms: C5_9  and  C7_13 
REMARK    9  A    between atoms: C11_17  and  C12_18 
REMARK   10  A    between atoms: C11_17  and  C19_30 
REMARK   11  A    between atoms: C12_18  and  C13_19 
REMARK   12  A    between atoms: C13_19  and  C14_20 
REMARK   13  A    between atoms: C14_20  and  N4_21 
REMARK       I    between atoms: N4_21  and  C15_23 
REMARK       I    between atoms: C15_23  and  N5_25 
REMARK   14  A    between atoms: N5_25  and  C16_27 
REMARK   15  A    between atoms: C19_30  and  C20_31 
REMARK   16  A    between atoms: C21_34  and  O4_35 
REMARK   17  A    between atoms: C25_43  and  C26_44 
ROOT
HETATM    1  C4  UNL     1      10.496  24.474   5.898  1.00  0.00     0.182 C 
ENDROOT
BRANCH   1   2
HETATM    2  C3  UNL     1      10.769  25.513   6.937  1.00  0.00     0.243 C 
HETATM    3  N1  UNL     1       9.576  25.997   7.624  1.00  0.00    -0.346 N 
HETATM    4  O1  UNL     1      11.856  25.898   7.233  1.00  0.00    -0.271 OA
BRANCH   3   5
HETATM    5  C2  UNL     1       9.842  26.195   9.063  1.00  0.00     0.122 C 
HETATM    6  C1  UNL     1      10.200  27.612   9.306  1.00  0.00     0.026 C 
ENDBRANCH   3   5
BRANCH   3   7
HETATM    7  C22 UNL     1       8.294  26.267   7.041  1.00  0.00     0.087 C 
HETATM    8  C23 UNL     1       8.132  27.692   6.531  1.00  0.00     0.026 C 
HETATM    9  C24 UNL     1       7.554  28.650   7.499  1.00  0.00     0.007 C 
HETATM   10  C25 UNL     1       6.362  28.160   8.276  1.00  0.00    -0.007 C 
HETATM   11  C30 UNL     1       5.978  26.809   7.696  1.00  0.00     0.007 C 
HETATM   12  C31 UNL     1       7.149  25.878   7.944  1.00  0.00     0.026 C 
BRANCH  10  13
HETATM   13  C26 UNL     1       5.225  29.142   8.298  1.00  0.00    -0.048 C 
HETATM   14  C27 UNL     1       3.939  28.336   8.276  1.00  0.00     0.015 C 
HETATM   15  C28 UNL     1       5.294  29.894   9.592  1.00  0.00     0.015 C 
HETATM   16  C29 UNL     1       5.219  30.085   7.106  1.00  0.00     0.015 C 
ENDBRANCH  10  13
ENDBRANCH   3   7
ENDBRANCH   1   2
BRANCH   1  17
HETATM   17  N2  UNL     1      10.286  25.012   4.639  1.00  0.00    -0.375 N 
ATOM     18  H2  UNL     1      10.961  25.684   4.276  1.00  0.00     0.160 HD
BRANCH  17  19
HETATM   19  C5  UNL     1       9.177  24.670   3.840  1.00  0.00     0.079 C 
BRANCH  19  20
HETATM   20  C6  UNL     1       8.176  25.704   3.485  1.00  0.00     0.277 C 
HETATM   21  N3  UNL     1       8.613  26.894   2.778  1.00  0.00    -0.056 NA
HETATM   22  O2  UNL     1       6.992  25.656   3.824  1.00  0.00    -0.270 OA
ENDBRANCH  19  20
BRANCH  19  23
HETATM   23  C7  UNL     1       9.313  23.675   2.750  1.00  0.00    -0.004 C 
HETATM   24  C8  UNL     1       9.628  22.277   3.157  1.00  0.00     0.021 C 
HETATM   25  C9  UNL     1       8.093  23.702   1.863  1.00  0.00     0.021 C 
HETATM   26  C10 UNL     1      10.484  24.253   1.886  1.00  0.00     0.021 C 
ENDBRANCH  19  23
ENDBRANCH  17  19
ENDBRANCH   1  17
BRANCH   1  27
HETATM   27  C11 UNL     1      11.886  23.697   5.972  1.00  0.00     0.044 C 
BRANCH  27  28
HETATM   28  C12 UNL     1      11.634  22.354   6.585  1.00  0.00     0.013 C 
BRANCH  28  29
HETATM   29  C13 UNL     1      12.844  21.628   7.075  1.00  0.00     0.020 C 
BRANCH  29  30
HETATM   30  C14 UNL     1      13.914  22.540   7.631  1.00  0.00     0.124 C 
BRANCH  30  31
HETATM   31  N4  UNL     1      14.800  21.699   8.348  1.00  0.00    -0.343 N 
HETATM   32  C15 UNL     1      15.653  20.713   7.757  1.00  0.00     0.316 C 
HETATM   33  O3  UNL     1      15.894  20.749   6.574  1.00  0.00    -0.247 OA
HETATM   34  N5  UNL     1      16.216  19.803   8.664  1.00  0.00    -0.339 N 
ATOM     35  H5  UNL     1      15.627  19.322   9.344  1.00  0.00     0.164 HD
ATOM     36  H4  UNL     1      14.832  21.803   9.363  1.00  0.00     0.164 HD
BRANCH  34  37
HETATM   37  C16 UNL     1      17.647  19.555   8.624  1.00  0.00     0.078 C 
HETATM   38  C17 UNL     1      18.147  21.046   9.051  1.00  0.00     0.032 C 
HETATM   39  C18 UNL     1      18.181  18.649   9.625  1.00  0.00     0.032 C 
ENDBRANCH  34  37
ENDBRANCH  30  31
ENDBRANCH  29  30
ENDBRANCH  28  29
ENDBRANCH  27  28
BRANCH  27  40
HETATM   40  C19 UNL     1      12.551  23.657   4.688  1.00  0.00     0.031 C 
BRANCH  40  41
HETATM   41  C20 UNL     1      13.600  22.807   4.226  1.00  0.00     0.126 A 
HETATM   42  N6  UNL     1      13.259  21.632   3.459  1.00  0.00    -0.300 N 
HETATM   43  C21 UNL     1      14.445  21.100   3.168  1.00  0.00     0.286 A 
ATOM     44  H6  UNL     1      12.333  21.291   3.202  1.00  0.00     0.171 HD
HETATM   45  O5  UNL     1      15.425  21.785   3.650  1.00  0.00    -0.192 OA
HETATM   46  N7  UNL     1      14.845  22.765   4.236  1.00  0.00    -0.241 N 
ATOM     47  H7  UNL     1      15.390  23.493   4.699  1.00  0.00     0.196 HD
BRANCH  43  48
HETATM   48  O4  UNL     1      14.614  20.026   2.432  1.00  0.00    -0.325 OA
ATOM     49  H4  UNL     1      14.682  20.031   1.484  1.00  0.00     0.221 HD
ENDBRANCH  43  48
ENDBRANCH  40  41
ENDBRANCH  27  40
ENDBRANCH   1  27
TORSDOF 17
ENDMDL
MODEL 5
REMARK VINA RESULT: -7.378201920      2.918     10.452
REMARK  17 active torsions:
REMARK  status: ('A' for Active; 'I' for Inactive)
REMARK    1  A    between atoms: C2_2  and  N1_3 
REMARK       I    between atoms: N1_3  and  C3_4 
REMARK    2  A    between atoms: N1_3  and  C22_40 
REMARK    3  A    between atoms: C3_4  and  C4_6 
REMARK    4  A    between atoms: C4_6  and  N2_7 
REMARK    5  A    between atoms: C4_6  and  C11_17 
REMARK    6  A    between atoms: N2_7  and  C5_9 
REMARK    7  A    between atoms: C5_9  and  C6_10 
REMARK    8  A    between atoms: C5_9  and  C7_13 
REMARK    9  A    between atoms: C11_17  and  C12_18 
REMARK   10  A    between atoms: C11_17  and  C19_30 
REMARK   11  A    between atoms: C12_18  and  C13_19 
REMARK   12  A    between atoms: C13_19  and  C14_20 
REMARK   13  A    between atoms: C14_20  and  N4_21 
REMARK       I    between atoms: N4_21  and  C15_23 
REMARK       I    between atoms: C15_23  and  N5_25 
REMARK   14  A    between atoms: N5_25  and  C16_27 
REMARK   15  A    between atoms: C19_30  and  C20_31 
REMARK   16  A    between atoms: C21_34  and  O4_35 
REMARK   17  A    between atoms: C25_43  and  C26_44 
ROOT
HETATM    1  C4  UNL     1      10.282  25.208   6.376  1.00  0.00     0.182 C 
ENDROOT
BRANCH   1   2
HETATM    2  C3  UNL     1      10.143  26.196   7.490  1.00  0.00     0.243 C 
HETATM    3  N1  UNL     1       8.762  26.490   7.857  1.00  0.00    -0.346 N 
HETATM    4  O1  UNL     1      11.059  26.682   8.076  1.00  0.00    -0.271 OA
BRANCH   3   5
HETATM    5  C2  UNL     1       8.623  26.616   9.322  1.00  0.00     0.122 C 
HETATM    6  C1  UNL     1       8.892  28.016   9.724  1.00  0.00     0.026 C 
ENDBRANCH   3   5
BRANCH   3   7
HETATM    7  C22 UNL     1       7.648  26.652   6.969  1.00  0.00     0.087 C 
HETATM    8  C23 UNL     1       7.409  28.089   6.528  1.00  0.00     0.026 C 
HETATM    9  C24 UNL     1       6.462  28.860   7.366  1.00  0.00     0.007 C 
HETATM   10  C25 UNL     1       5.198  28.142   7.758  1.00  0.00    -0.007 C 
HETATM   11  C30 UNL     1       5.187  26.820   7.008  1.00  0.00     0.007 C 
HETATM   12  C31 UNL     1       6.381  26.027   7.501  1.00  0.00     0.026 C 
BRANCH  10  13
HETATM   13  C26 UNL     1       3.959  28.962   7.537  1.00  0.00    -0.048 C 
HETATM   14  C27 UNL     1       3.466  28.655   6.135  1.00  0.00     0.015 C 
HETATM   15  C28 UNL     1       2.924  28.502   8.518  1.00  0.00     0.015 C 
HETATM   16  C29 UNL     1       4.199  30.459   7.642  1.00  0.00     0.015 C 
ENDBRANCH  10  13
ENDBRANCH   3   7
ENDBRANCH   1   2
BRANCH   1  17
HETATM   17  N2  UNL     1      10.046  25.764   5.130  1.00  0.00    -0.375 N 
ATOM     18  H2  UNL     1      10.567  26.599   4.861  1.00  0.00     0.160 HD
BRANCH  17  19
HETATM   19  C5  UNL     1       9.117  25.226   4.219  1.00  0.00     0.079 C 
BRANCH  19  20
HETATM   20  C6  UNL     1       7.999  26.062   3.723  1.00  0.00     0.277 C 
HETATM   21  N3  UNL     1       8.295  27.350   3.122  1.00  0.00    -0.056 NA
HETATM   22  O2  UNL     1       6.810  25.767   3.858  1.00  0.00    -0.270 OA
ENDBRANCH  19  20
BRANCH  19  23
HETATM   23  C7  UNL     1       9.554  24.264   3.179  1.00  0.00    -0.004 C 
HETATM   24  C8  UNL     1      10.708  24.675   2.330  1.00  0.00     0.021 C 
HETATM   25  C9  UNL     1       9.809  22.910   3.793  1.00  0.00     0.021 C 
HETATM   26  C10 UNL     1       8.275  24.097   2.290  1.00  0.00     0.021 C 
ENDBRANCH  19  23
ENDBRANCH  17  19
ENDBRANCH   1  17
BRANCH   1  27
HETATM   27  C11 UNL     1      11.822  24.849   6.571  1.00  0.00     0.044 C 
BRANCH  27  28
HETATM   28  C12 UNL     1      11.905  23.539   7.291  1.00  0.00     0.013 C 
BRANCH  28  29
HETATM   29  C13 UNL     1      11.353  22.361   6.558  1.00  0.00     0.020 C 
BRANCH  29  30
HETATM   30  C14 UNL     1      12.341  21.229   6.395  1.00  0.00     0.124 C 
BRANCH  30  31
HETATM   31  N4  UNL     1      13.440  21.556   7.227  1.00  0.00    -0.343 N 
HETATM   32  C15 UNL     1      14.738  20.957   7.143  1.00  0.00     0.316 C 
HETATM   33  O3  UNL     1      15.064  20.349   6.152  1.00  0.00    -0.247 OA
HETATM   34  N5  UNL     1      15.573  21.211   8.241  1.00  0.00    -0.339 N 
ATOM     35  H5  UNL     1      15.235  21.063   9.192  1.00  0.00     0.164 HD
ATOM     36  H4  UNL     1      13.297  22.272   7.939  1.00  0.00     0.164 HD
BRANCH  34  37
HETATM   37  C16 UNL     1      16.926  21.687   8.007  1.00  0.00     0.078 C 
HETATM   38  C17 UNL     1      16.690  23.248   8.411  1.00  0.00     0.032 C 
HETATM   39  C18 UNL     1      17.956  21.192   8.903  1.00  0.00     0.032 C 
ENDBRANCH  34  37
ENDBRANCH  30  31
ENDBRANCH  29  30
ENDBRANCH  28  29
ENDBRANCH  27  28
BRANCH  27  40
HETATM   40  C19 UNL     1      12.549  24.897   5.322  1.00  0.00     0.031 C 
BRANCH  40  41
HETATM   41  C20 UNL     1      13.599  24.059   4.841  1.00  0.00     0.126 A 
HETATM   42  N6  UNL     1      13.284  23.020   3.889  1.00  0.00    -0.300 N 
HETATM   43  C21 UNL     1      14.467  22.466   3.634  1.00  0.00     0.286 A 
ATOM     44  H6  UNL     1      12.373  22.770   3.505  1.00  0.00     0.171 HD
HETATM   45  O5  UNL     1      15.426  23.023   4.294  1.00  0.00    -0.192 OA
HETATM   46  N7  UNL     1      14.835  23.945   4.957  1.00  0.00    -0.241 N 
ATOM     47  H7  UNL     1      15.363  24.572   5.565  1.00  0.00     0.196 HD
BRANCH  43  48
HETATM   48  O4  UNL     1      14.660  21.494   2.773  1.00  0.00    -0.325 OA
ATOM     49  H4  UNL     1      15.125  20.689   2.967  1.00  0.00     0.221 HD
ENDBRANCH  43  48
ENDBRANCH  40  41
ENDBRANCH  27  40
ENDBRANCH   1  27
TORSDOF 17
ENDMDL
