MODEL 1
REMARK VINA RESULT: -9.067017765      0.000      0.000
REMARK  14 active torsions:
REMARK  status: ('A' for Active; 'I' for Inactive)
REMARK    1  A    between atoms: C2_2  and  N1_3 
REMARK    2  A    between atoms: N1_3  and  C3_4 
REMARK    3  A    between atoms: N1_3  and  C5_6 
REMARK    4  A    between atoms: C5_6  and  C6_7 
REMARK    5  A    between atoms: C6_7  and  C7_8 
REMARK    6  A    between atoms: C7_8  and  C8_9 
REMARK    7  A    between atoms: C8_9  and  C9_10 
REMARK    8  A    between atoms: C9_10  and  N2_11 
REMARK    9  A    between atoms: C12_15  and  N3_16 
REMARK       I    between atoms: N3_16  and  C13_18 
REMARK   10  A    between atoms: C13_18  and  C14_20 
REMARK   11  A    between atoms: C14_20  and  C15_21 
REMARK       I    between atoms: C15_21  and  N4_23 
REMARK   12  A    between atoms: N4_23  and  C16_25 
REMARK       I    between atoms: N7_31  and  C19_33 
REMARK   13  A    between atoms: C19_33  and  C20_35 
REMARK   14  A    between atoms: C20_35  and  C21_36 
ROOT
HETATM    1  C15 UNL     1      12.280  22.090   4.916  1.00  0.00     0.231 C 
HETATM    2  O3  UNL     1      11.657  21.346   5.702  1.00  0.00    -0.273 OA
HETATM    3  N4  UNL     1      11.909  23.289   4.327  1.00  0.00    -0.322 N 
ATOM      4  H4  UNL     1      12.636  23.657   3.715  1.00  0.00     0.169 HD
ENDROOT
BRANCH   1   5
HETATM    5  C14 UNL     1      13.685  21.543   4.580  1.00  0.00     0.205 C 
BRANCH   5   6
HETATM    6  C13 UNL     1      14.665  22.061   5.531  1.00  0.00     0.227 C 
HETATM    7  N3  UNL     1      15.179  21.279   6.617  1.00  0.00    -0.349 N 
ATOM      8  H3  UNL     1      14.855  20.319   6.731  1.00  0.00     0.163 HD
HETATM    9  O2  UNL     1      15.122  23.226   5.448  1.00  0.00    -0.273 OA
BRANCH   7  10
HETATM   10  C12 UNL     1      16.133  21.805   7.546  1.00  0.00     0.155 C 
HETATM   11  C11 UNL     1      15.527  22.254   8.848  1.00  0.00     0.135 C 
HETATM   12  C10 UNL     1      15.448  20.959   9.626  1.00  0.00     0.227 C 
HETATM   13  N2  UNL     1      16.581  20.171   9.232  1.00  0.00    -0.310 N 
HETATM   14  O1  UNL     1      14.565  20.663  10.432  1.00  0.00    -0.273 OA
HETATM   15  C30 UNL     1      17.075  20.725   8.021  1.00  0.00     0.105 C 
HETATM   16  S1  UNL     1      18.424  20.294   7.257  1.00  0.00    -0.063 SA
BRANCH  13  17
HETATM   17  C9  UNL     1      17.149  19.024   9.877  1.00  0.00     0.133 C 
BRANCH  17  18
HETATM   18  C8  UNL     1      17.933  19.530  11.084  1.00  0.00     0.020 C 
BRANCH  18  19
HETATM   19  C7  UNL     1      19.095  18.629  11.398  1.00  0.00     0.003 C 
BRANCH  19  20
HETATM   20  C6  UNL     1      18.681  17.549  12.351  1.00  0.00     0.030 C 
BRANCH  20  21
HETATM   21  C5  UNL     1      19.064  16.204  11.826  1.00  0.00     0.272 C 
BRANCH  21  22
HETATM   22  N1  UNL     1      17.930  15.365  11.495  1.00  0.00     0.087 N 
BRANCH  22  23
HETATM   23  C2  UNL     1      17.662  15.355  10.080  1.00  0.00     0.268 C 
HETATM   24  C1  UNL     1      18.928  15.468   9.289  1.00  0.00     0.037 C 
ENDBRANCH  22  23
BRANCH  22  25
HETATM   25  C3  UNL     1      16.798  15.918  12.230  1.00  0.00     0.268 C 
HETATM   26  C4  UNL     1      15.548  15.989  11.409  1.00  0.00     0.037 C 
ENDBRANCH  22  25
ENDBRANCH  21  22
ENDBRANCH  20  21
ENDBRANCH  19  20
ENDBRANCH  18  19
ENDBRANCH  17  18
ENDBRANCH  13  17
ENDBRANCH   7  10
ENDBRANCH   5   6
ENDBRANCH   1   5
BRANCH   3  27
HETATM   27  C16 UNL     1      10.790  24.115   4.364  1.00  0.00     0.101 A 
HETATM   28  C17 UNL     1      10.320  24.550   5.646  1.00  0.00     0.146 A 
HETATM   29  N5  UNL     1      11.063  24.148   6.782  1.00  0.00    -0.080 NA
HETATM   30  N6  UNL     1       9.234  25.324   5.766  1.00  0.00    -0.329 N 
HETATM   31  C18 UNL     1       8.509  25.747   4.731  1.00  0.00     0.117 A 
ATOM     32  H6  UNL     1       8.945  25.606   6.703  1.00  0.00     0.168 HD
HETATM   33  N7  UNL     1       7.494  26.478   4.752  1.00  0.00    -0.313 N 
HETATM   34  C27 UNL     1       8.940  25.339   3.456  1.00  0.00     0.009 A 
HETATM   35  C19 UNL     1       6.840  27.049   5.818  1.00  0.00     0.223 C 
ATOM     36  H7  UNL     1       7.090  26.682   3.838  1.00  0.00     0.170 HD
HETATM   37  O4  UNL     1       5.627  26.671   6.040  1.00  0.00    -0.273 OA
HETATM   38  C28 UNL     1       8.175  25.766   2.288  1.00  0.00     0.054 C 
HETATM   39  C29 UNL     1      10.065  24.537   3.290  1.00  0.00     0.086 A 
HETATM   40  N8  UNL     1      10.364  24.236   1.940  1.00  0.00    -0.099 NA
BRANCH  35  41
HETATM   41  C20 UNL     1       7.397  28.065   6.736  1.00  0.00     0.108 C 
BRANCH  41  42
HETATM   42  C21 UNL     1       7.022  27.635   8.165  1.00  0.00    -0.006 C 
HETATM   43  C22 UNL     1       7.236  28.822   9.059  1.00  0.00     0.005 C 
HETATM   44  C23 UNL     1       8.343  28.592  10.023  1.00  0.00     0.000 C 
HETATM   45  C24 UNL     1       9.529  27.983   9.298  1.00  0.00     0.000 C 
HETATM   46  C25 UNL     1       9.227  26.622   8.769  1.00  0.00     0.000 C 
HETATM   47  C26 UNL     1       7.739  26.392   8.594  1.00  0.00     0.005 C 
ENDBRANCH  41  42
ENDBRANCH  35  41
ENDBRANCH   3  27
TORSDOF 14
ENDMDL
MODEL 2
REMARK VINA RESULT: -9.035138022      0.829      1.353
REMARK  14 active torsions:
REMARK  status: ('A' for Active; 'I' for Inactive)
REMARK    1  A    between atoms: C2_2  and  N1_3 
REMARK    2  A    between atoms: N1_3  and  C3_4 
REMARK    3  A    between atoms: N1_3  and  C5_6 
REMARK    4  A    between atoms: C5_6  and  C6_7 
REMARK    5  A    between atoms: C6_7  and  C7_8 
REMARK    6  A    between atoms: C7_8  and  C8_9 
REMARK    7  A    between atoms: C8_9  and  C9_10 
REMARK    8  A    between atoms: C9_10  and  N2_11 
REMARK    9  A    between atoms: C12_15  and  N3_16 
REMARK       I    between atoms: N3_16  and  C13_18 
REMARK   10  A    between atoms: C13_18  and  C14_20 
REMARK   11  A    between atoms: C14_20  and  C15_21 
REMARK       I    between atoms: C15_21  and  N4_23 
REMARK   12  A    between atoms: N4_23  and  C16_25 
REMARK       I    between atoms: N7_31  and  C19_33 
REMARK   13  A    between atoms: C19_33  and  C20_35 
REMARK   14  A    between atoms: C20_35  and  C21_36 
ROOT
HETATM    1  C15 UNL     1      12.997  22.817   4.514  1.00  0.00     0.231 C 
HETATM    2  O3  UNL     1      13.753  23.772   4.787  1.00  0.00    -0.273 OA
HETATM    3  N4  UNL     1      11.626  22.786   4.306  1.00  0.00    -0.322 N 
ATOM      4  H4  UNL     1      11.289  21.843   4.111  1.00  0.00     0.169 HD
ENDROOT
BRANCH   1   5
HETATM    5  C14 UNL     1      13.759  21.478   4.400  1.00  0.00     0.205 C 
BRANCH   5   6
HETATM    6  C13 UNL     1      15.005  21.545   5.157  1.00  0.00     0.227 C 
HETATM    7  N3  UNL     1      15.053  21.934   6.536  1.00  0.00    -0.349 N 
ATOM      8  H3  UNL     1      14.184  22.169   7.014  1.00  0.00     0.163 HD
HETATM    9  O2  UNL     1      16.113  21.256   4.644  1.00  0.00    -0.273 OA
BRANCH   7  10
HETATM   10  C12 UNL     1      16.285  22.003   7.263  1.00  0.00     0.155 C 
HETATM   11  C11 UNL     1      16.196  22.809   8.531  1.00  0.00     0.135 C 
HETATM   12  C10 UNL     1      15.646  21.796   9.512  1.00  0.00     0.227 C 
HETATM   13  N2  UNL     1      16.185  20.522   9.136  1.00  0.00    -0.310 N 
HETATM   14  O1  UNL     1      14.881  22.048  10.444  1.00  0.00    -0.273 OA
HETATM   15  C30 UNL     1      16.668  20.648   7.805  1.00  0.00     0.105 C 
HETATM   16  S1  UNL     1      17.501  19.541   6.985  1.00  0.00    -0.063 SA
BRANCH  13  17
HETATM   17  C9  UNL     1      16.243  19.307   9.895  1.00  0.00     0.133 C 
BRANCH  17  18
HETATM   18  C8  UNL     1      17.335  19.486  10.945  1.00  0.00     0.020 C 
BRANCH  18  19
HETATM   19  C7  UNL     1      18.617  18.825  10.518  1.00  0.00     0.003 C 
BRANCH  19  20
HETATM   20  C6  UNL     1      19.140  17.939  11.608  1.00  0.00     0.030 C 
BRANCH  20  21
HETATM   21  C5  UNL     1      19.076  16.504  11.200  1.00  0.00     0.272 C 
BRANCH  21  22
HETATM   22  N1  UNL     1      17.779  16.101  10.694  1.00  0.00     0.087 N 
BRANCH  22  23
HETATM   23  C2  UNL     1      16.905  15.652  11.747  1.00  0.00     0.268 C 
HETATM   24  C1  UNL     1      15.478  15.980  11.442  1.00  0.00     0.037 C 
ENDBRANCH  22  23
BRANCH  22  25
HETATM   25  C3  UNL     1      18.040  15.024   9.746  1.00  0.00     0.268 C 
HETATM   26  C4  UNL     1      18.600  15.515   8.446  1.00  0.00     0.037 C 
ENDBRANCH  22  25
ENDBRANCH  21  22
ENDBRANCH  20  21
ENDBRANCH  19  20
ENDBRANCH  18  19
ENDBRANCH  17  18
ENDBRANCH  13  17
ENDBRANCH   7  10
ENDBRANCH   5   6
ENDBRANCH   1   5
BRANCH   3  27
HETATM   27  C16 UNL     1      10.597  23.721   4.296  1.00  0.00     0.101 A 
HETATM   28  C17 UNL     1      10.098  24.181   5.559  1.00  0.00     0.146 A 
HETATM   29  N5  UNL     1      10.728  23.687   6.726  1.00  0.00    -0.080 NA
HETATM   30  N6  UNL     1       9.091  25.061   5.633  1.00  0.00    -0.329 N 
HETATM   31  C18 UNL     1       8.476  25.573   4.568  1.00  0.00     0.117 A 
ATOM     32  H6  UNL     1       8.777  25.356   6.558  1.00  0.00     0.168 HD
HETATM   33  N7  UNL     1       7.541  26.405   4.547  1.00  0.00    -0.313 N 
HETATM   34  C27 UNL     1       8.938  25.144   3.311  1.00  0.00     0.009 A 
HETATM   35  C19 UNL     1       6.886  27.023   5.586  1.00  0.00     0.223 C 
ATOM     36  H7  UNL     1       7.215  26.664   3.616  1.00  0.00     0.170 HD
HETATM   37  O4  UNL     1       5.630  26.768   5.730  1.00  0.00    -0.273 OA
HETATM   38  C28 UNL     1       8.291  25.666   2.111  1.00  0.00     0.054 C 
HETATM   39  C29 UNL     1       9.983  24.233   3.193  1.00  0.00     0.086 A 
HETATM   40  N8  UNL     1      10.329  23.924   1.856  1.00  0.00    -0.099 NA
BRANCH  35  41
HETATM   41  C20 UNL     1       7.489  27.961   6.557  1.00  0.00     0.108 C 
BRANCH  41  42
HETATM   42  C21 UNL     1       6.968  27.565   7.949  1.00  0.00    -0.006 C 
HETATM   43  C22 UNL     1       7.084  28.774   8.830  1.00  0.00     0.005 C 
HETATM   44  C23 UNL     1       8.085  28.575   9.910  1.00  0.00     0.000 C 
HETATM   45  C24 UNL     1       9.342  27.955   9.328  1.00  0.00     0.000 C 
HETATM   46  C25 UNL     1       9.101  26.580   8.805  1.00  0.00     0.000 C 
HETATM   47  C26 UNL     1       7.640  26.337   8.482  1.00  0.00     0.005 C 
ENDBRANCH  41  42
ENDBRANCH  35  41
ENDBRANCH   3  27
TORSDOF 14
ENDMDL
MODEL 3
REMARK VINA RESULT: -8.934710172      1.242      1.841
REMARK  14 active torsions:
REMARK  status: ('A' for Active; 'I' for Inactive)
REMARK    1  A    between atoms: C2_2  and  N1_3 
REMARK    2  A    between atoms: N1_3  and  C3_4 
REMARK    3  A    between atoms: N1_3  and  C5_6 
REMARK    4  A    between atoms: C5_6  and  C6_7 
REMARK    5  A    between atoms: C6_7  and  C7_8 
REMARK    6  A    between atoms: C7_8  and  C8_9 
REMARK    7  A    between atoms: C8_9  and  C9_10 
REMARK    8  A    between atoms: C9_10  and  N2_11 
REMARK    9  A    between atoms: C12_15  and  N3_16 
REMARK       I    between atoms: N3_16  and  C13_18 
REMARK   10  A    between atoms: C13_18  and  C14_20 
REMARK   11  A    between atoms: C14_20  and  C15_21 
REMARK       I    between atoms: C15_21  and  N4_23 
REMARK   12  A    between atoms: N4_23  and  C16_25 
REMARK       I    between atoms: N7_31  and  C19_33 
REMARK   13  A    between atoms: C19_33  and  C20_35 
REMARK   14  A    between atoms: C20_35  and  C21_36 
ROOT
HETATM    1  C15 UNL     1      13.009  22.754   4.607  1.00  0.00     0.231 C 
HETATM    2  O3  UNL     1      13.767  23.715   4.853  1.00  0.00    -0.273 OA
HETATM    3  N4  UNL     1      11.639  22.719   4.395  1.00  0.00    -0.322 N 
ATOM      4  H4  UNL     1      11.300  21.772   4.229  1.00  0.00     0.169 HD
ENDROOT
BRANCH   1   5
HETATM    5  C14 UNL     1      13.769  21.411   4.536  1.00  0.00     0.205 C 
BRANCH   5   6
HETATM    6  C13 UNL     1      15.014  21.499   5.294  1.00  0.00     0.227 C 
HETATM    7  N3  UNL     1      15.046  21.753   6.704  1.00  0.00    -0.349 N 
ATOM      8  H3  UNL     1      14.166  21.870   7.205  1.00  0.00     0.163 HD
HETATM    9  O2  UNL     1      16.135  21.350   4.752  1.00  0.00    -0.273 OA
BRANCH   7  10
HETATM   10  C12 UNL     1      16.276  21.845   7.431  1.00  0.00     0.155 C 
HETATM   11  C11 UNL     1      16.150  22.565   8.747  1.00  0.00     0.135 C 
HETATM   12  C10 UNL     1      15.663  21.465   9.665  1.00  0.00     0.227 C 
HETATM   13  N2  UNL     1      16.270  20.248   9.209  1.00  0.00    -0.310 N 
HETATM   14  O1  UNL     1      14.891  21.615  10.612  1.00  0.00    -0.273 OA
HETATM   15  C30 UNL     1      16.738  20.483   7.887  1.00  0.00     0.105 C 
HETATM   16  S1  UNL     1      17.625  19.477   6.998  1.00  0.00    -0.063 SA
BRANCH  13  17
HETATM   17  C9  UNL     1      16.400  18.994   9.891  1.00  0.00     0.133 C 
BRANCH  17  18
HETATM   18  C8  UNL     1      17.565  19.132  10.865  1.00  0.00     0.020 C 
BRANCH  18  19
HETATM   19  C7  UNL     1      18.623  18.096  10.601  1.00  0.00     0.003 C 
BRANCH  19  20
HETATM   20  C6  UNL     1      18.054  16.949   9.822  1.00  0.00     0.030 C 
BRANCH  20  21
HETATM   21  C5  UNL     1      19.062  16.409   8.862  1.00  0.00     0.272 C 
BRANCH  21  22
HETATM   22  N1  UNL     1      18.564  15.316   8.050  1.00  0.00     0.087 N 
BRANCH  22  23
HETATM   23  C2  UNL     1      18.774  14.038   8.680  1.00  0.00     0.268 C 
HETATM   24  C1  UNL     1      18.808  12.936   7.669  1.00  0.00     0.037 C 
ENDBRANCH  22  23
BRANCH  22  25
HETATM   25  C3  UNL     1      19.293  15.395   6.789  1.00  0.00     0.268 C 
HETATM   26  C4  UNL     1      18.486  16.012   5.688  1.00  0.00     0.037 C 
ENDBRANCH  22  25
ENDBRANCH  21  22
ENDBRANCH  20  21
ENDBRANCH  19  20
ENDBRANCH  18  19
ENDBRANCH  17  18
ENDBRANCH  13  17
ENDBRANCH   7  10
ENDBRANCH   5   6
ENDBRANCH   1   5
BRANCH   3  27
HETATM   27  C16 UNL     1      10.612  23.655   4.354  1.00  0.00     0.101 A 
HETATM   28  C17 UNL     1      10.094  24.138   5.601  1.00  0.00     0.146 A 
HETATM   29  N5  UNL     1      10.704  23.663   6.786  1.00  0.00    -0.080 NA
HETATM   30  N6  UNL     1       9.088  25.021   5.644  1.00  0.00    -0.329 N 
HETATM   31  C18 UNL     1       8.490  25.515   4.560  1.00  0.00     0.117 A 
ATOM     32  H6  UNL     1       8.760  25.332   6.558  1.00  0.00     0.168 HD
HETATM   33  N7  UNL     1       7.558  26.348   4.511  1.00  0.00    -0.313 N 
HETATM   34  C27 UNL     1       8.971  25.064   3.318  1.00  0.00     0.009 A 
HETATM   35  C19 UNL     1       6.887  26.984   5.529  1.00  0.00     0.223 C 
ATOM     36  H7  UNL     1       7.246  26.592   3.570  1.00  0.00     0.170 HD
HETATM   37  O4  UNL     1       5.628  26.734   5.657  1.00  0.00    -0.273 OA
HETATM   38  C28 UNL     1       8.344  25.566   2.099  1.00  0.00     0.054 C 
HETATM   39  C29 UNL     1      10.016  24.150   3.232  1.00  0.00     0.086 A 
HETATM   40  N8  UNL     1      10.383  23.817   1.906  1.00  0.00    -0.099 NA
BRANCH  35  41
HETATM   41  C20 UNL     1       7.476  27.938   6.492  1.00  0.00     0.108 C 
BRANCH  41  42
HETATM   42  C21 UNL     1       6.960  27.546   7.888  1.00  0.00    -0.006 C 
HETATM   43  C22 UNL     1       7.057  28.764   8.759  1.00  0.00     0.005 C 
HETATM   44  C23 UNL     1       8.060  28.588   9.841  1.00  0.00     0.000 C 
HETATM   45  C24 UNL     1       9.326  27.981   9.266  1.00  0.00     0.000 C 
HETATM   46  C25 UNL     1       9.105  26.598   8.753  1.00  0.00     0.000 C 
HETATM   47  C26 UNL     1       7.648  26.332   8.431  1.00  0.00     0.005 C 
ENDBRANCH  41  42
ENDBRANCH  35  41
ENDBRANCH   3  27
TORSDOF 14
ENDMDL
MODEL 4
REMARK VINA RESULT: -8.908458086      2.248      3.258
REMARK  14 active torsions:
REMARK  status: ('A' for Active; 'I' for Inactive)
REMARK    1  A    between atoms: C2_2  and  N1_3 
REMARK    2  A    between atoms: N1_3  and  C3_4 
REMARK    3  A    between atoms: N1_3  and  C5_6 
REMARK    4  A    between atoms: C5_6  and  C6_7 
REMARK    5  A    between atoms: C6_7  and  C7_8 
REMARK    6  A    between atoms: C7_8  and  C8_9 
REMARK    7  A    between atoms: C8_9  and  C9_10 
REMARK    8  A    between atoms: C9_10  and  N2_11 
REMARK    9  A    between atoms: C12_15  and  N3_16 
REMARK       I    between atoms: N3_16  and  C13_18 
REMARK   10  A    between atoms: C13_18  and  C14_20 
REMARK   11  A    between atoms: C14_20  and  C15_21 
REMARK       I    between atoms: C15_21  and  N4_23 
REMARK   12  A    between atoms: N4_23  and  C16_25 
REMARK       I    between atoms: N7_31  and  C19_33 
REMARK   13  A    between atoms: C19_33  and  C20_35 
REMARK   14  A    between atoms: C20_35  and  C21_36 
ROOT
HETATM    1  C15 UNL     1      12.493  21.770   5.691  1.00  0.00     0.231 C 
HETATM    2  O3  UNL     1      11.733  21.041   6.363  1.00  0.00    -0.273 OA
HETATM    3  N4  UNL     1      12.246  22.969   5.040  1.00  0.00    -0.322 N 
ATOM      4  H4  UNL     1      13.073  23.322   4.559  1.00  0.00     0.169 HD
ENDROOT
BRANCH   1   5
HETATM    5  C14 UNL     1      13.926  21.200   5.604  1.00  0.00     0.205 C 
BRANCH   5   6
HETATM    6  C13 UNL     1      14.690  21.582   6.788  1.00  0.00     0.227 C 
HETATM    7  N3  UNL     1      15.175  20.626   7.738  1.00  0.00    -0.349 N 
ATOM      8  H3  UNL     1      14.987  19.636   7.583  1.00  0.00     0.163 HD
HETATM    9  O2  UNL     1      14.975  22.778   7.040  1.00  0.00    -0.273 OA
BRANCH   7  10
HETATM   10  C12 UNL     1      15.915  21.017   8.900  1.00  0.00     0.155 C 
HETATM   11  C11 UNL     1      15.425  20.382  10.174  1.00  0.00     0.135 C 
HETATM   12  C10 UNL     1      16.126  19.041  10.150  1.00  0.00     0.227 C 
HETATM   13  N2  UNL     1      17.400  19.252   9.526  1.00  0.00    -0.310 N 
HETATM   14  O1  UNL     1      15.663  17.987  10.587  1.00  0.00    -0.273 OA
HETATM   15  C30 UNL     1      17.330  20.494   8.839  1.00  0.00     0.105 C 
HETATM   16  S1  UNL     1      18.549  21.250   8.110  1.00  0.00    -0.063 SA
BRANCH  13  17
HETATM   17  C9  UNL     1      18.560  18.409   9.536  1.00  0.00     0.133 C 
BRANCH  17  18
HETATM   18  C8  UNL     1      18.240  17.197   8.667  1.00  0.00     0.020 C 
BRANCH  18  19
HETATM   19  C7  UNL     1      19.032  17.217   7.388  1.00  0.00     0.003 C 
BRANCH  19  20
HETATM   20  C6  UNL     1      18.192  17.728   6.257  1.00  0.00     0.030 C 
BRANCH  20  21
HETATM   21  C5  UNL     1      18.320  16.842   5.061  1.00  0.00     0.272 C 
BRANCH  21  22
HETATM   22  N1  UNL     1      17.352  17.127   4.021  1.00  0.00     0.087 N 
BRANCH  22  23
HETATM   23  C2  UNL     1      17.983  17.573   2.805  1.00  0.00     0.268 C 
HETATM   24  C1  UNL     1      17.256  17.064   1.600  1.00  0.00     0.037 C 
ENDBRANCH  22  23
BRANCH  22  25
HETATM   25  C3  UNL     1      16.482  18.166   4.561  1.00  0.00     0.268 C 
HETATM   26  C4  UNL     1      15.038  17.947   4.229  1.00  0.00     0.037 C 
ENDBRANCH  22  25
ENDBRANCH  21  22
ENDBRANCH  20  21
ENDBRANCH  19  20
ENDBRANCH  18  19
ENDBRANCH  17  18
ENDBRANCH  13  17
ENDBRANCH   7  10
ENDBRANCH   5   6
ENDBRANCH   1   5
BRANCH   3  27
HETATM   27  C16 UNL     1      11.150  23.810   4.880  1.00  0.00     0.101 A 
HETATM   28  C17 UNL     1      10.532  24.338   6.061  1.00  0.00     0.146 A 
HETATM   29  N5  UNL     1      11.117  24.004   7.306  1.00  0.00    -0.080 NA
HETATM   30  N6  UNL     1       9.457  25.133   5.991  1.00  0.00    -0.329 N 
HETATM   31  C18 UNL     1       8.878  25.495   4.846  1.00  0.00     0.117 A 
ATOM     32  H6  UNL     1       9.059  25.482   6.863  1.00  0.00     0.168 HD
HETATM   33  N7  UNL     1       7.885  26.240   4.691  1.00  0.00    -0.313 N 
HETATM   34  C27 UNL     1       9.457  24.995   3.666  1.00  0.00     0.009 A 
HETATM   35  C19 UNL     1       7.115  26.891   5.625  1.00  0.00     0.223 C 
ATOM     36  H7  UNL     1       7.603  26.387   3.721  1.00  0.00     0.170 HD
HETATM   37  O4  UNL     1       5.875  26.545   5.716  1.00  0.00    -0.273 OA
HETATM   38  C28 UNL     1       8.854  25.353   2.385  1.00  0.00     0.054 C 
HETATM   39  C29 UNL     1      10.575  24.169   3.698  1.00  0.00     0.086 A 
HETATM   40  N8  UNL     1      11.035  23.772   2.420  1.00  0.00    -0.099 NA
BRANCH  35  41
HETATM   41  C20 UNL     1       7.575  27.959   6.538  1.00  0.00     0.108 C 
BRANCH  41  42
HETATM   42  C21 UNL     1       6.982  27.653   7.924  1.00  0.00    -0.006 C 
HETATM   43  C22 UNL     1       7.107  28.901   8.749  1.00  0.00     0.005 C 
HETATM   44  C23 UNL     1       8.054  28.722   9.879  1.00  0.00     0.000 C 
HETATM   45  C24 UNL     1       9.310  28.029   9.384  1.00  0.00     0.000 C 
HETATM   46  C25 UNL     1       9.040  26.639   8.919  1.00  0.00     0.000 C 
HETATM   47  C26 UNL     1       7.585  26.431   8.546  1.00  0.00     0.005 C 
ENDBRANCH  41  42
ENDBRANCH  35  41
ENDBRANCH   3  27
TORSDOF 14
ENDMDL
MODEL 5
REMARK VINA RESULT: -8.895385502      1.966      3.306
REMARK  14 active torsions:
REMARK  status: ('A' for Active; 'I' for Inactive)
REMARK    1  A    between atoms: C2_2  and  N1_3 
REMARK    2  A    between atoms: N1_3  and  C3_4 
REMARK    3  A    between atoms: N1_3  and  C5_6 
REMARK    4  A    between atoms: C5_6  and  C6_7 
REMARK    5  A    between atoms: C6_7  and  C7_8 
REMARK    6  A    between atoms: C7_8  and  C8_9 
REMARK    7  A    between atoms: C8_9  and  C9_10 
REMARK    8  A    between atoms: C9_10  and  N2_11 
REMARK    9  A    between atoms: C12_15  and  N3_16 
REMARK       I    between atoms: N3_16  and  C13_18 
REMARK   10  A    between atoms: C13_18  and  C14_20 
REMARK   11  A    between atoms: C14_20  and  C15_21 
REMARK       I    between atoms: C15_21  and  N4_23 
REMARK   12  A    between atoms: N4_23  and  C16_25 
REMARK       I    between atoms: N7_31  and  C19_33 
REMARK   13  A    between atoms: C19_33  and  C20_35 
REMARK   14  A    between atoms: C20_35  and  C21_36 
ROOT
HETATM    1  C15 UNL     1      11.746  22.658   5.500  1.00  0.00     0.231 C 
HETATM    2  O3  UNL     1      11.359  21.766   6.284  1.00  0.00    -0.273 OA
HETATM    3  N4  UNL     1      11.389  23.996   5.414  1.00  0.00    -0.322 N 
ATOM      4  H4  UNL     1      11.872  24.472   4.653  1.00  0.00     0.169 HD
ENDROOT
BRANCH   1   5
HETATM    5  C14 UNL     1      12.789  22.138   4.487  1.00  0.00     0.205 C 
BRANCH   5   6
HETATM    6  C13 UNL     1      14.128  22.214   5.062  1.00  0.00     0.227 C 
HETATM    7  N3  UNL     1      14.365  22.217   6.476  1.00  0.00    -0.349 N 
ATOM      8  H3  UNL     1      13.569  22.156   7.110  1.00  0.00     0.163 HD
HETATM    9  O2  UNL     1      15.158  22.276   4.348  1.00  0.00    -0.273 OA
BRANCH   7  10
HETATM   10  C12 UNL     1      15.685  22.302   7.025  1.00  0.00     0.155 C 
HETATM   11  C11 UNL     1      15.749  23.035   8.338  1.00  0.00     0.135 C 
HETATM   12  C10 UNL     1      15.382  21.950   9.326  1.00  0.00     0.227 C 
HETATM   13  N2  UNL     1      15.908  20.721   8.804  1.00  0.00    -0.310 N 
HETATM   14  O1  UNL     1      14.750  22.118  10.369  1.00  0.00    -0.273 OA
HETATM   15  C30 UNL     1      16.191  20.938   7.428  1.00  0.00     0.105 C 
HETATM   16  S1  UNL     1      16.936  19.914   6.436  1.00  0.00    -0.063 SA
BRANCH  13  17
HETATM   17  C9  UNL     1      16.118  19.472   9.476  1.00  0.00     0.133 C 
BRANCH  17  18
HETATM   18  C8  UNL     1      17.207  19.701  10.518  1.00  0.00     0.020 C 
BRANCH  18  19
HETATM   19  C7  UNL     1      18.478  18.989  10.146  1.00  0.00     0.003 C 
BRANCH  19  20
HETATM   20  C6  UNL     1      18.955  18.136  11.283  1.00  0.00     0.030 C 
BRANCH  20  21
HETATM   21  C5  UNL     1      19.020  16.700  10.875  1.00  0.00     0.272 C 
BRANCH  21  22
HETATM   22  N1  UNL     1      17.739  16.149  10.482  1.00  0.00     0.087 N 
BRANCH  22  23
HETATM   23  C2  UNL     1      16.953  15.747  11.620  1.00  0.00     0.268 C 
HETATM   24  C1  UNL     1      15.501  16.043  11.406  1.00  0.00     0.037 C 
ENDBRANCH  22  23
BRANCH  22  25
HETATM   25  C3  UNL     1      18.044  15.002   9.634  1.00  0.00     0.268 C 
HETATM   26  C4  UNL     1      18.788  15.378   8.390  1.00  0.00     0.037 C 
ENDBRANCH  22  25
ENDBRANCH  21  22
ENDBRANCH  20  21
ENDBRANCH  19  20
ENDBRANCH  18  19
ENDBRANCH  17  18
ENDBRANCH  13  17
ENDBRANCH   7  10
ENDBRANCH   5   6
ENDBRANCH   1   5
BRANCH   3  27
HETATM   27  C16 UNL     1      10.537  24.848   6.107  1.00  0.00     0.101 A 
HETATM   28  C17 UNL     1       9.259  25.135   5.526  1.00  0.00     0.146 A 
HETATM   29  N5  UNL     1       8.937  24.487   4.309  1.00  0.00    -0.080 NA
HETATM   30  N6  UNL     1       8.393  25.967   6.119  1.00  0.00    -0.329 N 
HETATM   31  C18 UNL     1       8.636  26.588   7.273  1.00  0.00     0.117 A 
ATOM     32  H6  UNL     1       7.496  26.135   5.662  1.00  0.00     0.168 HD
HETATM   33  N7  UNL     1       7.883  27.367   7.899  1.00  0.00    -0.313 N 
HETATM   34  C27 UNL     1       9.882  26.330   7.873  1.00  0.00     0.009 A 
HETATM   35  C19 UNL     1       6.615  27.803   7.595  1.00  0.00     0.223 C 
ATOM     36  H7  UNL     1       8.269  27.734   8.769  1.00  0.00     0.170 HD
HETATM   37  O4  UNL     1       6.460  29.065   7.373  1.00  0.00    -0.273 OA
HETATM   38  C28 UNL     1      10.203  26.994   9.133  1.00  0.00     0.054 C 
HETATM   39  C29 UNL     1      10.806  25.471   7.289  1.00  0.00     0.086 A 
HETATM   40  N8  UNL     1      11.998  25.314   8.035  1.00  0.00    -0.099 NA
BRANCH  35  41
HETATM   41  C20 UNL     1       5.405  26.959   7.503  1.00  0.00     0.108 C 
BRANCH  41  42
HETATM   42  C21 UNL     1       4.284  27.840   6.925  1.00  0.00    -0.006 C 
HETATM   43  C22 UNL     1       3.300  28.093   8.030  1.00  0.00     0.005 C 
HETATM   44  C23 UNL     1       1.989  27.450   7.758  1.00  0.00     0.000 C 
HETATM   45  C24 UNL     1       2.211  26.031   7.270  1.00  0.00     0.000 C 
HETATM   46  C25 UNL     1       2.911  25.990   5.954  1.00  0.00     0.000 C 
HETATM   47  C26 UNL     1       3.688  27.262   5.678  1.00  0.00     0.005 C 
ENDBRANCH  41  42
ENDBRANCH  35  41
ENDBRANCH   3  27
TORSDOF 14
ENDMDL
