MODEL 1
REMARK VINA RESULT: -9.093804958      0.000      0.000
REMARK  17 active torsions:
REMARK  status: ('A' for Active; 'I' for Inactive)
REMARK    1  A    between atoms: C2_2  and  C3_3 
REMARK    2  A    between atoms: C3_3  and  C4_4 
REMARK    3  A    between atoms: C4_4  and  C5_5 
REMARK    4  A    between atoms: C5_5  and  C6_6 
REMARK    5  A    between atoms: C6_6  and  N1_7 
REMARK    6  A    between atoms: C7_8  and  C8_9 
REMARK       I    between atoms: N3_15  and  C12_17 
REMARK       I    between atoms: C12_17  and  N4_19 
REMARK    7  A    between atoms: N4_19  and  C13_21 
REMARK    8  A    between atoms: C13_21  and  C14_22 
REMARK    9  A    between atoms: C14_22  and  C15_23 
REMARK   10  A    between atoms: C15_23  and  C16_24 
REMARK   11  A    between atoms: C16_24  and  N5_25 
REMARK   12  A    between atoms: C16_24  and  C28_44 
REMARK       I    between atoms: N5_25  and  C17_27 
REMARK       I    between atoms: C17_27  and  N6_29 
REMARK   13  A    between atoms: N6_29  and  C18_31 
REMARK   14  A    between atoms: C18_31  and  C19_32 
REMARK   15  A    between atoms: C18_31  and  C24_40 
REMARK       I    between atoms: C19_32  and  N7_34 
REMARK   16  A    between atoms: N7_34  and  C20_36 
REMARK   17  A    between atoms: C28_44  and  O5_46 
ROOT
HETATM    1  C15 UNL     1      15.493  18.286   2.699  1.00  0.00     0.037 C 
ENDROOT
BRANCH   1   2
HETATM    2  C14 UNL     1      14.867  19.466   1.996  1.00  0.00     0.022 C 
BRANCH   2   3
HETATM    3  C13 UNL     1      15.021  20.740   2.806  1.00  0.00     0.124 C 
BRANCH   3   4
HETATM    4  N4  UNL     1      13.826  21.546   2.714  1.00  0.00    -0.343 N 
HETATM    5  C12 UNL     1      12.981  21.825   3.865  1.00  0.00     0.321 C 
HETATM    6  N3  UNL     1      11.851  22.583   3.787  1.00  0.00    -0.290 N 
HETATM    7  O1  UNL     1      13.381  21.307   4.938  1.00  0.00    -0.247 OA
HETATM    8  C11 UNL     1      11.293  23.525   4.375  1.00  0.00     0.178 A 
ATOM      9  H3  UNL     1      11.282  22.281   2.996  1.00  0.00     0.172 HD
HETATM   10  N2  UNL     1      10.092  23.937   3.858  1.00  0.00    -0.346 N 
HETATM   11  C30 UNL     1      11.784  24.164   5.477  1.00  0.00     0.292 A 
HETATM   12  C10 UNL     1       9.459  24.936   4.449  1.00  0.00     0.115 A 
ATOM     13  H2  UNL     1       9.695  23.482   3.036  1.00  0.00     0.167 HD
HETATM   14  C7  UNL     1       9.968  25.590   5.581  1.00  0.00     0.030 A 
HETATM   15  N1  UNL     1      11.128  25.208   6.099  1.00  0.00    -0.314 N 
HETATM   16  O6  UNL     1      12.878  23.839   6.008  1.00  0.00    -0.264 OA
ATOM     17  H4  UNL     1      13.564  21.934   1.808  1.00  0.00     0.164 HD
BRANCH  14  18
HETATM   18  C8  UNL     1       9.154  26.686   6.109  1.00  0.00     0.054 C 
HETATM   19  C9  UNL     1       8.233  27.197   5.038  1.00  0.00     0.011 C 
ENDBRANCH  14  18
BRANCH  15  20
HETATM   20  C6  UNL     1      11.666  25.812   7.277  1.00  0.00     0.132 C 
BRANCH  20  21
HETATM   21  C5  UNL     1      11.003  25.525   8.580  1.00  0.00     0.020 C 
BRANCH  21  22
HETATM   22  C4  UNL     1      10.745  26.705   9.463  1.00  0.00     0.002 C 
BRANCH  22  23
HETATM   23  C3  UNL     1       9.247  26.877   9.728  1.00  0.00    -0.000 C 
BRANCH  23  24
HETATM   24  C2  UNL     1       8.851  28.291   9.986  1.00  0.00    -0.005 C 
HETATM   25  C1  UNL     1       7.674  28.582   9.040  1.00  0.00     0.005 C 
ENDBRANCH  23  24
ENDBRANCH  22  23
ENDBRANCH  21  22
ENDBRANCH  20  21
ENDBRANCH  15  20
ENDBRANCH   3   4
ENDBRANCH   2   3
ENDBRANCH   1   2
BRANCH   1  26
HETATM   26  C16 UNL     1      16.616  18.656   3.613  1.00  0.00     0.186 C 
BRANCH  26  27
HETATM   27  N5  UNL     1      16.075  18.825   4.952  1.00  0.00    -0.329 N 
HETATM   28  C17 UNL     1      16.736  19.624   5.928  1.00  0.00     0.317 C 
HETATM   29  O2  UNL     1      17.818  20.178   5.575  1.00  0.00    -0.247 OA
HETATM   30  N6  UNL     1      16.240  19.810   7.230  1.00  0.00    -0.329 N 
ATOM     31  H6  UNL     1      15.366  19.372   7.521  1.00  0.00     0.165 HD
ATOM     32  H5  UNL     1      15.201  18.360   5.198  1.00  0.00     0.165 HD
BRANCH  30  33
HETATM   33  C18 UNL     1      17.007  20.651   8.170  1.00  0.00     0.185 C 
BRANCH  33  34
HETATM   34  C19 UNL     1      17.658  19.718   9.111  1.00  0.00     0.241 C 
HETATM   35  O3  UNL     1      18.764  20.011   9.614  1.00  0.00    -0.271 OA
HETATM   36  N7  UNL     1      17.044  18.497   9.456  1.00  0.00    -0.351 N 
ATOM     37  H7  UNL     1      16.138  18.250   9.058  1.00  0.00     0.163 HD
BRANCH  36  38
HETATM   38  C20 UNL     1      17.714  17.584  10.389  1.00  0.00     0.022 C 
HETATM   39  C21 UNL     1      16.700  16.631  10.928  1.00  0.00     0.037 C 
HETATM   40  C22 UNL     1      18.342  18.400  11.487  1.00  0.00     0.037 C 
HETATM   41  C23 UNL     1      18.775  16.846   9.582  1.00  0.00     0.037 C 
ENDBRANCH  36  38
ENDBRANCH  33  34
BRANCH  33  42
HETATM   42  C24 UNL     1      15.945  21.508   8.839  1.00  0.00    -0.022 C 
HETATM   43  C25 UNL     1      14.640  21.435   8.039  1.00  0.00     0.017 C 
HETATM   44  C26 UNL     1      15.645  21.061  10.237  1.00  0.00     0.017 C 
HETATM   45  C27 UNL     1      16.323  22.968   8.859  1.00  0.00     0.017 C 
ENDBRANCH  33  42
ENDBRANCH  30  33
ENDBRANCH  26  27
BRANCH  26  46
HETATM   46  C28 UNL     1      17.694  17.655   3.677  1.00  0.00     0.281 C 
HETATM   47  O4  UNL     1      18.729  17.850   2.980  1.00  0.00    -0.263 OA
BRANCH  46  48
HETATM   48  O5  UNL     1      17.687  16.507   4.434  1.00  0.00    -0.325 OA
HETATM   49  C29 UNL     1      18.618  16.323   5.499  1.00  0.00     0.213 C 
ENDBRANCH  46  48
ENDBRANCH  26  46
ENDBRANCH   1  26
TORSDOF 17
ENDMDL
MODEL 2
REMARK VINA RESULT: -8.782662042      0.769      1.055
REMARK  17 active torsions:
REMARK  status: ('A' for Active; 'I' for Inactive)
REMARK    1  A    between atoms: C2_2  and  C3_3 
REMARK    2  A    between atoms: C3_3  and  C4_4 
REMARK    3  A    between atoms: C4_4  and  C5_5 
REMARK    4  A    between atoms: C5_5  and  C6_6 
REMARK    5  A    between atoms: C6_6  and  N1_7 
REMARK    6  A    between atoms: C7_8  and  C8_9 
REMARK       I    between atoms: N3_15  and  C12_17 
REMARK       I    between atoms: C12_17  and  N4_19 
REMARK    7  A    between atoms: N4_19  and  C13_21 
REMARK    8  A    between atoms: C13_21  and  C14_22 
REMARK    9  A    between atoms: C14_22  and  C15_23 
REMARK   10  A    between atoms: C15_23  and  C16_24 
REMARK   11  A    between atoms: C16_24  and  N5_25 
REMARK   12  A    between atoms: C16_24  and  C28_44 
REMARK       I    between atoms: N5_25  and  C17_27 
REMARK       I    between atoms: C17_27  and  N6_29 
REMARK   13  A    between atoms: N6_29  and  C18_31 
REMARK   14  A    between atoms: C18_31  and  C19_32 
REMARK   15  A    between atoms: C18_31  and  C24_40 
REMARK       I    between atoms: C19_32  and  N7_34 
REMARK   16  A    between atoms: N7_34  and  C20_36 
REMARK   17  A    between atoms: C28_44  and  O5_46 
ROOT
HETATM    1  C15 UNL     1      14.959  18.832   2.804  1.00  0.00     0.037 C 
ENDROOT
BRANCH   1   2
HETATM    2  C14 UNL     1      14.622  20.158   2.167  1.00  0.00     0.022 C 
BRANCH   2   3
HETATM    3  C13 UNL     1      14.607  21.278   3.192  1.00  0.00     0.124 C 
BRANCH   3   4
HETATM    4  N4  UNL     1      13.412  22.077   3.051  1.00  0.00    -0.343 N 
HETATM    5  C12 UNL     1      12.502  22.324   4.158  1.00  0.00     0.321 C 
HETATM    6  N3  UNL     1      11.372  23.076   4.034  1.00  0.00    -0.290 N 
HETATM    7  O1  UNL     1      12.845  21.784   5.240  1.00  0.00    -0.247 OA
HETATM    8  C11 UNL     1      10.774  24.001   4.610  1.00  0.00     0.178 A 
ATOM      9  H3  UNL     1      10.851  22.788   3.205  1.00  0.00     0.172 HD
HETATM   10  N2  UNL     1       9.601  24.415   4.036  1.00  0.00    -0.346 N 
HETATM   11  C30 UNL     1      11.197  24.617   5.752  1.00  0.00     0.292 A 
HETATM   12  C10 UNL     1       8.927  25.396   4.612  1.00  0.00     0.115 A 
ATOM     13  H2  UNL     1       9.254  23.977   3.183  1.00  0.00     0.167 HD
HETATM   14  C7  UNL     1       9.366  26.028   5.785  1.00  0.00     0.030 A 
HETATM   15  N1  UNL     1      10.499  25.642   6.359  1.00  0.00    -0.314 N 
HETATM   16  O6  UNL     1      12.262  24.288   6.337  1.00  0.00    -0.264 OA
ATOM     17  H4  UNL     1      13.199  22.484   2.140  1.00  0.00     0.164 HD
BRANCH  14  18
HETATM   18  C8  UNL     1       8.515  27.107   6.291  1.00  0.00     0.054 C 
HETATM   19  C9  UNL     1       7.132  26.974   5.718  1.00  0.00     0.011 C 
ENDBRANCH  14  18
BRANCH  15  20
HETATM   20  C6  UNL     1      10.965  26.223   7.578  1.00  0.00     0.132 C 
BRANCH  20  21
HETATM   21  C5  UNL     1      10.669  25.513   8.855  1.00  0.00     0.020 C 
BRANCH  21  22
HETATM   22  C4  UNL     1       9.770  26.226   9.814  1.00  0.00     0.002 C 
BRANCH  22  23
HETATM   23  C3  UNL     1      10.025  27.735   9.790  1.00  0.00    -0.000 C 
BRANCH  23  24
HETATM   24  C2  UNL     1       8.974  28.524  10.494  1.00  0.00    -0.005 C 
HETATM   25  C1  UNL     1       7.779  28.596   9.529  1.00  0.00     0.005 C 
ENDBRANCH  23  24
ENDBRANCH  22  23
ENDBRANCH  21  22
ENDBRANCH  20  21
ENDBRANCH  15  20
ENDBRANCH   3   4
ENDBRANCH   2   3
ENDBRANCH   1   2
BRANCH   1  26
HETATM   26  C16 UNL     1      16.197  18.863   3.641  1.00  0.00     0.186 C 
BRANCH  26  27
HETATM   27  N5  UNL     1      15.799  18.899   5.039  1.00  0.00    -0.329 N 
HETATM   28  C17 UNL     1      16.488  19.705   5.989  1.00  0.00     0.317 C 
HETATM   29  O2  UNL     1      17.464  20.386   5.559  1.00  0.00    -0.247 OA
HETATM   30  N6  UNL     1      16.129  19.765   7.347  1.00  0.00    -0.329 N 
ATOM     31  H6  UNL     1      15.340  19.223   7.700  1.00  0.00     0.165 HD
ATOM     32  H5  UNL     1      15.008  18.333   5.346  1.00  0.00     0.165 HD
BRANCH  30  33
HETATM   33  C18 UNL     1      16.914  20.626   8.253  1.00  0.00     0.185 C 
BRANCH  33  34
HETATM   34  C19 UNL     1      17.615  19.712   9.175  1.00  0.00     0.241 C 
HETATM   35  O3  UNL     1      18.712  20.047   9.672  1.00  0.00    -0.271 OA
HETATM   36  N7  UNL     1      17.061  18.460   9.509  1.00  0.00    -0.351 N 
ATOM     37  H7  UNL     1      16.163  18.176   9.117  1.00  0.00     0.163 HD
BRANCH  36  38
HETATM   38  C20 UNL     1      17.780  17.566  10.424  1.00  0.00     0.022 C 
HETATM   39  C21 UNL     1      16.811  16.577  10.980  1.00  0.00     0.037 C 
HETATM   40  C22 UNL     1      18.403  18.398  11.513  1.00  0.00     0.037 C 
HETATM   41  C23 UNL     1      18.848  16.867   9.592  1.00  0.00     0.037 C 
ENDBRANCH  36  38
ENDBRANCH  33  34
BRANCH  33  42
HETATM   42  C24 UNL     1      15.861  21.468   8.955  1.00  0.00    -0.022 C 
HETATM   43  C25 UNL     1      14.598  21.544   8.092  1.00  0.00     0.017 C 
HETATM   44  C26 UNL     1      15.468  20.903  10.285  1.00  0.00     0.017 C 
HETATM   45  C27 UNL     1      16.308  22.897   9.139  1.00  0.00     0.017 C 
ENDBRANCH  33  42
ENDBRANCH  30  33
ENDBRANCH  26  27
BRANCH  26  46
HETATM   46  C28 UNL     1      17.084  17.703   3.445  1.00  0.00     0.281 C 
HETATM   47  O4  UNL     1      17.163  16.852   4.374  1.00  0.00    -0.263 OA
BRANCH  46  48
HETATM   48  O5  UNL     1      17.849  17.451   2.330  1.00  0.00    -0.325 OA
HETATM   49  C29 UNL     1      17.265  16.913   1.145  1.00  0.00     0.213 C 
ENDBRANCH  46  48
ENDBRANCH  26  46
ENDBRANCH   1  26
TORSDOF 17
ENDMDL
MODEL 3
REMARK VINA RESULT: -8.752754128      2.671      6.061
REMARK  17 active torsions:
REMARK  status: ('A' for Active; 'I' for Inactive)
REMARK    1  A    between atoms: C2_2  and  C3_3 
REMARK    2  A    between atoms: C3_3  and  C4_4 
REMARK    3  A    between atoms: C4_4  and  C5_5 
REMARK    4  A    between atoms: C5_5  and  C6_6 
REMARK    5  A    between atoms: C6_6  and  N1_7 
REMARK    6  A    between atoms: C7_8  and  C8_9 
REMARK       I    between atoms: N3_15  and  C12_17 
REMARK       I    between atoms: C12_17  and  N4_19 
REMARK    7  A    between atoms: N4_19  and  C13_21 
REMARK    8  A    between atoms: C13_21  and  C14_22 
REMARK    9  A    between atoms: C14_22  and  C15_23 
REMARK   10  A    between atoms: C15_23  and  C16_24 
REMARK   11  A    between atoms: C16_24  and  N5_25 
REMARK   12  A    between atoms: C16_24  and  C28_44 
REMARK       I    between atoms: N5_25  and  C17_27 
REMARK       I    between atoms: C17_27  and  N6_29 
REMARK   13  A    between atoms: N6_29  and  C18_31 
REMARK   14  A    between atoms: C18_31  and  C19_32 
REMARK   15  A    between atoms: C18_31  and  C24_40 
REMARK       I    between atoms: C19_32  and  N7_34 
REMARK   16  A    between atoms: N7_34  and  C20_36 
REMARK   17  A    between atoms: C28_44  and  O5_46 
ROOT
HETATM    1  C15 UNL     1      11.431  24.221   2.563  1.00  0.00     0.037 C 
ENDROOT
BRANCH   1   2
HETATM    2  C14 UNL     1       9.940  24.118   2.348  1.00  0.00     0.022 C 
BRANCH   2   3
HETATM    3  C13 UNL     1       9.337  25.465   1.990  1.00  0.00     0.124 C 
BRANCH   3   4
HETATM    4  N4  UNL     1       8.037  25.615   2.599  1.00  0.00    -0.343 N 
HETATM    5  C12 UNL     1       7.855  25.719   4.039  1.00  0.00     0.321 C 
HETATM    6  N3  UNL     1       6.631  25.860   4.622  1.00  0.00    -0.290 N 
HETATM    7  O1  UNL     1       8.922  25.666   4.700  1.00  0.00    -0.247 OA
HETATM    8  C11 UNL     1       6.059  26.553   5.480  1.00  0.00     0.178 A 
ATOM      9  H3  UNL     1       5.978  25.180   4.231  1.00  0.00     0.172 HD
HETATM   10  N2  UNL     1       4.737  26.270   5.705  1.00  0.00    -0.346 N 
HETATM   11  C30 UNL     1       6.645  27.555   6.199  1.00  0.00     0.292 A 
HETATM   12  C10 UNL     1       4.084  26.981   6.609  1.00  0.00     0.115 A 
ATOM     13  H2  UNL     1       4.267  25.528   5.188  1.00  0.00     0.167 HD
HETATM   14  C7  UNL     1       4.690  28.010   7.345  1.00  0.00     0.030 A 
HETATM   15  N1  UNL     1       5.969  28.301   7.144  1.00  0.00    -0.314 N 
HETATM   16  O6  UNL     1       7.855  27.869   6.048  1.00  0.00    -0.264 OA
ATOM     17  H4  UNL     1       7.214  25.650   1.997  1.00  0.00     0.164 HD
BRANCH  14  18
HETATM   18  C8  UNL     1       3.828  28.712   8.298  1.00  0.00     0.054 C 
HETATM   19  C9  UNL     1       2.472  28.066   8.328  1.00  0.00     0.011 C 
ENDBRANCH  14  18
BRANCH  15  20
HETATM   20  C6  UNL     1       6.643  29.309   7.899  1.00  0.00     0.132 C 
BRANCH  20  21
HETATM   21  C5  UNL     1       7.068  28.981   9.290  1.00  0.00     0.020 C 
BRANCH  21  22
HETATM   22  C4  UNL     1       8.464  28.471   9.451  1.00  0.00     0.002 C 
BRANCH  22  23
HETATM   23  C3  UNL     1       8.505  26.943   9.374  1.00  0.00    -0.000 C 
BRANCH  23  24
HETATM   24  C2  UNL     1       9.735  26.417   8.717  1.00  0.00    -0.005 C 
HETATM   25  C1  UNL     1      10.919  26.966   9.528  1.00  0.00     0.005 C 
ENDBRANCH  23  24
ENDBRANCH  22  23
ENDBRANCH  21  22
ENDBRANCH  20  21
ENDBRANCH  15  20
ENDBRANCH   3   4
ENDBRANCH   2   3
ENDBRANCH   1   2
BRANCH   1  26
HETATM   26  C16 UNL     1      11.899  23.598   3.839  1.00  0.00     0.186 C 
BRANCH  26  27
HETATM   27  N5  UNL     1      13.054  22.767   3.540  1.00  0.00    -0.329 N 
HETATM   28  C17 UNL     1      13.407  21.659   4.361  1.00  0.00     0.317 C 
HETATM   29  O2  UNL     1      12.669  21.433   5.365  1.00  0.00    -0.247 OA
HETATM   30  N6  UNL     1      14.515  20.834   4.101  1.00  0.00    -0.329 N 
ATOM     31  H6  UNL     1      15.112  21.005   3.292  1.00  0.00     0.165 HD
ATOM     32  H5  UNL     1      13.625  22.983   2.723  1.00  0.00     0.165 HD
BRANCH  30  33
HETATM   33  C18 UNL     1      14.801  19.714   5.021  1.00  0.00     0.185 C 
BRANCH  33  34
HETATM   34  C19 UNL     1      15.721  20.252   6.041  1.00  0.00     0.241 C 
HETATM   35  O3  UNL     1      16.685  20.970   5.695  1.00  0.00    -0.271 OA
HETATM   36  N7  UNL     1      15.528  19.970   7.408  1.00  0.00    -0.351 N 
ATOM     37  H7  UNL     1      14.741  19.392   7.705  1.00  0.00     0.163 HD
BRANCH  36  38
HETATM   38  C20 UNL     1      16.461  20.512   8.403  1.00  0.00     0.022 C 
HETATM   39  C21 UNL     1      16.363  22.001   8.381  1.00  0.00     0.037 C 
HETATM   40  C22 UNL     1      17.850  20.047   8.057  1.00  0.00     0.037 C 
HETATM   41  C23 UNL     1      16.019  19.962   9.753  1.00  0.00     0.037 C 
ENDBRANCH  36  38
ENDBRANCH  33  34
BRANCH  33  42
HETATM   42  C24 UNL     1      15.460  18.674   4.131  1.00  0.00    -0.022 C 
HETATM   43  C25 UNL     1      14.804  17.307   4.356  1.00  0.00     0.017 C 
HETATM   44  C26 UNL     1      15.334  19.002   2.675  1.00  0.00     0.017 C 
HETATM   45  C27 UNL     1      16.917  18.479   4.469  1.00  0.00     0.017 C 
ENDBRANCH  33  42
ENDBRANCH  30  33
ENDBRANCH  26  27
BRANCH  26  46
HETATM   46  C28 UNL     1      12.288  24.570   4.874  1.00  0.00     0.281 C 
HETATM   47  O4  UNL     1      13.147  25.445   4.576  1.00  0.00    -0.263 OA
BRANCH  46  48
HETATM   48  O5  UNL     1      11.798  24.621   6.159  1.00  0.00    -0.325 OA
HETATM   49  C29 UNL     1      12.667  24.493   7.283  1.00  0.00     0.213 C 
ENDBRANCH  46  48
ENDBRANCH  26  46
ENDBRANCH   1  26
TORSDOF 17
ENDMDL
MODEL 4
REMARK VINA RESULT: -8.660436587      1.588      3.218
REMARK  17 active torsions:
REMARK  status: ('A' for Active; 'I' for Inactive)
REMARK    1  A    between atoms: C2_2  and  C3_3 
REMARK    2  A    between atoms: C3_3  and  C4_4 
REMARK    3  A    between atoms: C4_4  and  C5_5 
REMARK    4  A    between atoms: C5_5  and  C6_6 
REMARK    5  A    between atoms: C6_6  and  N1_7 
REMARK    6  A    between atoms: C7_8  and  C8_9 
REMARK       I    between atoms: N3_15  and  C12_17 
REMARK       I    between atoms: C12_17  and  N4_19 
REMARK    7  A    between atoms: N4_19  and  C13_21 
REMARK    8  A    between atoms: C13_21  and  C14_22 
REMARK    9  A    between atoms: C14_22  and  C15_23 
REMARK   10  A    between atoms: C15_23  and  C16_24 
REMARK   11  A    between atoms: C16_24  and  N5_25 
REMARK   12  A    between atoms: C16_24  and  C28_44 
REMARK       I    between atoms: N5_25  and  C17_27 
REMARK       I    between atoms: C17_27  and  N6_29 
REMARK   13  A    between atoms: N6_29  and  C18_31 
REMARK   14  A    between atoms: C18_31  and  C19_32 
REMARK   15  A    between atoms: C18_31  and  C24_40 
REMARK       I    between atoms: C19_32  and  N7_34 
REMARK   16  A    between atoms: N7_34  and  C20_36 
REMARK   17  A    between atoms: C28_44  and  O5_46 
ROOT
HETATM    1  C15 UNL     1      17.186  17.807   3.002  1.00  0.00     0.037 C 
ENDROOT
BRANCH   1   2
HETATM    2  C14 UNL     1      15.703  18.014   3.199  1.00  0.00     0.022 C 
BRANCH   2   3
HETATM    3  C13 UNL     1      15.251  19.351   2.638  1.00  0.00     0.124 C 
BRANCH   3   4
HETATM    4  N4  UNL     1      15.068  20.310   3.702  1.00  0.00    -0.343 N 
HETATM    5  C12 UNL     1      14.365  21.569   3.508  1.00  0.00     0.321 C 
HETATM    6  N3  UNL     1      14.189  22.480   4.506  1.00  0.00    -0.290 N 
HETATM    7  O1  UNL     1      13.935  21.746   2.341  1.00  0.00    -0.247 OA
HETATM    8  C11 UNL     1      13.294  23.179   5.011  1.00  0.00     0.178 A 
ATOM      9  H3  UNL     1      15.071  22.639   4.993  1.00  0.00     0.172 HD
HETATM   10  N2  UNL     1      13.667  23.975   6.063  1.00  0.00    -0.346 N 
HETATM   11  C30 UNL     1      11.993  23.209   4.598  1.00  0.00     0.292 A 
HETATM   12  C10 UNL     1      12.751  24.738   6.634  1.00  0.00     0.115 A 
ATOM     13  H2  UNL     1      14.631  23.979   6.398  1.00  0.00     0.167 HD
HETATM   14  C7  UNL     1      11.415  24.765   6.206  1.00  0.00     0.030 A 
HETATM   15  N1  UNL     1      11.032  24.003   5.190  1.00  0.00    -0.314 N 
HETATM   16  O6  UNL     1      11.579  22.508   3.637  1.00  0.00    -0.264 OA
ATOM     17  H4  UNL     1      15.446  20.097   4.625  1.00  0.00     0.164 HD
BRANCH  14  18
HETATM   18  C8  UNL     1      10.520  25.652   6.951  1.00  0.00     0.054 C 
HETATM   19  C9  UNL     1      11.021  25.815   8.358  1.00  0.00     0.011 C 
ENDBRANCH  14  18
BRANCH  15  20
HETATM   20  C6  UNL     1       9.694  24.029   4.688  1.00  0.00     0.132 C 
BRANCH  20  21
HETATM   21  C5  UNL     1       9.360  25.016   3.623  1.00  0.00     0.020 C 
BRANCH  21  22
HETATM   22  C4  UNL     1       8.924  24.448   2.310  1.00  0.00     0.002 C 
BRANCH  22  23
HETATM   23  C3  UNL     1       7.951  23.283   2.509  1.00  0.00    -0.000 C 
BRANCH  23  24
HETATM   24  C2  UNL     1       6.558  23.720   2.808  1.00  0.00    -0.005 C 
HETATM   25  C1  UNL     1       6.174  24.709   1.695  1.00  0.00     0.005 C 
ENDBRANCH  23  24
ENDBRANCH  22  23
ENDBRANCH  21  22
ENDBRANCH  20  21
ENDBRANCH  15  20
ENDBRANCH   3   4
ENDBRANCH   2   3
ENDBRANCH   1   2
BRANCH   1  26
HETATM   26  C16 UNL     1      17.979  17.892   4.266  1.00  0.00     0.186 C 
BRANCH  26  27
HETATM   27  N5  UNL     1      17.091  18.334   5.329  1.00  0.00    -0.329 N 
HETATM   28  C17 UNL     1      17.514  19.279   6.307  1.00  0.00     0.317 C 
HETATM   29  O2  UNL     1      18.699  19.713   6.208  1.00  0.00    -0.247 OA
HETATM   30  N6  UNL     1      16.682  19.730   7.347  1.00  0.00    -0.329 N 
ATOM     31  H6  UNL     1      15.724  19.389   7.431  1.00  0.00     0.165 HD
ATOM     32  H5  UNL     1      16.144  17.959   5.375  1.00  0.00     0.165 HD
BRANCH  30  33
HETATM   33  C18 UNL     1      17.220  20.705   8.316  1.00  0.00     0.185 C 
BRANCH  33  34
HETATM   34  C19 UNL     1      17.863  19.909   9.379  1.00  0.00     0.241 C 
HETATM   35  O3  UNL     1      18.861  20.361   9.980  1.00  0.00    -0.271 OA
HETATM   36  N7  UNL     1      17.363  18.639   9.731  1.00  0.00    -0.351 N 
ATOM     37  H7  UNL     1      16.545  18.261   9.254  1.00  0.00     0.163 HD
BRANCH  36  38
HETATM   38  C20 UNL     1      18.023  17.864  10.788  1.00  0.00     0.022 C 
HETATM   39  C21 UNL     1      17.051  16.865  11.320  1.00  0.00     0.037 C 
HETATM   40  C22 UNL     1      18.480  18.814  11.862  1.00  0.00     0.037 C 
HETATM   41  C23 UNL     1      19.210  17.167  10.133  1.00  0.00     0.037 C 
ENDBRANCH  36  38
ENDBRANCH  33  34
BRANCH  33  42
HETATM   42  C24 UNL     1      15.986  21.445   8.807  1.00  0.00    -0.022 C 
HETATM   43  C25 UNL     1      14.809  21.174   7.865  1.00  0.00     0.017 C 
HETATM   44  C26 UNL     1      15.572  21.021  10.183  1.00  0.00     0.017 C 
HETATM   45  C27 UNL     1      16.178  22.941   8.790  1.00  0.00     0.017 C 
ENDBRANCH  33  42
ENDBRANCH  30  33
ENDBRANCH  26  27
BRANCH  26  46
HETATM   46  C28 UNL     1      18.590  16.617   4.678  1.00  0.00     0.281 C 
HETATM   47  O4  UNL     1      19.662  16.261   4.115  1.00  0.00    -0.263 OA
BRANCH  46  48
HETATM   48  O5  UNL     1      18.099  15.758   5.635  1.00  0.00    -0.325 OA
HETATM   49  C29 UNL     1      18.859  15.446   6.802  1.00  0.00     0.213 C 
ENDBRANCH  46  48
ENDBRANCH  26  46
ENDBRANCH   1  26
TORSDOF 17
ENDMDL
MODEL 5
REMARK VINA RESULT: -8.521502931      3.277     11.615
REMARK  17 active torsions:
REMARK  status: ('A' for Active; 'I' for Inactive)
REMARK    1  A    between atoms: C2_2  and  C3_3 
REMARK    2  A    between atoms: C3_3  and  C4_4 
REMARK    3  A    between atoms: C4_4  and  C5_5 
REMARK    4  A    between atoms: C5_5  and  C6_6 
REMARK    5  A    between atoms: C6_6  and  N1_7 
REMARK    6  A    between atoms: C7_8  and  C8_9 
REMARK       I    between atoms: N3_15  and  C12_17 
REMARK       I    between atoms: C12_17  and  N4_19 
REMARK    7  A    between atoms: N4_19  and  C13_21 
REMARK    8  A    between atoms: C13_21  and  C14_22 
REMARK    9  A    between atoms: C14_22  and  C15_23 
REMARK   10  A    between atoms: C15_23  and  C16_24 
REMARK   11  A    between atoms: C16_24  and  N5_25 
REMARK   12  A    between atoms: C16_24  and  C28_44 
REMARK       I    between atoms: N5_25  and  C17_27 
REMARK       I    between atoms: C17_27  and  N6_29 
REMARK   13  A    between atoms: N6_29  and  C18_31 
REMARK   14  A    between atoms: C18_31  and  C19_32 
REMARK   15  A    between atoms: C18_31  and  C24_40 
REMARK       I    between atoms: C19_32  and  N7_34 
REMARK   16  A    between atoms: N7_34  and  C20_36 
REMARK   17  A    between atoms: C28_44  and  O5_46 
ROOT
HETATM    1  C15 UNL     1       9.734  26.159   8.973  1.00  0.00     0.037 C 
ENDROOT
BRANCH   1   2
HETATM    2  C14 UNL     1      11.212  26.317   8.707  1.00  0.00     0.022 C 
BRANCH   2   3
HETATM    3  C13 UNL     1      11.596  25.746   7.353  1.00  0.00     0.124 C 
BRANCH   3   4
HETATM    4  N4  UNL     1      12.852  25.039   7.440  1.00  0.00    -0.343 N 
HETATM    5  C12 UNL     1      12.947  23.594   7.301  1.00  0.00     0.321 C 
HETATM    6  N3  UNL     1      14.129  22.919   7.383  1.00  0.00    -0.290 N 
HETATM    7  O1  UNL     1      11.848  23.020   7.101  1.00  0.00    -0.247 OA
HETATM    8  C11 UNL     1      14.769  22.043   6.778  1.00  0.00     0.178 A 
ATOM      9  H3  UNL     1      14.653  23.231   8.200  1.00  0.00     0.172 HD
HETATM   10  N2  UNL     1      15.984  21.701   7.312  1.00  0.00    -0.346 N 
HETATM   11  C30 UNL     1      14.353  21.410   5.642  1.00  0.00     0.292 A 
HETATM   12  C10 UNL     1      16.704  20.774   6.704  1.00  0.00     0.115 A 
ATOM     13  H2  UNL     1      16.326  22.153   8.160  1.00  0.00     0.167 HD
HETATM   14  C7  UNL     1      16.273  20.126   5.537  1.00  0.00     0.030 A 
HETATM   15  N1  UNL     1      15.100  20.440   5.002  1.00  0.00    -0.314 N 
HETATM   16  O6  UNL     1      13.249  21.669   5.096  1.00  0.00    -0.264 OA
ATOM     17  H4  UNL     1      13.706  25.573   7.605  1.00  0.00     0.164 HD
BRANCH  14  18
HETATM   18  C8  UNL     1      17.191  19.132   4.977  1.00  0.00     0.054 C 
HETATM   19  C9  UNL     1      18.475  19.131   5.757  1.00  0.00     0.011 C 
ENDBRANCH  14  18
BRANCH  15  20
HETATM   20  C6  UNL     1      14.597  19.779   3.840  1.00  0.00     0.132 C 
BRANCH  20  21
HETATM   21  C5  UNL     1      14.793  20.434   2.516  1.00  0.00     0.020 C 
BRANCH  21  22
HETATM   22  C4  UNL     1      15.043  19.523   1.358  1.00  0.00     0.002 C 
BRANCH  22  23
HETATM   23  C3  UNL     1      15.379  18.107   1.833  1.00  0.00    -0.000 C 
BRANCH  23  24
HETATM   24  C2  UNL     1      16.500  17.480   1.077  1.00  0.00    -0.005 C 
HETATM   25  C1  UNL     1      17.554  17.089   2.125  1.00  0.00     0.005 C 
ENDBRANCH  23  24
ENDBRANCH  22  23
ENDBRANCH  21  22
ENDBRANCH  20  21
ENDBRANCH  15  20
ENDBRANCH   3   4
ENDBRANCH   2   3
ENDBRANCH   1   2
BRANCH   1  26
HETATM   26  C16 UNL     1       8.865  26.716   7.891  1.00  0.00     0.186 C 
BRANCH  26  27
HETATM   27  N5  UNL     1       8.495  25.627   7.002  1.00  0.00    -0.329 N 
HETATM   28  C17 UNL     1       8.581  25.758   5.587  1.00  0.00     0.317 C 
HETATM   29  O2  UNL     1       8.993  26.869   5.140  1.00  0.00    -0.247 OA
HETATM   30  N6  UNL     1       8.233  24.727   4.698  1.00  0.00    -0.329 N 
ATOM     31  H6  UNL     1       7.905  23.827   5.050  1.00  0.00     0.165 HD
ATOM     32  H5  UNL     1       8.165  24.748   7.401  1.00  0.00     0.165 HD
BRANCH  30  33
HETATM   33  C18 UNL     1       8.350  24.968   3.246  1.00  0.00     0.185 C 
BRANCH  33  34
HETATM   34  C19 UNL     1       6.976  24.906   2.713  1.00  0.00     0.241 C 
HETATM   35  O3  UNL     1       6.707  25.447   1.618  1.00  0.00    -0.271 OA
HETATM   36  N7  UNL     1       5.956  24.239   3.421  1.00  0.00    -0.351 N 
ATOM     37  H7  UNL     1       6.163  23.787   4.312  1.00  0.00     0.163 HD
BRANCH  36  38
HETATM   38  C20 UNL     1       4.596  24.197   2.872  1.00  0.00     0.022 C 
HETATM   39  C21 UNL     1       4.687  23.991   1.396  1.00  0.00     0.037 C 
HETATM   40  C22 UNL     1       3.906  25.492   3.206  1.00  0.00     0.037 C 
HETATM   41  C23 UNL     1       3.899  23.017   3.539  1.00  0.00     0.037 C 
ENDBRANCH  36  38
ENDBRANCH  33  34
BRANCH  33  42
HETATM   42  C24 UNL     1       9.218  23.820   2.757  1.00  0.00    -0.022 C 
HETATM   43  C25 UNL     1      10.021  23.241   3.927  1.00  0.00     0.017 C 
HETATM   44  C26 UNL     1       8.413  22.704   2.165  1.00  0.00     0.017 C 
HETATM   45  C27 UNL     1      10.245  24.274   1.750  1.00  0.00     0.017 C 
ENDBRANCH  33  42
ENDBRANCH  30  33
ENDBRANCH  26  27
BRANCH  26  46
HETATM   46  C28 UNL     1       7.630  27.351   8.380  1.00  0.00     0.281 C 
HETATM   47  O4  UNL     1       7.727  28.221   9.289  1.00  0.00    -0.263 OA
BRANCH  46  48
HETATM   48  O5  UNL     1       6.355  27.085   7.936  1.00  0.00    -0.325 OA
HETATM   49  C29 UNL     1       5.579  28.090   7.285  1.00  0.00     0.213 C 
ENDBRANCH  46  48
ENDBRANCH  26  46
ENDBRANCH   1  26
TORSDOF 17
ENDMDL
