MODEL 1
REMARK VINA RESULT: -9.837189621      0.000      0.000
REMARK  17 active torsions:
REMARK  status: ('A' for Active; 'I' for Inactive)
REMARK    1  A    between atoms: C2_2  and  C3_3 
REMARK    2  A    between atoms: C3_3  and  C4_4 
REMARK       I    between atoms: N1_5  and  C5_7 
REMARK       I    between atoms: C5_7  and  N2_9 
REMARK    3  A    between atoms: N2_9  and  C6_10 
REMARK    4  A    between atoms: C6_10  and  C7_11 
REMARK    5  A    between atoms: C6_10  and  C14_18 
REMARK    6  A    between atoms: C7_11  and  C8_12 
REMARK       I    between atoms: C14_18  and  N3_20 
REMARK    7  A    between atoms: N3_20  and  C15_22 
REMARK    8  A    between atoms: C15_22  and  O3_23 
REMARK    9  A    between atoms: C15_22  and  C16_25 
REMARK   10  A    between atoms: C16_25  and  C17_26 
REMARK   11  A    between atoms: C16_25  and  C29_48 
REMARK   12  A    between atoms: C17_26  and  N4_27 
REMARK   13  A    between atoms: C21_31  and  N5_32 
REMARK   14  A    between atoms: C21_31  and  C25_42 
REMARK       I    between atoms: N5_32  and  C22_34 
REMARK       I    between atoms: C22_34  and  N6_36 
REMARK   15  A    between atoms: N6_36  and  C23_38 
REMARK   16  A    between atoms: C23_38  and  O5_40 
REMARK   17  A    between atoms: C25_42  and  O7_44 
ROOT
HETATM    1  C16 UNL     1      14.049  23.120   5.980  1.00  0.00     0.096 C 
ENDROOT
BRANCH   1   2
HETATM    2  C15 UNL     1      13.532  24.423   5.542  1.00  0.00     0.124 C 
BRANCH   2   3
HETATM    3  N3  UNL     1      12.510  25.184   6.118  1.00  0.00    -0.308 N 
HETATM    4  C14 UNL     1      11.190  25.283   5.518  1.00  0.00     0.259 C 
HETATM    5  O2  UNL     1      11.020  24.559   4.478  1.00  0.00    -0.270 OA
ATOM      6  H3  UNL     1      12.697  25.685   6.987  1.00  0.00     0.170 HD
BRANCH   4   7
HETATM    7  C6  UNL     1      10.111  26.140   6.038  1.00  0.00     0.261 C 
BRANCH   7   8
HETATM    8  N2  UNL     1       9.169  26.382   5.057  1.00  0.00    -0.381 NA
HETATM    9  C5  UNL     1       8.256  26.617   4.106  1.00  0.00     0.393 C 
HETATM   10  N1  UNL     1       7.059  25.762   4.071  1.00  0.00    -0.311 N 
HETATM   11  O1  UNL     1       8.216  27.484   3.165  1.00  0.00    -0.230 OA
HETATM   12  C4  UNL     1       7.166  24.569   3.607  1.00  0.00     0.066 C 
ATOM     13  H1  UNL     1       6.162  26.110   4.410  1.00  0.00     0.170 HD
BRANCH  12  14
HETATM   14  C3  UNL     1       8.393  23.954   3.091  1.00  0.00     0.044 C 
BRANCH  14  15
HETATM   15  C2  UNL     1       8.247  22.535   2.624  1.00  0.00     0.001 C 
HETATM   16  C1  UNL     1       9.540  21.876   2.254  1.00  0.00     0.005 C 
ENDBRANCH  14  15
ENDBRANCH  12  14
ENDBRANCH   7   8
BRANCH   7  17
HETATM   17  C7  UNL     1       9.631  25.745   7.431  1.00  0.00     0.054 C 
BRANCH  17  18
HETATM   18  C8  UNL     1       9.678  26.928   8.388  1.00  0.00    -0.011 C 
HETATM   19  C9  UNL     1      10.358  26.665   9.679  1.00  0.00     0.005 C 
HETATM   20  C10 UNL     1      10.385  27.992  10.467  1.00  0.00     0.000 C 
HETATM   21  C11 UNL     1       8.985  28.323  10.858  1.00  0.00     0.000 C 
HETATM   22  C12 UNL     1       8.048  28.388   9.669  1.00  0.00     0.000 C 
HETATM   23  C13 UNL     1       8.222  27.286   8.683  1.00  0.00     0.005 C 
ENDBRANCH  17  18
ENDBRANCH   7  17
ENDBRANCH   4   7
ENDBRANCH   2   3
BRANCH   2  24
HETATM   24  O3  UNL     1      14.069  24.968   4.480  1.00  0.00    -0.349 OA
ATOM     25  H3  UNL     1      14.349  24.342   3.823  1.00  0.00     0.219 HD
ENDBRANCH   2  24
ENDBRANCH   1   2
BRANCH   1  26
HETATM   26  C17 UNL     1      13.994  23.175   7.513  1.00  0.00     0.285 C 
BRANCH  26  27
HETATM   27  N4  UNL     1      15.216  23.115   8.196  1.00  0.00     0.089 N 
HETATM   28  C18 UNL     1      16.215  22.557   7.291  1.00  0.00     0.272 C 
HETATM   29  C19 UNL     1      17.494  22.545   8.097  1.00  0.00     0.033 C 
HETATM   30  C20 UNL     1      17.860  21.211   8.611  1.00  0.00     0.043 C 
HETATM   31  C21 UNL     1      16.769  20.213   8.805  1.00  0.00     0.124 C 
HETATM   32  C27 UNL     1      15.391  20.771   8.945  1.00  0.00     0.072 C 
HETATM   33  C28 UNL     1      15.226  22.174   9.337  1.00  0.00     0.275 C 
BRANCH  31  34
HETATM   34  N5  UNL     1      16.737  19.279   7.685  1.00  0.00    -0.324 N 
HETATM   35  C22 UNL     1      17.787  19.074   6.766  1.00  0.00     0.319 C 
HETATM   36  O4  UNL     1      18.909  19.679   6.804  1.00  0.00    -0.247 OA
HETATM   37  N6  UNL     1      17.646  18.147   5.702  1.00  0.00    -0.317 N 
ATOM     38  H6  UNL     1      16.771  17.628   5.626  1.00  0.00     0.166 HD
ATOM     39  H5  UNL     1      15.888  18.729   7.556  1.00  0.00     0.165 HD
BRANCH  37  40
HETATM   40  C23 UNL     1      18.680  17.897   4.718  1.00  0.00     0.217 C 
HETATM   41  C24 UNL     1      18.093  17.548   3.350  1.00  0.00     0.063 C 
BRANCH  40  42
HETATM   42  O5  UNL     1      19.508  16.879   5.208  1.00  0.00    -0.377 OA
ATOM     43  H5  UNL     1      20.080  17.256   5.866  1.00  0.00     0.212 HD
ENDBRANCH  40  42
ENDBRANCH  37  40
ENDBRANCH  31  34
BRANCH  31  44
HETATM   44  C25 UNL     1      17.079  19.414  10.018  1.00  0.00     0.287 C 
HETATM   45  O6  UNL     1      18.084  19.472  10.719  1.00  0.00    -0.262 OA
BRANCH  44  46
HETATM   46  O7  UNL     1      16.095  18.481  10.401  1.00  0.00    -0.325 OA
HETATM   47  C26 UNL     1      16.479  17.185  10.810  1.00  0.00     0.213 C 
ENDBRANCH  44  46
ENDBRANCH  31  44
ENDBRANCH  26  27
ENDBRANCH   1  26
BRANCH   1  48
HETATM   48  C29 UNL     1      13.276  21.967   5.459  1.00  0.00    -0.039 C 
HETATM   49  C30 UNL     1      12.020  21.660   6.305  1.00  0.00     0.015 C 
HETATM   50  C31 UNL     1      12.888  22.115   4.008  1.00  0.00     0.015 C 
HETATM   51  C32 UNL     1      14.083  20.689   5.557  1.00  0.00     0.015 C 
ENDBRANCH   1  48
TORSDOF 17
ENDMDL
MODEL 2
REMARK VINA RESULT: -9.818846993      2.289     10.712
REMARK  17 active torsions:
REMARK  status: ('A' for Active; 'I' for Inactive)
REMARK    1  A    between atoms: C2_2  and  C3_3 
REMARK    2  A    between atoms: C3_3  and  C4_4 
REMARK       I    between atoms: N1_5  and  C5_7 
REMARK       I    between atoms: C5_7  and  N2_9 
REMARK    3  A    between atoms: N2_9  and  C6_10 
REMARK    4  A    between atoms: C6_10  and  C7_11 
REMARK    5  A    between atoms: C6_10  and  C14_18 
REMARK    6  A    between atoms: C7_11  and  C8_12 
REMARK       I    between atoms: C14_18  and  N3_20 
REMARK    7  A    between atoms: N3_20  and  C15_22 
REMARK    8  A    between atoms: C15_22  and  O3_23 
REMARK    9  A    between atoms: C15_22  and  C16_25 
REMARK   10  A    between atoms: C16_25  and  C17_26 
REMARK   11  A    between atoms: C16_25  and  C29_48 
REMARK   12  A    between atoms: C17_26  and  N4_27 
REMARK   13  A    between atoms: C21_31  and  N5_32 
REMARK   14  A    between atoms: C21_31  and  C25_42 
REMARK       I    between atoms: N5_32  and  C22_34 
REMARK       I    between atoms: C22_34  and  N6_36 
REMARK   15  A    between atoms: N6_36  and  C23_38 
REMARK   16  A    between atoms: C23_38  and  O5_40 
REMARK   17  A    between atoms: C25_42  and  O7_44 
ROOT
HETATM    1  C16 UNL     1      12.729  23.706   5.160  1.00  0.00     0.096 C 
ENDROOT
BRANCH   1   2
HETATM    2  C15 UNL     1      14.170  23.421   5.145  1.00  0.00     0.124 C 
BRANCH   2   3
HETATM    3  N3  UNL     1      14.819  22.239   5.513  1.00  0.00    -0.308 N 
HETATM    4  C14 UNL     1      15.386  21.332   4.530  1.00  0.00     0.259 C 
HETATM    5  O2  UNL     1      15.315  21.741   3.321  1.00  0.00    -0.270 OA
ATOM      6  H3  UNL     1      14.897  22.006   6.504  1.00  0.00     0.170 HD
BRANCH   4   7
HETATM    7  C6  UNL     1      15.998  20.034   4.862  1.00  0.00     0.261 C 
BRANCH   7   8
HETATM    8  N2  UNL     1      16.694  20.117   6.052  1.00  0.00    -0.381 NA
HETATM    9  C5  UNL     1      17.370  20.197   7.206  1.00  0.00     0.393 C 
HETATM   10  N1  UNL     1      16.814  19.507   8.381  1.00  0.00    -0.311 N 
HETATM   11  O1  UNL     1      18.462  20.790   7.510  1.00  0.00    -0.230 OA
HETATM   12  C4  UNL     1      15.810  20.032   8.987  1.00  0.00     0.066 C 
ATOM     13  H1  UNL     1      17.218  18.629   8.707  1.00  0.00     0.170 HD
BRANCH  12  14
HETATM   14  C3  UNL     1      15.142  21.284   8.619  1.00  0.00     0.044 C 
BRANCH  14  15
HETATM   15  C2  UNL     1      15.617  22.501   9.360  1.00  0.00     0.001 C 
HETATM   16  C1  UNL     1      16.452  23.432   8.537  1.00  0.00     0.005 C 
ENDBRANCH  14  15
ENDBRANCH  12  14
ENDBRANCH   7   8
BRANCH   7  17
HETATM   17  C7  UNL     1      15.072  18.843   4.638  1.00  0.00     0.054 C 
BRANCH  17  18
HETATM   18  C8  UNL     1      15.589  17.941   3.525  1.00  0.00    -0.011 C 
HETATM   19  C9  UNL     1      17.064  17.902   3.384  1.00  0.00     0.005 C 
HETATM   20  C10 UNL     1      17.396  16.877   2.279  1.00  0.00     0.000 C 
HETATM   21  C11 UNL     1      16.923  17.431   0.979  1.00  0.00     0.000 C 
HETATM   22  C12 UNL     1      15.450  17.788   0.999  1.00  0.00     0.000 C 
HETATM   23  C13 UNL     1      15.002  18.497   2.229  1.00  0.00     0.005 C 
ENDBRANCH  17  18
ENDBRANCH   7  17
ENDBRANCH   4   7
ENDBRANCH   2   3
BRANCH   2  24
HETATM   24  O3  UNL     1      14.976  24.371   4.747  1.00  0.00    -0.349 OA
ATOM     25  H3  UNL     1      14.534  25.125   4.375  1.00  0.00     0.219 HD
ENDBRANCH   2  24
ENDBRANCH   1   2
BRANCH   1  26
HETATM   26  C17 UNL     1      12.094  22.539   4.392  1.00  0.00     0.285 C 
BRANCH  26  27
HETATM   27  N4  UNL     1      11.557  22.824   3.129  1.00  0.00     0.089 N 
HETATM   28  C18 UNL     1      11.720  24.253   2.879  1.00  0.00     0.272 C 
HETATM   29  C19 UNL     1      11.136  24.468   1.501  1.00  0.00     0.033 C 
HETATM   30  C20 UNL     1       9.791  25.075   1.515  1.00  0.00     0.043 C 
HETATM   31  C21 UNL     1       8.952  24.888   2.732  1.00  0.00     0.124 C 
HETATM   32  C27 UNL     1       9.311  23.728   3.602  1.00  0.00     0.072 C 
HETATM   33  C28 UNL     1      10.095  22.627   3.034  1.00  0.00     0.275 C 
BRANCH  31  34
HETATM   34  N5  UNL     1       9.008  26.081   3.570  1.00  0.00    -0.324 N 
HETATM   35  C22 UNL     1       8.461  26.192   4.865  1.00  0.00     0.319 C 
HETATM   36  O4  UNL     1       7.851  25.254   5.476  1.00  0.00    -0.247 OA
HETATM   37  N6  UNL     1       8.561  27.408   5.590  1.00  0.00    -0.317 N 
ATOM     38  H6  UNL     1       9.045  28.192   5.153  1.00  0.00     0.166 HD
ATOM     39  H5  UNL     1       9.481  26.900   3.189  1.00  0.00     0.165 HD
BRANCH  37  40
HETATM   40  C23 UNL     1       8.013  27.593   6.917  1.00  0.00     0.217 C 
HETATM   41  C24 UNL     1       6.548  28.030   6.873  1.00  0.00     0.063 C 
BRANCH  40  42
HETATM   42  O5  UNL     1       8.816  28.521   7.593  1.00  0.00    -0.377 OA
ATOM     43  H5  UNL     1       8.261  29.012   8.188  1.00  0.00     0.212 HD
ENDBRANCH  40  42
ENDBRANCH  37  40
ENDBRANCH  31  34
BRANCH  31  44
HETATM   44  C25 UNL     1       7.537  24.735   2.304  1.00  0.00     0.287 C 
HETATM   45  O6  UNL     1       6.894  25.471   1.563  1.00  0.00    -0.262 OA
BRANCH  44  46
HETATM   46  O7  UNL     1       6.865  23.607   2.815  1.00  0.00    -0.325 OA
HETATM   47  C26 UNL     1       5.478  23.676   3.072  1.00  0.00     0.213 C 
ENDBRANCH  44  46
ENDBRANCH  31  44
ENDBRANCH  26  27
ENDBRANCH   1  26
BRANCH   1  48
HETATM   48  C29 UNL     1      12.158  23.822   6.523  1.00  0.00    -0.039 C 
HETATM   49  C30 UNL     1      11.024  24.868   6.607  1.00  0.00     0.015 C 
HETATM   50  C31 UNL     1      11.678  22.505   7.082  1.00  0.00     0.015 C 
HETATM   51  C32 UNL     1      13.191  24.349   7.498  1.00  0.00     0.015 C 
ENDBRANCH   1  48
TORSDOF 17
ENDMDL
MODEL 3
REMARK VINA RESULT: -9.794748661      2.632      4.912
REMARK  17 active torsions:
REMARK  status: ('A' for Active; 'I' for Inactive)
REMARK    1  A    between atoms: C2_2  and  C3_3 
REMARK    2  A    between atoms: C3_3  and  C4_4 
REMARK       I    between atoms: N1_5  and  C5_7 
REMARK       I    between atoms: C5_7  and  N2_9 
REMARK    3  A    between atoms: N2_9  and  C6_10 
REMARK    4  A    between atoms: C6_10  and  C7_11 
REMARK    5  A    between atoms: C6_10  and  C14_18 
REMARK    6  A    between atoms: C7_11  and  C8_12 
REMARK       I    between atoms: C14_18  and  N3_20 
REMARK    7  A    between atoms: N3_20  and  C15_22 
REMARK    8  A    between atoms: C15_22  and  O3_23 
REMARK    9  A    between atoms: C15_22  and  C16_25 
REMARK   10  A    between atoms: C16_25  and  C17_26 
REMARK   11  A    between atoms: C16_25  and  C29_48 
REMARK   12  A    between atoms: C17_26  and  N4_27 
REMARK   13  A    between atoms: C21_31  and  N5_32 
REMARK   14  A    between atoms: C21_31  and  C25_42 
REMARK       I    between atoms: N5_32  and  C22_34 
REMARK       I    between atoms: C22_34  and  N6_36 
REMARK   15  A    between atoms: N6_36  and  C23_38 
REMARK   16  A    between atoms: C23_38  and  O5_40 
REMARK   17  A    between atoms: C25_42  and  O7_44 
ROOT
HETATM    1  C16 UNL     1       8.933  24.759   3.150  1.00  0.00     0.096 C 
ENDROOT
BRANCH   1   2
HETATM    2  C15 UNL     1       8.258  25.986   3.591  1.00  0.00     0.124 C 
BRANCH   2   3
HETATM    3  N3  UNL     1       7.414  26.158   4.693  1.00  0.00    -0.308 N 
HETATM    4  C14 UNL     1       7.758  27.037   5.798  1.00  0.00     0.259 C 
HETATM    5  O2  UNL     1       8.843  27.693   5.642  1.00  0.00    -0.270 OA
ATOM      6  H3  UNL     1       6.529  25.651   4.721  1.00  0.00     0.170 HD
BRANCH   4   7
HETATM    7  C6  UNL     1       6.946  27.182   7.018  1.00  0.00     0.261 C 
BRANCH   7   8
HETATM    8  N2  UNL     1       5.638  27.490   6.697  1.00  0.00    -0.381 NA
HETATM    9  C5  UNL     1       4.370  27.789   6.385  1.00  0.00     0.393 C 
HETATM   10  N1  UNL     1       3.338  26.774   6.646  1.00  0.00    -0.311 N 
HETATM   11  O1  UNL     1       3.848  28.839   5.874  1.00  0.00    -0.230 OA
HETATM   12  C4  UNL     1       3.245  25.768   5.853  1.00  0.00     0.066 C 
ATOM     13  H1  UNL     1       2.707  26.867   7.443  1.00  0.00     0.170 HD
BRANCH  12  14
HETATM   14  C3  UNL     1       4.087  25.521   4.678  1.00  0.00     0.044 C 
BRANCH  14  15
HETATM   15  C2  UNL     1       3.568  24.478   3.730  1.00  0.00     0.001 C 
HETATM   16  C1  UNL     1       3.447  23.112   4.331  1.00  0.00     0.005 C 
ENDBRANCH  14  15
ENDBRANCH  12  14
ENDBRANCH   7   8
BRANCH   7  17
HETATM   17  C7  UNL     1       7.207  26.100   8.061  1.00  0.00     0.054 C 
BRANCH  17  18
HETATM   18  C8  UNL     1       8.194  26.577   9.118  1.00  0.00    -0.011 C 
HETATM   19  C9  UNL     1       8.267  28.048   9.290  1.00  0.00     0.005 C 
HETATM   20  C10 UNL     1       9.242  28.330  10.454  1.00  0.00     0.000 C 
HETATM   21  C11 UNL     1      10.612  27.950  10.009  1.00  0.00     0.000 C 
HETATM   22  C12 UNL     1      10.694  26.512   9.535  1.00  0.00     0.000 C 
HETATM   23  C13 UNL     1       9.567  26.084   8.663  1.00  0.00     0.005 C 
ENDBRANCH  17  18
ENDBRANCH   7  17
ENDBRANCH   4   7
ENDBRANCH   2   3
BRANCH   2  24
HETATM   24  O3  UNL     1       8.445  27.073   2.887  1.00  0.00    -0.349 OA
ATOM     25  H3  UNL     1       8.976  26.945   2.110  1.00  0.00     0.219 HD
ENDBRANCH   2  24
ENDBRANCH   1   2
BRANCH   1  26
HETATM   26  C17 UNL     1       9.510  24.148   4.434  1.00  0.00     0.285 C 
BRANCH  26  27
HETATM   27  N4  UNL     1      10.744  24.644   4.876  1.00  0.00     0.089 N 
HETATM   28  C18 UNL     1      11.770  24.212   3.933  1.00  0.00     0.272 C 
HETATM   29  C19 UNL     1      13.055  24.800   4.472  1.00  0.00     0.033 C 
HETATM   30  C20 UNL     1      13.910  23.819   5.168  1.00  0.00     0.043 C 
HETATM   31  C21 UNL     1      13.257  22.617   5.759  1.00  0.00     0.124 C 
HETATM   32  C27 UNL     1      11.795  22.738   6.037  1.00  0.00     0.072 C 
HETATM   33  C28 UNL     1      11.201  24.072   6.161  1.00  0.00     0.275 C 
BRANCH  31  34
HETATM   34  N5  UNL     1      13.428  21.468   4.877  1.00  0.00    -0.324 N 
HETATM   35  C22 UNL     1      14.667  20.952   4.443  1.00  0.00     0.319 C 
HETATM   36  O4  UNL     1      15.804  21.424   4.778  1.00  0.00    -0.247 OA
HETATM   37  N6  UNL     1      14.720  19.834   3.572  1.00  0.00    -0.317 N 
ATOM     38  H6  UNL     1      13.841  19.410   3.276  1.00  0.00     0.166 HD
ATOM     39  H5  UNL     1      12.585  20.999   4.547  1.00  0.00     0.165 HD
BRANCH  37  40
HETATM   40  C23 UNL     1      15.957  19.262   3.081  1.00  0.00     0.217 C 
HETATM   41  C24 UNL     1      15.724  18.343   1.882  1.00  0.00     0.063 C 
BRANCH  40  42
HETATM   42  O5  UNL     1      16.576  18.590   4.143  1.00  0.00    -0.377 OA
ATOM     43  H5  UNL     1      17.487  18.451   3.912  1.00  0.00     0.212 HD
ENDBRANCH  40  42
ENDBRANCH  37  40
ENDBRANCH  31  34
BRANCH  31  44
HETATM   44  C25 UNL     1      13.953  22.286   7.030  1.00  0.00     0.287 C 
HETATM   45  O6  UNL     1      13.812  21.284   7.724  1.00  0.00    -0.262 OA
BRANCH  44  46
HETATM   46  O7  UNL     1      14.883  23.243   7.481  1.00  0.00    -0.325 OA
HETATM   47  C26 UNL     1      16.059  22.821   8.139  1.00  0.00     0.213 C 
ENDBRANCH  44  46
ENDBRANCH  31  44
ENDBRANCH  26  27
ENDBRANCH   1  26
BRANCH   1  48
HETATM   48  C29 UNL     1       8.036  23.801   2.460  1.00  0.00    -0.039 C 
HETATM   49  C30 UNL     1       7.082  24.492   1.460  1.00  0.00     0.015 C 
HETATM   50  C31 UNL     1       8.778  22.684   1.766  1.00  0.00     0.015 C 
HETATM   51  C32 UNL     1       7.092  23.141   3.443  1.00  0.00     0.015 C 
ENDBRANCH   1  48
TORSDOF 17
ENDMDL
MODEL 4
REMARK VINA RESULT: -9.788639058      2.263     10.871
REMARK  17 active torsions:
REMARK  status: ('A' for Active; 'I' for Inactive)
REMARK    1  A    between atoms: C2_2  and  C3_3 
REMARK    2  A    between atoms: C3_3  and  C4_4 
REMARK       I    between atoms: N1_5  and  C5_7 
REMARK       I    between atoms: C5_7  and  N2_9 
REMARK    3  A    between atoms: N2_9  and  C6_10 
REMARK    4  A    between atoms: C6_10  and  C7_11 
REMARK    5  A    between atoms: C6_10  and  C14_18 
REMARK    6  A    between atoms: C7_11  and  C8_12 
REMARK       I    between atoms: C14_18  and  N3_20 
REMARK    7  A    between atoms: N3_20  and  C15_22 
REMARK    8  A    between atoms: C15_22  and  O3_23 
REMARK    9  A    between atoms: C15_22  and  C16_25 
REMARK   10  A    between atoms: C16_25  and  C17_26 
REMARK   11  A    between atoms: C16_25  and  C29_48 
REMARK   12  A    between atoms: C17_26  and  N4_27 
REMARK   13  A    between atoms: C21_31  and  N5_32 
REMARK   14  A    between atoms: C21_31  and  C25_42 
REMARK       I    between atoms: N5_32  and  C22_34 
REMARK       I    between atoms: C22_34  and  N6_36 
REMARK   15  A    between atoms: N6_36  and  C23_38 
REMARK   16  A    between atoms: C23_38  and  O5_40 
REMARK   17  A    between atoms: C25_42  and  O7_44 
ROOT
HETATM    1  C16 UNL     1      16.696  20.911   8.396  1.00  0.00     0.096 C 
ENDROOT
BRANCH   1   2
HETATM    2  C15 UNL     1      17.892  20.309   7.793  1.00  0.00     0.124 C 
BRANCH   2   3
HETATM    3  N3  UNL     1      18.062  18.996   7.343  1.00  0.00    -0.308 N 
HETATM    4  C14 UNL     1      18.452  18.694   5.976  1.00  0.00     0.259 C 
HETATM    5  O2  UNL     1      18.703  19.719   5.253  1.00  0.00    -0.270 OA
ATOM      6  H3  UNL     1      17.908  18.226   7.995  1.00  0.00     0.170 HD
BRANCH   4   7
HETATM    7  C6  UNL     1      18.557  17.330   5.432  1.00  0.00     0.261 C 
BRANCH   7   8
HETATM    8  N2  UNL     1      19.273  16.518   6.291  1.00  0.00    -0.381 NA
HETATM    9  C5  UNL     1      19.966  15.732   7.123  1.00  0.00     0.393 C 
HETATM   10  N1  UNL     1      19.264  14.603   7.753  1.00  0.00    -0.311 N 
HETATM   11  O1  UNL     1      21.187  15.769   7.505  1.00  0.00    -0.230 OA
HETATM   12  C4  UNL     1      18.459  14.842   8.725  1.00  0.00     0.066 C 
ATOM     13  H1  UNL     1      19.412  13.649   7.423  1.00  0.00     0.170 HD
BRANCH  12  14
HETATM   14  C3  UNL     1      18.161  16.162   9.290  1.00  0.00     0.044 C 
BRANCH  14  15
HETATM   15  C2  UNL     1      17.924  16.182  10.772  1.00  0.00     0.001 C 
HETATM   16  C1  UNL     1      16.554  15.733  11.179  1.00  0.00     0.005 C 
ENDBRANCH  14  15
ENDBRANCH  12  14
ENDBRANCH   7   8
BRANCH   7  17
HETATM   17  C7  UNL     1      17.253  16.802   4.843  1.00  0.00     0.054 C 
BRANCH  17  18
HETATM   18  C8  UNL     1      16.746  17.703   3.724  1.00  0.00    -0.011 C 
HETATM   19  C9  UNL     1      15.271  17.777   3.598  1.00  0.00     0.005 C 
HETATM   20  C10 UNL     1      14.952  18.795   2.483  1.00  0.00     0.000 C 
HETATM   21  C11 UNL     1      15.396  18.212   1.186  1.00  0.00     0.000 C 
HETATM   22  C12 UNL     1      16.860  17.820   1.194  1.00  0.00     0.000 C 
HETATM   23  C13 UNL     1      17.304  17.116   2.429  1.00  0.00     0.005 C 
ENDBRANCH  17  18
ENDBRANCH   7  17
ENDBRANCH   4   7
ENDBRANCH   2   3
BRANCH   2  24
HETATM   24  O3  UNL     1      18.950  21.065   7.649  1.00  0.00    -0.349 OA
ATOM     25  H3  UNL     1      18.757  21.992   7.578  1.00  0.00     0.219 HD
ENDBRANCH   2  24
ENDBRANCH   1   2
BRANCH   1  26
HETATM   26  C17 UNL     1      15.559  20.580   7.420  1.00  0.00     0.285 C 
BRANCH  26  27
HETATM   27  N4  UNL     1      15.449  21.380   6.275  1.00  0.00     0.089 N 
HETATM   28  C18 UNL     1      15.104  22.733   6.698  1.00  0.00     0.272 C 
HETATM   29  C19 UNL     1      15.024  23.526   5.414  1.00  0.00     0.033 C 
HETATM   30  C20 UNL     1      13.643  23.791   4.965  1.00  0.00     0.043 C 
HETATM   31  C21 UNL     1      12.572  22.855   5.410  1.00  0.00     0.124 C 
HETATM   32  C27 UNL     1      13.025  21.497   5.833  1.00  0.00     0.072 C 
HETATM   33  C28 UNL     1      14.331  21.008   5.381  1.00  0.00     0.275 C 
BRANCH  31  34
HETATM   34  N5  UNL     1      11.839  23.428   6.534  1.00  0.00    -0.324 N 
HETATM   35  C22 UNL     1      11.301  24.732   6.575  1.00  0.00     0.319 C 
HETATM   36  O4  UNL     1      11.380  25.576   5.624  1.00  0.00    -0.247 OA
HETATM   37  N6  UNL     1      10.615  25.194   7.728  1.00  0.00    -0.317 N 
ATOM     38  H6  UNL     1      10.515  24.558   8.519  1.00  0.00     0.166 HD
ATOM     39  H5  UNL     1      11.705  22.840   7.356  1.00  0.00     0.165 HD
BRANCH  37  40
HETATM   40  C23 UNL     1      10.049  26.523   7.840  1.00  0.00     0.217 C 
HETATM   41  C24 UNL     1       9.616  26.839   9.272  1.00  0.00     0.063 C 
BRANCH  40  42
HETATM   42  O5  UNL     1       8.981  26.617   6.938  1.00  0.00    -0.377 OA
ATOM     43  H5  UNL     1       9.317  26.443   6.066  1.00  0.00     0.212 HD
ENDBRANCH  40  42
ENDBRANCH  37  40
ENDBRANCH  31  34
BRANCH  31  44
HETATM   44  C25 UNL     1      11.596  22.702   4.299  1.00  0.00     0.287 C 
HETATM   45  O6  UNL     1      10.563  22.041   4.293  1.00  0.00    -0.262 OA
BRANCH  44  46
HETATM   46  O7  UNL     1      11.905  23.405   3.117  1.00  0.00    -0.325 OA
HETATM   47  C26 UNL     1      10.883  24.089   2.423  1.00  0.00     0.213 C 
ENDBRANCH  44  46
ENDBRANCH  31  44
ENDBRANCH  26  27
ENDBRANCH   1  26
BRANCH   1  48
HETATM   48  C29 UNL     1      16.395  20.406   9.757  1.00  0.00    -0.039 C 
HETATM   49  C30 UNL     1      17.665  20.209  10.615  1.00  0.00     0.015 C 
HETATM   50  C31 UNL     1      15.404  21.264  10.506  1.00  0.00     0.015 C 
HETATM   51  C32 UNL     1      15.797  19.016   9.696  1.00  0.00     0.015 C 
ENDBRANCH   1  48
TORSDOF 17
ENDMDL
MODEL 5
REMARK VINA RESULT: -9.734208977      2.327     11.115
REMARK  17 active torsions:
REMARK  status: ('A' for Active; 'I' for Inactive)
REMARK    1  A    between atoms: C2_2  and  C3_3 
REMARK    2  A    between atoms: C3_3  and  C4_4 
REMARK       I    between atoms: N1_5  and  C5_7 
REMARK       I    between atoms: C5_7  and  N2_9 
REMARK    3  A    between atoms: N2_9  and  C6_10 
REMARK    4  A    between atoms: C6_10  and  C7_11 
REMARK    5  A    between atoms: C6_10  and  C14_18 
REMARK    6  A    between atoms: C7_11  and  C8_12 
REMARK       I    between atoms: C14_18  and  N3_20 
REMARK    7  A    between atoms: N3_20  and  C15_22 
REMARK    8  A    between atoms: C15_22  and  O3_23 
REMARK    9  A    between atoms: C15_22  and  C16_25 
REMARK   10  A    between atoms: C16_25  and  C17_26 
REMARK   11  A    between atoms: C16_25  and  C29_48 
REMARK   12  A    between atoms: C17_26  and  N4_27 
REMARK   13  A    between atoms: C21_31  and  N5_32 
REMARK   14  A    between atoms: C21_31  and  C25_42 
REMARK       I    between atoms: N5_32  and  C22_34 
REMARK       I    between atoms: C22_34  and  N6_36 
REMARK   15  A    between atoms: N6_36  and  C23_38 
REMARK   16  A    between atoms: C23_38  and  O5_40 
REMARK   17  A    between atoms: C25_42  and  O7_44 
ROOT
HETATM    1  C16 UNL     1      12.729  23.561   4.702  1.00  0.00     0.096 C 
ENDROOT
BRANCH   1   2
HETATM    2  C15 UNL     1      14.162  23.263   4.572  1.00  0.00     0.124 C 
BRANCH   2   3
HETATM    3  N3  UNL     1      14.765  22.036   4.279  1.00  0.00    -0.308 N 
HETATM    4  C14 UNL     1      15.429  21.240   5.297  1.00  0.00     0.259 C 
HETATM    5  O2  UNL     1      15.345  21.711   6.483  1.00  0.00    -0.270 OA
ATOM      6  H3  UNL     1      14.737  21.689   3.320  1.00  0.00     0.170 HD
BRANCH   4   7
HETATM    7  C6  UNL     1      16.154  19.989   5.022  1.00  0.00     0.261 C 
BRANCH   7   8
HETATM    8  N2  UNL     1      17.253  19.872   5.850  1.00  0.00    -0.381 NA
HETATM    9  C5  UNL     1      18.319  19.759   6.654  1.00  0.00     0.393 C 
HETATM   10  N1  UNL     1      18.290  18.722   7.696  1.00  0.00    -0.311 N 
HETATM   11  O1  UNL     1      19.418  20.412   6.701  1.00  0.00    -0.230 OA
HETATM   12  C4  UNL     1      17.579  18.921   8.747  1.00  0.00     0.066 C 
ATOM     13  H1  UNL     1      18.825  17.860   7.586  1.00  0.00     0.170 HD
BRANCH  12  14
HETATM   14  C3  UNL     1      16.770  20.113   9.023  1.00  0.00     0.044 C 
BRANCH  14  15
HETATM   15  C2  UNL     1      15.694  19.927  10.053  1.00  0.00     0.001 C 
HETATM   16  C1  UNL     1      14.951  21.181  10.395  1.00  0.00     0.005 C 
ENDBRANCH  14  15
ENDBRANCH  12  14
ENDBRANCH   7   8
BRANCH   7  17
HETATM   17  C7  UNL     1      15.243  18.779   4.841  1.00  0.00     0.054 C 
BRANCH  17  18
HETATM   18  C8  UNL     1      15.522  18.067   3.524  1.00  0.00    -0.011 C 
HETATM   19  C9  UNL     1      16.955  17.822   3.235  1.00  0.00     0.005 C 
HETATM   20  C10 UNL     1      17.031  17.020   1.918  1.00  0.00     0.000 C 
HETATM   21  C11 UNL     1      16.586  17.911   0.810  1.00  0.00     0.000 C 
HETATM   22  C12 UNL     1      15.204  18.487   1.044  1.00  0.00     0.000 C 
HETATM   23  C13 UNL     1      14.965  18.976   2.430  1.00  0.00     0.005 C 
ENDBRANCH  17  18
ENDBRANCH   7  17
ENDBRANCH   4   7
ENDBRANCH   2   3
BRANCH   2  24
HETATM   24  O3  UNL     1      15.008  24.245   4.751  1.00  0.00    -0.349 OA
ATOM     25  H3  UNL     1      15.211  24.731   3.961  1.00  0.00     0.219 HD
ENDBRANCH   2  24
ENDBRANCH   1   2
BRANCH   1  26
HETATM   26  C17 UNL     1      12.048  22.656   3.666  1.00  0.00     0.285 C 
BRANCH  26  27
HETATM   27  N4  UNL     1      11.267  23.285   2.688  1.00  0.00     0.089 N 
HETATM   28  C18 UNL     1      10.904  24.610   3.179  1.00  0.00     0.272 C 
HETATM   29  C19 UNL     1      10.084  25.219   2.064  1.00  0.00     0.033 C 
HETATM   30  C20 UNL     1       8.631  25.212   2.324  1.00  0.00     0.043 C 
HETATM   31  C21 UNL     1       8.093  24.183   3.259  1.00  0.00     0.124 C 
HETATM   32  C27 UNL     1       8.944  22.972   3.458  1.00  0.00     0.072 C 
HETATM   33  C28 UNL     1       9.957  22.639   2.452  1.00  0.00     0.275 C 
BRANCH  31  34
HETATM   34  N5  UNL     1       7.872  24.768   4.577  1.00  0.00    -0.324 N 
HETATM   35  C22 UNL     1       7.592  26.128   4.827  1.00  0.00     0.319 C 
HETATM   36  O4  UNL     1       7.488  27.022   3.924  1.00  0.00    -0.247 OA
HETATM   37  N6  UNL     1       7.406  26.596   6.153  1.00  0.00    -0.317 N 
ATOM     38  H6  UNL     1       7.472  25.923   6.917  1.00  0.00     0.166 HD
ATOM     39  H5  UNL     1       7.923  24.145   5.382  1.00  0.00     0.165 HD
BRANCH  37  40
HETATM   40  C23 UNL     1       7.128  27.979   6.480  1.00  0.00     0.217 C 
HETATM   41  C24 UNL     1       7.470  28.302   7.934  1.00  0.00     0.063 C 
BRANCH  40  42
HETATM   42  O5  UNL     1       5.780  28.230   6.192  1.00  0.00    -0.377 OA
ATOM     43  H5  UNL     1       5.737  28.689   5.361  1.00  0.00     0.212 HD
ENDBRANCH  40  42
ENDBRANCH  37  40
ENDBRANCH  31  34
BRANCH  31  44
HETATM   44  C25 UNL     1       6.764  23.748   2.758  1.00  0.00     0.287 C 
HETATM   45  O6  UNL     1       6.004  22.925   3.260  1.00  0.00    -0.262 OA
BRANCH  44  46
HETATM   46  O7  UNL     1       6.334  24.358   1.562  1.00  0.00    -0.325 OA
HETATM   47  C26 UNL     1       4.957  24.589   1.350  1.00  0.00     0.213 C 
ENDBRANCH  44  46
ENDBRANCH  31  44
ENDBRANCH  26  27
ENDBRANCH   1  26
BRANCH   1  48
HETATM   48  C29 UNL     1      12.190  23.315   6.061  1.00  0.00    -0.039 C 
HETATM   49  C30 UNL     1      10.921  24.145   6.358  1.00  0.00     0.015 C 
HETATM   50  C31 UNL     1      11.921  21.857   6.341  1.00  0.00     0.015 C 
HETATM   51  C32 UNL     1      13.167  23.781   7.121  1.00  0.00     0.015 C 
ENDBRANCH   1  48
TORSDOF 17
ENDMDL
