MODEL 1
REMARK VINA RESULT: -8.670703053      0.000      0.000
REMARK  18 active torsions:
REMARK  status: ('A' for Active; 'I' for Inactive)
REMARK    1  A    between atoms: C2_2  and  C3_3 
REMARK    2  A    between atoms: C3_3  and  C4_4 
REMARK    3  A    between atoms: C4_4  and  C5_5 
REMARK    4  A    between atoms: C5_5  and  O1_6 
REMARK    5  A    between atoms: C5_5  and  N1_8 
REMARK    6  A    between atoms: N1_8  and  C6_9 
REMARK    7  A    between atoms: C6_9  and  C8_11 
REMARK       I    between atoms: C8_11  and  N2_13 
REMARK    8  A    between atoms: N2_13  and  C9_15 
REMARK    9  A    between atoms: C9_15  and  N3_16 
REMARK   10  A    between atoms: C9_15  and  C19_30 
REMARK       I    between atoms: N3_16  and  C10_18 
REMARK       I    between atoms: C10_18  and  N4_20 
REMARK   11  A    between atoms: N4_20  and  C11_22 
REMARK   12  A    between atoms: C11_22  and  C13_24 
REMARK   13  A    between atoms: C19_30  and  O4_31 
REMARK   14  A    between atoms: C19_30  and  C20_33 
REMARK   15  A    between atoms: C20_33  and  O5_34 
REMARK   16  A    between atoms: C20_33  and  C21_36 
REMARK   17  A    between atoms: C21_36  and  C22_37 
REMARK   18  A    between atoms: C22_37  and  C23_38 
ROOT
HETATM    1  C9  UNL     1      18.161  19.764   8.860  1.00  0.00     0.220 C 
ENDROOT
BRANCH   1   2
HETATM    2  N2  UNL     1      17.654  21.053   8.492  1.00  0.00    -0.331 N 
HETATM    3  C8  UNL     1      16.402  21.243   7.902  1.00  0.00     0.279 C 
HETATM    4  O2  UNL     1      15.644  20.295   7.657  1.00  0.00    -0.265 OA
ATOM      5  H2  UNL     1      18.237  21.871   8.669  1.00  0.00     0.165 HD
BRANCH   3   6
HETATM    6  C6  UNL     1      15.954  22.615   7.555  1.00  0.00     0.150 C 
HETATM    7  C7  UNL     1      16.254  23.713   8.558  1.00  0.00     0.091 C 
BRANCH   6   8
HETATM    8  N1  UNL     1      15.397  22.866   6.554  1.00  0.00    -0.384 NA
BRANCH   8   9
HETATM    9  C5  UNL     1      14.808  23.148   5.435  1.00  0.00     0.190 C 
BRANCH   9  10
HETATM   10  C4  UNL     1      13.829  22.240   4.721  1.00  0.00     0.100 C 
BRANCH  10  11
HETATM   11  C3  UNL     1      12.976  21.572   5.764  1.00  0.00     0.009 C 
BRANCH  11  12
HETATM   12  C2  UNL     1      11.699  22.366   5.917  1.00  0.00    -0.004 C 
HETATM   13  C1  UNL     1      11.168  22.671   4.541  1.00  0.00     0.005 C 
ENDBRANCH  11  12
ENDBRANCH  10  11
ENDBRANCH   9  10
BRANCH   9  14
HETATM   14  O1  UNL     1      14.998  24.267   4.797  1.00  0.00    -0.339 OA
ATOM     15  H1  UNL     1      15.729  24.215   4.192  1.00  0.00     0.220 HD
ENDBRANCH   9  14
ENDBRANCH   8   9
ENDBRANCH   6   8
ENDBRANCH   3   6
ENDBRANCH   1   2
BRANCH   1  16
HETATM   16  N3  UNL     1      17.610  18.833   7.874  1.00  0.00    -0.319 N 
HETATM   17  C10 UNL     1      18.133  18.755   6.529  1.00  0.00     0.321 C 
HETATM   18  O3  UNL     1      19.093  19.529   6.325  1.00  0.00    -0.247 OA
HETATM   19  N4  UNL     1      17.614  17.906   5.573  1.00  0.00    -0.316 N 
ATOM     20  H4  UNL     1      16.811  17.400   5.948  1.00  0.00     0.170 HD
ATOM     21  H3  UNL     1      16.838  18.224   8.142  1.00  0.00     0.166 HD
BRANCH  19  22
HETATM   22  C11 UNL     1      17.851  17.527   4.251  1.00  0.00    -0.009 C 
HETATM   23  C12 UNL     1      19.048  16.665   4.045  1.00  0.00     0.064 C 
BRANCH  22  24
HETATM   24  C13 UNL     1      16.683  17.202   3.339  1.00  0.00     0.031 C 
HETATM   25  C14 UNL     1      15.415  17.775   3.839  1.00  0.00     0.010 C 
HETATM   26  C15 UNL     1      14.839  18.919   3.018  1.00  0.00     0.001 C 
HETATM   27  C16 UNL     1      14.953  18.607   1.559  1.00  0.00     0.000 C 
HETATM   28  C17 UNL     1      16.448  18.604   1.248  1.00  0.00     0.001 C 
HETATM   29  C18 UNL     1      16.989  17.345   1.900  1.00  0.00     0.010 C 
ENDBRANCH  22  24
ENDBRANCH  19  22
ENDBRANCH   1  16
BRANCH   1  30
HETATM   30  C19 UNL     1      17.748  19.265  10.225  1.00  0.00     0.192 C 
BRANCH  30  31
HETATM   31  O4  UNL     1      16.329  19.356  10.104  1.00  0.00    -0.389 OA
ATOM     32  H4  UNL     1      16.131  18.473   9.815  1.00  0.00     0.210 HD
ENDBRANCH  30  31
BRANCH  30  33
HETATM   33  C20 UNL     1      18.218  17.909  10.471  1.00  0.00     0.189 C 
BRANCH  33  34
HETATM   34  O5  UNL     1      19.399  17.751   9.744  1.00  0.00    -0.390 OA
ATOM     35  H5  UNL     1      19.398  16.863   9.406  1.00  0.00     0.210 HD
ENDBRANCH  33  34
BRANCH  33  36
HETATM   36  C21 UNL     1      18.498  17.387  11.864  1.00  0.00     0.138 A 
HETATM   37  O8  UNL     1      20.010  17.298  11.744  1.00  0.00    -0.359 OA
HETATM   38  C32 UNL     1      19.414  17.888  12.851  1.00  0.00     0.090 A 
HETATM   39  C33 UNL     1      19.627  19.380  13.105  1.00  0.00     0.049 C 
HETATM   40  C34 UNL     1      20.010  17.143  14.040  1.00  0.00     0.049 C 
BRANCH  36  41
HETATM   41  C22 UNL     1      17.796  16.037  12.006  1.00  0.00     0.090 C 
HETATM   42  C29 UNL     1      16.806  15.843  10.860  1.00  0.00     0.050 C 
HETATM   43  C30 UNL     1      15.442  15.660  11.407  1.00  0.00     0.180 C 
HETATM   44  O6  UNL     1      15.561  15.845  12.777  1.00  0.00    -0.321 OA
HETATM   45  C31 UNL     1      16.926  15.897  13.161  1.00  0.00     0.271 C 
HETATM   46  O7  UNL     1      17.132  15.813  14.419  1.00  0.00    -0.264 OA
BRANCH  41  47
HETATM   47  C23 UNL     1      18.737  14.851  12.015  1.00  0.00     0.007 C 
HETATM   48  C24 UNL     1      18.856  14.251  10.585  1.00  0.00     0.006 C 
HETATM   49  C25 UNL     1      20.127  13.437  10.537  1.00  0.00     0.000 C 
HETATM   50  C26 UNL     1      20.448  12.929  11.900  1.00  0.00     0.000 C 
HETATM   51  C27 UNL     1      19.264  12.559  12.747  1.00  0.00     0.000 C 
HETATM   52  C28 UNL     1      18.219  13.679  12.816  1.00  0.00     0.006 C 
ENDBRANCH  41  47
ENDBRANCH  36  41
ENDBRANCH  33  36
ENDBRANCH  30  33
ENDBRANCH   1  30
TORSDOF 18
ENDMDL
MODEL 2
REMARK VINA RESULT: -8.397412907      4.175      8.950
REMARK  18 active torsions:
REMARK  status: ('A' for Active; 'I' for Inactive)
REMARK    1  A    between atoms: C2_2  and  C3_3 
REMARK    2  A    between atoms: C3_3  and  C4_4 
REMARK    3  A    between atoms: C4_4  and  C5_5 
REMARK    4  A    between atoms: C5_5  and  O1_6 
REMARK    5  A    between atoms: C5_5  and  N1_8 
REMARK    6  A    between atoms: N1_8  and  C6_9 
REMARK    7  A    between atoms: C6_9  and  C8_11 
REMARK       I    between atoms: C8_11  and  N2_13 
REMARK    8  A    between atoms: N2_13  and  C9_15 
REMARK    9  A    between atoms: C9_15  and  N3_16 
REMARK   10  A    between atoms: C9_15  and  C19_30 
REMARK       I    between atoms: N3_16  and  C10_18 
REMARK       I    between atoms: C10_18  and  N4_20 
REMARK   11  A    between atoms: N4_20  and  C11_22 
REMARK   12  A    between atoms: C11_22  and  C13_24 
REMARK   13  A    between atoms: C19_30  and  O4_31 
REMARK   14  A    between atoms: C19_30  and  C20_33 
REMARK   15  A    between atoms: C20_33  and  O5_34 
REMARK   16  A    between atoms: C20_33  and  C21_36 
REMARK   17  A    between atoms: C21_36  and  C22_37 
REMARK   18  A    between atoms: C22_37  and  C23_38 
ROOT
HETATM    1  C9  UNL     1      12.842  23.153   5.355  1.00  0.00     0.220 C 
ENDROOT
BRANCH   1   2
HETATM    2  N2  UNL     1      12.415  23.911   4.216  1.00  0.00    -0.331 N 
HETATM    3  C8  UNL     1      11.359  23.520   3.388  1.00  0.00     0.279 C 
HETATM    4  O2  UNL     1      10.719  22.480   3.591  1.00  0.00    -0.265 OA
ATOM      5  H2  UNL     1      12.907  24.777   3.999  1.00  0.00     0.165 HD
BRANCH   3   6
HETATM    6  C6  UNL     1      10.981  24.368   2.230  1.00  0.00     0.150 C 
HETATM    7  C7  UNL     1      11.986  24.481   1.100  1.00  0.00     0.091 C 
BRANCH   6   8
HETATM    8  N1  UNL     1       9.954  24.932   2.166  1.00  0.00    -0.384 NA
BRANCH   8   9
HETATM    9  C5  UNL     1       8.832  25.577   2.108  1.00  0.00     0.190 C 
BRANCH   9  10
HETATM   10  C4  UNL     1       7.498  24.958   1.749  1.00  0.00     0.100 C 
BRANCH  10  11
HETATM   11  C3  UNL     1       7.286  23.768   2.643  1.00  0.00     0.009 C 
BRANCH  11  12
HETATM   12  C2  UNL     1       5.805  23.627   2.909  1.00  0.00    -0.004 C 
HETATM   13  C1  UNL     1       5.062  24.341   1.811  1.00  0.00     0.005 C 
ENDBRANCH  11  12
ENDBRANCH  10  11
ENDBRANCH   9  10
BRANCH   9  14
HETATM   14  O1  UNL     1       8.733  26.850   2.361  1.00  0.00    -0.339 OA
ATOM     15  H1  UNL     1       9.458  27.170   2.886  1.00  0.00     0.220 HD
ENDBRANCH   9  14
ENDBRANCH   8   9
ENDBRANCH   6   8
ENDBRANCH   3   6
ENDBRANCH   1   2
BRANCH   1  16
HETATM   16  N3  UNL     1      12.756  24.074   6.489  1.00  0.00    -0.319 N 
HETATM   17  C10 UNL     1      11.485  24.542   6.992  1.00  0.00     0.321 C 
HETATM   18  O3  UNL     1      10.504  24.064   6.383  1.00  0.00    -0.247 OA
HETATM   19  N4  UNL     1      11.378  25.432   8.042  1.00  0.00    -0.316 N 
ATOM     20  H4  UNL     1      12.305  25.720   8.358  1.00  0.00     0.170 HD
ATOM     21  H3  UNL     1      13.615  24.393   6.937  1.00  0.00     0.166 HD
BRANCH  19  22
HETATM   22  C11 UNL     1      10.391  26.058   8.805  1.00  0.00    -0.009 C 
HETATM   23  C12 UNL     1      10.572  25.955  10.280  1.00  0.00     0.064 C 
BRANCH  22  24
HETATM   24  C13 UNL     1       9.800  27.374   8.338  1.00  0.00     0.031 C 
HETATM   25  C14 UNL     1       8.876  27.192   7.199  1.00  0.00     0.010 C 
HETATM   26  C15 UNL     1       7.404  27.434   7.499  1.00  0.00     0.001 C 
HETATM   27  C16 UNL     1       7.251  28.654   8.351  1.00  0.00     0.000 C 
HETATM   28  C17 UNL     1       7.882  28.305   9.697  1.00  0.00     0.001 C 
HETATM   29  C18 UNL     1       9.376  28.265   9.439  1.00  0.00     0.010 C 
ENDBRANCH  22  24
ENDBRANCH  19  22
ENDBRANCH   1  16
BRANCH   1  30
HETATM   30  C19 UNL     1      14.261  22.637   5.303  1.00  0.00     0.192 C 
BRANCH  30  31
HETATM   31  O4  UNL     1      14.964  23.803   5.732  1.00  0.00    -0.389 OA
ATOM     32  H4  UNL     1      15.697  23.398   6.179  1.00  0.00     0.210 HD
ENDBRANCH  30  31
BRANCH  30  33
HETATM   33  C20 UNL     1      14.455  21.494   6.183  1.00  0.00     0.189 C 
BRANCH  33  34
HETATM   34  O5  UNL     1      13.681  20.451   5.670  1.00  0.00    -0.390 OA
ATOM     35  H5  UNL     1      14.283  19.771   5.393  1.00  0.00     0.210 HD
ENDBRANCH  33  34
BRANCH  33  36
HETATM   36  C21 UNL     1      15.822  20.913   6.470  1.00  0.00     0.138 A 
HETATM   37  O8  UNL     1      15.465  19.450   6.268  1.00  0.00    -0.359 OA
HETATM   38  C32 UNL     1      16.599  19.996   5.682  1.00  0.00     0.090 A 
HETATM   39  C33 UNL     1      16.686  20.078   4.159  1.00  0.00     0.049 C 
HETATM   40  C34 UNL     1      17.735  19.090   6.147  1.00  0.00     0.049 C 
BRANCH  36  41
HETATM   41  C22 UNL     1      16.193  21.278   7.907  1.00  0.00     0.090 C 
HETATM   42  C29 UNL     1      14.974  21.849   8.628  1.00  0.00     0.050 C 
HETATM   43  C30 UNL     1      15.271  23.223   9.095  1.00  0.00     0.180 C 
HETATM   44  O6  UNL     1      16.532  23.522   8.597  1.00  0.00    -0.321 OA
HETATM   45  C31 UNL     1      17.147  22.364   8.056  1.00  0.00     0.271 C 
HETATM   46  O7  UNL     1      18.393  22.487   7.806  1.00  0.00    -0.264 OA
BRANCH  41  47
HETATM   47  C23 UNL     1      16.716  20.116   8.724  1.00  0.00     0.007 C 
HETATM   48  C24 UNL     1      15.731  19.789   9.882  1.00  0.00     0.006 C 
HETATM   49  C25 UNL     1      16.014  18.377  10.337  1.00  0.00     0.000 C 
HETATM   50  C26 UNL     1      17.439  18.041  10.068  1.00  0.00     0.000 C 
HETATM   51  C27 UNL     1      18.413  19.173  10.239  1.00  0.00     0.000 C 
HETATM   52  C28 UNL     1      17.995  20.428   9.464  1.00  0.00     0.006 C 
ENDBRANCH  41  47
ENDBRANCH  36  41
ENDBRANCH  33  36
ENDBRANCH  30  33
ENDBRANCH   1  30
TORSDOF 18
ENDMDL
MODEL 3
REMARK VINA RESULT: -8.339439308      0.965      1.953
REMARK  18 active torsions:
REMARK  status: ('A' for Active; 'I' for Inactive)
REMARK    1  A    between atoms: C2_2  and  C3_3 
REMARK    2  A    between atoms: C3_3  and  C4_4 
REMARK    3  A    between atoms: C4_4  and  C5_5 
REMARK    4  A    between atoms: C5_5  and  O1_6 
REMARK    5  A    between atoms: C5_5  and  N1_8 
REMARK    6  A    between atoms: N1_8  and  C6_9 
REMARK    7  A    between atoms: C6_9  and  C8_11 
REMARK       I    between atoms: C8_11  and  N2_13 
REMARK    8  A    between atoms: N2_13  and  C9_15 
REMARK    9  A    between atoms: C9_15  and  N3_16 
REMARK   10  A    between atoms: C9_15  and  C19_30 
REMARK       I    between atoms: N3_16  and  C10_18 
REMARK       I    between atoms: C10_18  and  N4_20 
REMARK   11  A    between atoms: N4_20  and  C11_22 
REMARK   12  A    between atoms: C11_22  and  C13_24 
REMARK   13  A    between atoms: C19_30  and  O4_31 
REMARK   14  A    between atoms: C19_30  and  C20_33 
REMARK   15  A    between atoms: C20_33  and  O5_34 
REMARK   16  A    between atoms: C20_33  and  C21_36 
REMARK   17  A    between atoms: C21_36  and  C22_37 
REMARK   18  A    between atoms: C22_37  and  C23_38 
ROOT
HETATM    1  C9  UNL     1      18.211  19.812   8.906  1.00  0.00     0.220 C 
ENDROOT
BRANCH   1   2
HETATM    2  N2  UNL     1      17.688  21.091   8.527  1.00  0.00    -0.331 N 
HETATM    3  C8  UNL     1      16.424  21.264   7.957  1.00  0.00     0.279 C 
HETATM    4  O2  UNL     1      15.669  20.307   7.741  1.00  0.00    -0.265 OA
ATOM      5  H2  UNL     1      18.268  21.916   8.681  1.00  0.00     0.165 HD
BRANCH   3   6
HETATM    6  C6  UNL     1      15.960  22.627   7.599  1.00  0.00     0.150 C 
HETATM    7  C7  UNL     1      16.223  23.732   8.603  1.00  0.00     0.091 C 
BRANCH   6   8
HETATM    8  N1  UNL     1      15.418  22.865   6.586  1.00  0.00    -0.384 NA
BRANCH   8   9
HETATM    9  C5  UNL     1      14.840  23.114   5.454  1.00  0.00     0.190 C 
BRANCH   9  10
HETATM   10  C4  UNL     1      13.906  22.165   4.733  1.00  0.00     0.100 C 
BRANCH  10  11
HETATM   11  C3  UNL     1      13.003  21.539   5.761  1.00  0.00     0.009 C 
BRANCH  11  12
HETATM   12  C2  UNL     1      11.774  22.407   5.908  1.00  0.00    -0.004 C 
HETATM   13  C1  UNL     1      11.176  22.611   4.542  1.00  0.00     0.005 C 
ENDBRANCH  11  12
ENDBRANCH  10  11
ENDBRANCH   9  10
BRANCH   9  14
HETATM   14  O1  UNL     1      15.003  24.232   4.805  1.00  0.00    -0.339 OA
ATOM     15  H1  UNL     1      14.399  24.316   4.077  1.00  0.00     0.220 HD
ENDBRANCH   9  14
ENDBRANCH   8   9
ENDBRANCH   6   8
ENDBRANCH   3   6
ENDBRANCH   1   2
BRANCH   1  16
HETATM   16  N3  UNL     1      17.651  18.862   7.943  1.00  0.00    -0.319 N 
HETATM   17  C10 UNL     1      18.164  18.755   6.597  1.00  0.00     0.321 C 
HETATM   18  O3  UNL     1      19.126  19.521   6.370  1.00  0.00    -0.247 OA
HETATM   19  N4  UNL     1      17.636  17.887   5.662  1.00  0.00    -0.316 N 
ATOM     20  H4  UNL     1      16.833  17.392   6.052  1.00  0.00     0.170 HD
ATOM     21  H3  UNL     1      16.878  18.261   8.229  1.00  0.00     0.166 HD
BRANCH  19  22
HETATM   22  C11 UNL     1      17.862  17.480   4.346  1.00  0.00    -0.009 C 
HETATM   23  C12 UNL     1      19.025  16.569   4.158  1.00  0.00     0.064 C 
BRANCH  22  24
HETATM   24  C13 UNL     1      16.686  17.189   3.434  1.00  0.00     0.031 C 
HETATM   25  C14 UNL     1      15.439  17.813   3.924  1.00  0.00     0.010 C 
HETATM   26  C15 UNL     1      14.908  18.969   3.089  1.00  0.00     0.001 C 
HETATM   27  C16 UNL     1      15.015  18.638   1.633  1.00  0.00     0.000 C 
HETATM   28  C17 UNL     1      16.510  18.576   1.327  1.00  0.00     0.001 C 
HETATM   29  C18 UNL     1      17.001  17.305   1.995  1.00  0.00     0.010 C 
ENDBRANCH  22  24
ENDBRANCH  19  22
ENDBRANCH   1  16
BRANCH   1  30
HETATM   30  C19 UNL     1      17.826  19.330  10.285  1.00  0.00     0.192 C 
BRANCH  30  31
HETATM   31  O4  UNL     1      16.406  19.282  10.143  1.00  0.00    -0.389 OA
ATOM     32  H4  UNL     1      16.340  19.048   9.225  1.00  0.00     0.210 HD
ENDBRANCH  30  31
BRANCH  30  33
HETATM   33  C20 UNL     1      18.416  18.035  10.592  1.00  0.00     0.189 C 
BRANCH  33  34
HETATM   34  O5  UNL     1      19.682  18.017  10.004  1.00  0.00    -0.390 OA
ATOM     35  H5  UNL     1      19.552  17.906   9.069  1.00  0.00     0.210 HD
ENDBRANCH  33  34
BRANCH  33  36
HETATM   36  C21 UNL     1      18.595  17.540  12.010  1.00  0.00     0.138 A 
HETATM   37  O8  UNL     1      20.113  17.496  12.018  1.00  0.00    -0.359 OA
HETATM   38  C32 UNL     1      19.410  18.081  13.062  1.00  0.00     0.090 A 
HETATM   39  C33 UNL     1      19.555  19.582  13.311  1.00  0.00     0.049 C 
HETATM   40  C34 UNL     1      19.926  17.370  14.308  1.00  0.00     0.049 C 
BRANCH  36  41
HETATM   41  C22 UNL     1      17.925  16.169  12.114  1.00  0.00     0.090 C 
HETATM   42  C29 UNL     1      18.949  15.070  11.846  1.00  0.00     0.050 C 
HETATM   43  C30 UNL     1      18.516  14.257  10.686  1.00  0.00     0.180 C 
HETATM   44  O6  UNL     1      17.375  14.880  10.200  1.00  0.00    -0.321 OA
HETATM   45  C31 UNL     1      16.924  15.878  11.101  1.00  0.00     0.271 C 
HETATM   46  O7  UNL     1      15.752  16.325  10.863  1.00  0.00    -0.264 OA
BRANCH  41  47
HETATM   47  C23 UNL     1      17.286  15.895  13.458  1.00  0.00     0.007 C 
HETATM   48  C24 UNL     1      17.989  14.692  14.149  1.00  0.00     0.006 C 
HETATM   49  C25 UNL     1      17.681  14.771  15.626  1.00  0.00     0.000 C 
HETATM   50  C26 UNL     1      16.376  15.460  15.828  1.00  0.00     0.000 C 
HETATM   51  C27 UNL     1      15.333  15.188  14.782  1.00  0.00     0.000 C 
HETATM   52  C28 UNL     1      15.855  15.421  13.359  1.00  0.00     0.006 C 
ENDBRANCH  41  47
ENDBRANCH  36  41
ENDBRANCH  33  36
ENDBRANCH  30  33
ENDBRANCH   1  30
TORSDOF 18
ENDMDL
MODEL 4
REMARK VINA RESULT: -8.062470837      1.924      3.208
REMARK  18 active torsions:
REMARK  status: ('A' for Active; 'I' for Inactive)
REMARK    1  A    between atoms: C2_2  and  C3_3 
REMARK    2  A    between atoms: C3_3  and  C4_4 
REMARK    3  A    between atoms: C4_4  and  C5_5 
REMARK    4  A    between atoms: C5_5  and  O1_6 
REMARK    5  A    between atoms: C5_5  and  N1_8 
REMARK    6  A    between atoms: N1_8  and  C6_9 
REMARK    7  A    between atoms: C6_9  and  C8_11 
REMARK       I    between atoms: C8_11  and  N2_13 
REMARK    8  A    between atoms: N2_13  and  C9_15 
REMARK    9  A    between atoms: C9_15  and  N3_16 
REMARK   10  A    between atoms: C9_15  and  C19_30 
REMARK       I    between atoms: N3_16  and  C10_18 
REMARK       I    between atoms: C10_18  and  N4_20 
REMARK   11  A    between atoms: N4_20  and  C11_22 
REMARK   12  A    between atoms: C11_22  and  C13_24 
REMARK   13  A    between atoms: C19_30  and  O4_31 
REMARK   14  A    between atoms: C19_30  and  C20_33 
REMARK   15  A    between atoms: C20_33  and  O5_34 
REMARK   16  A    between atoms: C20_33  and  C21_36 
REMARK   17  A    between atoms: C21_36  and  C22_37 
REMARK   18  A    between atoms: C22_37  and  C23_38 
ROOT
HETATM    1  C9  UNL     1      18.418  19.007   9.282  1.00  0.00     0.220 C 
ENDROOT
BRANCH   1   2
HETATM    2  N2  UNL     1      17.592  20.178   9.273  1.00  0.00    -0.331 N 
HETATM    3  C8  UNL     1      16.241  20.165   9.630  1.00  0.00     0.279 C 
HETATM    4  O2  UNL     1      15.668  19.125   9.981  1.00  0.00    -0.265 OA
ATOM      5  H2  UNL     1      18.011  21.064   8.991  1.00  0.00     0.165 HD
BRANCH   3   6
HETATM    6  C6  UNL     1      15.460  21.426   9.596  1.00  0.00     0.150 C 
HETATM    7  C7  UNL     1      14.695  21.799  10.851  1.00  0.00     0.091 C 
BRANCH   6   8
HETATM    8  N1  UNL     1      15.425  22.124   8.653  1.00  0.00    -0.384 NA
BRANCH   8   9
HETATM    9  C5  UNL     1      15.405  22.876   7.599  1.00  0.00     0.190 C 
BRANCH   9  10
HETATM   10  C4  UNL     1      14.217  23.032   6.672  1.00  0.00     0.100 C 
BRANCH  10  11
HETATM   11  C3  UNL     1      13.916  21.683   6.079  1.00  0.00     0.009 C 
BRANCH  11  12
HETATM   12  C2  UNL     1      12.457  21.371   6.318  1.00  0.00    -0.004 C 
HETATM   13  C1  UNL     1      11.705  22.674   6.392  1.00  0.00     0.005 C 
ENDBRANCH  11  12
ENDBRANCH  10  11
ENDBRANCH   9  10
BRANCH   9  14
HETATM   14  O1  UNL     1      16.423  23.594   7.220  1.00  0.00    -0.339 OA
ATOM     15  H1  UNL     1      17.246  23.252   7.549  1.00  0.00     0.220 HD
ENDBRANCH   9  14
ENDBRANCH   8   9
ENDBRANCH   6   8
ENDBRANCH   3   6
ENDBRANCH   1   2
BRANCH   1  16
HETATM   16  N3  UNL     1      17.927  18.177   8.181  1.00  0.00    -0.319 N 
HETATM   17  C10 UNL     1      18.132  18.548   6.800  1.00  0.00     0.321 C 
HETATM   18  O3  UNL     1      18.777  19.610   6.663  1.00  0.00    -0.247 OA
HETATM   19  N4  UNL     1      17.656  17.796   5.745  1.00  0.00    -0.316 N 
ATOM     20  H4  UNL     1      17.125  16.997   6.091  1.00  0.00     0.170 HD
ATOM     21  H3  UNL     1      17.428  17.313   8.394  1.00  0.00     0.166 HD
BRANCH  19  22
HETATM   22  C11 UNL     1      17.678  17.795   4.350  1.00  0.00    -0.009 C 
HETATM   23  C12 UNL     1      18.857  17.121   3.737  1.00  0.00     0.064 C 
BRANCH  22  24
HETATM   24  C13 UNL     1      16.387  17.619   3.575  1.00  0.00     0.031 C 
HETATM   25  C14 UNL     1      15.336  18.554   4.032  1.00  0.00     0.010 C 
HETATM   26  C15 UNL     1      14.962  19.656   3.052  1.00  0.00     0.001 C 
HETATM   27  C16 UNL     1      14.863  19.095   1.668  1.00  0.00     0.000 C 
HETATM   28  C17 UNL     1      16.281  18.680   1.282  1.00  0.00     0.001 C 
HETATM   29  C18 UNL     1      16.579  17.450   2.119  1.00  0.00     0.010 C 
ENDBRANCH  22  24
ENDBRANCH  19  22
ENDBRANCH   1  16
BRANCH   1  30
HETATM   30  C19 UNL     1      18.352  18.170  10.538  1.00  0.00     0.192 C 
BRANCH  30  31
HETATM   31  O4  UNL     1      17.569  17.075  10.065  1.00  0.00    -0.389 OA
ATOM     32  H4  UNL     1      17.765  17.120   9.137  1.00  0.00     0.210 HD
ENDBRANCH  30  31
BRANCH  30  33
HETATM   33  C20 UNL     1      19.676  17.774  10.996  1.00  0.00     0.189 C 
BRANCH  33  34
HETATM   34  O5  UNL     1      20.103  18.753  11.896  1.00  0.00    -0.390 OA
ATOM     35  H5  UNL     1      20.664  18.320  12.529  1.00  0.00     0.210 HD
ENDBRANCH  33  34
BRANCH  33  36
HETATM   36  C21 UNL     1      19.940  16.439  11.656  1.00  0.00     0.138 A 
HETATM   37  O8  UNL     1      20.376  16.968  13.012  1.00  0.00    -0.359 OA
HETATM   38  C32 UNL     1      19.452  15.937  12.911  1.00  0.00     0.090 A 
HETATM   39  C33 UNL     1      18.022  16.166  13.397  1.00  0.00     0.049 C 
HETATM   40  C34 UNL     1      20.040  14.820  13.766  1.00  0.00     0.049 C 
BRANCH  36  41
HETATM   41  C22 UNL     1      21.048  15.740  10.868  1.00  0.00     0.090 C 
HETATM   42  C29 UNL     1      21.299  14.350  11.448  1.00  0.00     0.050 C 
HETATM   43  C30 UNL     1      22.708  14.245  11.893  1.00  0.00     0.180 C 
HETATM   44  O6  UNL     1      23.252  15.509  11.713  1.00  0.00    -0.321 OA
HETATM   45  C31 UNL     1      22.369  16.336  10.972  1.00  0.00     0.271 C 
HETATM   46  O7  UNL     1      22.885  17.423  10.545  1.00  0.00    -0.264 OA
BRANCH  41  47
HETATM   47  C23 UNL     1      20.749  15.582   9.392  1.00  0.00     0.007 C 
HETATM   48  C24 UNL     1      19.654  14.499   9.180  1.00  0.00     0.006 C 
HETATM   49  C25 UNL     1      19.050  14.723   7.814  1.00  0.00     0.000 C 
HETATM   50  C26 UNL     1      20.055  15.363   6.922  1.00  0.00     0.000 C 
HETATM   51  C27 UNL     1      21.477  14.927   7.132  1.00  0.00     0.000 C 
HETATM   52  C28 UNL     1      21.910  15.029   8.599  1.00  0.00     0.006 C 
ENDBRANCH  41  47
ENDBRANCH  36  41
ENDBRANCH  33  36
ENDBRANCH  30  33
ENDBRANCH   1  30
TORSDOF 18
ENDMDL
MODEL 5
REMARK VINA RESULT: -8.029800319      1.385      2.655
REMARK  18 active torsions:
REMARK  status: ('A' for Active; 'I' for Inactive)
REMARK    1  A    between atoms: C2_2  and  C3_3 
REMARK    2  A    between atoms: C3_3  and  C4_4 
REMARK    3  A    between atoms: C4_4  and  C5_5 
REMARK    4  A    between atoms: C5_5  and  O1_6 
REMARK    5  A    between atoms: C5_5  and  N1_8 
REMARK    6  A    between atoms: N1_8  and  C6_9 
REMARK    7  A    between atoms: C6_9  and  C8_11 
REMARK       I    between atoms: C8_11  and  N2_13 
REMARK    8  A    between atoms: N2_13  and  C9_15 
REMARK    9  A    between atoms: C9_15  and  N3_16 
REMARK   10  A    between atoms: C9_15  and  C19_30 
REMARK       I    between atoms: N3_16  and  C10_18 
REMARK       I    between atoms: C10_18  and  N4_20 
REMARK   11  A    between atoms: N4_20  and  C11_22 
REMARK   12  A    between atoms: C11_22  and  C13_24 
REMARK   13  A    between atoms: C19_30  and  O4_31 
REMARK   14  A    between atoms: C19_30  and  C20_33 
REMARK   15  A    between atoms: C20_33  and  O5_34 
REMARK   16  A    between atoms: C20_33  and  C21_36 
REMARK   17  A    between atoms: C21_36  and  C22_37 
REMARK   18  A    between atoms: C22_37  and  C23_38 
ROOT
HETATM    1  C9  UNL     1      18.131  19.539   8.866  1.00  0.00     0.220 C 
ENDROOT
BRANCH   1   2
HETATM    2  N2  UNL     1      17.722  20.844   8.440  1.00  0.00    -0.331 N 
HETATM    3  C8  UNL     1      16.402  21.163   8.110  1.00  0.00     0.279 C 
HETATM    4  O2  UNL     1      15.493  20.324   8.166  1.00  0.00    -0.265 OA
ATOM      5  H2  UNL     1      18.429  21.576   8.374  1.00  0.00     0.165 HD
BRANCH   3   6
HETATM    6  C6  UNL     1      16.065  22.543   7.681  1.00  0.00     0.150 C 
HETATM    7  C7  UNL     1      16.526  23.677   8.576  1.00  0.00     0.091 C 
BRANCH   6   8
HETATM    8  N1  UNL     1      15.475  22.773   6.693  1.00  0.00    -0.384 NA
BRANCH   8   9
HETATM    9  C5  UNL     1      14.848  23.041   5.592  1.00  0.00     0.190 C 
BRANCH   9  10
HETATM   10  C4  UNL     1      13.820  22.138   4.942  1.00  0.00     0.100 C 
BRANCH  10  11
HETATM   11  C3  UNL     1      12.981  21.534   6.034  1.00  0.00     0.009 C 
BRANCH  11  12
HETATM   12  C2  UNL     1      11.735  22.373   6.198  1.00  0.00    -0.004 C 
HETATM   13  C1  UNL     1      11.260  22.781   4.828  1.00  0.00     0.005 C 
ENDBRANCH  11  12
ENDBRANCH  10  11
ENDBRANCH   9  10
BRANCH   9  14
HETATM   14  O1  UNL     1      15.037  24.138   4.917  1.00  0.00    -0.339 OA
ATOM     15  H1  UNL     1      15.254  23.967   4.008  1.00  0.00     0.220 HD
ENDBRANCH   9  14
ENDBRANCH   8   9
ENDBRANCH   6   8
ENDBRANCH   3   6
ENDBRANCH   1   2
BRANCH   1  16
HETATM   16  N3  UNL     1      17.642  18.622   7.836  1.00  0.00    -0.319 N 
HETATM   17  C10 UNL     1      18.090  18.712   6.465  1.00  0.00     0.321 C 
HETATM   18  O3  UNL     1      18.934  19.614   6.277  1.00  0.00    -0.247 OA
HETATM   19  N4  UNL     1      17.623  17.876   5.470  1.00  0.00    -0.316 N 
ATOM     20  H4  UNL     1      16.912  17.246   5.841  1.00  0.00     0.170 HD
ATOM     21  H3  UNL     1      16.967  17.901   8.091  1.00  0.00     0.166 HD
BRANCH  19  22
HETATM   22  C11 UNL     1      17.826  17.630   4.111  1.00  0.00    -0.009 C 
HETATM   23  C12 UNL     1      19.078  16.894   3.782  1.00  0.00     0.064 C 
BRANCH  22  24
HETATM   24  C13 UNL     1      16.646  17.284   3.224  1.00  0.00     0.031 C 
HETATM   25  C14 UNL     1      15.384  17.862   3.731  1.00  0.00     0.010 C 
HETATM   26  C15 UNL     1      14.792  18.988   2.897  1.00  0.00     0.001 C 
HETATM   27  C16 UNL     1      14.885  18.649   1.443  1.00  0.00     0.000 C 
HETATM   28  C17 UNL     1      16.375  18.645   1.109  1.00  0.00     0.001 C 
HETATM   29  C18 UNL     1      16.930  17.400   1.777  1.00  0.00     0.010 C 
ENDBRANCH  22  24
ENDBRANCH  19  22
ENDBRANCH   1  16
BRANCH   1  30
HETATM   30  C19 UNL     1      17.562  19.074  10.186  1.00  0.00     0.192 C 
BRANCH  30  31
HETATM   31  O4  UNL     1      16.465  18.289   9.720  1.00  0.00    -0.389 OA
ATOM     32  H4  UNL     1      15.792  18.567  10.329  1.00  0.00     0.210 HD
ENDBRANCH  30  31
BRANCH  30  33
HETATM   33  C20 UNL     1      18.531  18.307  10.955  1.00  0.00     0.189 C 
BRANCH  33  34
HETATM   34  O5  UNL     1      18.634  18.920  12.205  1.00  0.00    -0.390 OA
ATOM     35  H5  UNL     1      19.088  18.310  12.775  1.00  0.00     0.210 HD
ENDBRANCH  33  34
BRANCH  33  36
HETATM   36  C21 UNL     1      18.371  16.825  11.215  1.00  0.00     0.138 A 
HETATM   37  O8  UNL     1      18.043  16.916  12.696  1.00  0.00    -0.359 OA
HETATM   38  C32 UNL     1      17.282  16.129  11.842  1.00  0.00     0.090 A 
HETATM   39  C33 UNL     1      15.817  16.491  11.601  1.00  0.00     0.049 C 
HETATM   40  C34 UNL     1      17.300  14.747  12.488  1.00  0.00     0.049 C 
BRANCH  36  41
HETATM   41  C22 UNL     1      19.707  16.150  10.907  1.00  0.00     0.090 C 
HETATM   42  C29 UNL     1      19.772  14.789  11.595  1.00  0.00     0.050 C 
HETATM   43  C30 UNL     1      20.928  14.754  12.521  1.00  0.00     0.180 C 
HETATM   44  O6  UNL     1      21.465  16.033  12.495  1.00  0.00    -0.321 OA
HETATM   45  C31 UNL     1      20.885  16.802  11.453  1.00  0.00     0.271 C 
HETATM   46  O7  UNL     1      21.490  17.897  11.195  1.00  0.00    -0.264 OA
BRANCH  41  47
HETATM   47  C23 UNL     1      19.965  15.938   9.430  1.00  0.00     0.007 C 
HETATM   48  C24 UNL     1      18.905  14.967   8.835  1.00  0.00     0.006 C 
HETATM   49  C25 UNL     1      18.887  15.174   7.339  1.00  0.00     0.000 C 
HETATM   50  C26 UNL     1      20.223  15.648   6.884  1.00  0.00     0.000 C 
HETATM   51  C27 UNL     1      21.399  15.076   7.623  1.00  0.00     0.000 C 
HETATM   52  C28 UNL     1      21.261  15.217   9.143  1.00  0.00     0.006 C 
ENDBRANCH  41  47
ENDBRANCH  36  41
ENDBRANCH  33  36
ENDBRANCH  30  33
ENDBRANCH   1  30
TORSDOF 18
ENDMDL
