MODEL 1
REMARK VINA RESULT: -9.564122842      0.000      0.000
REMARK  20 active torsions:
REMARK  status: ('A' for Active; 'I' for Inactive)
REMARK    1  A    between atoms: C2_2  and  O1_4 
REMARK    2  A    between atoms: O1_4  and  C4_5 
REMARK       I    between atoms: C4_5  and  N1_7 
REMARK    3  A    between atoms: N1_7  and  C5_9 
REMARK    4  A    between atoms: C5_9  and  C6_10 
REMARK    5  A    between atoms: C9_13  and  C10_14 
REMARK    6  A    between atoms: C10_14  and  C11_15 
REMARK    7  A    between atoms: C11_15  and  N2_16 
REMARK    8  A    between atoms: C11_15  and  C18_33 
REMARK       I    between atoms: N2_16  and  C12_18 
REMARK    9  A    between atoms: C12_18  and  C13_20 
REMARK   10  A    between atoms: C13_20  and  N3_21 
REMARK   11  A    between atoms: C13_20  and  C14_25 
REMARK   12  A    between atoms: C14_25  and  C15_26 
REMARK   13  A    between atoms: C15_26  and  C16_27 
REMARK   14  A    between atoms: C16_27  and  C17_28 
REMARK   15  A    between atoms: C17_28  and  N4_29 
REMARK   16  A    between atoms: C18_33  and  O4_34 
REMARK   17  A    between atoms: C18_33  and  N5_36 
REMARK   18  A    between atoms: C21_39  and  C22_40 
REMARK   19  A    between atoms: C27_45  and  C28_46 
REMARK       I    between atoms: C28_46  and  N6_48 
REMARK   20  A    between atoms: N6_48  and  C29_50 
ROOT
HETATM    1  C11 UNL     1      11.929  24.146   6.428  1.00  0.00     0.159 C 
ENDROOT
BRANCH   1   2
HETATM    2  C10 UNL     1      11.439  25.356   7.028  1.00  0.00     0.038 C 
BRANCH   2   3
HETATM    3  C9  UNL     1      10.453  25.384   8.127  1.00  0.00    -0.012 C 
HETATM    4  C8  UNL     1       9.093  25.912   7.675  1.00  0.00     0.005 C 
HETATM    5  C7  UNL     1       9.134  27.407   7.487  1.00  0.00     0.010 C 
HETATM    6  C6  UNL     1       9.179  28.073   8.894  1.00  0.00     0.024 C 
HETATM    7  C34 UNL     1       9.808  27.110   9.828  1.00  0.00     0.010 C 
HETATM    8  C33 UNL     1      11.004  26.409   9.147  1.00  0.00     0.005 C 
BRANCH   6   9
HETATM    9  C5  UNL     1       7.828  28.532   9.256  1.00  0.00     0.070 C 
BRANCH   9  10
HETATM   10  N1  UNL     1       6.868  28.650   8.246  1.00  0.00    -0.316 N 
HETATM   11  C4  UNL     1       5.575  29.161   8.151  1.00  0.00     0.364 C 
HETATM   12  O2  UNL     1       4.975  29.660   9.109  1.00  0.00    -0.238 OA
ATOM     13  H1  UNL     1       7.196  28.269   7.359  1.00  0.00     0.170 HD
BRANCH  11  14
HETATM   14  O1  UNL     1       4.844  29.144   6.948  1.00  0.00    -0.299 OA
BRANCH  14  15
HETATM   15  C2  UNL     1       4.279  27.946   6.445  1.00  0.00     0.125 C 
HETATM   16  C1  UNL     1       5.260  27.094   5.708  1.00  0.00     0.040 C 
HETATM   17  C3  UNL     1       3.625  27.143   7.551  1.00  0.00     0.040 C 
ENDBRANCH  14  15
ENDBRANCH  11  14
ENDBRANCH   9  10
ENDBRANCH   6   9
ENDBRANCH   2   3
ENDBRANCH   1   2
BRANCH   1  18
HETATM   18  N2  UNL     1      11.789  24.375   4.922  1.00  0.00    -0.347 N 
HETATM   19  C12 UNL     1      11.211  23.423   4.090  1.00  0.00     0.248 C 
HETATM   20  O3  UNL     1      10.765  22.354   4.536  1.00  0.00    -0.271 OA
ATOM     21  H2  UNL     1      12.128  25.248   4.518  1.00  0.00     0.163 HD
BRANCH  19  22
HETATM   22  C13 UNL     1      11.114  23.655   2.623  1.00  0.00     0.274 C 
BRANCH  22  23
HETATM   23  N3  UNL     1      11.747  24.936   2.300  1.00  0.00    -0.067 N 
ATOM     24  H33 UNL     1      11.117  25.565   1.801  1.00  0.00     0.275 HD
ATOM     25  H32 UNL     1      11.899  25.513   3.127  1.00  0.00     0.275 HD
ATOM     26  H31 UNL     1      12.609  24.760   1.785  1.00  0.00     0.275 HD
ENDBRANCH  22  23
BRANCH  22  27
HETATM   27  C14 UNL     1       9.685  23.729   2.166  1.00  0.00     0.042 C 
BRANCH  27  28
HETATM   28  C15 UNL     1       9.092  25.058   1.950  1.00  0.00     0.004 C 
BRANCH  28  29
HETATM   29  C16 UNL     1       7.900  25.407   2.762  1.00  0.00     0.027 C 
BRANCH  29  30
HETATM   30  C17 UNL     1       8.414  26.031   4.071  1.00  0.00     0.229 C 
BRANCH  30  31
HETATM   31  N4  UNL     1       8.599  27.450   3.908  1.00  0.00    -0.079 N 
ATOM     32  H43 UNL     1       7.740  27.969   4.088  1.00  0.00     0.274 HD
ATOM     33  H42 UNL     1       9.173  27.847   4.653  1.00  0.00     0.274 HD
ATOM     34  H41 UNL     1       8.980  27.654   2.984  1.00  0.00     0.274 HD
ENDBRANCH  30  31
ENDBRANCH  29  30
ENDBRANCH  28  29
ENDBRANCH  27  28
ENDBRANCH  22  27
ENDBRANCH  19  22
ENDBRANCH   1  18
BRANCH   1  35
HETATM   35  C18 UNL     1      13.216  23.532   6.494  1.00  0.00     0.137 C 
BRANCH  35  36
HETATM   36  O4  UNL     1      13.975  24.277   7.378  1.00  0.00    -0.348 OA
ATOM     37  H4  UNL     1      14.865  24.279   7.048  1.00  0.00     0.219 HD
ENDBRANCH  35  36
BRANCH  35  38
HETATM   38  N5  UNL     1      13.997  22.502   6.036  1.00  0.00    -0.350 N 
HETATM   39  C19 UNL     1      14.832  22.763   4.822  1.00  0.00     0.126 C 
HETATM   40  C20 UNL     1      14.950  21.570   3.943  1.00  0.00     0.025 C 
HETATM   41  C21 UNL     1      15.377  20.355   4.739  1.00  0.00    -0.003 C 
HETATM   42  C26 UNL     1      14.217  20.072   5.670  1.00  0.00     0.040 C 
HETATM   43  C27 UNL     1      14.160  21.223   6.663  1.00  0.00     0.178 C 
BRANCH  41  44
HETATM   44  C22 UNL     1      15.648  19.202   3.808  1.00  0.00    -0.048 C 
HETATM   45  C23 UNL     1      15.077  19.501   2.411  1.00  0.00     0.015 C 
HETATM   46  C24 UNL     1      17.106  18.946   3.612  1.00  0.00     0.015 C 
HETATM   47  C25 UNL     1      14.972  17.932   4.258  1.00  0.00     0.015 C 
ENDBRANCH  41  44
BRANCH  43  48
HETATM   48  C28 UNL     1      15.417  21.213   7.515  1.00  0.00     0.241 C 
HETATM   49  O5  UNL     1      15.954  22.299   7.901  1.00  0.00    -0.271 OA
HETATM   50  N6  UNL     1      16.056  20.019   7.926  1.00  0.00    -0.351 N 
ATOM     51  H6  UNL     1      15.646  19.135   7.625  1.00  0.00     0.163 HD
BRANCH  50  52
HETATM   52  C29 UNL     1      17.229  19.962   8.730  1.00  0.00     0.022 C 
HETATM   53  C30 UNL     1      17.935  18.599   8.645  1.00  0.00     0.037 C 
HETATM   54  C31 UNL     1      16.785  20.062  10.198  1.00  0.00     0.037 C 
HETATM   55  C32 UNL     1      18.255  21.009   8.437  1.00  0.00     0.037 C 
ENDBRANCH  50  52
ENDBRANCH  43  48
ENDBRANCH  35  38
ENDBRANCH   1  35
TORSDOF 20
ENDMDL
MODEL 2
REMARK VINA RESULT: -9.487804766      0.846      1.280
REMARK  20 active torsions:
REMARK  status: ('A' for Active; 'I' for Inactive)
REMARK    1  A    between atoms: C2_2  and  O1_4 
REMARK    2  A    between atoms: O1_4  and  C4_5 
REMARK       I    between atoms: C4_5  and  N1_7 
REMARK    3  A    between atoms: N1_7  and  C5_9 
REMARK    4  A    between atoms: C5_9  and  C6_10 
REMARK    5  A    between atoms: C9_13  and  C10_14 
REMARK    6  A    between atoms: C10_14  and  C11_15 
REMARK    7  A    between atoms: C11_15  and  N2_16 
REMARK    8  A    between atoms: C11_15  and  C18_33 
REMARK       I    between atoms: N2_16  and  C12_18 
REMARK    9  A    between atoms: C12_18  and  C13_20 
REMARK   10  A    between atoms: C13_20  and  N3_21 
REMARK   11  A    between atoms: C13_20  and  C14_25 
REMARK   12  A    between atoms: C14_25  and  C15_26 
REMARK   13  A    between atoms: C15_26  and  C16_27 
REMARK   14  A    between atoms: C16_27  and  C17_28 
REMARK   15  A    between atoms: C17_28  and  N4_29 
REMARK   16  A    between atoms: C18_33  and  O4_34 
REMARK   17  A    between atoms: C18_33  and  N5_36 
REMARK   18  A    between atoms: C21_39  and  C22_40 
REMARK   19  A    between atoms: C27_45  and  C28_46 
REMARK       I    between atoms: C28_46  and  N6_48 
REMARK   20  A    between atoms: N6_48  and  C29_50 
ROOT
HETATM    1  C11 UNL     1      11.900  24.181   6.343  1.00  0.00     0.159 C 
ENDROOT
BRANCH   1   2
HETATM    2  C10 UNL     1      11.409  25.387   6.950  1.00  0.00     0.038 C 
BRANCH   2   3
HETATM    3  C9  UNL     1      10.416  25.408   8.042  1.00  0.00    -0.012 C 
HETATM    4  C8  UNL     1       9.054  25.926   7.579  1.00  0.00     0.005 C 
HETATM    5  C7  UNL     1       9.084  27.421   7.390  1.00  0.00     0.010 C 
HETATM    6  C6  UNL     1       9.114  28.089   8.796  1.00  0.00     0.024 C 
HETATM    7  C34 UNL     1       9.744  27.132   9.736  1.00  0.00     0.010 C 
HETATM    8  C33 UNL     1      10.951  26.440   9.064  1.00  0.00     0.005 C 
BRANCH   6   9
HETATM    9  C5  UNL     1       7.756  28.537   9.147  1.00  0.00     0.070 C 
BRANCH   9  10
HETATM   10  N1  UNL     1       6.798  28.629   8.134  1.00  0.00    -0.316 N 
HETATM   11  C4  UNL     1       5.498  29.118   8.030  1.00  0.00     0.364 C 
HETATM   12  O2  UNL     1       4.888  29.620   8.979  1.00  0.00    -0.238 OA
ATOM     13  H1  UNL     1       7.134  28.241   7.253  1.00  0.00     0.170 HD
BRANCH  11  14
HETATM   14  O1  UNL     1       4.770  29.076   6.824  1.00  0.00    -0.299 OA
BRANCH  14  15
HETATM   15  C2  UNL     1       4.266  27.855   6.310  1.00  0.00     0.125 C 
HETATM   16  C1  UNL     1       5.301  27.039   5.607  1.00  0.00     0.040 C 
HETATM   17  C3  UNL     1       3.610  27.032   7.400  1.00  0.00     0.040 C 
ENDBRANCH  14  15
ENDBRANCH  11  14
ENDBRANCH   9  10
ENDBRANCH   6   9
ENDBRANCH   2   3
ENDBRANCH   1   2
BRANCH   1  18
HETATM   18  N2  UNL     1      11.786  24.428   4.838  1.00  0.00    -0.347 N 
HETATM   19  C12 UNL     1      11.184  23.506   3.990  1.00  0.00     0.248 C 
HETATM   20  O3  UNL     1      10.694  22.449   4.421  1.00  0.00    -0.271 OA
ATOM     21  H2  UNL     1      12.162  25.292   4.446  1.00  0.00     0.163 HD
BRANCH  19  22
HETATM   22  C13 UNL     1      11.112  23.754   2.525  1.00  0.00     0.274 C 
BRANCH  22  23
HETATM   23  N3  UNL     1      11.902  24.946   2.205  1.00  0.00    -0.067 N 
ATOM     24  H33 UNL     1      11.388  25.810   2.378  1.00  0.00     0.275 HD
ATOM     25  H32 UNL     1      12.663  25.097   2.866  1.00  0.00     0.275 HD
ATOM     26  H31 UNL     1      12.233  24.876   1.242  1.00  0.00     0.275 HD
ENDBRANCH  22  23
BRANCH  22  27
HETATM   27  C14 UNL     1       9.703  24.012   2.074  1.00  0.00     0.042 C 
BRANCH  27  28
HETATM   28  C15 UNL     1       8.981  25.150   2.665  1.00  0.00     0.004 C 
BRANCH  28  29
HETATM   29  C16 UNL     1       7.784  24.837   3.485  1.00  0.00     0.027 C 
BRANCH  29  30
HETATM   30  C17 UNL     1       7.318  23.427   3.084  1.00  0.00     0.229 C 
BRANCH  30  31
HETATM   31  N4  UNL     1       5.944  23.227   3.467  1.00  0.00    -0.079 N 
ATOM     32  H43 UNL     1       5.298  23.598   2.772  1.00  0.00     0.274 HD
ATOM     33  H42 UNL     1       5.673  22.245   3.415  1.00  0.00     0.274 HD
ATOM     34  H41 UNL     1       5.774  23.621   4.392  1.00  0.00     0.274 HD
ENDBRANCH  30  31
ENDBRANCH  29  30
ENDBRANCH  28  29
ENDBRANCH  27  28
ENDBRANCH  22  27
ENDBRANCH  19  22
ENDBRANCH   1  18
BRANCH   1  35
HETATM   35  C18 UNL     1      13.182  23.558   6.423  1.00  0.00     0.137 C 
BRANCH  35  36
HETATM   36  O4  UNL     1      13.929  24.282   7.334  1.00  0.00    -0.348 OA
ATOM     37  H4  UNL     1      14.836  24.228   7.056  1.00  0.00     0.219 HD
ENDBRANCH  35  36
BRANCH  35  38
HETATM   38  N5  UNL     1      13.964  22.530   5.962  1.00  0.00    -0.350 N 
HETATM   39  C19 UNL     1      14.825  22.806   4.770  1.00  0.00     0.126 C 
HETATM   40  C20 UNL     1      14.952  21.628   3.872  1.00  0.00     0.025 C 
HETATM   41  C21 UNL     1      15.356  20.397   4.654  1.00  0.00    -0.003 C 
HETATM   42  C26 UNL     1      14.175  20.106   5.557  1.00  0.00     0.040 C 
HETATM   43  C27 UNL     1      14.106  21.238   6.569  1.00  0.00     0.178 C 
BRANCH  41  44
HETATM   44  C22 UNL     1      15.637  19.258   3.708  1.00  0.00    -0.048 C 
HETATM   45  C23 UNL     1      15.014  17.957   4.241  1.00  0.00     0.015 C 
HETATM   46  C24 UNL     1      15.048  19.473   2.353  1.00  0.00     0.015 C 
HETATM   47  C25 UNL     1      17.111  18.976   3.575  1.00  0.00     0.015 C 
ENDBRANCH  41  44
BRANCH  43  48
HETATM   48  C28 UNL     1      15.346  21.205   7.446  1.00  0.00     0.241 C 
HETATM   49  O5  UNL     1      15.746  22.248   8.053  1.00  0.00    -0.271 OA
HETATM   50  N6  UNL     1      16.118  20.034   7.638  1.00  0.00    -0.351 N 
ATOM     51  H6  UNL     1      15.819  19.186   7.157  1.00  0.00     0.163 HD
BRANCH  50  52
HETATM   52  C29 UNL     1      17.281  19.954   8.455  1.00  0.00     0.022 C 
HETATM   53  C30 UNL     1      18.277  21.091   8.174  1.00  0.00     0.037 C 
HETATM   54  C31 UNL     1      18.041  18.682   8.046  1.00  0.00     0.037 C 
HETATM   55  C32 UNL     1      17.027  19.944   9.928  1.00  0.00     0.037 C 
ENDBRANCH  50  52
ENDBRANCH  43  48
ENDBRANCH  35  38
ENDBRANCH   1  35
TORSDOF 20
ENDMDL
MODEL 3
REMARK VINA RESULT: -9.473820255      0.936      1.104
REMARK  20 active torsions:
REMARK  status: ('A' for Active; 'I' for Inactive)
REMARK    1  A    between atoms: C2_2  and  O1_4 
REMARK    2  A    between atoms: O1_4  and  C4_5 
REMARK       I    between atoms: C4_5  and  N1_7 
REMARK    3  A    between atoms: N1_7  and  C5_9 
REMARK    4  A    between atoms: C5_9  and  C6_10 
REMARK    5  A    between atoms: C9_13  and  C10_14 
REMARK    6  A    between atoms: C10_14  and  C11_15 
REMARK    7  A    between atoms: C11_15  and  N2_16 
REMARK    8  A    between atoms: C11_15  and  C18_33 
REMARK       I    between atoms: N2_16  and  C12_18 
REMARK    9  A    between atoms: C12_18  and  C13_20 
REMARK   10  A    between atoms: C13_20  and  N3_21 
REMARK   11  A    between atoms: C13_20  and  C14_25 
REMARK   12  A    between atoms: C14_25  and  C15_26 
REMARK   13  A    between atoms: C15_26  and  C16_27 
REMARK   14  A    between atoms: C16_27  and  C17_28 
REMARK   15  A    between atoms: C17_28  and  N4_29 
REMARK   16  A    between atoms: C18_33  and  O4_34 
REMARK   17  A    between atoms: C18_33  and  N5_36 
REMARK   18  A    between atoms: C21_39  and  C22_40 
REMARK   19  A    between atoms: C27_45  and  C28_46 
REMARK       I    between atoms: C28_46  and  N6_48 
REMARK   20  A    between atoms: N6_48  and  C29_50 
ROOT
HETATM    1  C11 UNL     1      11.966  24.096   6.399  1.00  0.00     0.159 C 
ENDROOT
BRANCH   1   2
HETATM    2  C10 UNL     1      11.488  25.301   7.020  1.00  0.00     0.038 C 
BRANCH   2   3
HETATM    3  C9  UNL     1      10.322  25.348   7.925  1.00  0.00    -0.012 C 
HETATM    4  C8  UNL     1       9.043  25.771   7.203  1.00  0.00     0.005 C 
HETATM    5  C7  UNL     1       9.055  27.251   6.914  1.00  0.00     0.010 C 
HETATM    6  C6  UNL     1       8.822  28.010   8.254  1.00  0.00     0.024 C 
HETATM    7  C34 UNL     1       9.313  27.147   9.352  1.00  0.00     0.010 C 
HETATM    8  C33 UNL     1      10.640  26.467   8.944  1.00  0.00     0.005 C 
BRANCH   6   9
HETATM    9  C5  UNL     1       7.410  28.418   8.338  1.00  0.00     0.070 C 
BRANCH   9  10
HETATM   10  N1  UNL     1       6.421  27.470   8.063  1.00  0.00    -0.316 N 
HETATM   11  C4  UNL     1       5.346  27.374   7.180  1.00  0.00     0.364 C 
HETATM   12  O2  UNL     1       5.048  28.267   6.380  1.00  0.00    -0.238 OA
ATOM     13  H1  UNL     1       6.507  26.644   8.654  1.00  0.00     0.170 HD
BRANCH  11  14
HETATM   14  O1  UNL     1       4.507  26.243   7.133  1.00  0.00    -0.299 OA
BRANCH  14  15
HETATM   15  C2  UNL     1       3.233  26.296   6.514  1.00  0.00     0.125 C 
HETATM   16  C1  UNL     1       2.962  25.129   5.622  1.00  0.00     0.040 C 
HETATM   17  C3  UNL     1       2.130  26.428   7.544  1.00  0.00     0.040 C 
ENDBRANCH  14  15
ENDBRANCH  11  14
ENDBRANCH   9  10
ENDBRANCH   6   9
ENDBRANCH   2   3
ENDBRANCH   1   2
BRANCH   1  18
HETATM   18  N2  UNL     1      11.799  24.339   4.898  1.00  0.00    -0.347 N 
HETATM   19  C12 UNL     1      11.206  23.394   4.068  1.00  0.00     0.248 C 
HETATM   20  O3  UNL     1      10.767  22.321   4.513  1.00  0.00    -0.271 OA
ATOM     21  H2  UNL     1      12.130  25.215   4.496  1.00  0.00     0.163 HD
BRANCH  19  22
HETATM   22  C13 UNL     1      11.082  23.639   2.606  1.00  0.00     0.274 C 
BRANCH  22  23
HETATM   23  N3  UNL     1      11.847  24.838   2.257  1.00  0.00    -0.067 N 
ATOM     24  H33 UNL     1      11.672  25.146   1.300  1.00  0.00     0.275 HD
ATOM     25  H32 UNL     1      11.507  25.670   2.739  1.00  0.00     0.275 HD
ATOM     26  H31 UNL     1      12.836  24.664   2.435  1.00  0.00     0.275 HD
ENDBRANCH  22  23
BRANCH  22  27
HETATM   27  C14 UNL     1       9.655  23.881   2.203  1.00  0.00     0.042 C 
BRANCH  27  28
HETATM   28  C15 UNL     1       9.164  25.267   2.180  1.00  0.00     0.004 C 
BRANCH  28  29
HETATM   29  C16 UNL     1       8.510  25.772   3.412  1.00  0.00     0.027 C 
BRANCH  29  30
HETATM   30  C17 UNL     1       7.058  25.262   3.394  1.00  0.00     0.229 C 
BRANCH  30  31
HETATM   31  N4  UNL     1       6.301  25.871   4.457  1.00  0.00    -0.079 N 
ATOM     32  H43 UNL     1       6.239  26.883   4.348  1.00  0.00     0.274 HD
ATOM     33  H42 UNL     1       5.307  25.651   4.391  1.00  0.00     0.274 HD
ATOM     34  H41 UNL     1       6.690  25.609   5.362  1.00  0.00     0.274 HD
ENDBRANCH  30  31
ENDBRANCH  29  30
ENDBRANCH  28  29
ENDBRANCH  27  28
ENDBRANCH  22  27
ENDBRANCH  19  22
ENDBRANCH   1  18
BRANCH   1  35
HETATM   35  C18 UNL     1      13.254  23.482   6.436  1.00  0.00     0.137 C 
BRANCH  35  36
HETATM   36  O4  UNL     1      14.030  24.220   7.311  1.00  0.00    -0.348 OA
ATOM     37  H4  UNL     1      14.767  23.674   7.558  1.00  0.00     0.219 HD
ENDBRANCH  35  36
BRANCH  35  38
HETATM   38  N5  UNL     1      14.025  22.454   5.956  1.00  0.00    -0.350 N 
HETATM   39  C19 UNL     1      14.819  22.717   4.715  1.00  0.00     0.126 C 
HETATM   40  C20 UNL     1      14.916  21.522   3.835  1.00  0.00     0.025 C 
HETATM   41  C21 UNL     1      15.376  20.312   4.621  1.00  0.00    -0.003 C 
HETATM   42  C26 UNL     1      14.248  20.025   5.589  1.00  0.00     0.040 C 
HETATM   43  C27 UNL     1      14.216  21.178   6.580  1.00  0.00     0.178 C 
BRANCH  41  44
HETATM   44  C22 UNL     1      15.623  19.159   3.684  1.00  0.00    -0.048 C 
HETATM   45  C23 UNL     1      14.996  19.445   2.309  1.00  0.00     0.015 C 
HETATM   46  C24 UNL     1      17.075  18.917   3.433  1.00  0.00     0.015 C 
HETATM   47  C25 UNL     1      14.978  17.883   4.164  1.00  0.00     0.015 C 
ENDBRANCH  41  44
BRANCH  43  48
HETATM   48  C28 UNL     1      15.500  21.178   7.392  1.00  0.00     0.241 C 
HETATM   49  O5  UNL     1      16.065  22.268   7.722  1.00  0.00    -0.271 OA
HETATM   50  N6  UNL     1      16.135  19.989   7.823  1.00  0.00    -0.351 N 
ATOM     51  H6  UNL     1      15.703  19.102   7.566  1.00  0.00     0.163 HD
BRANCH  50  52
HETATM   52  C29 UNL     1      17.334  19.941   8.590  1.00  0.00     0.022 C 
HETATM   53  C30 UNL     1      18.029  18.573   8.510  1.00  0.00     0.037 C 
HETATM   54  C31 UNL     1      16.937  20.073  10.069  1.00  0.00     0.037 C 
HETATM   55  C32 UNL     1      18.355  20.976   8.243  1.00  0.00     0.037 C 
ENDBRANCH  50  52
ENDBRANCH  43  48
ENDBRANCH  35  38
ENDBRANCH   1  35
TORSDOF 20
ENDMDL
MODEL 4
REMARK VINA RESULT: -9.371026304      0.774      1.174
REMARK  20 active torsions:
REMARK  status: ('A' for Active; 'I' for Inactive)
REMARK    1  A    between atoms: C2_2  and  O1_4 
REMARK    2  A    between atoms: O1_4  and  C4_5 
REMARK       I    between atoms: C4_5  and  N1_7 
REMARK    3  A    between atoms: N1_7  and  C5_9 
REMARK    4  A    between atoms: C5_9  and  C6_10 
REMARK    5  A    between atoms: C9_13  and  C10_14 
REMARK    6  A    between atoms: C10_14  and  C11_15 
REMARK    7  A    between atoms: C11_15  and  N2_16 
REMARK    8  A    between atoms: C11_15  and  C18_33 
REMARK       I    between atoms: N2_16  and  C12_18 
REMARK    9  A    between atoms: C12_18  and  C13_20 
REMARK   10  A    between atoms: C13_20  and  N3_21 
REMARK   11  A    between atoms: C13_20  and  C14_25 
REMARK   12  A    between atoms: C14_25  and  C15_26 
REMARK   13  A    between atoms: C15_26  and  C16_27 
REMARK   14  A    between atoms: C16_27  and  C17_28 
REMARK   15  A    between atoms: C17_28  and  N4_29 
REMARK   16  A    between atoms: C18_33  and  O4_34 
REMARK   17  A    between atoms: C18_33  and  N5_36 
REMARK   18  A    between atoms: C21_39  and  C22_40 
REMARK   19  A    between atoms: C27_45  and  C28_46 
REMARK       I    between atoms: C28_46  and  N6_48 
REMARK   20  A    between atoms: N6_48  and  C29_50 
ROOT
HETATM    1  C11 UNL     1      12.002  24.125   6.440  1.00  0.00     0.159 C 
ENDROOT
BRANCH   1   2
HETATM    2  C10 UNL     1      11.538  25.339   7.051  1.00  0.00     0.038 C 
BRANCH   2   3
HETATM    3  C9  UNL     1      10.571  25.377   8.166  1.00  0.00    -0.012 C 
HETATM    4  C8  UNL     1       9.179  25.817   7.714  1.00  0.00     0.005 C 
HETATM    5  C7  UNL     1       9.144  27.301   7.451  1.00  0.00     0.010 C 
HETATM    6  C6  UNL     1       9.182  28.040   8.821  1.00  0.00     0.024 C 
HETATM    7  C34 UNL     1       9.873  27.157   9.790  1.00  0.00     0.010 C 
HETATM    8  C33 UNL     1      11.089  26.479   9.121  1.00  0.00     0.005 C 
BRANCH   6   9
HETATM    9  C5  UNL     1       7.817  28.452   9.185  1.00  0.00     0.070 C 
BRANCH   9  10
HETATM   10  N1  UNL     1       6.889  28.675   8.164  1.00  0.00    -0.316 N 
HETATM   11  C4  UNL     1       5.904  27.922   7.527  1.00  0.00     0.364 C 
HETATM   12  O2  UNL     1       5.670  26.742   7.807  1.00  0.00    -0.238 OA
ATOM     13  H1  UNL     1       6.947  29.623   7.794  1.00  0.00     0.170 HD
BRANCH  11  14
HETATM   14  O1  UNL     1       5.095  28.451   6.502  1.00  0.00    -0.299 OA
BRANCH  14  15
HETATM   15  C2  UNL     1       3.692  28.571   6.659  1.00  0.00     0.125 C 
HETATM   16  C1  UNL     1       3.297  29.333   7.881  1.00  0.00     0.040 C 
HETATM   17  C3  UNL     1       3.056  29.193   5.433  1.00  0.00     0.040 C 
ENDBRANCH  14  15
ENDBRANCH  11  14
ENDBRANCH   9  10
ENDBRANCH   6   9
ENDBRANCH   2   3
ENDBRANCH   1   2
BRANCH   1  18
HETATM   18  N2  UNL     1      11.829  24.353   4.938  1.00  0.00    -0.347 N 
HETATM   19  C12 UNL     1      11.268  23.385   4.112  1.00  0.00     0.248 C 
HETATM   20  O3  UNL     1      10.862  22.302   4.562  1.00  0.00    -0.271 OA
ATOM     21  H2  UNL     1      12.134  25.238   4.531  1.00  0.00     0.163 HD
BRANCH  19  22
HETATM   22  C13 UNL     1      11.138  23.618   2.648  1.00  0.00     0.274 C 
BRANCH  22  23
HETATM   23  N3  UNL     1      11.667  24.946   2.328  1.00  0.00    -0.067 N 
ATOM     24  H33 UNL     1      11.285  25.317   1.458  1.00  0.00     0.275 HD
ATOM     25  H32 UNL     1      11.314  25.667   2.957  1.00  0.00     0.275 HD
ATOM     26  H31 UNL     1      12.686  24.904   2.319  1.00  0.00     0.275 HD
ENDBRANCH  22  23
BRANCH  22  27
HETATM   27  C14 UNL     1       9.703  23.585   2.206  1.00  0.00     0.042 C 
BRANCH  27  28
HETATM   28  C15 UNL     1       8.942  24.844   2.220  1.00  0.00     0.004 C 
BRANCH  28  29
HETATM   29  C16 UNL     1       7.719  24.885   3.060  1.00  0.00     0.027 C 
BRANCH  29  30
HETATM   30  C17 UNL     1       7.951  25.954   4.143  1.00  0.00     0.229 C 
BRANCH  30  31
HETATM   31  N4  UNL     1       6.721  26.236   4.837  1.00  0.00    -0.079 N 
ATOM     32  H43 UNL     1       5.907  25.909   4.317  1.00  0.00     0.274 HD
ATOM     33  H42 UNL     1       6.612  25.656   5.669  1.00  0.00     0.274 HD
ATOM     34  H41 UNL     1       6.658  27.230   5.055  1.00  0.00     0.274 HD
ENDBRANCH  30  31
ENDBRANCH  29  30
ENDBRANCH  28  29
ENDBRANCH  27  28
ENDBRANCH  22  27
ENDBRANCH  19  22
ENDBRANCH   1  18
BRANCH   1  35
HETATM   35  C18 UNL     1      13.285  23.499   6.477  1.00  0.00     0.137 C 
BRANCH  35  36
HETATM   36  O4  UNL     1      14.056  24.209   7.380  1.00  0.00    -0.348 OA
ATOM     37  H4  UNL     1      14.904  23.784   7.416  1.00  0.00     0.219 HD
ENDBRANCH  35  36
BRANCH  35  38
HETATM   38  N5  UNL     1      14.054  22.478   5.981  1.00  0.00    -0.350 N 
HETATM   39  C19 UNL     1      14.851  22.760   4.746  1.00  0.00     0.126 C 
HETATM   40  C20 UNL     1      14.946  21.580   3.846  1.00  0.00     0.025 C 
HETATM   41  C21 UNL     1      15.401  20.355   4.611  1.00  0.00    -0.003 C 
HETATM   42  C26 UNL     1      14.271  20.055   5.573  1.00  0.00     0.040 C 
HETATM   43  C27 UNL     1      14.240  21.191   6.584  1.00  0.00     0.178 C 
BRANCH  41  44
HETATM   44  C22 UNL     1      15.647  19.217   3.656  1.00  0.00    -0.048 C 
HETATM   45  C23 UNL     1      15.018  17.922   4.197  1.00  0.00     0.015 C 
HETATM   46  C24 UNL     1      15.033  19.445   2.314  1.00  0.00     0.015 C 
HETATM   47  C25 UNL     1      17.114  18.915   3.491  1.00  0.00     0.015 C 
ENDBRANCH  41  44
BRANCH  43  48
HETATM   48  C28 UNL     1      15.523  21.173   7.397  1.00  0.00     0.241 C 
HETATM   49  O5  UNL     1      16.099  22.256   7.734  1.00  0.00    -0.271 OA
HETATM   50  N6  UNL     1      16.145  19.976   7.823  1.00  0.00    -0.351 N 
ATOM     51  H6  UNL     1      15.704  19.095   7.560  1.00  0.00     0.163 HD
BRANCH  50  52
HETATM   52  C29 UNL     1      17.342  19.912   8.592  1.00  0.00     0.022 C 
HETATM   53  C30 UNL     1      18.059  18.559   8.452  1.00  0.00     0.037 C 
HETATM   54  C31 UNL     1      16.938  19.969  10.074  1.00  0.00     0.037 C 
HETATM   55  C32 UNL     1      18.348  20.977   8.297  1.00  0.00     0.037 C 
ENDBRANCH  50  52
ENDBRANCH  43  48
ENDBRANCH  35  38
ENDBRANCH   1  35
TORSDOF 20
ENDMDL
MODEL 5
REMARK VINA RESULT: -9.364018237      1.134      1.898
REMARK  20 active torsions:
REMARK  status: ('A' for Active; 'I' for Inactive)
REMARK    1  A    between atoms: C2_2  and  O1_4 
REMARK    2  A    between atoms: O1_4  and  C4_5 
REMARK       I    between atoms: C4_5  and  N1_7 
REMARK    3  A    between atoms: N1_7  and  C5_9 
REMARK    4  A    between atoms: C5_9  and  C6_10 
REMARK    5  A    between atoms: C9_13  and  C10_14 
REMARK    6  A    between atoms: C10_14  and  C11_15 
REMARK    7  A    between atoms: C11_15  and  N2_16 
REMARK    8  A    between atoms: C11_15  and  C18_33 
REMARK       I    between atoms: N2_16  and  C12_18 
REMARK    9  A    between atoms: C12_18  and  C13_20 
REMARK   10  A    between atoms: C13_20  and  N3_21 
REMARK   11  A    between atoms: C13_20  and  C14_25 
REMARK   12  A    between atoms: C14_25  and  C15_26 
REMARK   13  A    between atoms: C15_26  and  C16_27 
REMARK   14  A    between atoms: C16_27  and  C17_28 
REMARK   15  A    between atoms: C17_28  and  N4_29 
REMARK   16  A    between atoms: C18_33  and  O4_34 
REMARK   17  A    between atoms: C18_33  and  N5_36 
REMARK   18  A    between atoms: C21_39  and  C22_40 
REMARK   19  A    between atoms: C27_45  and  C28_46 
REMARK       I    between atoms: C28_46  and  N6_48 
REMARK   20  A    between atoms: N6_48  and  C29_50 
ROOT
HETATM    1  C11 UNL     1      11.669  25.034   6.781  1.00  0.00     0.159 C 
ENDROOT
BRANCH   1   2
HETATM    2  C10 UNL     1      11.662  25.939   7.896  1.00  0.00     0.038 C 
BRANCH   2   3
HETATM    3  C9  UNL     1      10.603  25.962   8.925  1.00  0.00    -0.012 C 
HETATM    4  C8  UNL     1       9.214  26.180   8.325  1.00  0.00     0.005 C 
HETATM    5  C7  UNL     1       9.031  27.616   7.905  1.00  0.00     0.010 C 
HETATM    6  C6  UNL     1       8.861  28.481   9.189  1.00  0.00     0.024 C 
HETATM    7  C34 UNL     1       9.562  27.787  10.295  1.00  0.00     0.010 C 
HETATM    8  C33 UNL     1      10.903  27.205   9.795  1.00  0.00     0.005 C 
BRANCH   6   9
HETATM    9  C5  UNL     1       7.430  28.753   9.403  1.00  0.00     0.070 C 
BRANCH   9  10
HETATM   10  N1  UNL     1       6.583  28.792   8.293  1.00  0.00    -0.316 N 
HETATM   11  C4  UNL     1       5.268  29.186   8.053  1.00  0.00     0.364 C 
HETATM   12  O2  UNL     1       4.523  29.623   8.936  1.00  0.00    -0.238 OA
ATOM     13  H1  UNL     1       7.040  28.447   7.449  1.00  0.00     0.170 HD
BRANCH  11  14
HETATM   14  O1  UNL     1       4.679  29.112   6.775  1.00  0.00    -0.299 OA
BRANCH  14  15
HETATM   15  C2  UNL     1       4.416  27.865   6.156  1.00  0.00     0.125 C 
HETATM   16  C1  UNL     1       3.832  26.854   7.089  1.00  0.00     0.040 C 
HETATM   17  C3  UNL     1       3.518  28.033   4.947  1.00  0.00     0.040 C 
ENDBRANCH  14  15
ENDBRANCH  11  14
ENDBRANCH   9  10
ENDBRANCH   6   9
ENDBRANCH   2   3
ENDBRANCH   1   2
BRANCH   1  18
HETATM   18  N2  UNL     1      10.890  25.761   5.684  1.00  0.00    -0.347 N 
HETATM   19  C12 UNL     1       9.706  25.246   5.166  1.00  0.00     0.248 C 
HETATM   20  O3  UNL     1       9.220  24.184   5.586  1.00  0.00    -0.271 OA
ATOM     21  H2  UNL     1      11.247  26.646   5.323  1.00  0.00     0.163 HD
BRANCH  19  22
HETATM   22  C13 UNL     1       8.981  25.956   4.078  1.00  0.00     0.274 C 
BRANCH  22  23
HETATM   23  N3  UNL     1       7.781  26.583   4.635  1.00  0.00    -0.067 N 
ATOM     24  H33 UNL     1       7.560  27.470   4.182  1.00  0.00     0.275 HD
ATOM     25  H32 UNL     1       6.928  26.081   4.387  1.00  0.00     0.275 HD
ATOM     26  H31 UNL     1       7.894  26.679   5.644  1.00  0.00     0.275 HD
ENDBRANCH  22  23
BRANCH  22  27
HETATM   27  C14 UNL     1       8.537  25.011   2.998  1.00  0.00     0.042 C 
BRANCH  27  28
HETATM   28  C15 UNL     1       9.533  24.562   2.013  1.00  0.00     0.004 C 
BRANCH  28  29
HETATM   29  C16 UNL     1      10.105  23.205   2.201  1.00  0.00     0.027 C 
BRANCH  29  30
HETATM   30  C17 UNL     1      11.519  23.388   2.779  1.00  0.00     0.229 C 
BRANCH  30  31
HETATM   31  N4  UNL     1      12.026  24.696   2.453  1.00  0.00    -0.079 N 
ATOM     32  H43 UNL     1      12.107  24.833   1.446  1.00  0.00     0.274 HD
ATOM     33  H42 UNL     1      11.344  25.429   2.651  1.00  0.00     0.274 HD
ATOM     34  H41 UNL     1      12.912  24.861   2.931  1.00  0.00     0.274 HD
ENDBRANCH  30  31
ENDBRANCH  29  30
ENDBRANCH  28  29
ENDBRANCH  27  28
ENDBRANCH  22  27
ENDBRANCH  19  22
ENDBRANCH   1  18
BRANCH   1  35
HETATM   35  C18 UNL     1      12.758  24.494   6.031  1.00  0.00     0.137 C 
BRANCH  35  36
HETATM   36  O4  UNL     1      13.200  25.492   5.183  1.00  0.00    -0.348 OA
ATOM     37  H4  UNL     1      13.422  25.079   4.358  1.00  0.00     0.219 HD
ENDBRANCH  35  36
BRANCH  35  38
HETATM   38  N5  UNL     1      13.540  23.387   5.820  1.00  0.00    -0.350 N 
HETATM   39  C19 UNL     1      14.657  23.517   4.833  1.00  0.00     0.126 C 
HETATM   40  C20 UNL     1      14.884  22.267   4.060  1.00  0.00     0.025 C 
HETATM   41  C21 UNL     1      15.013  21.077   4.988  1.00  0.00    -0.003 C 
HETATM   42  C26 UNL     1      13.646  20.930   5.623  1.00  0.00     0.040 C 
HETATM   43  C27 UNL     1      13.447  22.140   6.522  1.00  0.00     0.178 C 
BRANCH  41  44
HETATM   44  C22 UNL     1      15.403  19.854   4.199  1.00  0.00    -0.048 C 
HETATM   45  C23 UNL     1      14.940  19.991   2.739  1.00  0.00     0.015 C 
HETATM   46  C24 UNL     1      16.880  19.647   4.146  1.00  0.00     0.015 C 
HETATM   47  C25 UNL     1      14.740  18.604   4.718  1.00  0.00     0.015 C 
ENDBRANCH  41  44
BRANCH  43  48
HETATM   48  C28 UNL     1      14.462  22.099   7.652  1.00  0.00     0.241 C 
HETATM   49  O5  UNL     1      15.003  23.165   8.084  1.00  0.00    -0.271 OA
HETATM   50  N6  UNL     1      14.860  20.895   8.281  1.00  0.00    -0.351 N 
ATOM     51  H6  UNL     1      14.443  20.027   7.947  1.00  0.00     0.163 HD
BRANCH  50  52
HETATM   52  C29 UNL     1      15.801  20.809   9.346  1.00  0.00     0.022 C 
HETATM   53  C30 UNL     1      16.027  19.363   9.815  1.00  0.00     0.037 C 
HETATM   54  C31 UNL     1      15.176  21.504  10.567  1.00  0.00     0.037 C 
HETATM   55  C32 UNL     1      17.145  21.396   9.060  1.00  0.00     0.037 C 
ENDBRANCH  50  52
ENDBRANCH  43  48
ENDBRANCH  35  38
ENDBRANCH   1  35
TORSDOF 20
ENDMDL
