MODEL 1
REMARK VINA RESULT: -6.954179077      0.000      0.000
REMARK  13 active torsions:
REMARK  status: ('A' for Active; 'I' for Inactive)
REMARK       I    between atoms: C2_2  and  N1_4 
REMARK    1  A    between atoms: N1_4  and  C3_6 
REMARK    2  A    between atoms: C3_6  and  C4_7 
REMARK    3  A    between atoms: C3_6  and  C8_15 
REMARK    4  A    between atoms: C4_7  and  C5_8 
REMARK       I    between atoms: C8_15  and  N4_17 
REMARK    5  A    between atoms: N4_17  and  C9_19 
REMARK    6  A    between atoms: C17_27  and  C18_28 
REMARK    7  A    between atoms: C18_28  and  C19_29 
REMARK    8  A    between atoms: C19_29  and  C20_30 
REMARK    9  A    between atoms: C20_30  and  C21_31 
REMARK       I    between atoms: C21_31  and  N5_33 
REMARK   10  A    between atoms: C27_40  and  C28_41 
REMARK   11  A    between atoms: C28_41  and  C29_42 
REMARK   12  A    between atoms: C29_42  and  C30_43 
REMARK   13  A    between atoms: C30_43  and  C31_44 
ROOT
HETATM    1  C9  UNL     1      16.996  18.216  10.678  1.00  0.00     0.176 C 
HETATM    2  C10 UNL     1      16.140  16.973  10.901  1.00  0.00     0.035 C 
HETATM    3  C11 UNL     1      17.113  15.783  11.080  1.00  0.00     0.002 C 
HETATM    4  C12 UNL     1      17.608  15.269   9.750  1.00  0.00     0.000 C 
HETATM    5  C13 UNL     1      19.105  15.308   9.736  1.00  0.00     0.000 C 
HETATM    6  C14 UNL     1      19.732  15.212   8.393  1.00  0.00     0.000 C 
HETATM    7  C15 UNL     1      19.098  16.022   7.322  1.00  0.00     0.000 C 
HETATM    8  C16 UNL     1      19.384  17.509   7.397  1.00  0.00     0.005 C 
HETATM    9  C17 UNL     1      18.027  18.168   6.952  1.00  0.00    -0.012 C 
HETATM   10  C24 UNL     1      18.147  19.644   7.203  1.00  0.00     0.041 C 
HETATM   11  C25 UNL     1      18.044  20.010   8.650  1.00  0.00     0.150 C 
HETATM   12  S1  UNL     1      18.773  21.709   8.759  1.00  0.00    -0.141 SA
HETATM   13  C26 UNL     1      17.174  22.474   8.330  1.00  0.00     0.101 C 
HETATM   14  C27 UNL     1      16.148  21.531   8.784  1.00  0.00     0.098 C 
HETATM   15  N8  UNL     1      16.781  20.281   9.202  1.00  0.00    -0.331 N 
HETATM   16  C32 UNL     1      16.215  19.322  10.119  1.00  0.00     0.244 C 
HETATM   17  O4  UNL     1      14.985  19.437  10.461  1.00  0.00    -0.271 OA
ENDROOT
BRANCH   1  18
HETATM   18  N4  UNL     1      17.698  18.609  11.899  1.00  0.00    -0.346 N 
HETATM   19  C8  UNL     1      19.114  18.680  11.943  1.00  0.00     0.241 C 
HETATM   20  O2  UNL     1      19.842  18.386  11.000  1.00  0.00    -0.271 OA
ATOM     21  H4  UNL     1      17.159  18.838  12.734  1.00  0.00     0.163 HD
BRANCH  19  22
HETATM   22  C3  UNL     1      19.764  19.176  13.233  1.00  0.00     0.182 C 
BRANCH  22  23
HETATM   23  N1  UNL     1      21.002  19.851  12.718  1.00  0.00    -0.348 N 
HETATM   24  C2  UNL     1      21.691  20.740  13.549  1.00  0.00     0.214 C 
HETATM   25  C1  UNL     1      22.878  21.454  13.067  1.00  0.00     0.117 C 
HETATM   26  O1  UNL     1      21.345  20.997  14.751  1.00  0.00    -0.274 OA
ATOM     27  H1  UNL     1      21.336  19.664  11.772  1.00  0.00     0.163 HD
ENDBRANCH  22  23
BRANCH  22  28
HETATM   28  C4  UNL     1      20.366  17.850  13.775  1.00  0.00     0.093 C 
BRANCH  28  29
HETATM   29  C5  UNL     1      19.357  17.075  14.464  1.00  0.00     0.028 A 
HETATM   30  C6  UNL     1      18.961  15.791  14.394  1.00  0.00     0.114 A 
HETATM   31  N2  UNL     1      17.984  15.589  15.286  1.00  0.00    -0.360 N 
HETATM   32  C7  UNL     1      17.762  16.759  15.920  1.00  0.00     0.180 A 
ATOM     33  H2  UNL     1      17.496  14.709  15.457  1.00  0.00     0.166 HD
HETATM   34  N3  UNL     1      18.573  17.677  15.444  1.00  0.00    -0.354 N 
ATOM     35  H3  UNL     1      18.619  18.653  15.738  1.00  0.00     0.166 HD
ENDBRANCH  28  29
ENDBRANCH  22  28
ENDBRANCH  19  22
ENDBRANCH   1  18
BRANCH  14  36
HETATM   36  C28 UNL     1      15.091  21.123   7.815  1.00  0.00     0.026 C 
BRANCH  36  37
HETATM   37  C29 UNL     1      14.870  21.910   6.599  1.00  0.00     0.009 C 
BRANCH  37  38
HETATM   38  C30 UNL     1      13.946  23.073   6.626  1.00  0.00     0.072 C 
BRANCH  38  39
HETATM   39  C31 UNL     1      13.893  23.644   5.208  1.00  0.00     0.086 C 
HETATM   40  N6  UNL     1      14.932  24.228   4.733  1.00  0.00    -0.391 N 
ATOM     41  H62 UNL     1      15.762  24.309   5.322  1.00  0.00     0.157 HD
ATOM     42  H61 UNL     1      14.897  24.608   3.788  1.00  0.00     0.157 HD
HETATM   43  N7  UNL     1      12.753  23.533   4.399  1.00  0.00    -0.088 NA
ENDBRANCH  38  39
ENDBRANCH  37  38
ENDBRANCH  36  37
ENDBRANCH  14  36
BRANCH   9  44
HETATM   44  C18 UNL     1      17.991  17.859   5.495  1.00  0.00     0.005 C 
BRANCH  44  45
HETATM   45  C19 UNL     1      18.280  19.006   4.570  1.00  0.00     0.010 C 
BRANCH  45  46
HETATM   46  C20 UNL     1      16.977  19.140   3.737  1.00  0.00     0.103 C 
BRANCH  46  47
HETATM   47  C21 UNL     1      17.199  18.342   2.481  1.00  0.00     0.218 C 
HETATM   48  O3  UNL     1      18.357  17.956   2.231  1.00  0.00    -0.273 OA
HETATM   49  N5  UNL     1      16.133  18.042   1.610  1.00  0.00    -0.361 N 
HETATM   50  C22 UNL     1      14.762  18.378   1.882  1.00  0.00     0.152 C 
HETATM   51  C23 UNL     1      16.452  17.410   0.320  1.00  0.00     0.152 C 
ENDBRANCH  46  47
ENDBRANCH  45  46
ENDBRANCH  44  45
ENDBRANCH   9  44
TORSDOF 13
ENDMDL
MODEL 2
REMARK VINA RESULT: -6.933543943      1.157      2.551
REMARK  13 active torsions:
REMARK  status: ('A' for Active; 'I' for Inactive)
REMARK       I    between atoms: C2_2  and  N1_4 
REMARK    1  A    between atoms: N1_4  and  C3_6 
REMARK    2  A    between atoms: C3_6  and  C4_7 
REMARK    3  A    between atoms: C3_6  and  C8_15 
REMARK    4  A    between atoms: C4_7  and  C5_8 
REMARK       I    between atoms: C8_15  and  N4_17 
REMARK    5  A    between atoms: N4_17  and  C9_19 
REMARK    6  A    between atoms: C17_27  and  C18_28 
REMARK    7  A    between atoms: C18_28  and  C19_29 
REMARK    8  A    between atoms: C19_29  and  C20_30 
REMARK    9  A    between atoms: C20_30  and  C21_31 
REMARK       I    between atoms: C21_31  and  N5_33 
REMARK   10  A    between atoms: C27_40  and  C28_41 
REMARK   11  A    between atoms: C28_41  and  C29_42 
REMARK   12  A    between atoms: C29_42  and  C30_43 
REMARK   13  A    between atoms: C30_43  and  C31_44 
ROOT
HETATM    1  C9  UNL     1      17.270  17.787  10.612  1.00  0.00     0.176 C 
HETATM    2  C10 UNL     1      16.435  16.524  10.798  1.00  0.00     0.035 C 
HETATM    3  C11 UNL     1      17.420  15.330  10.807  1.00  0.00     0.002 C 
HETATM    4  C12 UNL     1      17.813  14.929   9.405  1.00  0.00     0.000 C 
HETATM    5  C13 UNL     1      19.305  14.980   9.282  1.00  0.00     0.000 C 
HETATM    6  C14 UNL     1      19.828  14.997   7.891  1.00  0.00     0.000 C 
HETATM    7  C15 UNL     1      19.113  15.887   6.941  1.00  0.00     0.000 C 
HETATM    8  C16 UNL     1      19.402  17.364   7.114  1.00  0.00     0.005 C 
HETATM    9  C17 UNL     1      18.015  18.048   6.828  1.00  0.00    -0.012 C 
HETATM   10  C24 UNL     1      18.152  19.499   7.188  1.00  0.00     0.041 C 
HETATM   11  C25 UNL     1      18.159  19.746   8.663  1.00  0.00     0.150 C 
HETATM   12  S1  UNL     1      18.892  21.436   8.855  1.00  0.00    -0.141 SA
HETATM   13  C26 UNL     1      17.264  22.222   8.611  1.00  0.00     0.101 C 
HETATM   14  C27 UNL     1      16.276  21.238   9.064  1.00  0.00     0.098 C 
HETATM   15  N8  UNL     1      16.940  19.962   9.329  1.00  0.00    -0.331 N 
HETATM   16  C32 UNL     1      16.447  18.929  10.205  1.00  0.00     0.244 C 
HETATM   17  O4  UNL     1      15.246  19.007  10.648  1.00  0.00    -0.271 OA
ENDROOT
BRANCH   1  18
HETATM   18  N4  UNL     1      18.062  18.085  11.805  1.00  0.00    -0.346 N 
HETATM   19  C8  UNL     1      19.480  18.097  11.762  1.00  0.00     0.241 C 
HETATM   20  O2  UNL     1      20.134  17.824  10.761  1.00  0.00    -0.271 OA
ATOM     21  H4  UNL     1      17.586  18.290  12.683  1.00  0.00     0.163 HD
BRANCH  19  22
HETATM   22  C3  UNL     1      20.228  18.496  13.032  1.00  0.00     0.182 C 
BRANCH  22  23
HETATM   23  N1  UNL     1      19.172  18.318  14.084  1.00  0.00    -0.348 N 
HETATM   24  C2  UNL     1      19.315  17.299  15.030  1.00  0.00     0.214 C 
HETATM   25  C1  UNL     1      18.283  17.063  16.045  1.00  0.00     0.117 C 
HETATM   26  O1  UNL     1      20.321  16.512  15.076  1.00  0.00    -0.274 OA
ATOM     27  H1  UNL     1      18.359  18.934  14.108  1.00  0.00     0.163 HD
ENDBRANCH  22  23
BRANCH  22  28
HETATM   28  C4  UNL     1      20.229  20.043  12.886  1.00  0.00     0.093 C 
BRANCH  28  29
HETATM   29  C5  UNL     1      21.234  20.636  13.741  1.00  0.00     0.028 A 
HETATM   30  C6  UNL     1      22.498  21.053  13.540  1.00  0.00     0.114 A 
HETATM   31  N2  UNL     1      22.978  21.552  14.685  1.00  0.00    -0.360 N 
HETATM   32  C7  UNL     1      22.005  21.445  15.615  1.00  0.00     0.180 A 
ATOM     33  H2  UNL     1      23.909  21.943  14.829  1.00  0.00     0.166 HD
HETATM   34  N3  UNL     1      20.942  20.892  15.077  1.00  0.00    -0.354 N 
ATOM     35  H3  UNL     1      20.062  20.689  15.552  1.00  0.00     0.166 HD
ENDBRANCH  28  29
ENDBRANCH  22  28
ENDBRANCH  19  22
ENDBRANCH   1  18
BRANCH  14  36
HETATM   36  C28 UNL     1      15.149  20.901   8.147  1.00  0.00     0.026 C 
BRANCH  36  37
HETATM   37  C29 UNL     1      15.138  21.425   6.779  1.00  0.00     0.009 C 
BRANCH  37  38
HETATM   38  C30 UNL     1      14.417  22.687   6.473  1.00  0.00     0.072 C 
BRANCH  38  39
HETATM   39  C31 UNL     1      14.783  23.085   5.043  1.00  0.00     0.086 C 
HETATM   40  N6  UNL     1      14.894  24.331   4.753  1.00  0.00    -0.391 N 
ATOM     41  H62 UNL     1      14.718  25.022   5.483  1.00  0.00     0.157 HD
ATOM     42  H61 UNL     1      15.138  24.597   3.800  1.00  0.00     0.157 HD
HETATM   43  N7  UNL     1      15.024  22.136   4.039  1.00  0.00    -0.088 NA
ENDBRANCH  38  39
ENDBRANCH  37  38
ENDBRANCH  36  37
ENDBRANCH  14  36
BRANCH   9  44
HETATM   44  C18 UNL     1      17.869  17.857   5.357  1.00  0.00     0.005 C 
BRANCH  44  45
HETATM   45  C19 UNL     1      18.190  19.048   4.502  1.00  0.00     0.010 C 
BRANCH  45  46
HETATM   46  C20 UNL     1      16.925  19.215   3.619  1.00  0.00     0.103 C 
BRANCH  46  47
HETATM   47  C21 UNL     1      17.154  18.367   2.396  1.00  0.00     0.218 C 
HETATM   48  O3  UNL     1      18.313  17.967   2.172  1.00  0.00    -0.273 OA
HETATM   49  N5  UNL     1      16.094  18.038   1.528  1.00  0.00    -0.361 N 
HETATM   50  C22 UNL     1      14.723  18.390   1.775  1.00  0.00     0.152 C 
HETATM   51  C23 UNL     1      16.421  17.355   0.267  1.00  0.00     0.152 C 
ENDBRANCH  46  47
ENDBRANCH  45  46
ENDBRANCH  44  45
ENDBRANCH   9  44
TORSDOF 13
ENDMDL
MODEL 3
REMARK VINA RESULT: -6.591577659      1.923      3.024
REMARK  13 active torsions:
REMARK  status: ('A' for Active; 'I' for Inactive)
REMARK       I    between atoms: C2_2  and  N1_4 
REMARK    1  A    between atoms: N1_4  and  C3_6 
REMARK    2  A    between atoms: C3_6  and  C4_7 
REMARK    3  A    between atoms: C3_6  and  C8_15 
REMARK    4  A    between atoms: C4_7  and  C5_8 
REMARK       I    between atoms: C8_15  and  N4_17 
REMARK    5  A    between atoms: N4_17  and  C9_19 
REMARK    6  A    between atoms: C17_27  and  C18_28 
REMARK    7  A    between atoms: C18_28  and  C19_29 
REMARK    8  A    between atoms: C19_29  and  C20_30 
REMARK    9  A    between atoms: C20_30  and  C21_31 
REMARK       I    between atoms: C21_31  and  N5_33 
REMARK   10  A    between atoms: C27_40  and  C28_41 
REMARK   11  A    between atoms: C28_41  and  C29_42 
REMARK   12  A    between atoms: C29_42  and  C30_43 
REMARK   13  A    between atoms: C30_43  and  C31_44 
ROOT
HETATM    1  C9  UNL     1      18.220  17.712   9.648  1.00  0.00     0.176 C 
HETATM    2  C10 UNL     1      17.592  16.341   9.876  1.00  0.00     0.035 C 
HETATM    3  C11 UNL     1      18.564  15.296   9.278  1.00  0.00     0.002 C 
HETATM    4  C12 UNL     1      18.400  15.182   7.781  1.00  0.00     0.000 C 
HETATM    5  C13 UNL     1      19.721  15.440   7.123  1.00  0.00     0.000 C 
HETATM    6  C14 UNL     1      19.658  15.749   5.672  1.00  0.00     0.000 C 
HETATM    7  C15 UNL     1      18.583  16.685   5.254  1.00  0.00     0.000 C 
HETATM    8  C16 UNL     1      18.838  18.139   5.598  1.00  0.00     0.005 C 
HETATM    9  C17 UNL     1      17.415  18.680   5.992  1.00  0.00    -0.012 C 
HETATM   10  C24 UNL     1      17.603  20.058   6.557  1.00  0.00     0.041 C 
HETATM   11  C25 UNL     1      18.172  20.060   7.940  1.00  0.00     0.150 C 
HETATM   12  S1  UNL     1      18.830  21.775   8.178  1.00  0.00    -0.141 SA
HETATM   13  C26 UNL     1      17.197  22.378   8.720  1.00  0.00     0.101 C 
HETATM   14  C27 UNL     1      16.518  21.217   9.303  1.00  0.00     0.098 C 
HETATM   15  N8  UNL     1      17.300  20.009   9.041  1.00  0.00    -0.331 N 
HETATM   16  C32 UNL     1      17.244  18.792   9.813  1.00  0.00     0.244 C 
HETATM   17  O4  UNL     1      16.308  18.645  10.678  1.00  0.00    -0.271 OA
ENDROOT
BRANCH   1  18
HETATM   18  N4  UNL     1      19.397  17.910  10.492  1.00  0.00    -0.346 N 
HETATM   19  C8  UNL     1      19.350  17.668  11.889  1.00  0.00     0.241 C 
HETATM   20  O2  UNL     1      18.336  17.323  12.487  1.00  0.00    -0.271 OA
ATOM     21  H4  UNL     1      20.269  18.227  10.068  1.00  0.00     0.163 HD
BRANCH  19  22
HETATM   22  C3  UNL     1      20.644  17.823  12.684  1.00  0.00     0.182 C 
BRANCH  22  23
HETATM   23  N1  UNL     1      20.870  16.425  13.184  1.00  0.00    -0.348 N 
HETATM   24  C2  UNL     1      21.399  15.466  12.314  1.00  0.00     0.214 C 
HETATM   25  C1  UNL     1      21.591  14.079  12.750  1.00  0.00     0.117 C 
HETATM   26  O1  UNL     1      21.735  15.715  11.107  1.00  0.00    -0.274 OA
ATOM     27  H1  UNL     1      20.641  16.178  14.147  1.00  0.00     0.163 HD
ENDBRANCH  22  23
BRANCH  22  28
HETATM   28  C4  UNL     1      20.105  18.503  13.973  1.00  0.00     0.093 C 
BRANCH  28  29
HETATM   29  C5  UNL     1      20.870  19.692  14.280  1.00  0.00     0.028 A 
HETATM   30  C6  UNL     1      21.808  20.393  13.616  1.00  0.00     0.114 A 
HETATM   31  N2  UNL     1      22.176  21.441  14.362  1.00  0.00    -0.360 N 
HETATM   32  C7  UNL     1      21.464  21.396  15.508  1.00  0.00     0.180 A 
ATOM     33  H2  UNL     1      22.869  22.147  14.111  1.00  0.00     0.166 HD
HETATM   34  N3  UNL     1      20.669  20.350  15.490  1.00  0.00    -0.354 N 
ATOM     35  H3  UNL     1      20.023  20.071  16.229  1.00  0.00     0.166 HD
ENDBRANCH  28  29
ENDBRANCH  22  28
ENDBRANCH  19  22
ENDBRANCH   1  18
BRANCH  14  36
HETATM   36  C28 UNL     1      15.142  20.895   8.825  1.00  0.00     0.026 C 
BRANCH  36  37
HETATM   37  C29 UNL     1      14.451  21.812   7.915  1.00  0.00     0.009 C 
BRANCH  37  38
HETATM   38  C30 UNL     1      14.159  21.393   6.521  1.00  0.00     0.072 C 
BRANCH  38  39
HETATM   39  C31 UNL     1      14.888  22.366   5.592  1.00  0.00     0.086 C 
HETATM   40  N6  UNL     1      15.349  23.462   6.078  1.00  0.00    -0.391 N 
ATOM     41  H62 UNL     1      15.203  23.659   7.068  1.00  0.00     0.157 HD
ATOM     42  H61 UNL     1      15.835  24.111   5.459  1.00  0.00     0.157 HD
HETATM   43  N7  UNL     1      15.089  22.095   4.231  1.00  0.00    -0.088 NA
ENDBRANCH  38  39
ENDBRANCH  37  38
ENDBRANCH  36  37
ENDBRANCH  14  36
BRANCH   9  44
HETATM   44  C18 UNL     1      16.717  18.715   4.676  1.00  0.00     0.005 C 
BRANCH  44  45
HETATM   45  C19 UNL     1      15.235  18.477   4.708  1.00  0.00     0.010 C 
BRANCH  45  46
HETATM   46  C20 UNL     1      14.985  17.572   3.471  1.00  0.00     0.103 C 
BRANCH  46  47
HETATM   47  C21 UNL     1      15.124  18.463   2.266  1.00  0.00     0.218 C 
HETATM   48  O3  UNL     1      14.400  19.477   2.203  1.00  0.00    -0.273 OA
HETATM   49  N5  UNL     1      16.040  18.163   1.239  1.00  0.00    -0.361 N 
HETATM   50  C22 UNL     1      16.964  17.064   1.291  1.00  0.00     0.152 C 
HETATM   51  C23 UNL     1      15.999  18.980   0.016  1.00  0.00     0.152 C 
ENDBRANCH  46  47
ENDBRANCH  45  46
ENDBRANCH  44  45
ENDBRANCH   9  44
TORSDOF 13
ENDMDL
MODEL 4
REMARK VINA RESULT: -6.277805577     10.123     17.130
REMARK  13 active torsions:
REMARK  status: ('A' for Active; 'I' for Inactive)
REMARK       I    between atoms: C2_2  and  N1_4 
REMARK    1  A    between atoms: N1_4  and  C3_6 
REMARK    2  A    between atoms: C3_6  and  C4_7 
REMARK    3  A    between atoms: C3_6  and  C8_15 
REMARK    4  A    between atoms: C4_7  and  C5_8 
REMARK       I    between atoms: C8_15  and  N4_17 
REMARK    5  A    between atoms: N4_17  and  C9_19 
REMARK    6  A    between atoms: C17_27  and  C18_28 
REMARK    7  A    between atoms: C18_28  and  C19_29 
REMARK    8  A    between atoms: C19_29  and  C20_30 
REMARK    9  A    between atoms: C20_30  and  C21_31 
REMARK       I    between atoms: C21_31  and  N5_33 
REMARK   10  A    between atoms: C27_40  and  C28_41 
REMARK   11  A    between atoms: C28_41  and  C29_42 
REMARK   12  A    between atoms: C29_42  and  C30_43 
REMARK   13  A    between atoms: C30_43  and  C31_44 
ROOT
HETATM    1  C9  UNL     1       5.094  23.759   3.168  1.00  0.00     0.176 C 
HETATM    2  C10 UNL     1       4.242  22.968   4.155  1.00  0.00     0.035 C 
HETATM    3  C11 UNL     1       2.960  23.797   4.408  1.00  0.00     0.002 C 
HETATM    4  C12 UNL     1       3.203  24.896   5.415  1.00  0.00     0.000 C 
HETATM    5  C13 UNL     1       2.836  26.212   4.802  1.00  0.00     0.000 C 
HETATM    6  C14 UNL     1       3.371  27.410   5.499  1.00  0.00     0.000 C 
HETATM    7  C15 UNL     1       4.787  27.324   5.940  1.00  0.00     0.000 C 
HETATM    8  C16 UNL     1       5.808  27.460   4.828  1.00  0.00     0.005 C 
HETATM    9  C17 UNL     1       6.940  26.450   5.241  1.00  0.00    -0.012 C 
HETATM   10  C24 UNL     1       7.896  26.356   4.087  1.00  0.00     0.041 C 
HETATM   11  C25 UNL     1       7.365  25.554   2.941  1.00  0.00     0.150 C 
HETATM   12  S1  UNL     1       8.409  26.050   1.494  1.00  0.00    -0.141 SA
HETATM   13  C26 UNL     1       9.679  24.815   1.926  1.00  0.00     0.101 C 
HETATM   14  C27 UNL     1       8.969  23.747   2.638  1.00  0.00     0.098 C 
HETATM   15  N8  UNL     1       7.595  24.168   2.908  1.00  0.00    -0.331 N 
HETATM   16  C32 UNL     1       6.480  23.284   3.141  1.00  0.00     0.244 C 
HETATM   17  O4  UNL     1       6.703  22.036   3.333  1.00  0.00    -0.271 OA
ENDROOT
BRANCH   1  18
HETATM   18  N4  UNL     1       4.498  23.769   1.832  1.00  0.00    -0.346 N 
HETATM   19  C8  UNL     1       4.070  24.978   1.226  1.00  0.00     0.241 C 
HETATM   20  O2  UNL     1       4.126  26.073   1.775  1.00  0.00    -0.271 OA
ATOM     21  H4  UNL     1       4.388  22.889   1.327  1.00  0.00     0.163 HD
BRANCH  19  22
HETATM   22  C3  UNL     1       3.531  24.908  -0.201  1.00  0.00     0.182 C 
BRANCH  22  23
HETATM   23  N1  UNL     1       3.022  26.305  -0.409  1.00  0.00    -0.348 N 
HETATM   24  C2  UNL     1       2.823  26.773  -1.712  1.00  0.00     0.214 C 
HETATM   25  C1  UNL     1       2.372  28.146  -1.958  1.00  0.00     0.117 C 
HETATM   26  O1  UNL     1       3.023  26.064  -2.756  1.00  0.00    -0.274 OA
ATOM     27  H1  UNL     1       2.824  26.906   0.391  1.00  0.00     0.163 HD
ENDBRANCH  22  23
BRANCH  22  28
HETATM   28  C4  UNL     1       2.196  24.150   0.036  1.00  0.00     0.093 C 
BRANCH  28  29
HETATM   29  C5  UNL     1       2.073  23.034  -0.876  1.00  0.00     0.028 A 
HETATM   30  C6  UNL     1       2.005  21.700  -0.711  1.00  0.00     0.114 A 
HETATM   31  N2  UNL     1       1.872  21.120  -1.910  1.00  0.00    -0.360 N 
HETATM   32  C7  UNL     1       1.859  22.101  -2.837  1.00  0.00     0.180 A 
ATOM     33  H2  UNL     1       1.794  20.119  -2.090  1.00  0.00     0.166 HD
HETATM   34  N3  UNL     1       1.983  23.267  -2.245  1.00  0.00    -0.354 N 
ATOM     35  H3  UNL     1       2.008  24.177  -2.705  1.00  0.00     0.166 HD
ENDBRANCH  28  29
ENDBRANCH  22  28
ENDBRANCH  19  22
ENDBRANCH   1  18
BRANCH  14  36
HETATM   36  C28 UNL     1       9.504  23.307   3.958  1.00  0.00     0.026 C 
BRANCH  36  37
HETATM   37  C29 UNL     1      10.691  23.957   4.520  1.00  0.00     0.009 C 
BRANCH  37  38
HETATM   38  C30 UNL     1      11.013  23.795   5.960  1.00  0.00     0.072 C 
BRANCH  38  39
HETATM   39  C31 UNL     1      12.077  24.838   6.308  1.00  0.00     0.086 C 
HETATM   40  N6  UNL     1      12.784  25.344   5.363  1.00  0.00    -0.391 N 
ATOM     41  H62 UNL     1      12.626  25.025   4.407  1.00  0.00     0.157 HD
ATOM     42  H61 UNL     1      13.493  26.039   5.595  1.00  0.00     0.157 HD
HETATM   43  N7  UNL     1      12.294  25.277   7.622  1.00  0.00    -0.088 NA
ENDBRANCH  38  39
ENDBRANCH  37  38
ENDBRANCH  36  37
ENDBRANCH  14  36
BRANCH   9  44
HETATM   44  C18 UNL     1       7.558  27.133   6.412  1.00  0.00     0.005 C 
BRANCH  44  45
HETATM   45  C19 UNL     1       8.647  26.378   7.117  1.00  0.00     0.010 C 
BRANCH  45  46
HETATM   46  C20 UNL     1       8.046  26.095   8.520  1.00  0.00     0.103 C 
BRANCH  46  47
HETATM   47  C21 UNL     1       8.912  26.835   9.504  1.00  0.00     0.218 C 
HETATM   48  O3  UNL     1       9.965  26.287   9.883  1.00  0.00    -0.273 OA
HETATM   49  N5  UNL     1       8.544  28.107   9.985  1.00  0.00    -0.361 N 
HETATM   50  C22 UNL     1       7.393  28.832   9.522  1.00  0.00     0.152 C 
HETATM   51  C23 UNL     1       9.346  28.693  11.070  1.00  0.00     0.152 C 
ENDBRANCH  46  47
ENDBRANCH  45  46
ENDBRANCH  44  45
ENDBRANCH   9  44
TORSDOF 13
ENDMDL
MODEL 5
REMARK VINA RESULT: -6.275741514      1.034      1.218
REMARK  13 active torsions:
REMARK  status: ('A' for Active; 'I' for Inactive)
REMARK       I    between atoms: C2_2  and  N1_4 
REMARK    1  A    between atoms: N1_4  and  C3_6 
REMARK    2  A    between atoms: C3_6  and  C4_7 
REMARK    3  A    between atoms: C3_6  and  C8_15 
REMARK    4  A    between atoms: C4_7  and  C5_8 
REMARK       I    between atoms: C8_15  and  N4_17 
REMARK    5  A    between atoms: N4_17  and  C9_19 
REMARK    6  A    between atoms: C17_27  and  C18_28 
REMARK    7  A    between atoms: C18_28  and  C19_29 
REMARK    8  A    between atoms: C19_29  and  C20_30 
REMARK    9  A    between atoms: C20_30  and  C21_31 
REMARK       I    between atoms: C21_31  and  N5_33 
REMARK   10  A    between atoms: C27_40  and  C28_41 
REMARK   11  A    between atoms: C28_41  and  C29_42 
REMARK   12  A    between atoms: C29_42  and  C30_43 
REMARK   13  A    between atoms: C30_43  and  C31_44 
ROOT
HETATM    1  C9  UNL     1      17.052  18.200  10.631  1.00  0.00     0.176 C 
HETATM    2  C10 UNL     1      16.195  16.960  10.861  1.00  0.00     0.035 C 
HETATM    3  C11 UNL     1      17.166  15.763  11.004  1.00  0.00     0.002 C 
HETATM    4  C12 UNL     1      17.627  15.261   9.657  1.00  0.00     0.000 C 
HETATM    5  C13 UNL     1      19.124  15.293   9.609  1.00  0.00     0.000 C 
HETATM    6  C14 UNL     1      19.718  15.208   8.250  1.00  0.00     0.000 C 
HETATM    7  C15 UNL     1      19.063  16.033   7.203  1.00  0.00     0.000 C 
HETATM    8  C16 UNL     1      19.358  17.517   7.288  1.00  0.00     0.005 C 
HETATM    9  C17 UNL     1      17.995  18.189   6.882  1.00  0.00    -0.012 C 
HETATM   10  C24 UNL     1      18.128  19.661   7.145  1.00  0.00     0.041 C 
HETATM   11  C25 UNL     1      18.061  20.011   8.598  1.00  0.00     0.150 C 
HETATM   12  S1  UNL     1      18.801  21.705   8.709  1.00  0.00    -0.141 SA
HETATM   13  C26 UNL     1      17.197  22.483   8.326  1.00  0.00     0.101 C 
HETATM   14  C27 UNL     1      16.176  21.540   8.794  1.00  0.00     0.098 C 
HETATM   15  N8  UNL     1      16.812  20.282   9.183  1.00  0.00    -0.331 N 
HETATM   16  C32 UNL     1      16.264  19.316  10.102  1.00  0.00     0.244 C 
HETATM   17  O4  UNL     1      15.043  19.434  10.475  1.00  0.00    -0.271 OA
ENDROOT
BRANCH   1  18
HETATM   18  N4  UNL     1      17.785  18.577  11.839  1.00  0.00    -0.346 N 
HETATM   19  C8  UNL     1      19.203  18.613  11.859  1.00  0.00     0.241 C 
HETATM   20  O2  UNL     1      19.906  18.300  10.904  1.00  0.00    -0.271 OA
ATOM     21  H4  UNL     1      17.266  18.819  12.684  1.00  0.00     0.163 HD
BRANCH  19  22
HETATM   22  C3  UNL     1      19.886  19.093  13.137  1.00  0.00     0.182 C 
BRANCH  22  23
HETATM   23  N1  UNL     1      21.308  18.671  12.906  1.00  0.00    -0.348 N 
HETATM   24  C2  UNL     1      22.342  19.573  13.179  1.00  0.00     0.214 C 
HETATM   25  C1  UNL     1      23.740  19.215  12.923  1.00  0.00     0.117 C 
HETATM   26  O1  UNL     1      22.151  20.746  13.649  1.00  0.00    -0.274 OA
ATOM     27  H1  UNL     1      21.519  17.737  12.553  1.00  0.00     0.163 HD
ENDBRANCH  22  23
BRANCH  22  28
HETATM   28  C4  UNL     1      19.422  17.997  14.136  1.00  0.00     0.093 C 
BRANCH  28  29
HETATM   29  C5  UNL     1      20.275  16.832  14.049  1.00  0.00     0.028 A 
HETATM   30  C6  UNL     1      21.327  16.393  14.764  1.00  0.00     0.114 A 
HETATM   31  N2  UNL     1      21.738  15.223  14.259  1.00  0.00    -0.360 N 
HETATM   32  C7  UNL     1      20.937  14.927  13.214  1.00  0.00     0.180 A 
ATOM     33  H2  UNL     1      22.515  14.658  14.603  1.00  0.00     0.166 HD
HETATM   34  N3  UNL     1      20.046  15.880  13.059  1.00  0.00    -0.354 N 
ATOM     35  H3  UNL     1      19.319  15.916  12.344  1.00  0.00     0.166 HD
ENDBRANCH  28  29
ENDBRANCH  22  28
ENDBRANCH  19  22
ENDBRANCH   1  18
BRANCH  14  36
HETATM   36  C28 UNL     1      15.095  21.148   7.846  1.00  0.00     0.026 C 
BRANCH  36  37
HETATM   37  C29 UNL     1      14.875  21.926   6.624  1.00  0.00     0.009 C 
BRANCH  37  38
HETATM   38  C30 UNL     1      13.863  23.012   6.607  1.00  0.00     0.072 C 
BRANCH  38  39
HETATM   39  C31 UNL     1      13.879  23.627   5.207  1.00  0.00     0.086 C 
HETATM   40  N6  UNL     1      14.959  24.176   4.782  1.00  0.00    -0.391 N 
ATOM     41  H62 UNL     1      15.772  24.199   5.396  1.00  0.00     0.157 HD
ATOM     42  H61 UNL     1      14.970  24.586   3.848  1.00  0.00     0.157 HD
HETATM   43  N7  UNL     1      12.760  23.596   4.362  1.00  0.00    -0.088 NA
ENDBRANCH  38  39
ENDBRANCH  37  38
ENDBRANCH  36  37
ENDBRANCH  14  36
BRANCH   9  44
HETATM   44  C18 UNL     1      17.923  17.896   5.423  1.00  0.00     0.005 C 
BRANCH  44  45
HETATM   45  C19 UNL     1      18.219  19.045   4.503  1.00  0.00     0.010 C 
BRANCH  45  46
HETATM   46  C20 UNL     1      16.927  19.172   3.651  1.00  0.00     0.103 C 
BRANCH  46  47
HETATM   47  C21 UNL     1      17.161  18.349   2.413  1.00  0.00     0.218 C 
HETATM   48  O3  UNL     1      18.321  17.958   2.182  1.00  0.00    -0.273 OA
HETATM   49  N5  UNL     1      16.103  18.033   1.537  1.00  0.00    -0.361 N 
HETATM   50  C22 UNL     1      14.730  18.375   1.789  1.00  0.00     0.152 C 
HETATM   51  C23 UNL     1      16.434  17.376   0.263  1.00  0.00     0.152 C 
ENDBRANCH  46  47
ENDBRANCH  45  46
ENDBRANCH  44  45
ENDBRANCH   9  44
TORSDOF 13
ENDMDL
