MODEL 1
REMARK VINA RESULT: -9.792017604      0.000      0.000
REMARK  13 active torsions:
REMARK  status: ('A' for Active; 'I' for Inactive)
REMARK    1  A    between atoms: C2_2  and  C3_3 
REMARK    2  A    between atoms: C2_2  and  C23_36 
REMARK    3  A    between atoms: C3_3  and  O1_4 
REMARK    4  A    between atoms: C3_3  and  N1_6 
REMARK    5  A    between atoms: C4_7  and  C5_8 
REMARK       I    between atoms: C5_8  and  N2_10 
REMARK    6  A    between atoms: N2_10  and  C6_12 
REMARK    7  A    between atoms: C6_12  and  C7_13 
REMARK    8  A    between atoms: C6_12  and  C14_20 
REMARK    9  A    between atoms: C7_13  and  C8_14 
REMARK   10  A    between atoms: C14_20  and  C15_22 
REMARK       I    between atoms: C15_22  and  N3_24 
REMARK   11  A    between atoms: C26_39  and  N5_40 
REMARK       I    between atoms: N5_40  and  C27_42 
REMARK   12  A    between atoms: C27_42  and  O6_44 
REMARK   13  A    between atoms: O6_44  and  C28_45 
ROOT
HETATM    1  N1  UNL     1       5.196  -3.202  14.602  1.00  0.00    -0.313 N 
HETATM    2  C4  UNL     1       4.954  -4.647  14.949  1.00  0.00     0.216 C 
HETATM    3  C17 UNL     1       3.484  -4.628  15.353  1.00  0.00     0.150 C 
HETATM    4  C18 UNL     1       2.571  -4.489  14.164  1.00  0.00     0.049 C 
HETATM    5  C19 UNL     1       3.095  -5.782  16.226  1.00  0.00     0.049 C 
HETATM    6  N4  UNL     1       3.430  -3.420  16.124  1.00  0.00    -0.038 N 
ATOM      7  H41 UNL     1       3.657  -3.553  17.110  1.00  0.00     0.281 HD
ATOM      8  H42 UNL     1       2.484  -3.066  16.266  1.00  0.00     0.281 HD
HETATM    9  C20 UNL     1       4.323  -2.470  15.431  1.00  0.00     0.196 C 
HETATM   10  C21 UNL     1       3.345  -1.580  14.655  1.00  0.00     0.070 C 
HETATM   11  C22 UNL     1       4.964  -1.600  16.486  1.00  0.00     0.070 C 
ENDROOT
BRANCH   1  12
HETATM   12  C3  UNL     1       6.112  -2.926  13.574  1.00  0.00     0.146 C 
BRANCH  12  13
HETATM   13  C2  UNL     1       7.290  -2.164  13.408  1.00  0.00    -0.013 C 
HETATM   14  C1  UNL     1       8.500  -2.498  13.711  1.00  0.00     0.023 C 
BRANCH  13  15
HETATM   15  C23 UNL     1       7.134  -0.760  12.851  1.00  0.00     0.022 C 
HETATM   16  C24 UNL     1       5.936  -0.582  11.992  1.00  0.00     0.011 C 
HETATM   17  C25 UNL     1       5.935   0.837  11.428  1.00  0.00     0.026 C 
HETATM   18  C26 UNL     1       5.623   1.780  12.579  1.00  0.00     0.086 C 
HETATM   19  C32 UNL     1       5.890   1.115  13.896  1.00  0.00     0.026 C 
HETATM   20  C33 UNL     1       7.179   0.316  13.880  1.00  0.00     0.011 C 
BRANCH  18  21
HETATM   21  N5  UNL     1       4.192   2.107  12.571  1.00  0.00    -0.332 N 
HETATM   22  C27 UNL     1       3.593   2.959  11.611  1.00  0.00     0.361 C 
HETATM   23  O5  UNL     1       4.306   3.458  10.723  1.00  0.00    -0.238 OA
ATOM     24  H5  UNL     1       3.598   1.700  13.294  1.00  0.00     0.165 HD
BRANCH  22  25
HETATM   25  O6  UNL     1       2.256   3.217  11.670  1.00  0.00    -0.294 OA
BRANCH  25  26
HETATM   26  C28 UNL     1       1.265   2.431  11.103  1.00  0.00     0.061 C 
HETATM   27  C29 UNL     1       1.706   0.981  11.062  1.00  0.00     0.046 C 
HETATM   28  C30 UNL     1       0.043   2.496  12.023  1.00  0.00     0.046 C 
HETATM   29  C31 UNL     1       0.805   2.888   9.730  1.00  0.00     0.046 C 
ENDBRANCH  25  26
ENDBRANCH  22  25
ENDBRANCH  18  21
ENDBRANCH  13  15
ENDBRANCH  12  13
BRANCH  12  30
HETATM   30  O1  UNL     1       5.802  -3.551  12.402  1.00  0.00    -0.346 OA
ATOM     31  H1  UNL     1       4.929  -3.922  12.459  1.00  0.00     0.219 HD
ENDBRANCH  12  30
ENDBRANCH   1  12
BRANCH   2  32
HETATM   32  C5  UNL     1       5.805  -5.129  16.029  1.00  0.00     0.243 C 
HETATM   33  O2  UNL     1       6.131  -4.397  16.984  1.00  0.00    -0.271 OA
HETATM   34  N2  UNL     1       6.313  -6.463  16.058  1.00  0.00    -0.347 N 
ATOM     35  H2  UNL     1       6.090  -7.096  15.289  1.00  0.00     0.163 HD
BRANCH  34  36
HETATM   36  C6  UNL     1       7.140  -6.945  17.150  1.00  0.00     0.168 C 
BRANCH  36  37
HETATM   37  C7  UNL     1       8.487  -7.387  16.731  1.00  0.00     0.072 C 
BRANCH  37  38
HETATM   38  C8  UNL     1       9.580  -6.420  16.731  1.00  0.00    -0.056 A 
HETATM   39  C9  UNL     1      10.774  -6.734  17.386  1.00  0.00     0.007 A 
HETATM   40  C10 UNL     1      11.805  -5.776  17.398  1.00  0.00     0.001 A 
HETATM   41  C11 UNL     1      11.674  -4.565  16.796  1.00  0.00     0.000 A 
HETATM   42  C12 UNL     1      10.507  -4.259  16.157  1.00  0.00     0.001 A 
HETATM   43  C13 UNL     1       9.494  -5.190  16.140  1.00  0.00     0.007 A 
ENDBRANCH  37  38
ENDBRANCH  36  37
BRANCH  36  44
HETATM   44  C14 UNL     1       6.366  -7.935  17.893  1.00  0.00     0.239 C 
HETATM   45  O3  UNL     1       5.609  -7.586  18.872  1.00  0.00    -0.285 OA
BRANCH  44  46
HETATM   46  C15 UNL     1       6.387  -9.340  17.602  1.00  0.00     0.289 C 
HETATM   47  O4  UNL     1       6.777 -10.196  18.425  1.00  0.00    -0.264 OA
HETATM   48  N3  UNL     1       5.961  -9.888  16.328  1.00  0.00    -0.359 N 
HETATM   49  C16 UNL     1       6.010 -11.298  16.082  1.00  0.00     0.149 C 
ATOM     50  H3  UNL     1       5.623  -9.261  15.598  1.00  0.00     0.162 HD
ENDBRANCH  44  46
ENDBRANCH  36  44
ENDBRANCH  34  36
ENDBRANCH   2  32
TORSDOF 13
ENDMDL
MODEL 2
REMARK VINA RESULT: -9.559075711      1.943      2.506
REMARK  13 active torsions:
REMARK  status: ('A' for Active; 'I' for Inactive)
REMARK    1  A    between atoms: C2_2  and  C3_3 
REMARK    2  A    between atoms: C2_2  and  C23_36 
REMARK    3  A    between atoms: C3_3  and  O1_4 
REMARK    4  A    between atoms: C3_3  and  N1_6 
REMARK    5  A    between atoms: C4_7  and  C5_8 
REMARK       I    between atoms: C5_8  and  N2_10 
REMARK    6  A    between atoms: N2_10  and  C6_12 
REMARK    7  A    between atoms: C6_12  and  C7_13 
REMARK    8  A    between atoms: C6_12  and  C14_20 
REMARK    9  A    between atoms: C7_13  and  C8_14 
REMARK   10  A    between atoms: C14_20  and  C15_22 
REMARK       I    between atoms: C15_22  and  N3_24 
REMARK   11  A    between atoms: C26_39  and  N5_40 
REMARK       I    between atoms: N5_40  and  C27_42 
REMARK   12  A    between atoms: C27_42  and  O6_44 
REMARK   13  A    between atoms: O6_44  and  C28_45 
ROOT
HETATM    1  N1  UNL     1       5.273  -2.933  14.594  1.00  0.00    -0.313 N 
HETATM    2  C4  UNL     1       5.050  -4.392  14.896  1.00  0.00     0.216 C 
HETATM    3  C17 UNL     1       3.578  -4.406  15.291  1.00  0.00     0.150 C 
HETATM    4  C18 UNL     1       2.669  -4.244  14.101  1.00  0.00     0.049 C 
HETATM    5  C19 UNL     1       3.201  -5.591  16.126  1.00  0.00     0.049 C 
HETATM    6  N4  UNL     1       3.502  -3.223  16.099  1.00  0.00    -0.038 N 
ATOM      7  H41 UNL     1       3.725  -3.382  17.081  1.00  0.00     0.281 HD
ATOM      8  H42 UNL     1       2.550  -2.887  16.245  1.00  0.00     0.281 HD
HETATM    9  C20 UNL     1       4.384  -2.239  15.440  1.00  0.00     0.196 C 
HETATM   10  C21 UNL     1       3.398  -1.341  14.685  1.00  0.00     0.070 C 
HETATM   11  C22 UNL     1       5.007  -1.393  16.525  1.00  0.00     0.070 C 
ENDROOT
BRANCH   1  12
HETATM   12  C3  UNL     1       6.190  -2.613  13.580  1.00  0.00     0.146 C 
BRANCH  12  13
HETATM   13  C2  UNL     1       7.486  -2.058  13.489  1.00  0.00    -0.013 C 
HETATM   14  C1  UNL     1       8.614  -2.626  13.763  1.00  0.00     0.023 C 
BRANCH  13  15
HETATM   15  C23 UNL     1       7.589  -0.604  13.063  1.00  0.00     0.022 C 
HETATM   16  C24 UNL     1       7.934  -0.419  11.631  1.00  0.00     0.011 C 
HETATM   17  C25 UNL     1       8.088   1.074  11.346  1.00  0.00     0.026 C 
HETATM   18  C26 UNL     1       6.700   1.691  11.405  1.00  0.00     0.086 C 
HETATM   19  C32 UNL     1       5.756   0.803  12.159  1.00  0.00     0.026 C 
HETATM   20  C33 UNL     1       6.395   0.219  13.404  1.00  0.00     0.011 C 
BRANCH  18  21
HETATM   21  N5  UNL     1       6.156   1.803  10.046  1.00  0.00    -0.332 N 
HETATM   22  C27 UNL     1       6.026   3.035   9.359  1.00  0.00     0.361 C 
HETATM   23  O5  UNL     1       6.392   4.080   9.924  1.00  0.00    -0.238 OA
ATOM     24  H5  UNL     1       5.855   0.951   9.573  1.00  0.00     0.165 HD
BRANCH  22  25
HETATM   25  O6  UNL     1       5.508   3.059   8.098  1.00  0.00    -0.294 OA
BRANCH  25  26
HETATM   26  C28 UNL     1       6.254   3.123   6.930  1.00  0.00     0.061 C 
HETATM   27  C29 UNL     1       7.132   1.894   6.802  1.00  0.00     0.046 C 
HETATM   28  C30 UNL     1       5.271   3.089   5.756  1.00  0.00     0.046 C 
HETATM   29  C31 UNL     1       7.079   4.388   6.775  1.00  0.00     0.046 C 
ENDBRANCH  25  26
ENDBRANCH  22  25
ENDBRANCH  18  21
ENDBRANCH  13  15
ENDBRANCH  12  13
BRANCH  12  30
HETATM   30  O1  UNL     1       5.729  -2.906  12.331  1.00  0.00    -0.346 OA
ATOM     31  H1  UNL     1       4.920  -2.433  12.170  1.00  0.00     0.219 HD
ENDBRANCH  12  30
ENDBRANCH   1  12
BRANCH   2  32
HETATM   32  C5  UNL     1       5.902  -4.894  15.966  1.00  0.00     0.243 C 
HETATM   33  O2  UNL     1       6.326  -4.150  16.871  1.00  0.00    -0.271 OA
HETATM   34  N2  UNL     1       6.298  -6.264  16.041  1.00  0.00    -0.347 N 
ATOM     35  H2  UNL     1       5.992  -6.910  15.314  1.00  0.00     0.163 HD
BRANCH  34  36
HETATM   36  C6  UNL     1       7.127  -6.763  17.124  1.00  0.00     0.168 C 
BRANCH  36  37
HETATM   37  C7  UNL     1       8.439  -7.283  16.684  1.00  0.00     0.072 C 
BRANCH  37  38
HETATM   38  C8  UNL     1       9.599  -6.399  16.726  1.00  0.00    -0.056 A 
HETATM   39  C9  UNL     1      10.741  -6.798  17.426  1.00  0.00     0.007 A 
HETATM   40  C10 UNL     1      11.839  -5.919  17.477  1.00  0.00     0.001 A 
HETATM   41  C11 UNL     1      11.820  -4.703  16.872  1.00  0.00     0.000 A 
HETATM   42  C12 UNL     1      10.704  -4.314  16.188  1.00  0.00     0.001 A 
HETATM   43  C13 UNL     1       9.626  -5.168  16.132  1.00  0.00     0.007 A 
ENDBRANCH  37  38
ENDBRANCH  36  37
BRANCH  36  44
HETATM   44  C14 UNL     1       6.322  -7.696  17.908  1.00  0.00     0.239 C 
HETATM   45  O3  UNL     1       5.552  -7.278  18.849  1.00  0.00    -0.285 OA
BRANCH  44  46
HETATM   46  C15 UNL     1       6.326  -9.115  17.701  1.00  0.00     0.289 C 
HETATM   47  O4  UNL     1       6.741  -9.924  18.559  1.00  0.00    -0.264 OA
HETATM   48  N3  UNL     1       5.852  -9.735  16.478  1.00  0.00    -0.359 N 
HETATM   49  C16 UNL     1       5.885 -11.158  16.314  1.00  0.00     0.149 C 
ATOM     50  H3  UNL     1       5.491  -9.151  15.724  1.00  0.00     0.162 HD
ENDBRANCH  44  46
ENDBRANCH  36  44
ENDBRANCH  34  36
ENDBRANCH   2  32
TORSDOF 13
ENDMDL
MODEL 3
REMARK VINA RESULT: -9.487315302      3.155     11.744
REMARK  13 active torsions:
REMARK  status: ('A' for Active; 'I' for Inactive)
REMARK    1  A    between atoms: C2_2  and  C3_3 
REMARK    2  A    between atoms: C2_2  and  C23_36 
REMARK    3  A    between atoms: C3_3  and  O1_4 
REMARK    4  A    between atoms: C3_3  and  N1_6 
REMARK    5  A    between atoms: C4_7  and  C5_8 
REMARK       I    between atoms: C5_8  and  N2_10 
REMARK    6  A    between atoms: N2_10  and  C6_12 
REMARK    7  A    between atoms: C6_12  and  C7_13 
REMARK    8  A    between atoms: C6_12  and  C14_20 
REMARK    9  A    between atoms: C7_13  and  C8_14 
REMARK   10  A    between atoms: C14_20  and  C15_22 
REMARK       I    between atoms: C15_22  and  N3_24 
REMARK   11  A    between atoms: C26_39  and  N5_40 
REMARK       I    between atoms: N5_40  and  C27_42 
REMARK   12  A    between atoms: C27_42  and  O6_44 
REMARK   13  A    between atoms: O6_44  and  C28_45 
ROOT
HETATM    1  N1  UNL     1       6.210   2.186  11.445  1.00  0.00    -0.313 N 
HETATM    2  C4  UNL     1       6.210   2.138   9.939  1.00  0.00     0.216 C 
HETATM    3  C17 UNL     1       7.703   2.089   9.630  1.00  0.00     0.150 C 
HETATM    4  C18 UNL     1       8.301   0.741   9.935  1.00  0.00     0.049 C 
HETATM    5  C19 UNL     1       8.035   2.549   8.244  1.00  0.00     0.049 C 
HETATM    6  N4  UNL     1       8.207   3.045  10.573  1.00  0.00    -0.038 N 
ATOM      7  H41 UNL     1       8.208   4.004  10.225  1.00  0.00     0.281 HD
ATOM      8  H42 UNL     1       9.212   2.974  10.731  1.00  0.00     0.281 HD
HETATM    9  C20 UNL     1       7.399   2.858  11.795  1.00  0.00     0.196 C 
HETATM   10  C21 UNL     1       8.323   2.032  12.698  1.00  0.00     0.070 C 
HETATM   11  C22 UNL     1       7.243   4.211  12.447  1.00  0.00     0.070 C 
ENDROOT
BRANCH   1  12
HETATM   12  C3  UNL     1       5.151   1.552  12.114  1.00  0.00     0.146 C 
BRANCH  12  13
HETATM   13  C2  UNL     1       4.711   0.229  12.345  1.00  0.00    -0.013 C 
HETATM   14  C1  UNL     1       3.509  -0.175  12.593  1.00  0.00     0.023 C 
BRANCH  13  15
HETATM   15  C23 UNL     1       5.768  -0.861  12.353  1.00  0.00     0.022 C 
HETATM   16  C24 UNL     1       6.693  -0.795  13.513  1.00  0.00     0.011 C 
HETATM   17  C25 UNL     1       7.753  -1.884  13.365  1.00  0.00     0.026 C 
HETATM   18  C26 UNL     1       7.066  -3.220  13.601  1.00  0.00     0.086 C 
HETATM   19  C32 UNL     1       5.582  -3.091  13.423  1.00  0.00     0.026 C 
HETATM   20  C33 UNL     1       5.224  -2.241  12.220  1.00  0.00     0.011 C 
BRANCH  18  21
HETATM   21  N5  UNL     1       7.273  -3.638  14.994  1.00  0.00    -0.332 N 
HETATM   22  C27 UNL     1       8.516  -4.105  15.488  1.00  0.00     0.361 C 
HETATM   23  O5  UNL     1       9.487  -4.165  14.715  1.00  0.00    -0.238 OA
ATOM     24  H5  UNL     1       6.483  -3.590  15.637  1.00  0.00     0.165 HD
BRANCH  22  25
HETATM   25  O6  UNL     1       8.630  -4.478  16.794  1.00  0.00    -0.294 OA
BRANCH  25  26
HETATM   26  C28 UNL     1       8.787  -5.781  17.241  1.00  0.00     0.061 C 
HETATM   27  C29 UNL     1      10.080  -5.916  18.021  1.00  0.00     0.046 C 
HETATM   28  C30 UNL     1       7.646  -6.072  18.221  1.00  0.00     0.046 C 
HETATM   29  C31 UNL     1       8.707  -6.837  16.152  1.00  0.00     0.046 C 
ENDBRANCH  25  26
ENDBRANCH  22  25
ENDBRANCH  18  21
ENDBRANCH  13  15
ENDBRANCH  12  13
BRANCH  12  30
HETATM   30  O1  UNL     1       4.298   2.430  12.714  1.00  0.00    -0.346 OA
ATOM     31  H1  UNL     1       4.247   3.228  12.200  1.00  0.00     0.219 HD
ENDBRANCH  12  30
ENDBRANCH   1  12
BRANCH   2  32
HETATM   32  C5  UNL     1       5.570   3.295   9.327  1.00  0.00     0.243 C 
HETATM   33  O2  UNL     1       6.076   4.432   9.383  1.00  0.00    -0.271 OA
HETATM   34  N2  UNL     1       4.328   3.194   8.629  1.00  0.00    -0.347 N 
ATOM     35  H2  UNL     1       3.864   2.287   8.571  1.00  0.00     0.163 HD
BRANCH  34  36
HETATM   36  C6  UNL     1       3.707   4.345   8.000  1.00  0.00     0.168 C 
BRANCH  36  37
HETATM   37  C7  UNL     1       2.489   4.820   8.690  1.00  0.00     0.072 C 
BRANCH  37  38
HETATM   38  C8  UNL     1       1.755   3.894   9.545  1.00  0.00    -0.056 A 
HETATM   39  C9  UNL     1       0.782   3.064   8.983  1.00  0.00     0.007 A 
HETATM   40  C10 UNL     1       0.067   2.197   9.831  1.00  0.00     0.001 A 
HETATM   41  C11 UNL     1       0.293   2.145  11.169  1.00  0.00     0.000 A 
HETATM   42  C12 UNL     1       1.245   2.956  11.718  1.00  0.00     0.001 A 
HETATM   43  C13 UNL     1       1.949   3.806  10.896  1.00  0.00     0.007 A 
ENDBRANCH  37  38
ENDBRANCH  36  37
BRANCH  36  44
HETATM   44  C14 UNL     1       3.538   4.042   6.582  1.00  0.00     0.239 C 
HETATM   45  O3  UNL     1       2.367   3.977   6.053  1.00  0.00    -0.285 OA
BRANCH  44  46
HETATM   46  C15 UNL     1       4.631   3.795   5.687  1.00  0.00     0.289 C 
HETATM   47  O4  UNL     1       5.368   2.790   5.778  1.00  0.00    -0.264 OA
HETATM   48  N3  UNL     1       4.979   4.692   4.601  1.00  0.00    -0.359 N 
HETATM   49  C16 UNL     1       6.086   4.408   3.738  1.00  0.00     0.149 C 
ATOM     50  H3  UNL     1       4.427   5.536   4.449  1.00  0.00     0.162 HD
ENDBRANCH  44  46
ENDBRANCH  36  44
ENDBRANCH  34  36
ENDBRANCH   2  32
TORSDOF 13
ENDMDL
MODEL 4
REMARK VINA RESULT: -9.347169949      2.787     10.688
REMARK  13 active torsions:
REMARK  status: ('A' for Active; 'I' for Inactive)
REMARK    1  A    between atoms: C2_2  and  C3_3 
REMARK    2  A    between atoms: C2_2  and  C23_36 
REMARK    3  A    between atoms: C3_3  and  O1_4 
REMARK    4  A    between atoms: C3_3  and  N1_6 
REMARK    5  A    between atoms: C4_7  and  C5_8 
REMARK       I    between atoms: C5_8  and  N2_10 
REMARK    6  A    between atoms: N2_10  and  C6_12 
REMARK    7  A    between atoms: C6_12  and  C7_13 
REMARK    8  A    between atoms: C6_12  and  C14_20 
REMARK    9  A    between atoms: C7_13  and  C8_14 
REMARK   10  A    between atoms: C14_20  and  C15_22 
REMARK       I    between atoms: C15_22  and  N3_24 
REMARK   11  A    between atoms: C26_39  and  N5_40 
REMARK       I    between atoms: N5_40  and  C27_42 
REMARK   12  A    between atoms: C27_42  and  O6_44 
REMARK   13  A    between atoms: O6_44  and  C28_45 
ROOT
HETATM    1  N1  UNL     1       7.087   2.492  10.356  1.00  0.00    -0.313 N 
HETATM    2  C4  UNL     1       5.817   2.364   9.556  1.00  0.00     0.216 C 
HETATM    3  C17 UNL     1       6.162   3.151   8.297  1.00  0.00     0.150 C 
HETATM    4  C18 UNL     1       7.112   2.401   7.401  1.00  0.00     0.049 C 
HETATM    5  C19 UNL     1       4.955   3.636   7.553  1.00  0.00     0.049 C 
HETATM    6  N4  UNL     1       6.847   4.278   8.860  1.00  0.00    -0.038 N 
ATOM      7  H41 UNL     1       6.228   5.046   9.121  1.00  0.00     0.281 HD
ATOM      8  H42 UNL     1       7.405   4.799   8.184  1.00  0.00     0.281 HD
HETATM    9  C20 UNL     1       7.633   3.738   9.988  1.00  0.00     0.196 C 
HETATM   10  C21 UNL     1       9.048   3.637   9.406  1.00  0.00     0.070 C 
HETATM   11  C22 UNL     1       7.674   4.801  11.060  1.00  0.00     0.070 C 
ENDROOT
BRANCH   1  12
HETATM   12  C3  UNL     1       7.451   1.410  11.174  1.00  0.00     0.146 C 
BRANCH  12  13
HETATM   13  C2  UNL     1       7.542   1.138  12.557  1.00  0.00    -0.013 C 
HETATM   14  C1  UNL     1       8.140   1.835  13.465  1.00  0.00     0.023 C 
BRANCH  13  15
HETATM   15  C23 UNL     1       6.905  -0.149  13.052  1.00  0.00     0.022 C 
HETATM   16  C24 UNL     1       7.845  -1.296  13.128  1.00  0.00     0.011 C 
HETATM   17  C25 UNL     1       7.074  -2.542  13.556  1.00  0.00     0.026 C 
HETATM   18  C26 UNL     1       6.700  -2.362  15.018  1.00  0.00     0.086 C 
HETATM   19  C32 UNL     1       6.764  -0.915  15.408  1.00  0.00     0.026 C 
HETATM   20  C33 UNL     1       6.173  -0.012  14.342  1.00  0.00     0.011 C 
BRANCH  18  21
HETATM   21  N5  UNL     1       7.680  -3.055  15.865  1.00  0.00    -0.332 N 
HETATM   22  C27 UNL     1       7.369  -4.202  16.635  1.00  0.00     0.361 C 
HETATM   23  O5  UNL     1       6.213  -4.657  16.597  1.00  0.00    -0.238 OA
ATOM     24  H5  UNL     1       8.632  -2.691  15.900  1.00  0.00     0.165 HD
BRANCH  22  25
HETATM   25  O6  UNL     1       8.334  -4.790  17.399  1.00  0.00    -0.294 OA
BRANCH  25  26
HETATM   26  C28 UNL     1       9.386  -5.549  16.911  1.00  0.00     0.061 C 
HETATM   27  C29 UNL     1      10.590  -4.667  16.647  1.00  0.00     0.046 C 
HETATM   28  C30 UNL     1       9.792  -6.534  18.011  1.00  0.00     0.046 C 
HETATM   29  C31 UNL     1       9.052  -6.377  15.683  1.00  0.00     0.046 C 
ENDBRANCH  25  26
ENDBRANCH  22  25
ENDBRANCH  18  21
ENDBRANCH  13  15
ENDBRANCH  12  13
BRANCH  12  30
HETATM   30  O1  UNL     1       7.826   0.307  10.464  1.00  0.00    -0.346 OA
ATOM     31  H1  UNL     1       7.085  -0.282  10.377  1.00  0.00     0.219 HD
ENDBRANCH  12  30
ENDBRANCH   1  12
BRANCH   2  32
HETATM   32  C5  UNL     1       4.652   2.915  10.236  1.00  0.00     0.243 C 
HETATM   33  O2  UNL     1       4.612   4.103  10.612  1.00  0.00    -0.271 OA
HETATM   34  N2  UNL     1       3.491   2.130  10.510  1.00  0.00    -0.347 N 
ATOM     35  H2  UNL     1       3.481   1.147  10.238  1.00  0.00     0.163 HD
BRANCH  34  36
HETATM   36  C6  UNL     1       2.323   2.692  11.165  1.00  0.00     0.168 C 
BRANCH  36  37
HETATM   37  C7  UNL     1       1.893   1.944  12.366  1.00  0.00     0.072 C 
BRANCH  37  38
HETATM   38  C8  UNL     1       2.443   0.614  12.604  1.00  0.00    -0.056 A 
HETATM   39  C9  UNL     1       2.269   0.013  13.854  1.00  0.00     0.007 A 
HETATM   40  C10 UNL     1       2.831  -1.258  14.072  1.00  0.00     0.001 A 
HETATM   41  C11 UNL     1       3.533  -1.914  13.111  1.00  0.00     0.000 A 
HETATM   42  C12 UNL     1       3.702  -1.326  11.890  1.00  0.00     0.001 A 
HETATM   43  C13 UNL     1       3.156  -0.083  11.668  1.00  0.00     0.007 A 
ENDBRANCH  37  38
ENDBRANCH  36  37
BRANCH  36  44
HETATM   44  C14 UNL     1       1.291   2.882  10.150  1.00  0.00     0.239 C 
HETATM   45  O3  UNL     1       0.147   2.302  10.252  1.00  0.00    -0.285 OA
BRANCH  44  46
HETATM   46  C15 UNL     1       1.462   3.705   8.988  1.00  0.00     0.289 C 
HETATM   47  O4  UNL     1       1.317   3.273   7.825  1.00  0.00    -0.264 OA
HETATM   48  N3  UNL     1       1.822   5.108   9.062  1.00  0.00    -0.359 N 
HETATM   49  C16 UNL     1       1.991   5.887   7.872  1.00  0.00     0.149 C 
ATOM     50  H3  UNL     1       1.957   5.546   9.973  1.00  0.00     0.162 HD
ENDBRANCH  44  46
ENDBRANCH  36  44
ENDBRANCH  34  36
ENDBRANCH   2  32
TORSDOF 13
ENDMDL
MODEL 5
REMARK VINA RESULT: -9.323050408      2.964     11.614
REMARK  13 active torsions:
REMARK  status: ('A' for Active; 'I' for Inactive)
REMARK    1  A    between atoms: C2_2  and  C3_3 
REMARK    2  A    between atoms: C2_2  and  C23_36 
REMARK    3  A    between atoms: C3_3  and  O1_4 
REMARK    4  A    between atoms: C3_3  and  N1_6 
REMARK    5  A    between atoms: C4_7  and  C5_8 
REMARK       I    between atoms: C5_8  and  N2_10 
REMARK    6  A    between atoms: N2_10  and  C6_12 
REMARK    7  A    between atoms: C6_12  and  C7_13 
REMARK    8  A    between atoms: C6_12  and  C14_20 
REMARK    9  A    between atoms: C7_13  and  C8_14 
REMARK   10  A    between atoms: C14_20  and  C15_22 
REMARK       I    between atoms: C15_22  and  N3_24 
REMARK   11  A    between atoms: C26_39  and  N5_40 
REMARK       I    between atoms: N5_40  and  C27_42 
REMARK   12  A    between atoms: C27_42  and  O6_44 
REMARK   13  A    between atoms: O6_44  and  C28_45 
ROOT
HETATM    1  N1  UNL     1       6.233   1.896  11.647  1.00  0.00    -0.313 N 
HETATM    2  C4  UNL     1       6.105   2.037  10.153  1.00  0.00     0.216 C 
HETATM    3  C17 UNL     1       7.566   2.035   9.715  1.00  0.00     0.150 C 
HETATM    4  C18 UNL     1       8.181   0.662   9.797  1.00  0.00     0.049 C 
HETATM    5  C19 UNL     1       7.782   2.666   8.374  1.00  0.00     0.049 C 
HETATM    6  N4  UNL     1       8.153   2.868  10.723  1.00  0.00    -0.038 N 
ATOM      7  H41 UNL     1       8.129   3.863  10.498  1.00  0.00     0.281 HD
ATOM      8  H42 UNL     1       9.167   2.784  10.786  1.00  0.00     0.281 HD
HETATM    9  C20 UNL     1       7.451   2.526  11.976  1.00  0.00     0.196 C 
HETATM   10  C21 UNL     1       8.444   1.599  12.687  1.00  0.00     0.070 C 
HETATM   11  C22 UNL     1       7.358   3.786  12.803  1.00  0.00     0.070 C 
ENDROOT
BRANCH   1  12
HETATM   12  C3  UNL     1       5.232   1.178  12.320  1.00  0.00     0.146 C 
BRANCH  12  13
HETATM   13  C2  UNL     1       4.229   0.237  11.993  1.00  0.00    -0.013 C 
HETATM   14  C1  UNL     1       3.087   0.458  11.432  1.00  0.00     0.023 C 
BRANCH  13  15
HETATM   15  C23 UNL     1       4.485  -1.209  12.379  1.00  0.00     0.022 C 
HETATM   16  C24 UNL     1       5.924  -1.572  12.437  1.00  0.00     0.011 C 
HETATM   17  C25 UNL     1       6.048  -3.061  12.750  1.00  0.00     0.026 C 
HETATM   18  C26 UNL     1       5.629  -3.254  14.199  1.00  0.00     0.086 C 
HETATM   19  C32 UNL     1       4.812  -2.090  14.675  1.00  0.00     0.026 C 
HETATM   20  C33 UNL     1       3.807  -1.636  13.634  1.00  0.00     0.011 C 
BRANCH  18  21
HETATM   21  N5  UNL     1       6.822  -3.290  15.054  1.00  0.00    -0.332 N 
HETATM   22  C27 UNL     1       6.975  -4.187  16.140  1.00  0.00     0.361 C 
HETATM   23  O5  UNL     1       6.060  -4.991  16.389  1.00  0.00    -0.238 OA
ATOM     24  H5  UNL     1       7.579  -2.636  14.857  1.00  0.00     0.165 HD
BRANCH  22  25
HETATM   25  O6  UNL     1       8.112  -4.159  16.890  1.00  0.00    -0.294 OA
BRANCH  25  26
HETATM   26  C28 UNL     1       9.334  -4.692  16.508  1.00  0.00     0.061 C 
HETATM   27  C29 UNL     1      10.261  -3.591  16.035  1.00  0.00     0.046 C 
HETATM   28  C30 UNL     1       9.977  -5.307  17.755  1.00  0.00     0.046 C 
HETATM   29  C31 UNL     1       9.244  -5.798  15.472  1.00  0.00     0.046 C 
ENDBRANCH  25  26
ENDBRANCH  22  25
ENDBRANCH  18  21
ENDBRANCH  13  15
ENDBRANCH  12  13
BRANCH  12  30
HETATM   30  O1  UNL     1       5.192   1.443  13.657  1.00  0.00    -0.346 OA
ATOM     31  H1  UNL     1       4.753   0.732  14.110  1.00  0.00     0.219 HD
ENDBRANCH  12  30
ENDBRANCH   1  12
BRANCH   2  32
HETATM   32  C5  UNL     1       5.421   3.257   9.746  1.00  0.00     0.243 C 
HETATM   33  O2  UNL     1       5.694   4.363  10.253  1.00  0.00    -0.271 OA
HETATM   34  N2  UNL     1       4.400   3.258   8.748  1.00  0.00    -0.347 N 
ATOM     35  H2  UNL     1       4.127   2.375   8.316  1.00  0.00     0.163 HD
BRANCH  34  36
HETATM   36  C6  UNL     1       3.740   4.481   8.329  1.00  0.00     0.168 C 
BRANCH  36  37
HETATM   37  C7  UNL     1       2.269   4.365   8.236  1.00  0.00     0.072 C 
BRANCH  37  38
HETATM   38  C8  UNL     1       1.539   3.733   9.330  1.00  0.00    -0.056 A 
HETATM   39  C9  UNL     1       0.464   2.888   9.041  1.00  0.00     0.007 A 
HETATM   40  C10 UNL     1      -0.243   2.310  10.112  1.00  0.00     0.001 A 
HETATM   41  C11 UNL     1       0.086   2.549  11.408  1.00  0.00     0.000 A 
HETATM   42  C12 UNL     1       1.136   3.374  11.690  1.00  0.00     0.001 A 
HETATM   43  C13 UNL     1       1.834   3.943  10.649  1.00  0.00     0.007 A 
ENDBRANCH  37  38
ENDBRANCH  36  37
BRANCH  36  44
HETATM   44  C14 UNL     1       4.402   4.954   7.117  1.00  0.00     0.239 C 
HETATM   45  O3  UNL     1       4.601   6.209   6.918  1.00  0.00    -0.285 OA
BRANCH  44  46
HETATM   46  C15 UNL     1       4.870   4.084   6.077  1.00  0.00     0.289 C 
HETATM   47  O4  UNL     1       4.165   3.179   5.583  1.00  0.00    -0.264 OA
HETATM   48  N3  UNL     1       6.203   4.177   5.512  1.00  0.00    -0.359 N 
HETATM   49  C16 UNL     1       6.628   3.279   4.481  1.00  0.00     0.149 C 
ATOM     50  H3  UNL     1       6.846   4.892   5.853  1.00  0.00     0.162 HD
ENDBRANCH  44  46
ENDBRANCH  36  44
ENDBRANCH  34  36
ENDBRANCH   2  32
TORSDOF 13
ENDMDL
