MODEL 1
REMARK VINA RESULT: -9.057632709      0.000      0.000
REMARK  13 active torsions:
REMARK  status: ('A' for Active; 'I' for Inactive)
REMARK    1  A    between atoms: C2_2  and  C3_3 
REMARK    2  A    between atoms: C3_3  and  C6_6 
REMARK       I    between atoms: C6_6  and  N1_8 
REMARK    3  A    between atoms: C7_10  and  C8_11 
REMARK    4  A    between atoms: C7_10  and  C11_20 
REMARK    5  A    between atoms: C8_11  and  C9_12 
REMARK    6  A    between atoms: C9_12  and  C10_13 
REMARK       I    between atoms: C10_13  and  N2_15 
REMARK    7  A    between atoms: N2_15  and  N3_17 
REMARK    8  A    between atoms: C16_25  and  O3_26 
REMARK    9  A    between atoms: C24_35  and  O4_36 
REMARK   10  A    between atoms: C27_40  and  O5_41 
REMARK   11  A    between atoms: O5_41  and  C28_42 
REMARK   12  A    between atoms: C28_42  and  C29_44 
REMARK   13  A    between atoms: C29_44  and  N4_45 
ROOT
HETATM    1  C11 UNL     1       5.533   3.245  10.149  1.00  0.00     0.032 C 
HETATM    2  C12 UNL     1       6.096   2.148   9.258  1.00  0.00     0.011 C 
HETATM    3  C13 UNL     1       6.951   1.411  10.254  1.00  0.00     0.013 C 
HETATM    4  C14 UNL     1       6.239   1.543  11.613  1.00  0.00    -0.009 C 
HETATM    5  C15 UNL     1       5.192   2.617  11.430  1.00  0.00     0.023 C 
HETATM    6  C16 UNL     1       7.317   1.897  12.599  1.00  0.00     0.128 C 
HETATM    7  C17 UNL     1       7.286   0.884  13.728  1.00  0.00     0.042 C 
HETATM    8  C18 UNL     1       6.086   0.056  13.529  1.00  0.00    -0.027 C 
HETATM    9  C19 UNL     1       5.020   0.677  14.371  1.00  0.00     0.016 C 
HETATM   10  C20 UNL     1       5.785   0.230  12.048  1.00  0.00     0.005 C 
HETATM   11  C21 UNL     1       4.354  -0.162  11.956  1.00  0.00     0.007 C 
HETATM   12  C22 UNL     1       4.329  -1.673  12.097  1.00  0.00     0.008 C 
HETATM   13  C23 UNL     1       5.104  -2.249  13.239  1.00  0.00     0.026 C 
HETATM   14  C24 UNL     1       4.125  -2.804  14.214  1.00  0.00     0.123 C 
HETATM   15  C25 UNL     1       4.499  -2.830  15.644  1.00  0.00     0.034 C 
HETATM   16  C26 UNL     1       5.577  -1.948  16.095  1.00  0.00     0.036 C 
HETATM   17  C27 UNL     1       6.705  -1.717  15.119  1.00  0.00     0.141 C 
HETATM   18  C33 UNL     1       6.265  -1.435  13.720  1.00  0.00    -0.004 C 
HETATM   19  C34 UNL     1       7.462  -1.806  12.819  1.00  0.00     0.019 C 
ENDROOT
BRANCH   6  20
HETATM   20  O3  UNL     1       7.147   3.200  13.007  1.00  0.00    -0.395 OA
ATOM     21  H3  UNL     1       7.048   3.756  12.243  1.00  0.00     0.210 HD
ENDBRANCH   6  20
BRANCH   1  22
HETATM   22  C7  UNL     1       4.580   4.012   9.394  1.00  0.00    -0.006 C 
HETATM   23  N1  UNL     1       5.013   4.428   8.211  1.00  0.00    -0.333 N 
HETATM   24  C6  UNL     1       4.283   5.178   7.302  1.00  0.00     0.229 C 
ATOM     25  H1  UNL     1       5.965   4.174   7.947  1.00  0.00     0.168 HD
HETATM   26  O1  UNL     1       4.108   6.414   7.524  1.00  0.00    -0.272 OA
BRANCH  24  27
HETATM   27  C3  UNL     1       3.683   4.622   6.067  1.00  0.00     0.034 C 
HETATM   28  C4  UNL     1       4.312   3.358   5.585  1.00  0.00     0.025 C 
HETATM   29  C5  UNL     1       3.874   5.696   4.986  1.00  0.00     0.025 C 
BRANCH  27  30
HETATM   30  C2  UNL     1       2.179   4.423   6.223  1.00  0.00     0.014 C 
HETATM   31  C1  UNL     1       1.479   4.418   4.901  1.00  0.00     0.006 C 
ENDBRANCH  27  30
ENDBRANCH  24  27
BRANCH  22  32
HETATM   32  C8  UNL     1       3.206   4.409   9.721  1.00  0.00     0.062 C 
BRANCH  32  33
HETATM   33  C9  UNL     1       2.266   3.251   9.518  1.00  0.00     0.110 C 
BRANCH  33  34
HETATM   34  C10 UNL     1       1.465   2.985  10.755  1.00  0.00     0.235 C 
HETATM   35  O2  UNL     1       0.931   3.971  11.314  1.00  0.00    -0.272 OA
HETATM   36  N2  UNL     1       1.337   1.672  11.245  1.00  0.00    -0.277 N 
ATOM     37  H2  UNL     1       1.796   0.912  10.744  1.00  0.00     0.189 HD
BRANCH  36  38
HETATM   38  N3  UNL     1       0.608   1.378  12.384  1.00  0.00    -0.343 N 
ATOM     39  H32 UNL     1      -0.346   1.734  12.445  1.00  0.00     0.176 HD
ATOM     40  H31 UNL     1       0.994   0.826  13.149  1.00  0.00     0.176 HD
ENDBRANCH  36  38
ENDBRANCH  33  34
ENDBRANCH  32  33
ENDBRANCH  22  32
ENDBRANCH   1  22
BRANCH  17  41
HETATM   41  O5  UNL     1       7.763  -2.604  15.263  1.00  0.00    -0.314 OA
BRANCH  41  42
HETATM   42  C28 UNL     1       7.717  -3.951  15.555  1.00  0.00     0.285 C 
HETATM   43  O6  UNL     1       7.192  -4.622  14.650  1.00  0.00    -0.263 OA
BRANCH  42  44
HETATM   44  C29 UNL     1       8.253  -4.444  16.819  1.00  0.00     0.346 C 
BRANCH  44  45
HETATM   45  N4  UNL     1       9.537  -5.049  16.786  1.00  0.00    -0.070 N 
HETATM   46  C30 UNL     1       9.372  -6.338  16.087  1.00  0.00     0.272 C 
HETATM   47  C31 UNL     1      10.140  -5.361  18.043  1.00  0.00     0.272 C 
HETATM   48  C32 UNL     1      10.497  -4.298  15.989  1.00  0.00     0.272 C 
ENDBRANCH  44  45
ENDBRANCH  42  44
ENDBRANCH  41  42
ENDBRANCH  17  41
BRANCH  14  49
HETATM   49  O4  UNL     1       2.799  -2.316  14.008  1.00  0.00    -0.395 OA
ATOM     50  H4  UNL     1       2.182  -2.641  14.654  1.00  0.00     0.210 HD
ENDBRANCH  14  49
TORSDOF 13
ENDMDL
MODEL 2
REMARK VINA RESULT: -8.867693768      3.667     12.315
REMARK  13 active torsions:
REMARK  status: ('A' for Active; 'I' for Inactive)
REMARK    1  A    between atoms: C2_2  and  C3_3 
REMARK    2  A    between atoms: C3_3  and  C6_6 
REMARK       I    between atoms: C6_6  and  N1_8 
REMARK    3  A    between atoms: C7_10  and  C8_11 
REMARK    4  A    between atoms: C7_10  and  C11_20 
REMARK    5  A    between atoms: C8_11  and  C9_12 
REMARK    6  A    between atoms: C9_12  and  C10_13 
REMARK       I    between atoms: C10_13  and  N2_15 
REMARK    7  A    between atoms: N2_15  and  N3_17 
REMARK    8  A    between atoms: C16_25  and  O3_26 
REMARK    9  A    between atoms: C24_35  and  O4_36 
REMARK   10  A    between atoms: C27_40  and  O5_41 
REMARK   11  A    between atoms: O5_41  and  C28_42 
REMARK   12  A    between atoms: C28_42  and  C29_44 
REMARK   13  A    between atoms: C29_44  and  N4_45 
ROOT
HETATM    1  C11 UNL     1       5.134  -7.269  17.619  1.00  0.00     0.032 C 
HETATM    2  C12 UNL     1       4.560  -7.786  16.309  1.00  0.00     0.011 C 
HETATM    3  C13 UNL     1       3.708  -6.612  15.910  1.00  0.00     0.013 C 
HETATM    4  C14 UNL     1       4.429  -5.358  16.440  1.00  0.00    -0.009 C 
HETATM    5  C15 UNL     1       5.481  -5.859  17.402  1.00  0.00     0.023 C 
HETATM    6  C16 UNL     1       3.360  -4.519  17.080  1.00  0.00     0.128 C 
HETATM    7  C17 UNL     1       3.393  -3.138  16.451  1.00  0.00     0.042 C 
HETATM    8  C18 UNL     1       4.587  -3.085  15.594  1.00  0.00    -0.027 C 
HETATM    9  C19 UNL     1       5.662  -2.473  16.432  1.00  0.00     0.016 C 
HETATM   10  C20 UNL     1       4.880  -4.551  15.315  1.00  0.00     0.005 C 
HETATM   11  C21 UNL     1       6.308  -4.529  14.904  1.00  0.00     0.007 C 
HETATM   12  C22 UNL     1       6.327  -3.940  13.504  1.00  0.00     0.008 C 
HETATM   13  C23 UNL     1       5.557  -2.675  13.302  1.00  0.00     0.026 C 
HETATM   14  C24 UNL     1       6.539  -1.583  13.059  1.00  0.00     0.123 C 
HETATM   15  C25 UNL     1       6.174  -0.210  13.465  1.00  0.00     0.034 C 
HETATM   16  C26 UNL     1       5.103  -0.039  14.449  1.00  0.00     0.036 C 
HETATM   17  C27 UNL     1       3.970  -1.034  14.383  1.00  0.00     0.141 C 
HETATM   18  C33 UNL     1       4.403  -2.455  14.230  1.00  0.00    -0.004 C 
HETATM   19  C34 UNL     1       3.198  -3.198  13.615  1.00  0.00     0.019 C 
ENDROOT
BRANCH   6  20
HETATM   20  O3  UNL     1       3.539  -4.521  18.444  1.00  0.00    -0.395 OA
ATOM     21  H3  UNL     1       3.582  -3.625  18.755  1.00  0.00     0.210 HD
ENDBRANCH   6  20
BRANCH   1  22
HETATM   22  C7  UNL     1       6.087  -8.223  18.119  1.00  0.00    -0.006 C 
HETATM   23  N1  UNL     1       5.652  -9.476  18.153  1.00  0.00    -0.333 N 
HETATM   24  C6  UNL     1       6.381 -10.572  18.589  1.00  0.00     0.229 C 
ATOM     25  H1  UNL     1       4.700  -9.649  17.831  1.00  0.00     0.168 HD
HETATM   26  O1  UNL     1       6.556 -10.738  19.834  1.00  0.00    -0.272 OA
BRANCH  24  27
HETATM   27  C3  UNL     1       6.979 -11.579  17.682  1.00  0.00     0.034 C 
HETATM   28  C4  UNL     1       6.872 -11.249  16.230  1.00  0.00     0.025 C 
HETATM   29  C5  UNL     1       6.210 -12.883  17.936  1.00  0.00     0.025 C 
BRANCH  27  30
HETATM   30  C2  UNL     1       8.435 -11.853  18.043  1.00  0.00     0.014 C 
HETATM   31  C1  UNL     1       9.374 -11.318  17.009  1.00  0.00     0.006 C 
ENDBRANCH  27  30
ENDBRANCH  24  27
BRANCH  22  32
HETATM   32  C8  UNL     1       7.461  -8.034  18.596  1.00  0.00     0.062 C 
BRANCH  32  33
HETATM   33  C9  UNL     1       8.384  -7.772  17.438  1.00  0.00     0.110 C 
BRANCH  33  34
HETATM   34  C10 UNL     1       9.378  -6.702  17.773  1.00  0.00     0.235 C 
HETATM   35  O2  UNL     1       8.931  -5.643  18.270  1.00  0.00    -0.272 OA
HETATM   36  N2  UNL     1      10.748  -6.908  17.526  1.00  0.00    -0.277 N 
ATOM     37  H2  UNL     1      11.048  -7.794  17.119  1.00  0.00     0.189 HD
BRANCH  36  38
HETATM   38  N3  UNL     1      11.701  -5.948  17.817  1.00  0.00    -0.343 N 
ATOM     39  H32 UNL     1      11.891  -5.747  18.799  1.00  0.00     0.176 HD
ATOM     40  H31 UNL     1      12.208  -5.447  17.088  1.00  0.00     0.176 HD
ENDBRANCH  36  38
ENDBRANCH  33  34
ENDBRANCH  32  33
ENDBRANCH  22  32
ENDBRANCH   1  22
BRANCH  17  41
HETATM   41  O5  UNL     1       2.909  -0.625  13.588  1.00  0.00    -0.314 OA
BRANCH  41  42
HETATM   42  C28 UNL     1       2.950   0.041  12.381  1.00  0.00     0.285 C 
HETATM   43  O6  UNL     1       3.415  -0.655  11.462  1.00  0.00    -0.263 OA
BRANCH  42  44
HETATM   44  C29 UNL     1       2.477   1.417  12.290  1.00  0.00     0.346 C 
BRANCH  44  45
HETATM   45  N4  UNL     1       1.128   1.614  11.893  1.00  0.00    -0.070 N 
HETATM   46  C30 UNL     1       0.921   3.073  11.832  1.00  0.00     0.272 C 
HETATM   47  C31 UNL     1       0.114   1.111  12.764  1.00  0.00     0.272 C 
HETATM   48  C32 UNL     1       0.859   1.130  10.546  1.00  0.00     0.272 C 
ENDBRANCH  44  45
ENDBRANCH  42  44
ENDBRANCH  41  42
ENDBRANCH  17  41
BRANCH  14  49
HETATM   49  O4  UNL     1       7.866  -1.932  13.453  1.00  0.00    -0.395 OA
ATOM     50  H4  UNL     1       8.188  -2.712  13.017  1.00  0.00     0.210 HD
ENDBRANCH  14  49
TORSDOF 13
ENDMDL
MODEL 3
REMARK VINA RESULT: -8.856826798      1.860      2.511
REMARK  13 active torsions:
REMARK  status: ('A' for Active; 'I' for Inactive)
REMARK    1  A    between atoms: C2_2  and  C3_3 
REMARK    2  A    between atoms: C3_3  and  C6_6 
REMARK       I    between atoms: C6_6  and  N1_8 
REMARK    3  A    between atoms: C7_10  and  C8_11 
REMARK    4  A    between atoms: C7_10  and  C11_20 
REMARK    5  A    between atoms: C8_11  and  C9_12 
REMARK    6  A    between atoms: C9_12  and  C10_13 
REMARK       I    between atoms: C10_13  and  N2_15 
REMARK    7  A    between atoms: N2_15  and  N3_17 
REMARK    8  A    between atoms: C16_25  and  O3_26 
REMARK    9  A    between atoms: C24_35  and  O4_36 
REMARK   10  A    between atoms: C27_40  and  O5_41 
REMARK   11  A    between atoms: O5_41  and  C28_42 
REMARK   12  A    between atoms: C28_42  and  C29_44 
REMARK   13  A    between atoms: C29_44  and  N4_45 
ROOT
HETATM    1  C11 UNL     1       7.521   2.083  11.101  1.00  0.00     0.032 C 
HETATM    2  C12 UNL     1       7.918   0.879  10.260  1.00  0.00     0.011 C 
HETATM    3  C13 UNL     1       8.197  -0.123  11.347  1.00  0.00     0.013 C 
HETATM    4  C14 UNL     1       7.233   0.213  12.500  1.00  0.00    -0.009 C 
HETATM    5  C15 UNL     1       6.671   1.579  12.186  1.00  0.00     0.023 C 
HETATM    6  C16 UNL     1       8.066   0.162  13.749  1.00  0.00     0.128 C 
HETATM    7  C17 UNL     1       7.417  -0.806  14.721  1.00  0.00     0.042 C 
HETATM    8  C18 UNL     1       6.113  -1.177  14.150  1.00  0.00    -0.027 C 
HETATM    9  C19 UNL     1       5.119  -0.252  14.770  1.00  0.00     0.016 C 
HETATM   10  C20 UNL     1       6.285  -0.880  12.667  1.00  0.00     0.005 C 
HETATM   11  C21 UNL     1       4.883  -0.765  12.190  1.00  0.00     0.007 C 
HETATM   12  C22 UNL     1       4.339  -2.183  12.157  1.00  0.00     0.008 C 
HETATM   13  C23 UNL     1       4.559  -3.010  13.383  1.00  0.00     0.026 C 
HETATM   14  C24 UNL     1       3.234  -3.224  14.027  1.00  0.00     0.123 C 
HETATM   15  C25 UNL     1       3.189  -3.404  15.493  1.00  0.00     0.034 C 
HETATM   16  C26 UNL     1       4.332  -2.946  16.284  1.00  0.00     0.036 C 
HETATM   17  C27 UNL     1       5.690  -3.088  15.641  1.00  0.00     0.141 C 
HETATM   18  C33 UNL     1       5.749  -2.645  14.215  1.00  0.00    -0.004 C 
HETATM   19  C34 UNL     1       6.958  -3.377  13.597  1.00  0.00     0.019 C 
ENDROOT
BRANCH   6  20
HETATM   20  O3  UNL     1       8.220   1.437  14.242  1.00  0.00    -0.395 OA
ATOM     21  H3  UNL     1       7.374   1.769  14.519  1.00  0.00     0.210 HD
ENDBRANCH   6  20
BRANCH   1  22
HETATM   22  C7  UNL     1       7.097   3.142  10.226  1.00  0.00    -0.006 C 
HETATM   23  N1  UNL     1       7.851   3.306   9.146  1.00  0.00    -0.333 N 
HETATM   24  C6  UNL     1       7.647   4.254   8.155  1.00  0.00     0.229 C 
ATOM     25  H1  UNL     1       8.649   2.680   9.035  1.00  0.00     0.168 HD
HETATM   26  O1  UNL     1       7.951   5.462   8.388  1.00  0.00    -0.272 OA
BRANCH  24  27
HETATM   27  C3  UNL     1       7.088   3.943   6.819  1.00  0.00     0.034 C 
HETATM   28  C4  UNL     1       8.036   4.150   5.685  1.00  0.00     0.025 C 
HETATM   29  C5  UNL     1       5.897   4.893   6.629  1.00  0.00     0.025 C 
BRANCH  27  30
HETATM   30  C2  UNL     1       6.526   2.525   6.771  1.00  0.00     0.014 C 
HETATM   31  C1  UNL     1       7.407   1.605   5.987  1.00  0.00     0.006 C 
ENDBRANCH  27  30
ENDBRANCH  24  27
BRANCH  22  32
HETATM   32  C8  UNL     1       5.966   4.071  10.334  1.00  0.00     0.062 C 
BRANCH  32  33
HETATM   33  C9  UNL     1       4.706   3.418   9.835  1.00  0.00     0.110 C 
BRANCH  33  34
HETATM   34  C10 UNL     1       3.698   3.283  10.934  1.00  0.00     0.235 C 
HETATM   35  O2  UNL     1       3.588   4.244  11.730  1.00  0.00    -0.272 OA
HETATM   36  N2  UNL     1       2.924   2.113  11.043  1.00  0.00    -0.277 N 
ATOM     37  H2  UNL     1       3.061   1.366  10.363  1.00  0.00     0.189 HD
BRANCH  36  38
HETATM   38  N3  UNL     1       1.981   1.943  12.043  1.00  0.00    -0.343 N 
ATOM     39  H32 UNL     1       1.833   2.713  12.694  1.00  0.00     0.176 HD
ATOM     40  H31 UNL     1       1.443   1.083  12.141  1.00  0.00     0.176 HD
ENDBRANCH  36  38
ENDBRANCH  33  34
ENDBRANCH  32  33
ENDBRANCH  22  32
ENDBRANCH   1  22
BRANCH  17  41
HETATM   41  O5  UNL     1       6.332  -4.282  15.940  1.00  0.00    -0.314 OA
BRANCH  41  42
HETATM   42  C28 UNL     1       7.319  -4.512  16.875  1.00  0.00     0.285 C 
HETATM   43  O6  UNL     1       6.933  -5.224  17.818  1.00  0.00    -0.263 OA
BRANCH  42  44
HETATM   44  C29 UNL     1       8.647  -3.938  16.691  1.00  0.00     0.346 C 
BRANCH  44  45
HETATM   45  N4  UNL     1       9.648  -4.781  16.141  1.00  0.00    -0.070 N 
HETATM   46  C30 UNL     1      10.373  -3.971  15.144  1.00  0.00     0.272 C 
HETATM   47  C31 UNL     1       9.204  -5.949  15.448  1.00  0.00     0.272 C 
HETATM   48  C32 UNL     1      10.652  -5.180  17.118  1.00  0.00     0.272 C 
ENDBRANCH  44  45
ENDBRANCH  42  44
ENDBRANCH  41  42
ENDBRANCH  17  41
BRANCH  14  49
HETATM   49  O4  UNL     1       2.237  -2.314  13.560  1.00  0.00    -0.395 OA
ATOM     50  H4  UNL     1       1.362  -2.548  13.845  1.00  0.00     0.210 HD
ENDBRANCH  14  49
TORSDOF 13
ENDMDL
MODEL 4
REMARK VINA RESULT: -8.742779014      1.800      2.389
REMARK  13 active torsions:
REMARK  status: ('A' for Active; 'I' for Inactive)
REMARK    1  A    between atoms: C2_2  and  C3_3 
REMARK    2  A    between atoms: C3_3  and  C6_6 
REMARK       I    between atoms: C6_6  and  N1_8 
REMARK    3  A    between atoms: C7_10  and  C8_11 
REMARK    4  A    between atoms: C7_10  and  C11_20 
REMARK    5  A    between atoms: C8_11  and  C9_12 
REMARK    6  A    between atoms: C9_12  and  C10_13 
REMARK       I    between atoms: C10_13  and  N2_15 
REMARK    7  A    between atoms: N2_15  and  N3_17 
REMARK    8  A    between atoms: C16_25  and  O3_26 
REMARK    9  A    between atoms: C24_35  and  O4_36 
REMARK   10  A    between atoms: C27_40  and  O5_41 
REMARK   11  A    between atoms: O5_41  and  C28_42 
REMARK   12  A    between atoms: C28_42  and  C29_44 
REMARK   13  A    between atoms: C29_44  and  N4_45 
ROOT
HETATM    1  C11 UNL     1       7.455   2.186  10.995  1.00  0.00     0.032 C 
HETATM    2  C12 UNL     1       7.878   0.986  10.162  1.00  0.00     0.011 C 
HETATM    3  C13 UNL     1       8.202   0.005  11.256  1.00  0.00     0.013 C 
HETATM    4  C14 UNL     1       7.242   0.323  12.417  1.00  0.00    -0.009 C 
HETATM    5  C15 UNL     1       6.635   1.668  12.097  1.00  0.00     0.023 C 
HETATM    6  C16 UNL     1       8.092   0.312  13.657  1.00  0.00     0.128 C 
HETATM    7  C17 UNL     1       7.485  -0.665  14.647  1.00  0.00     0.042 C 
HETATM    8  C18 UNL     1       6.186  -1.082  14.096  1.00  0.00    -0.027 C 
HETATM    9  C19 UNL     1       5.172  -0.181  14.719  1.00  0.00     0.016 C 
HETATM   10  C20 UNL     1       6.331  -0.796  12.609  1.00  0.00     0.005 C 
HETATM   11  C21 UNL     1       4.920  -0.730  12.148  1.00  0.00     0.007 C 
HETATM   12  C22 UNL     1       4.420  -2.164  12.137  1.00  0.00     0.008 C 
HETATM   13  C23 UNL     1       4.680  -2.970  13.369  1.00  0.00     0.026 C 
HETATM   14  C24 UNL     1       3.370  -3.217  14.031  1.00  0.00     0.123 C 
HETATM   15  C25 UNL     1       3.349  -3.383  15.500  1.00  0.00     0.034 C 
HETATM   16  C26 UNL     1       4.487  -2.882  16.271  1.00  0.00     0.036 C 
HETATM   17  C27 UNL     1       5.841  -2.989  15.612  1.00  0.00     0.141 C 
HETATM   18  C33 UNL     1       5.868  -2.560  14.181  1.00  0.00    -0.004 C 
HETATM   19  C34 UNL     1       7.092  -3.261  13.555  1.00  0.00     0.019 C 
ENDROOT
BRANCH   6  20
HETATM   20  O3  UNL     1       8.213   1.596  14.134  1.00  0.00    -0.395 OA
ATOM     21  H3  UNL     1       8.382   1.568  15.068  1.00  0.00     0.210 HD
ENDBRANCH   6  20
BRANCH   1  22
HETATM   22  C7  UNL     1       6.988   3.222  10.115  1.00  0.00    -0.006 C 
HETATM   23  N1  UNL     1       7.696   3.366   9.001  1.00  0.00    -0.333 N 
HETATM   24  C6  UNL     1       7.444   4.289   7.998  1.00  0.00     0.229 C 
ATOM     25  H1  UNL     1       8.493   2.743   8.872  1.00  0.00     0.168 HD
HETATM   26  O1  UNL     1       7.749   5.505   8.191  1.00  0.00    -0.272 OA
BRANCH  24  27
HETATM   27  C3  UNL     1       6.833   3.944   6.694  1.00  0.00     0.034 C 
HETATM   28  C4  UNL     1       7.725   4.149   5.515  1.00  0.00     0.025 C 
HETATM   29  C5  UNL     1       5.616   4.868   6.542  1.00  0.00     0.025 C 
BRANCH  27  30
HETATM   30  C2  UNL     1       6.299   2.515   6.694  1.00  0.00     0.014 C 
HETATM   31  C1  UNL     1       7.158   1.601   5.880  1.00  0.00     0.006 C 
ENDBRANCH  27  30
ENDBRANCH  24  27
BRANCH  22  32
HETATM   32  C8  UNL     1       5.856   4.146  10.248  1.00  0.00     0.062 C 
BRANCH  32  33
HETATM   33  C9  UNL     1       4.586   3.486   9.784  1.00  0.00     0.110 C 
BRANCH  33  34
HETATM   34  C10 UNL     1       3.624   3.310  10.918  1.00  0.00     0.235 C 
HETATM   35  O2  UNL     1       3.516   4.260  11.728  1.00  0.00    -0.272 OA
HETATM   36  N2  UNL     1       2.888   2.117  11.042  1.00  0.00    -0.277 N 
ATOM     37  H2  UNL     1       3.022   1.381  10.349  1.00  0.00     0.189 HD
BRANCH  36  38
HETATM   38  N3  UNL     1       1.989   1.910  12.074  1.00  0.00    -0.343 N 
ATOM     39  H32 UNL     1       1.998   2.567  12.853  1.00  0.00     0.176 HD
ATOM     40  H31 UNL     1       1.332   1.130  12.073  1.00  0.00     0.176 HD
ENDBRANCH  36  38
ENDBRANCH  33  34
ENDBRANCH  32  33
ENDBRANCH  22  32
ENDBRANCH   1  22
BRANCH  17  41
HETATM   41  O5  UNL     1       6.523  -4.159  15.916  1.00  0.00    -0.314 OA
BRANCH  41  42
HETATM   42  C28 UNL     1       7.625  -4.321  16.729  1.00  0.00     0.285 C 
HETATM   43  O6  UNL     1       8.518  -3.487  16.501  1.00  0.00    -0.263 OA
BRANCH  42  44
HETATM   44  C29 UNL     1       7.648  -5.388  17.723  1.00  0.00     0.346 C 
BRANCH  44  45
HETATM   45  N4  UNL     1       8.642  -6.390  17.575  1.00  0.00    -0.070 N 
HETATM   46  C30 UNL     1       8.209  -7.532  18.403  1.00  0.00     0.272 C 
HETATM   47  C31 UNL     1       9.962  -6.067  18.016  1.00  0.00     0.272 C 
HETATM   48  C32 UNL     1       8.725  -6.909  16.217  1.00  0.00     0.272 C 
ENDBRANCH  44  45
ENDBRANCH  42  44
ENDBRANCH  41  42
ENDBRANCH  17  41
BRANCH  14  49
HETATM   49  O4  UNL     1       2.340  -2.344  13.568  1.00  0.00    -0.395 OA
ATOM     50  H4  UNL     1       2.285  -2.308  12.620  1.00  0.00     0.210 HD
ENDBRANCH  14  49
TORSDOF 13
ENDMDL
MODEL 5
REMARK VINA RESULT: -8.713140464      1.129      1.635
REMARK  13 active torsions:
REMARK  status: ('A' for Active; 'I' for Inactive)
REMARK    1  A    between atoms: C2_2  and  C3_3 
REMARK    2  A    between atoms: C3_3  and  C6_6 
REMARK       I    between atoms: C6_6  and  N1_8 
REMARK    3  A    between atoms: C7_10  and  C8_11 
REMARK    4  A    between atoms: C7_10  and  C11_20 
REMARK    5  A    between atoms: C8_11  and  C9_12 
REMARK    6  A    between atoms: C9_12  and  C10_13 
REMARK       I    between atoms: C10_13  and  N2_15 
REMARK    7  A    between atoms: N2_15  and  N3_17 
REMARK    8  A    between atoms: C16_25  and  O3_26 
REMARK    9  A    between atoms: C24_35  and  O4_36 
REMARK   10  A    between atoms: C27_40  and  O5_41 
REMARK   11  A    between atoms: O5_41  and  C28_42 
REMARK   12  A    between atoms: C28_42  and  C29_44 
REMARK   13  A    between atoms: C29_44  and  N4_45 
ROOT
HETATM    1  C11 UNL     1       6.223   2.817  10.085  1.00  0.00     0.032 C 
HETATM    2  C12 UNL     1       6.968   1.674   9.412  1.00  0.00     0.011 C 
HETATM    3  C13 UNL     1       7.608   1.033  10.613  1.00  0.00     0.013 C 
HETATM    4  C14 UNL     1       6.633   1.244  11.786  1.00  0.00    -0.009 C 
HETATM    5  C15 UNL     1       5.634   2.274  11.314  1.00  0.00     0.023 C 
HETATM    6  C16 UNL     1       7.482   1.694  12.941  1.00  0.00     0.128 C 
HETATM    7  C17 UNL     1       7.232   0.764  14.113  1.00  0.00     0.042 C 
HETATM    8  C18 UNL     1       6.107  -0.107  13.737  1.00  0.00    -0.027 C 
HETATM    9  C19 UNL     1       4.885   0.545  14.296  1.00  0.00     0.016 C 
HETATM   10  C20 UNL     1       6.113  -0.046  12.217  1.00  0.00     0.005 C 
HETATM   11  C21 UNL     1       4.735  -0.480  11.866  1.00  0.00     0.007 C 
HETATM   12  C22 UNL     1       4.697  -1.978  12.113  1.00  0.00     0.008 C 
HETATM   13  C23 UNL     1       5.229  -2.451  13.428  1.00  0.00     0.026 C 
HETATM   14  C24 UNL     1       4.077  -2.959  14.223  1.00  0.00     0.123 C 
HETATM   15  C25 UNL     1       4.151  -2.873  15.696  1.00  0.00     0.034 C 
HETATM   16  C26 UNL     1       5.105  -1.934  16.289  1.00  0.00     0.036 C 
HETATM   17  C27 UNL     1       6.406  -1.745  15.548  1.00  0.00     0.141 C 
HETATM   18  C33 UNL     1       6.258  -1.575  14.071  1.00  0.00    -0.004 C 
HETATM   19  C34 UNL     1       7.618  -1.978  13.463  1.00  0.00     0.019 C 
ENDROOT
BRANCH   6  20
HETATM   20  O3  UNL     1       7.219   3.018  13.206  1.00  0.00    -0.395 OA
ATOM     21  H3  UNL     1       7.153   3.141  14.146  1.00  0.00     0.210 HD
ENDBRANCH   6  20
BRANCH   1  22
HETATM   22  C7  UNL     1       5.436   3.505   9.097  1.00  0.00    -0.006 C 
HETATM   23  N1  UNL     1       6.115   3.917   8.034  1.00  0.00    -0.333 N 
HETATM   24  C6  UNL     1       5.582   4.597   6.950  1.00  0.00     0.229 C 
ATOM     25  H1  UNL     1       7.115   3.717   8.013  1.00  0.00     0.168 HD
HETATM   26  O1  UNL     1       5.291   5.825   7.077  1.00  0.00    -0.272 OA
BRANCH  24  27
HETATM   27  C3  UNL     1       5.326   3.974   5.631  1.00  0.00     0.034 C 
HETATM   28  C4  UNL     1       5.927   4.699   4.474  1.00  0.00     0.025 C 
HETATM   29  C5  UNL     1       3.801   3.971   5.456  1.00  0.00     0.025 C 
BRANCH  27  30
HETATM   30  C2  UNL     1       5.770   2.515   5.613  1.00  0.00     0.014 C 
HETATM   31  C1  UNL     1       7.049   2.333   4.859  1.00  0.00     0.006 C 
ENDBRANCH  27  30
ENDBRANCH  24  27
BRANCH  22  32
HETATM   32  C8  UNL     1       4.004   3.822   9.075  1.00  0.00     0.062 C 
BRANCH  32  33
HETATM   33  C9  UNL     1       3.510   4.107  10.467  1.00  0.00     0.110 C 
BRANCH  33  34
HETATM   34  C10 UNL     1       2.230   3.381  10.744  1.00  0.00     0.235 C 
HETATM   35  O2  UNL     1       1.290   4.046  11.238  1.00  0.00    -0.272 OA
HETATM   36  N2  UNL     1       2.119   2.008  10.453  1.00  0.00    -0.277 N 
ATOM     37  H2  UNL     1       2.921   1.523  10.051  1.00  0.00     0.189 HD
BRANCH  36  38
HETATM   38  N3  UNL     1       0.956   1.296  10.692  1.00  0.00    -0.343 N 
ATOM     39  H32 UNL     1       0.690   1.130  11.662  1.00  0.00     0.176 HD
ATOM     40  H31 UNL     1       0.372   0.939   9.936  1.00  0.00     0.176 HD
ENDBRANCH  36  38
ENDBRANCH  33  34
ENDBRANCH  32  33
ENDBRANCH  22  32
ENDBRANCH   1  22
BRANCH  17  41
HETATM   41  O5  UNL     1       7.422  -2.592  15.971  1.00  0.00    -0.314 OA
BRANCH  41  42
HETATM   42  C28 UNL     1       7.339  -3.928  16.303  1.00  0.00     0.285 C 
HETATM   43  O6  UNL     1       7.124  -4.111  17.514  1.00  0.00    -0.263 OA
BRANCH  42  44
HETATM   44  C29 UNL     1       7.501  -4.948  15.273  1.00  0.00     0.346 C 
BRANCH  44  45
HETATM   45  N4  UNL     1       8.760  -5.601  15.200  1.00  0.00    -0.070 N 
HETATM   46  C30 UNL     1       8.962  -5.956  13.783  1.00  0.00     0.272 C 
HETATM   47  C31 UNL     1       8.904  -6.818  15.933  1.00  0.00     0.272 C 
HETATM   48  C32 UNL     1       9.872  -4.725  15.541  1.00  0.00     0.272 C 
ENDBRANCH  44  45
ENDBRANCH  42  44
ENDBRANCH  41  42
ENDBRANCH  17  41
BRANCH  14  49
HETATM   49  O4  UNL     1       2.816  -2.522  13.716  1.00  0.00    -0.395 OA
ATOM     50  H4  UNL     1       2.085  -2.801  14.254  1.00  0.00     0.210 HD
ENDBRANCH  14  49
TORSDOF 13
ENDMDL
