MODEL 1
REMARK VINA RESULT: -8.520263383      0.000      0.000
REMARK  13 active torsions:
REMARK  status: ('A' for Active; 'I' for Inactive)
REMARK    1  A    between atoms: C2_2  and  C3_3 
REMARK    2  A    between atoms: C4_4  and  C5_5 
REMARK    3  A    between atoms: C5_5  and  O1_6 
REMARK       I    between atoms: N1_10  and  C8_11 
REMARK    4  A    between atoms: C8_11  and  C9_13 
REMARK    5  A    between atoms: N2_14  and  C10_15 
REMARK    6  A    between atoms: C10_15  and  C11_16 
REMARK    7  A    between atoms: C11_16  and  O3_17 
REMARK    8  A    between atoms: C11_16  and  C12_19 
REMARK    9  A    between atoms: C12_19  and  C13_20 
REMARK   10  A    between atoms: C13_20  and  O4_23 
REMARK   11  A    between atoms: C32_42  and  C33_43 
REMARK   12  A    between atoms: C33_43  and  C34_44 
REMARK   13  A    between atoms: C34_44  and  O6_45 
ROOT
HETATM    1  C9  UNL     1       5.499  -0.135  12.108  1.00  0.00     0.323 C 
HETATM    2  N2  UNL     1       4.238  -0.059  12.815  1.00  0.00     0.110 N 
HETATM    3  C16 UNL     1       4.013  -1.282  13.558  1.00  0.00     0.225 C 
HETATM    4  C17 UNL     1       3.504  -0.837  14.874  1.00  0.00     0.043 C 
HETATM    5  C18 UNL     1       5.153  -2.160  13.413  1.00  0.00     0.034 C 
HETATM    6  C19 UNL     1       5.693  -3.118  14.354  1.00  0.00     0.002 C 
HETATM    7  C20 UNL     1       4.767  -3.920  15.196  1.00  0.00     0.013 C 
HETATM    8  C21 UNL     1       5.411  -5.312  15.436  1.00  0.00     0.079 C 
HETATM    9  C22 UNL     1       6.810  -5.134  15.903  1.00  0.00     0.135 C 
HETATM   10  O5  UNL     1       7.216  -6.000  16.694  1.00  0.00    -0.297 OA
HETATM   11  C23 UNL     1       7.715  -4.040  15.509  1.00  0.00     0.021 C 
HETATM   12  C24 UNL     1       8.609  -3.784  16.732  1.00  0.00     0.024 C 
HETATM   13  C25 UNL     1       8.673  -4.442  14.414  1.00  0.00     0.024 C 
HETATM   14  C26 UNL     1       6.919  -2.777  15.167  1.00  0.00    -0.026 C 
HETATM   15  C27 UNL     1       6.679  -2.143  16.493  1.00  0.00     0.016 C 
HETATM   16  C28 UNL     1       7.905  -1.887  14.442  1.00  0.00     0.011 C 
HETATM   17  C29 UNL     1       7.110  -0.692  13.950  1.00  0.00     0.013 C 
HETATM   18  C30 UNL     1       6.225  -1.194  12.868  1.00  0.00     0.002 C 
HETATM   19  C31 UNL     1       7.113  -1.954  11.869  1.00  0.00     0.018 C 
ENDROOT
BRANCH   1  20
HETATM   20  C8  UNL     1       6.160   1.202  12.245  1.00  0.00     0.254 C 
HETATM   21  N1  UNL     1       6.306   2.157  11.225  1.00  0.00    -0.345 N 
HETATM   22  C7  UNL     1       5.810   2.025   9.873  1.00  0.00     0.131 C 
HETATM   23  C32 UNL     1       7.005   3.399  11.532  1.00  0.00     0.089 C 
HETATM   24  C6  UNL     1       6.931   2.015   8.893  1.00  0.00     0.015 C 
HETATM   25  C4  UNL     1       6.896   3.100   7.827  1.00  0.00     0.020 C 
HETATM   26  C36 UNL     1       8.175   2.714   9.429  1.00  0.00    -0.002 C 
HETATM   27  C3  UNL     1       8.395   3.203   8.017  1.00  0.00    -0.004 C 
HETATM   28  C35 UNL     1       7.810   3.853  10.337  1.00  0.00     0.031 C 
HETATM   29  O2  UNL     1       6.621   1.483  13.403  1.00  0.00    -0.271 OA
BRANCH  25  30
HETATM   30  C5  UNL     1       6.528   2.593   6.451  1.00  0.00     0.169 C 
BRANCH  30  31
HETATM   31  O1  UNL     1       6.708   1.191   6.453  1.00  0.00    -0.400 OA
ATOM     32  H1  UNL     1       7.641   1.022   6.391  1.00  0.00     0.209 HD
ENDBRANCH  30  31
ENDBRANCH  25  30
BRANCH  27  33
HETATM   33  C2  UNL     1       8.994   4.566   7.876  1.00  0.00     0.001 C 
HETATM   34  C1  UNL     1       9.567   4.781   6.475  1.00  0.00     0.005 C 
ENDBRANCH  27  33
BRANCH  23  35
HETATM   35  C33 UNL     1       6.023   4.460  11.992  1.00  0.00     0.051 C 
BRANCH  35  36
HETATM   36  C34 UNL     1       6.757   5.563  12.695  1.00  0.00     0.166 C 
BRANCH  36  37
HETATM   37  O6  UNL     1       5.925   6.359  13.463  1.00  0.00    -0.401 OA
ATOM     38  H6  UNL     1       6.398   6.882  14.100  1.00  0.00     0.209 HD
ENDBRANCH  36  37
ENDBRANCH  35  36
ENDBRANCH  23  35
ENDBRANCH   1  20
BRANCH   2  39
HETATM   39  C10 UNL     1       3.227   0.278  11.869  1.00  0.00     0.305 C 
BRANCH  39  40
HETATM   40  C11 UNL     1       2.372   1.457  12.166  1.00  0.00     0.149 C 
BRANCH  40  41
HETATM   41  O3  UNL     1       3.113   2.629  12.306  1.00  0.00    -0.394 OA
ATOM     42  H3  UNL     1       3.715   2.591  13.040  1.00  0.00     0.210 HD
ENDBRANCH  40  41
BRANCH  40  43
HETATM   43  C12 UNL     1       1.532   1.685  10.891  1.00  0.00     0.070 C 
BRANCH  43  44
HETATM   44  C13 UNL     1       0.692   2.912  10.963  1.00  0.00     0.053 C 
HETATM   45  C14 UNL     1      -0.639   2.561  10.284  1.00  0.00     0.045 C 
HETATM   46  C15 UNL     1       1.274   4.040  10.108  1.00  0.00     0.045 C 
BRANCH  44  47
HETATM   47  O4  UNL     1       0.414   3.337  12.238  1.00  0.00    -0.391 OA
ATOM     48  H4  UNL     1       1.153   3.722  12.694  1.00  0.00     0.210 HD
ENDBRANCH  44  47
ENDBRANCH  43  44
ENDBRANCH  40  43
ENDBRANCH  39  40
ENDBRANCH   2  39
TORSDOF 13
ENDMDL
MODEL 2
REMARK VINA RESULT: -8.082199696      1.369      1.699
REMARK  13 active torsions:
REMARK  status: ('A' for Active; 'I' for Inactive)
REMARK    1  A    between atoms: C2_2  and  C3_3 
REMARK    2  A    between atoms: C4_4  and  C5_5 
REMARK    3  A    between atoms: C5_5  and  O1_6 
REMARK       I    between atoms: N1_10  and  C8_11 
REMARK    4  A    between atoms: C8_11  and  C9_13 
REMARK    5  A    between atoms: N2_14  and  C10_15 
REMARK    6  A    between atoms: C10_15  and  C11_16 
REMARK    7  A    between atoms: C11_16  and  O3_17 
REMARK    8  A    between atoms: C11_16  and  C12_19 
REMARK    9  A    between atoms: C12_19  and  C13_20 
REMARK   10  A    between atoms: C13_20  and  O4_23 
REMARK   11  A    between atoms: C32_42  and  C33_43 
REMARK   12  A    between atoms: C33_43  and  C34_44 
REMARK   13  A    between atoms: C34_44  and  O6_45 
ROOT
HETATM    1  C9  UNL     1       5.901  -0.214  13.406  1.00  0.00     0.323 C 
HETATM    2  N2  UNL     1       5.133  -0.019  14.617  1.00  0.00     0.110 N 
HETATM    3  C16 UNL     1       4.984  -1.278  15.317  1.00  0.00     0.225 C 
HETATM    4  C17 UNL     1       5.220  -0.949  16.740  1.00  0.00     0.043 C 
HETATM    5  C18 UNL     1       5.711  -2.315  14.619  1.00  0.00     0.034 C 
HETATM    6  C19 UNL     1       6.374  -3.483  15.156  1.00  0.00     0.002 C 
HETATM    7  C20 UNL     1       5.757  -4.222  16.289  1.00  0.00     0.013 C 
HETATM    8  C21 UNL     1       6.104  -5.728  16.134  1.00  0.00     0.079 C 
HETATM    9  C22 UNL     1       7.566  -5.875  15.913  1.00  0.00     0.135 C 
HETATM   10  O5  UNL     1       8.068  -6.908  16.384  1.00  0.00    -0.297 OA
HETATM   11  C23 UNL     1       8.429  -4.916  15.201  1.00  0.00     0.021 C 
HETATM   12  C24 UNL     1       9.801  -5.010  15.887  1.00  0.00     0.024 C 
HETATM   13  C25 UNL     1       8.689  -5.316  13.770  1.00  0.00     0.024 C 
HETATM   14  C26 UNL     1       7.875  -3.494  15.330  1.00  0.00    -0.026 C 
HETATM   15  C27 UNL     1       8.393  -3.031  16.647  1.00  0.00     0.016 C 
HETATM   16  C28 UNL     1       8.616  -2.698  14.277  1.00  0.00     0.011 C 
HETATM   17  C29 UNL     1       7.982  -1.320  14.268  1.00  0.00     0.013 C 
HETATM   18  C30 UNL     1       6.623  -1.487  13.691  1.00  0.00     0.002 C 
HETATM   19  C31 UNL     1       6.784  -2.238  12.359  1.00  0.00     0.018 C 
ENDROOT
BRANCH   1  20
HETATM   20  C8  UNL     1       6.840   0.947  13.291  1.00  0.00     0.254 C 
HETATM   21  N1  UNL     1       6.871   1.880  12.241  1.00  0.00    -0.345 N 
HETATM   22  C7  UNL     1       5.974   1.900  11.106  1.00  0.00     0.131 C 
HETATM   23  C32 UNL     1       7.877   2.935  12.278  1.00  0.00     0.089 C 
HETATM   24  C6  UNL     1       6.718   1.682   9.835  1.00  0.00     0.015 C 
HETATM   25  C4  UNL     1       6.593   2.782   8.792  1.00  0.00     0.020 C 
HETATM   26  C36 UNL     1       8.184   2.082   9.946  1.00  0.00    -0.002 C 
HETATM   27  C3  UNL     1       8.066   2.558   8.517  1.00  0.00    -0.004 C 
HETATM   28  C35 UNL     1       8.360   3.244  10.881  1.00  0.00     0.031 C 
HETATM   29  O2  UNL     1       7.678   1.087  14.245  1.00  0.00    -0.271 OA
BRANCH  25  30
HETATM   30  C5  UNL     1       5.728   2.408   7.610  1.00  0.00     0.169 C 
BRANCH  30  31
HETATM   31  O1  UNL     1       6.437   1.450   6.850  1.00  0.00    -0.400 OA
ATOM     32  H1  UNL     1       6.103   0.593   7.088  1.00  0.00     0.209 HD
ENDBRANCH  30  31
ENDBRANCH  25  30
BRANCH  27  33
HETATM   33  C2  UNL     1       8.869   3.766   8.154  1.00  0.00     0.001 C 
HETATM   34  C1  UNL     1       8.787   4.060   6.657  1.00  0.00     0.005 C 
ENDBRANCH  27  33
BRANCH  23  35
HETATM   35  C33 UNL     1       7.328   4.165  12.975  1.00  0.00     0.051 C 
BRANCH  35  36
HETATM   36  C34 UNL     1       6.727   5.097  11.966  1.00  0.00     0.166 C 
BRANCH  36  37
HETATM   37  O6  UNL     1       5.654   5.815  12.466  1.00  0.00    -0.401 OA
ATOM     38  H6  UNL     1       4.865   5.711  11.946  1.00  0.00     0.209 HD
ENDBRANCH  36  37
ENDBRANCH  35  36
ENDBRANCH  23  35
ENDBRANCH   1  20
BRANCH   2  39
HETATM   39  C10 UNL     1       3.916   0.632  14.261  1.00  0.00     0.305 C 
BRANCH  39  40
HETATM   40  C11 UNL     1       3.196   0.136  13.058  1.00  0.00     0.149 C 
BRANCH  40  41
HETATM   41  O3  UNL     1       2.742  -1.172  13.212  1.00  0.00    -0.394 OA
ATOM     42  H3  UNL     1       3.415  -1.752  13.547  1.00  0.00     0.210 HD
ENDBRANCH  40  41
BRANCH  40  43
HETATM   43  C12 UNL     1       1.907   0.982  12.974  1.00  0.00     0.070 C 
BRANCH  43  44
HETATM   44  C13 UNL     1       1.601   1.433  11.589  1.00  0.00     0.053 C 
HETATM   45  C14 UNL     1       2.432   2.704  11.359  1.00  0.00     0.045 C 
HETATM   46  C15 UNL     1       0.149   1.896  11.459  1.00  0.00     0.045 C 
BRANCH  44  47
HETATM   47  O4  UNL     1       1.934   0.531  10.610  1.00  0.00    -0.391 OA
ATOM     48  H4  UNL     1       1.197   0.051  10.251  1.00  0.00     0.210 HD
ENDBRANCH  44  47
ENDBRANCH  43  44
ENDBRANCH  40  43
ENDBRANCH  39  40
ENDBRANCH   2  39
TORSDOF 13
ENDMDL
MODEL 3
REMARK VINA RESULT: -7.938904414      1.220      1.376
REMARK  13 active torsions:
REMARK  status: ('A' for Active; 'I' for Inactive)
REMARK    1  A    between atoms: C2_2  and  C3_3 
REMARK    2  A    between atoms: C4_4  and  C5_5 
REMARK    3  A    between atoms: C5_5  and  O1_6 
REMARK       I    between atoms: N1_10  and  C8_11 
REMARK    4  A    between atoms: C8_11  and  C9_13 
REMARK    5  A    between atoms: N2_14  and  C10_15 
REMARK    6  A    between atoms: C10_15  and  C11_16 
REMARK    7  A    between atoms: C11_16  and  O3_17 
REMARK    8  A    between atoms: C11_16  and  C12_19 
REMARK    9  A    between atoms: C12_19  and  C13_20 
REMARK   10  A    between atoms: C13_20  and  O4_23 
REMARK   11  A    between atoms: C32_42  and  C33_43 
REMARK   12  A    between atoms: C33_43  and  C34_44 
REMARK   13  A    between atoms: C34_44  and  O6_45 
ROOT
HETATM    1  C9  UNL     1       5.565  -0.071  11.998  1.00  0.00     0.323 C 
HETATM    2  N2  UNL     1       4.460   0.525  12.718  1.00  0.00     0.110 N 
HETATM    3  C16 UNL     1       3.876  -0.446  13.619  1.00  0.00     0.225 C 
HETATM    4  C17 UNL     1       3.642   0.298  14.876  1.00  0.00     0.043 C 
HETATM    5  C18 UNL     1       4.627  -1.680  13.564  1.00  0.00     0.034 C 
HETATM    6  C19 UNL     1       4.863  -2.652  14.610  1.00  0.00     0.002 C 
HETATM    7  C20 UNL     1       3.776  -2.974  15.571  1.00  0.00     0.013 C 
HETATM    8  C21 UNL     1       3.912  -4.467  15.976  1.00  0.00     0.079 C 
HETATM    9  C22 UNL     1       5.314  -4.741  16.384  1.00  0.00     0.135 C 
HETATM   10  O5  UNL     1       5.446  -5.598  17.272  1.00  0.00    -0.297 OA
HETATM   11  C23 UNL     1       6.514  -4.090  15.828  1.00  0.00     0.021 C 
HETATM   12  C24 UNL     1       7.521  -4.027  16.987  1.00  0.00     0.024 C 
HETATM   13  C25 UNL     1       7.196  -4.926  14.774  1.00  0.00     0.024 C 
HETATM   14  C26 UNL     1       6.183  -2.675  15.343  1.00  0.00    -0.026 C 
HETATM   15  C27 UNL     1       6.269  -1.850  16.580  1.00  0.00     0.016 C 
HETATM   16  C28 UNL     1       7.365  -2.279  14.484  1.00  0.00     0.011 C 
HETATM   17  C29 UNL     1       7.004  -0.946  13.859  1.00  0.00     0.013 C 
HETATM   18  C30 UNL     1       5.928  -1.223  12.872  1.00  0.00     0.002 C 
HETATM   19  C31 UNL     1       6.427  -2.357  11.962  1.00  0.00     0.018 C 
ENDROOT
BRANCH   1  20
HETATM   20  C8  UNL     1       6.657   0.954  11.943  1.00  0.00     0.254 C 
HETATM   21  N1  UNL     1       6.755   2.003  11.014  1.00  0.00    -0.345 N 
HETATM   22  C7  UNL     1       5.797   2.296   9.971  1.00  0.00     0.131 C 
HETATM   23  C32 UNL     1       7.906   2.894  11.093  1.00  0.00     0.089 C 
HETATM   24  C6  UNL     1       6.413   2.146   8.624  1.00  0.00     0.015 C 
HETATM   25  C4  UNL     1       6.383   3.381   7.736  1.00  0.00     0.020 C 
HETATM   26  C36 UNL     1       7.927   2.321   8.658  1.00  0.00    -0.002 C 
HETATM   27  C3  UNL     1       7.785   2.992   7.312  1.00  0.00    -0.004 C 
HETATM   28  C35 UNL     1       8.335   3.315   9.707  1.00  0.00     0.031 C 
HETATM   29  O2  UNL     1       7.568   0.849  12.832  1.00  0.00    -0.271 OA
BRANCH  25  30
HETATM   30  C5  UNL     1       5.395   3.289   6.596  1.00  0.00     0.169 C 
BRANCH  30  31
HETATM   31  O1  UNL     1       4.099   3.417   7.144  1.00  0.00    -0.400 OA
ATOM     32  H1  UNL     1       4.185   3.390   8.090  1.00  0.00     0.209 HD
ENDBRANCH  30  31
ENDBRANCH  25  30
BRANCH  27  33
HETATM   33  C2  UNL     1       8.732   4.115   7.030  1.00  0.00     0.001 C 
HETATM   34  C1  UNL     1       9.088   4.184   5.545  1.00  0.00     0.005 C 
ENDBRANCH  27  33
BRANCH  23  35
HETATM   35  C33 UNL     1       7.594   4.086  11.978  1.00  0.00     0.051 C 
BRANCH  35  36
HETATM   36  C34 UNL     1       6.481   4.890  11.375  1.00  0.00     0.166 C 
BRANCH  36  37
HETATM   37  O6  UNL     1       5.748   5.589  12.319  1.00  0.00    -0.401 OA
ATOM     38  H6  UNL     1       5.420   6.419  11.992  1.00  0.00     0.209 HD
ENDBRANCH  36  37
ENDBRANCH  35  36
ENDBRANCH  23  35
ENDBRANCH   1  20
BRANCH   2  39
HETATM   39  C10 UNL     1       3.567   1.086  11.759  1.00  0.00     0.305 C 
BRANCH  39  40
HETATM   40  C11 UNL     1       2.814   2.307  12.151  1.00  0.00     0.149 C 
BRANCH  40  41
HETATM   41  O3  UNL     1       3.649   3.404  12.352  1.00  0.00    -0.394 OA
ATOM     42  H3  UNL     1       3.545   3.784  13.217  1.00  0.00     0.210 HD
ENDBRANCH  40  41
BRANCH  40  43
HETATM   43  C12 UNL     1       1.975   2.686  10.912  1.00  0.00     0.070 C 
BRANCH  43  44
HETATM   44  C13 UNL     1       0.780   1.815  10.735  1.00  0.00     0.053 C 
HETATM   45  C14 UNL     1      -0.330   2.719  10.181  1.00  0.00     0.045 C 
HETATM   46  C15 UNL     1       0.240   1.325  12.080  1.00  0.00     0.045 C 
BRANCH  44  47
HETATM   47  O4  UNL     1       0.958   0.779   9.853  1.00  0.00    -0.391 OA
ATOM     48  H4  UNL     1       1.671   0.192  10.075  1.00  0.00     0.210 HD
ENDBRANCH  44  47
ENDBRANCH  43  44
ENDBRANCH  40  43
ENDBRANCH  39  40
ENDBRANCH   2  39
TORSDOF 13
ENDMDL
MODEL 4
REMARK VINA RESULT: -7.407848048      3.114      6.611
REMARK  13 active torsions:
REMARK  status: ('A' for Active; 'I' for Inactive)
REMARK    1  A    between atoms: C2_2  and  C3_3 
REMARK    2  A    between atoms: C4_4  and  C5_5 
REMARK    3  A    between atoms: C5_5  and  O1_6 
REMARK       I    between atoms: N1_10  and  C8_11 
REMARK    4  A    between atoms: C8_11  and  C9_13 
REMARK    5  A    between atoms: N2_14  and  C10_15 
REMARK    6  A    between atoms: C10_15  and  C11_16 
REMARK    7  A    between atoms: C11_16  and  O3_17 
REMARK    8  A    between atoms: C11_16  and  C12_19 
REMARK    9  A    between atoms: C12_19  and  C13_20 
REMARK   10  A    between atoms: C13_20  and  O4_23 
REMARK   11  A    between atoms: C32_42  and  C33_43 
REMARK   12  A    between atoms: C33_43  and  C34_44 
REMARK   13  A    between atoms: C34_44  and  O6_45 
ROOT
HETATM    1  C9  UNL     1       5.972   3.272  10.247  1.00  0.00     0.323 C 
HETATM    2  N2  UNL     1       7.359   2.988  10.545  1.00  0.00     0.110 N 
HETATM    3  C16 UNL     1       7.466   2.341  11.836  1.00  0.00     0.225 C 
HETATM    4  C17 UNL     1       8.445   1.251  11.632  1.00  0.00     0.043 C 
HETATM    5  C18 UNL     1       6.147   2.121  12.384  1.00  0.00     0.034 C 
HETATM    6  C19 UNL     1       5.682   1.052  13.241  1.00  0.00     0.002 C 
HETATM    7  C20 UNL     1       6.572   0.529  14.311  1.00  0.00     0.013 C 
HETATM    8  C21 UNL     1       5.686   0.092  15.509  1.00  0.00     0.079 C 
HETATM    9  C22 UNL     1       4.590  -0.783  15.017  1.00  0.00     0.135 C 
HETATM   10  O5  UNL     1       4.228  -1.668  15.808  1.00  0.00    -0.297 OA
HETATM   11  C23 UNL     1       3.930  -0.678  13.705  1.00  0.00     0.021 C 
HETATM   12  C24 UNL     1       3.544  -2.115  13.322  1.00  0.00     0.024 C 
HETATM   13  C25 UNL     1       2.618   0.065  13.770  1.00  0.00     0.024 C 
HETATM   14  C26 UNL     1       4.891  -0.097  12.662  1.00  0.00    -0.026 C 
HETATM   15  C27 UNL     1       5.674  -1.279  12.209  1.00  0.00     0.016 C 
HETATM   16  C28 UNL     1       4.003   0.296  11.501  1.00  0.00     0.011 C 
HETATM   17  C29 UNL     1       4.899   1.018  10.513  1.00  0.00     0.013 C 
HETATM   18  C30 UNL     1       5.255   2.317  11.141  1.00  0.00     0.002 C 
HETATM   19  C31 UNL     1       3.941   2.987  11.576  1.00  0.00     0.018 C 
ENDROOT
BRANCH   1  20
HETATM   20  C8  UNL     1       5.759   2.949   8.800  1.00  0.00     0.254 C 
HETATM   21  N1  UNL     1       5.105   3.765   7.861  1.00  0.00    -0.345 N 
HETATM   22  C7  UNL     1       4.556   5.077   8.125  1.00  0.00     0.131 C 
HETATM   23  C32 UNL     1       4.963   3.275   6.495  1.00  0.00     0.089 C 
HETATM   24  C6  UNL     1       3.080   5.086   7.931  1.00  0.00     0.015 C 
HETATM   25  C4  UNL     1       2.548   6.073   6.903  1.00  0.00     0.020 C 
HETATM   26  C36 UNL     1       2.614   3.989   6.980  1.00  0.00    -0.002 C 
HETATM   27  C3  UNL     1       1.584   4.980   6.492  1.00  0.00    -0.004 C 
HETATM   28  C35 UNL     1       3.641   3.721   5.917  1.00  0.00     0.031 C 
HETATM   29  O2  UNL     1       6.224   1.827   8.401  1.00  0.00    -0.271 OA
BRANCH  25  30
HETATM   30  C5  UNL     1       1.838   7.262   7.510  1.00  0.00     0.169 C 
BRANCH  30  31
HETATM   31  O1  UNL     1       0.839   6.765   8.377  1.00  0.00    -0.400 OA
ATOM     32  H1  UNL     1       1.277   6.318   9.092  1.00  0.00     0.209 HD
ENDBRANCH  30  31
ENDBRANCH  25  30
BRANCH  27  33
HETATM   33  C2  UNL     1       1.235   4.909   5.039  1.00  0.00     0.001 C 
HETATM   34  C1  UNL     1      -0.243   5.219   4.805  1.00  0.00     0.005 C 
ENDBRANCH  27  33
BRANCH  23  35
HETATM   35  C33 UNL     1       6.136   3.728   5.646  1.00  0.00     0.051 C 
BRANCH  35  36
HETATM   36  C34 UNL     1       6.938   2.538   5.211  1.00  0.00     0.166 C 
BRANCH  36  37
HETATM   37  O6  UNL     1       8.015   2.280   6.043  1.00  0.00    -0.401 OA
ATOM     38  H6  UNL     1       8.099   1.359   6.264  1.00  0.00     0.209 HD
ENDBRANCH  36  37
ENDBRANCH  35  36
ENDBRANCH  23  35
ENDBRANCH   1  20
BRANCH   2  39
HETATM   39  C10 UNL     1       8.092   4.203  10.405  1.00  0.00     0.305 C 
BRANCH  39  40
HETATM   40  C11 UNL     1       9.061   4.298   9.281  1.00  0.00     0.149 C 
BRANCH  40  41
HETATM   41  O3  UNL     1       9.208   3.090   8.604  1.00  0.00    -0.394 OA
ATOM     42  H3  UNL     1       9.785   3.164   7.852  1.00  0.00     0.210 HD
ENDBRANCH  40  41
BRANCH  40  43
HETATM   43  C12 UNL     1       8.401   5.238   8.250  1.00  0.00     0.070 C 
BRANCH  43  44
HETATM   44  C13 UNL     1       9.338   5.666   7.175  1.00  0.00     0.053 C 
HETATM   45  C14 UNL     1      10.638   6.082   7.880  1.00  0.00     0.045 C 
HETATM   46  C15 UNL     1       8.852   6.942   6.484  1.00  0.00     0.045 C 
BRANCH  44  47
HETATM   47  O4  UNL     1       9.648   4.686   6.267  1.00  0.00    -0.391 OA
ATOM     48  H4  UNL     1      10.418   4.866   5.741  1.00  0.00     0.210 HD
ENDBRANCH  44  47
ENDBRANCH  43  44
ENDBRANCH  40  43
ENDBRANCH  39  40
ENDBRANCH   2  39
TORSDOF 13
ENDMDL
MODEL 5
REMARK VINA RESULT: -7.202840610      4.870     10.565
REMARK  13 active torsions:
REMARK  status: ('A' for Active; 'I' for Inactive)
REMARK    1  A    between atoms: C2_2  and  C3_3 
REMARK    2  A    between atoms: C4_4  and  C5_5 
REMARK    3  A    between atoms: C5_5  and  O1_6 
REMARK       I    between atoms: N1_10  and  C8_11 
REMARK    4  A    between atoms: C8_11  and  C9_13 
REMARK    5  A    between atoms: N2_14  and  C10_15 
REMARK    6  A    between atoms: C10_15  and  C11_16 
REMARK    7  A    between atoms: C11_16  and  O3_17 
REMARK    8  A    between atoms: C11_16  and  C12_19 
REMARK    9  A    between atoms: C12_19  and  C13_20 
REMARK   10  A    between atoms: C13_20  and  O4_23 
REMARK   11  A    between atoms: C32_42  and  C33_43 
REMARK   12  A    between atoms: C33_43  and  C34_44 
REMARK   13  A    between atoms: C34_44  and  O6_45 
ROOT
HETATM    1  C9  UNL     1       6.751   4.337   5.365  1.00  0.00     0.323 C 
HETATM    2  N2  UNL     1       6.917   5.104   4.150  1.00  0.00     0.110 N 
HETATM    3  C16 UNL     1       5.641   5.254   3.480  1.00  0.00     0.225 C 
HETATM    4  C17 UNL     1       5.605   6.667   3.046  1.00  0.00     0.043 C 
HETATM    5  C18 UNL     1       4.597   4.648   4.276  1.00  0.00     0.034 C 
HETATM    6  C19 UNL     1       3.206   5.029   4.399  1.00  0.00     0.002 C 
HETATM    7  C20 UNL     1       2.468   5.508   3.200  1.00  0.00     0.013 C 
HETATM    8  C21 UNL     1       0.987   5.062   3.331  1.00  0.00     0.079 C 
HETATM    9  C22 UNL     1       0.474   5.447   4.672  1.00  0.00     0.135 C 
HETATM   10  O5  UNL     1      -0.730   5.745   4.709  1.00  0.00    -0.297 OA
HETATM   11  C23 UNL     1       1.267   5.499   5.913  1.00  0.00     0.021 C 
HETATM   12  C24 UNL     1       0.653   6.635   6.746  1.00  0.00     0.024 C 
HETATM   13  C25 UNL     1       1.096   4.266   6.766  1.00  0.00     0.024 C 
HETATM   14  C26 UNL     1       2.735   5.809   5.603  1.00  0.00    -0.026 C 
HETATM   15  C27 UNL     1       2.764   7.293   5.485  1.00  0.00     0.016 C 
HETATM   16  C28 UNL     1       3.475   5.469   6.879  1.00  0.00     0.011 C 
HETATM   17  C29 UNL     1       4.951   5.615   6.560  1.00  0.00     0.013 C 
HETATM   18  C30 UNL     1       5.294   4.496   5.644  1.00  0.00     0.002 C 
HETATM   19  C31 UNL     1       4.804   3.198   6.306  1.00  0.00     0.018 C 
ENDROOT
BRANCH   1  20
HETATM   20  C8  UNL     1       7.595   4.991   6.416  1.00  0.00     0.254 C 
HETATM   21  N1  UNL     1       8.130   4.361   7.552  1.00  0.00    -0.345 N 
HETATM   22  C7  UNL     1       7.986   2.961   7.884  1.00  0.00     0.131 C 
HETATM   23  C32 UNL     1       8.908   5.164   8.488  1.00  0.00     0.089 C 
HETATM   24  C6  UNL     1       7.235   2.789   9.158  1.00  0.00     0.015 C 
HETATM   25  C4  UNL     1       7.960   2.037  10.264  1.00  0.00     0.020 C 
HETATM   26  C36 UNL     1       7.332   4.016  10.057  1.00  0.00    -0.002 C 
HETATM   27  C3  UNL     1       7.357   3.048  11.217  1.00  0.00    -0.004 C 
HETATM   28  C35 UNL     1       8.662   4.697   9.904  1.00  0.00     0.031 C 
HETATM   29  O2  UNL     1       7.843   6.233   6.243  1.00  0.00    -0.271 OA
BRANCH  25  30
HETATM   30  C5  UNL     1       7.430   0.641  10.502  1.00  0.00     0.169 C 
BRANCH  30  31
HETATM   31  O1  UNL     1       8.541  -0.206  10.715  1.00  0.00    -0.400 OA
ATOM     32  H1  UNL     1       8.598  -0.373  11.648  1.00  0.00     0.209 HD
ENDBRANCH  30  31
ENDBRANCH  25  30
BRANCH  27  33
HETATM   33  C2  UNL     1       8.197   3.443  12.390  1.00  0.00     0.001 C 
HETATM   34  C1  UNL     1       8.111   2.408  13.511  1.00  0.00     0.005 C 
ENDBRANCH  27  33
BRANCH  23  35
HETATM   35  C33 UNL     1      10.380   5.122   8.124  1.00  0.00     0.051 C 
BRANCH  35  36
HETATM   36  C34 UNL     1      10.954   6.507   8.168  1.00  0.00     0.166 C 
BRANCH  36  37
HETATM   37  O6  UNL     1      10.099   7.463   7.645  1.00  0.00    -0.401 OA
ATOM     38  H6  UNL     1      10.539   8.278   7.436  1.00  0.00     0.209 HD
ENDBRANCH  36  37
ENDBRANCH  35  36
ENDBRANCH  23  35
ENDBRANCH   1  20
BRANCH   2  39
HETATM   39  C10 UNL     1       7.944   4.485   3.380  1.00  0.00     0.305 C 
BRANCH  39  40
HETATM   40  C11 UNL     1       7.687   3.113   2.866  1.00  0.00     0.149 C 
BRANCH  40  41
HETATM   41  O3  UNL     1       7.506   3.089   1.485  1.00  0.00    -0.394 OA
ATOM     42  H3  UNL     1       7.146   3.903   1.152  1.00  0.00     0.210 HD
ENDBRANCH  40  41
BRANCH  40  43
HETATM   43  C12 UNL     1       9.002   2.338   3.094  1.00  0.00     0.070 C 
BRANCH  43  44
HETATM   44  C13 UNL     1       8.792   0.870   3.233  1.00  0.00     0.053 C 
HETATM   45  C14 UNL     1       7.836   0.686   4.421  1.00  0.00     0.045 C 
HETATM   46  C15 UNL     1      10.077   0.159   3.661  1.00  0.00     0.045 C 
BRANCH  44  47
HETATM   47  O4  UNL     1       8.222   0.271   2.139  1.00  0.00    -0.391 OA
ATOM     48  H4  UNL     1       7.912  -0.613   2.292  1.00  0.00     0.210 HD
ENDBRANCH  44  47
ENDBRANCH  43  44
ENDBRANCH  40  43
ENDBRANCH  39  40
ENDBRANCH   2  39
TORSDOF 13
ENDMDL
