MODEL 1
REMARK VINA RESULT: -7.049794449      0.000      0.000
REMARK  11 active torsions:
REMARK  status: ('A' for Active; 'I' for Inactive)
REMARK    1  A    between atoms: C2_2  and  C4_4 
REMARK    2  A    between atoms: C4_4  and  N1_5 
REMARK    3  A    between atoms: N1_5  and  N2_7 
REMARK    4  A    between atoms: N2_7  and  C5_8 
REMARK    5  A    between atoms: N2_7  and  S1_43 
REMARK    6  A    between atoms: C5_8  and  C6_9 
REMARK    7  A    between atoms: C10_13  and  O1_14 
REMARK    8  A    between atoms: C12_16  and  O2_17 
REMARK    9  A    between atoms: C18_24  and  O3_25 
REMARK   10  A    between atoms: C21_29  and  O4_30 
REMARK   11  A    between atoms: S1_43  and  C33_46 
ROOT
HETATM    1  C6  UNL     1       6.560   3.072   6.862  1.00  0.00     0.010 C 
HETATM    2  C7  UNL     1       5.094   3.489   6.800  1.00  0.00    -0.010 C 
HETATM    3  C8  UNL     1       4.960   4.719   5.941  1.00  0.00     0.010 C 
HETATM    4  C9  UNL     1       4.423   3.604   8.125  1.00  0.00     0.039 C 
HETATM    5  C10 UNL     1       2.944   3.697   8.084  1.00  0.00     0.154 C 
HETATM    6  C12 UNL     1       2.270   2.708   9.063  1.00  0.00     0.175 C 
HETATM    7  C13 UNL     1       2.253   3.223  10.449  1.00  0.00    -0.056 C 
HETATM    8  C14 UNL     1       2.208   4.714  10.623  1.00  0.00     0.046 C 
HETATM    9  C15 UNL     1       2.266   2.477  11.536  1.00  0.00    -0.015 C 
HETATM   10  C16 UNL     1       2.296   0.996  11.581  1.00  0.00     0.033 C 
HETATM   11  C17 UNL     1       1.240   0.556  12.569  1.00  0.00     0.017 C 
HETATM   12  C18 UNL     1       3.658   0.425  11.923  1.00  0.00     0.131 C 
HETATM   13  C19 UNL     1       4.140   0.775  13.305  1.00  0.00     0.040 C 
HETATM   14  C20 UNL     1       4.107  -0.372  14.274  1.00  0.00     0.015 C 
HETATM   15  C21 UNL     1       5.401   1.558  13.341  1.00  0.00     0.131 C 
HETATM   16  C22 UNL     1       6.691   0.801  13.420  1.00  0.00     0.033 C 
HETATM   17  C23 UNL     1       7.781   1.817  13.651  1.00  0.00     0.017 C 
HETATM   18  C24 UNL     1       6.949  -0.188  12.389  1.00  0.00    -0.020 C 
HETATM   19  C25 UNL     1       7.875  -0.337  11.475  1.00  0.00    -0.004 C 
HETATM   20  C26 UNL     1       9.026   0.478  11.150  1.00  0.00    -0.004 C 
HETATM   21  C27 UNL     1       9.127   1.583  10.441  1.00  0.00    -0.022 C 
HETATM   22  C28 UNL     1       8.024   2.249   9.799  1.00  0.00     0.012 C 
HETATM   23  C29 UNL     1       7.358   1.434   8.658  1.00  0.00     0.014 C 
HETATM   24  C30 UNL     1       6.978   2.826   8.206  1.00  0.00    -0.004 C 
HETATM   25  C31 UNL     1       8.441   3.133   8.587  1.00  0.00    -0.007 C 
HETATM   26  C32 UNL     1       8.683   4.562   8.934  1.00  0.00     0.011 C 
ENDROOT
BRANCH   1  27
HETATM   27  C5  UNL     1       6.723   2.031   5.807  1.00  0.00     0.137 C 
BRANCH  27  28
HETATM   28  N2  UNL     1       8.015   1.666   5.394  1.00  0.00    -0.118 NA
BRANCH  28  29
HETATM   29  N1  UNL     1       8.243   0.332   5.104  1.00  0.00    -0.337 N 
ATOM     30  H1  UNL     1       9.017  -0.175   5.533  1.00  0.00     0.175 HD
BRANCH  29  31
HETATM   31  C4  UNL     1       7.367  -0.304   4.193  1.00  0.00     0.167 C 
BRANCH  31  32
HETATM   32  C2  UNL     1       8.050  -1.369   3.388  1.00  0.00    -0.074 C 
HETATM   33  C1  UNL     1       7.713  -1.635   2.143  1.00  0.00     0.015 C 
HETATM   34  C3  UNL     1       9.142  -2.155   4.006  1.00  0.00     0.044 C 
ENDBRANCH  31  32
ENDBRANCH  29  31
ENDBRANCH  28  29
BRANCH  28  35
HETATM   35  S1  UNL     1       8.614   2.635   4.086  1.00  0.00     0.285 S 
HETATM   36  O5  UNL     1       7.434   2.910   3.181  1.00  0.00    -0.202 OA
HETATM   37  O6  UNL     1       9.124   3.954   4.554  1.00  0.00    -0.202 OA
BRANCH  35  38
HETATM   38  C33 UNL     1       9.839   1.853   3.148  1.00  0.00     0.385 C 
HETATM   39  O7  UNL     1      10.689   1.107   3.631  1.00  0.00    -0.289 OA
ENDBRANCH  35  38
ENDBRANCH  28  35
ENDBRANCH  27  28
ENDBRANCH   1  27
BRANCH   5  40
HETATM   40  O1  UNL     1       2.353   3.596   6.834  1.00  0.00    -0.388 OA
HETATM   41  C11 UNL     1       1.570   4.674   6.480  1.00  0.00     0.202 C 
ENDBRANCH   5  40
BRANCH   6  42
HETATM   42  O2  UNL     1       0.924   2.682   8.618  1.00  0.00    -0.389 OA
ATOM     43  H2  UNL     1       0.519   2.045   9.194  1.00  0.00     0.210 HD
ENDBRANCH   6  42
BRANCH  12  44
HETATM   44  O3  UNL     1       4.504   0.878  10.928  1.00  0.00    -0.394 OA
ATOM     45  H3  UNL     1       4.955   0.104  10.611  1.00  0.00     0.210 HD
ENDBRANCH  12  44
BRANCH  15  46
HETATM   46  O4  UNL     1       5.373   2.579  12.413  1.00  0.00    -0.394 OA
ATOM     47  H4  UNL     1       6.012   2.429  11.724  1.00  0.00     0.210 HD
ENDBRANCH  15  46
TORSDOF 11
ENDMDL
MODEL 2
REMARK VINA RESULT: -7.003253147      1.305      2.606
REMARK  11 active torsions:
REMARK  status: ('A' for Active; 'I' for Inactive)
REMARK    1  A    between atoms: C2_2  and  C4_4 
REMARK    2  A    between atoms: C4_4  and  N1_5 
REMARK    3  A    between atoms: N1_5  and  N2_7 
REMARK    4  A    between atoms: N2_7  and  C5_8 
REMARK    5  A    between atoms: N2_7  and  S1_43 
REMARK    6  A    between atoms: C5_8  and  C6_9 
REMARK    7  A    between atoms: C10_13  and  O1_14 
REMARK    8  A    between atoms: C12_16  and  O2_17 
REMARK    9  A    between atoms: C18_24  and  O3_25 
REMARK   10  A    between atoms: C21_29  and  O4_30 
REMARK   11  A    between atoms: S1_43  and  C33_46 
ROOT
HETATM    1  C6  UNL     1       6.759   3.257   7.085  1.00  0.00     0.010 C 
HETATM    2  C7  UNL     1       5.302   3.692   6.961  1.00  0.00    -0.010 C 
HETATM    3  C8  UNL     1       5.228   4.974   6.175  1.00  0.00     0.010 C 
HETATM    4  C9  UNL     1       4.554   3.732   8.249  1.00  0.00     0.039 C 
HETATM    5  C10 UNL     1       3.081   3.841   8.126  1.00  0.00     0.154 C 
HETATM    6  C12 UNL     1       2.343   2.800   8.999  1.00  0.00     0.175 C 
HETATM    7  C13 UNL     1       2.246   3.228  10.411  1.00  0.00    -0.056 C 
HETATM    8  C14 UNL     1       2.200   4.706  10.675  1.00  0.00     0.046 C 
HETATM    9  C15 UNL     1       2.189   2.417  11.449  1.00  0.00    -0.015 C 
HETATM   10  C16 UNL     1       2.208   0.935  11.403  1.00  0.00     0.033 C 
HETATM   11  C17 UNL     1       1.091   0.445  12.297  1.00  0.00     0.017 C 
HETATM   12  C18 UNL     1       3.543   0.331  11.788  1.00  0.00     0.131 C 
HETATM   13  C19 UNL     1       3.943   0.590  13.217  1.00  0.00     0.040 C 
HETATM   14  C20 UNL     1       3.846  -0.614  14.108  1.00  0.00     0.015 C 
HETATM   15  C21 UNL     1       5.205   1.357  13.376  1.00  0.00     0.131 C 
HETATM   16  C22 UNL     1       6.483   0.583  13.484  1.00  0.00     0.033 C 
HETATM   17  C23 UNL     1       7.563   1.572  13.843  1.00  0.00     0.017 C 
HETATM   18  C24 UNL     1       6.796  -0.342  12.410  1.00  0.00    -0.020 C 
HETATM   19  C25 UNL     1       7.774  -0.443  11.546  1.00  0.00    -0.004 C 
HETATM   20  C26 UNL     1       8.948   0.378  11.341  1.00  0.00    -0.004 C 
HETATM   21  C27 UNL     1       9.098   1.524  10.710  1.00  0.00    -0.022 C 
HETATM   22  C28 UNL     1       8.040   2.240  10.046  1.00  0.00     0.012 C 
HETATM   23  C29 UNL     1       7.438   1.504   8.819  1.00  0.00     0.014 C 
HETATM   24  C30 UNL     1       7.094   2.924   8.433  1.00  0.00    -0.004 C 
HETATM   25  C31 UNL     1       8.534   3.193   8.919  1.00  0.00    -0.007 C 
HETATM   26  C32 UNL     1       8.764   4.595   9.368  1.00  0.00     0.011 C 
ENDROOT
BRANCH   1  27
HETATM   27  C5  UNL     1       6.979   2.282   5.978  1.00  0.00     0.137 C 
BRANCH  27  28
HETATM   28  N2  UNL     1       7.816   2.634   4.906  1.00  0.00    -0.118 NA
BRANCH  28  29
HETATM   29  N1  UNL     1       8.954   3.367   5.194  1.00  0.00    -0.337 N 
ATOM     30  H1  UNL     1       9.726   2.956   5.718  1.00  0.00     0.175 HD
BRANCH  29  31
HETATM   31  C4  UNL     1       9.009   4.706   4.739  1.00  0.00     0.167 C 
BRANCH  31  32
HETATM   32  C2  UNL     1       9.421   5.662   5.818  1.00  0.00    -0.074 C 
HETATM   33  C1  UNL     1       8.615   6.602   6.270  1.00  0.00     0.015 C 
HETATM   34  C3  UNL     1      10.776   5.556   6.402  1.00  0.00     0.044 C 
ENDBRANCH  31  32
ENDBRANCH  29  31
ENDBRANCH  28  29
BRANCH  28  35
HETATM   35  S1  UNL     1       8.255   1.283   3.910  1.00  0.00     0.285 S 
HETATM   36  O5  UNL     1       7.995   1.702   2.481  1.00  0.00    -0.202 OA
HETATM   37  O6  UNL     1       9.705   0.960   4.015  1.00  0.00    -0.202 OA
BRANCH  35  38
HETATM   38  C33 UNL     1       7.331  -0.143   4.229  1.00  0.00     0.385 C 
HETATM   39  O7  UNL     1       7.759  -1.282   4.052  1.00  0.00    -0.289 OA
ENDBRANCH  35  38
ENDBRANCH  28  35
ENDBRANCH  27  28
ENDBRANCH   1  27
BRANCH   5  40
HETATM   40  O1  UNL     1       2.565   3.824   6.839  1.00  0.00    -0.388 OA
HETATM   41  C11 UNL     1       1.823   4.935   6.502  1.00  0.00     0.202 C 
ENDBRANCH   5  40
BRANCH   6  42
HETATM   42  O2  UNL     1       1.026   2.815   8.474  1.00  0.00    -0.389 OA
ATOM     43  H2  UNL     1       0.827   1.893   8.365  1.00  0.00     0.210 HD
ENDBRANCH   6  42
BRANCH  12  44
HETATM   44  O3  UNL     1       4.450   0.836  10.876  1.00  0.00    -0.394 OA
ATOM     45  H3  UNL     1       4.159   0.516  10.030  1.00  0.00     0.210 HD
ENDBRANCH  12  44
BRANCH  15  46
HETATM   46  O4  UNL     1       5.239   2.433  12.513  1.00  0.00    -0.394 OA
ATOM     47  H4  UNL     1       5.675   2.203  11.700  1.00  0.00     0.210 HD
ENDBRANCH  15  46
TORSDOF 11
ENDMDL
MODEL 3
REMARK VINA RESULT: -6.987538457      1.677      2.641
REMARK  11 active torsions:
REMARK  status: ('A' for Active; 'I' for Inactive)
REMARK    1  A    between atoms: C2_2  and  C4_4 
REMARK    2  A    between atoms: C4_4  and  N1_5 
REMARK    3  A    between atoms: N1_5  and  N2_7 
REMARK    4  A    between atoms: N2_7  and  C5_8 
REMARK    5  A    between atoms: N2_7  and  S1_43 
REMARK    6  A    between atoms: C5_8  and  C6_9 
REMARK    7  A    between atoms: C10_13  and  O1_14 
REMARK    8  A    between atoms: C12_16  and  O2_17 
REMARK    9  A    between atoms: C18_24  and  O3_25 
REMARK   10  A    between atoms: C21_29  and  O4_30 
REMARK   11  A    between atoms: S1_43  and  C33_46 
ROOT
HETATM    1  C6  UNL     1       5.909   3.335   6.509  1.00  0.00     0.010 C 
HETATM    2  C7  UNL     1       4.418   3.633   6.637  1.00  0.00    -0.010 C 
HETATM    3  C8  UNL     1       4.080   4.848   5.815  1.00  0.00     0.010 C 
HETATM    4  C9  UNL     1       3.914   3.692   8.037  1.00  0.00     0.039 C 
HETATM    5  C10 UNL     1       2.439   3.666   8.184  1.00  0.00     0.154 C 
HETATM    6  C12 UNL     1       1.975   2.624   9.228  1.00  0.00     0.175 C 
HETATM    7  C13 UNL     1       2.092   3.135  10.611  1.00  0.00    -0.056 C 
HETATM    8  C14 UNL     1       1.951   4.617  10.806  1.00  0.00     0.046 C 
HETATM    9  C15 UNL     1       2.302   2.391  11.679  1.00  0.00    -0.015 C 
HETATM   10  C16 UNL     1       2.456   0.917  11.704  1.00  0.00     0.033 C 
HETATM   11  C17 UNL     1       1.572   0.392  12.812  1.00  0.00     0.017 C 
HETATM   12  C18 UNL     1       3.891   0.458  11.865  1.00  0.00     0.131 C 
HETATM   13  C19 UNL     1       4.514   0.845  13.180  1.00  0.00     0.040 C 
HETATM   14  C20 UNL     1       4.696  -0.302  14.132  1.00  0.00     0.015 C 
HETATM   15  C21 UNL     1       5.703   1.726  13.065  1.00  0.00     0.131 C 
HETATM   16  C22 UNL     1       7.050   1.075  12.972  1.00  0.00     0.033 C 
HETATM   17  C23 UNL     1       8.075   2.176  13.076  1.00  0.00     0.017 C 
HETATM   18  C24 UNL     1       7.253   0.112  11.906  1.00  0.00    -0.020 C 
HETATM   19  C25 UNL     1       8.065   0.039  10.882  1.00  0.00    -0.004 C 
HETATM   20  C26 UNL     1       9.097   0.944  10.423  1.00  0.00    -0.004 C 
HETATM   21  C27 UNL     1       9.019   2.054   9.719  1.00  0.00    -0.022 C 
HETATM   22  C28 UNL     1       7.794   2.630   9.229  1.00  0.00     0.012 C 
HETATM   23  C29 UNL     1       7.056   1.766   8.171  1.00  0.00     0.014 C 
HETATM   24  C30 UNL     1       6.512   3.122   7.787  1.00  0.00    -0.004 C 
HETATM   25  C31 UNL     1       7.983   3.547   7.984  1.00  0.00    -0.007 C 
HETATM   26  C32 UNL     1       8.151   4.990   8.314  1.00  0.00     0.011 C 
ENDROOT
BRANCH   1  27
HETATM   27  C5  UNL     1       6.020   2.312   5.430  1.00  0.00     0.137 C 
BRANCH  27  28
HETATM   28  N2  UNL     1       6.681   2.641   4.235  1.00  0.00    -0.118 NA
BRANCH  28  29
HETATM   29  N1  UNL     1       6.901   3.981   3.971  1.00  0.00    -0.337 N 
ATOM     30  H1  UNL     1       7.230   4.614   4.699  1.00  0.00     0.175 HD
BRANCH  29  31
HETATM   31  C4  UNL     1       6.653   4.444   2.657  1.00  0.00     0.167 C 
BRANCH  31  32
HETATM   32  C2  UNL     1       5.678   5.584   2.625  1.00  0.00    -0.074 C 
HETATM   33  C1  UNL     1       4.499   5.485   2.044  1.00  0.00     0.015 C 
HETATM   34  C3  UNL     1       6.044   6.867   3.263  1.00  0.00     0.044 C 
ENDBRANCH  31  32
ENDBRANCH  29  31
ENDBRANCH  28  29
BRANCH  28  35
HETATM   35  S1  UNL     1       8.168   1.774   4.016  1.00  0.00     0.285 S 
HETATM   36  O5  UNL     1       8.222   0.732   5.109  1.00  0.00    -0.202 OA
HETATM   37  O6  UNL     1       8.206   1.047   2.716  1.00  0.00    -0.202 OA
BRANCH  35  38
HETATM   38  C33 UNL     1       9.577   2.768   4.151  1.00  0.00     0.385 C 
HETATM   39  O7  UNL     1       9.640   3.759   4.877  1.00  0.00    -0.289 OA
ENDBRANCH  35  38
ENDBRANCH  28  35
ENDBRANCH  27  28
ENDBRANCH   1  27
BRANCH   5  40
HETATM   40  O1  UNL     1       1.704   3.518   7.017  1.00  0.00    -0.388 OA
HETATM   41  C11 UNL     1       0.793   4.525   6.780  1.00  0.00     0.202 C 
ENDBRANCH   5  40
BRANCH   6  42
HETATM   42  O2  UNL     1       0.590   2.490   8.956  1.00  0.00    -0.389 OA
ATOM     43  H2  UNL     1       0.212   2.367   9.818  1.00  0.00     0.210 HD
ENDBRANCH   6  42
BRANCH  12  44
HETATM   44  O3  UNL     1       4.566   0.979  10.776  1.00  0.00    -0.394 OA
ATOM     45  H3  UNL     1       5.256   0.354  10.587  1.00  0.00     0.210 HD
ENDBRANCH  12  44
BRANCH  15  46
HETATM   46  O4  UNL     1       5.477   2.743  12.159  1.00  0.00    -0.394 OA
ATOM     47  H4  UNL     1       5.509   3.591  12.586  1.00  0.00     0.210 HD
ENDBRANCH  15  46
TORSDOF 11
ENDMDL
MODEL 4
REMARK VINA RESULT: -6.819031542      4.340      8.738
REMARK  11 active torsions:
REMARK  status: ('A' for Active; 'I' for Inactive)
REMARK    1  A    between atoms: C2_2  and  C4_4 
REMARK    2  A    between atoms: C4_4  and  N1_5 
REMARK    3  A    between atoms: N1_5  and  N2_7 
REMARK    4  A    between atoms: N2_7  and  C5_8 
REMARK    5  A    between atoms: N2_7  and  S1_43 
REMARK    6  A    between atoms: C5_8  and  C6_9 
REMARK    7  A    between atoms: C10_13  and  O1_14 
REMARK    8  A    between atoms: C12_16  and  O2_17 
REMARK    9  A    between atoms: C18_24  and  O3_25 
REMARK   10  A    between atoms: C21_29  and  O4_30 
REMARK   11  A    between atoms: S1_43  and  C33_46 
ROOT
HETATM    1  C6  UNL     1       5.593  -0.912  13.141  1.00  0.00     0.010 C 
HETATM    2  C7  UNL     1       6.932  -0.274  12.781  1.00  0.00    -0.010 C 
HETATM    3  C8  UNL     1       7.901  -0.473  13.915  1.00  0.00     0.010 C 
HETATM    4  C9  UNL     1       6.841   1.135  12.307  1.00  0.00     0.039 C 
HETATM    5  C10 UNL     1       8.063   1.669  11.660  1.00  0.00     0.154 C 
HETATM    6  C12 UNL     1       7.757   2.354  10.309  1.00  0.00     0.175 C 
HETATM    7  C13 UNL     1       7.261   3.736  10.486  1.00  0.00    -0.056 C 
HETATM    8  C14 UNL     1       7.738   4.482  11.700  1.00  0.00     0.046 C 
HETATM    9  C15 UNL     1       6.444   4.361   9.662  1.00  0.00    -0.015 C 
HETATM   10  C16 UNL     1       5.872   3.810   8.411  1.00  0.00     0.033 C 
HETATM   11  C17 UNL     1       6.058   4.855   7.334  1.00  0.00     0.017 C 
HETATM   12  C18 UNL     1       4.423   3.386   8.538  1.00  0.00     0.131 C 
HETATM   13  C19 UNL     1       3.476   4.521   8.824  1.00  0.00     0.040 C 
HETATM   14  C20 UNL     1       2.611   4.905   7.658  1.00  0.00     0.015 C 
HETATM   15  C21 UNL     1       2.738   4.402  10.107  1.00  0.00     0.131 C 
HETATM   16  C22 UNL     1       1.410   3.709  10.088  1.00  0.00     0.033 C 
HETATM   17  C23 UNL     1       0.793   3.910  11.449  1.00  0.00     0.017 C 
HETATM   18  C24 UNL     1       1.371   2.357   9.563  1.00  0.00    -0.020 C 
HETATM   19  C25 UNL     1       1.042   1.191  10.061  1.00  0.00    -0.004 C 
HETATM   20  C26 UNL     1       0.583   0.819  11.382  1.00  0.00    -0.004 C 
HETATM   21  C27 UNL     1       1.249   0.614  12.499  1.00  0.00    -0.022 C 
HETATM   22  C28 UNL     1       2.677   0.727  12.636  1.00  0.00     0.012 C 
HETATM   23  C29 UNL     1       3.486  -0.318  11.820  1.00  0.00     0.014 C 
HETATM   24  C30 UNL     1       4.505  -0.020  12.896  1.00  0.00    -0.004 C 
HETATM   25  C31 UNL     1       3.266  -0.104  13.813  1.00  0.00    -0.007 C 
HETATM   26  C32 UNL     1       3.408   0.661  15.084  1.00  0.00     0.011 C 
ENDROOT
BRANCH   1  27
HETATM   27  C5  UNL     1       5.622  -2.271  12.529  1.00  0.00     0.137 C 
BRANCH  27  28
HETATM   28  N2  UNL     1       5.816  -3.394  13.352  1.00  0.00    -0.118 NA
BRANCH  28  29
HETATM   29  N1  UNL     1       6.964  -3.432  14.124  1.00  0.00    -0.337 N 
ATOM     30  H1  UNL     1       7.220  -2.651  14.727  1.00  0.00     0.175 HD
BRANCH  29  31
HETATM   31  C4  UNL     1       7.772  -4.592  14.047  1.00  0.00     0.167 C 
BRANCH  31  32
HETATM   32  C2  UNL     1       8.927  -4.550  15.002  1.00  0.00    -0.074 C 
HETATM   33  C1  UNL     1       9.713  -3.498  15.111  1.00  0.00     0.015 C 
HETATM   34  C3  UNL     1       9.204  -5.727  15.855  1.00  0.00     0.044 C 
ENDBRANCH  31  32
ENDBRANCH  29  31
ENDBRANCH  28  29
BRANCH  28  35
HETATM   35  S1  UNL     1       4.449  -3.745  14.361  1.00  0.00     0.285 S 
HETATM   36  O5  UNL     1       3.219  -3.452  13.533  1.00  0.00    -0.202 OA
HETATM   37  O6  UNL     1       4.390  -5.184  14.741  1.00  0.00    -0.202 OA
BRANCH  35  38
HETATM   38  C33 UNL     1       4.377  -2.777  15.793  1.00  0.00     0.385 C 
HETATM   39  O7  UNL     1       5.367  -2.271  16.319  1.00  0.00    -0.289 OA
ENDBRANCH  35  38
ENDBRANCH  28  35
ENDBRANCH  27  28
ENDBRANCH   1  27
BRANCH   5  40
HETATM   40  O1  UNL     1       9.119   0.783  11.508  1.00  0.00    -0.388 OA
HETATM   41  C11 UNL     1       9.003  -0.069  10.432  1.00  0.00     0.202 C 
ENDBRANCH   5  40
BRANCH   6  42
HETATM   42  O2  UNL     1       9.034   2.451   9.700  1.00  0.00    -0.389 OA
ATOM     43  H2  UNL     1       9.533   2.962  10.327  1.00  0.00     0.210 HD
ENDBRANCH   6  42
BRANCH  12  44
HETATM   44  O3  UNL     1       4.411   2.415   9.522  1.00  0.00    -0.394 OA
ATOM     45  H3  UNL     1       3.560   2.490   9.938  1.00  0.00     0.210 HD
ENDBRANCH  12  44
BRANCH  15  46
HETATM   46  O4  UNL     1       3.585   4.025  11.129  1.00  0.00    -0.394 OA
ATOM     47  H4  UNL     1       3.151   4.093  11.972  1.00  0.00     0.210 HD
ENDBRANCH  15  46
TORSDOF 11
ENDMDL
MODEL 5
REMARK VINA RESULT: -6.481043927      2.150      3.016
REMARK  11 active torsions:
REMARK  status: ('A' for Active; 'I' for Inactive)
REMARK    1  A    between atoms: C2_2  and  C4_4 
REMARK    2  A    between atoms: C4_4  and  N1_5 
REMARK    3  A    between atoms: N1_5  and  N2_7 
REMARK    4  A    between atoms: N2_7  and  C5_8 
REMARK    5  A    between atoms: N2_7  and  S1_43 
REMARK    6  A    between atoms: C5_8  and  C6_9 
REMARK    7  A    between atoms: C10_13  and  O1_14 
REMARK    8  A    between atoms: C12_16  and  O2_17 
REMARK    9  A    between atoms: C18_24  and  O3_25 
REMARK   10  A    between atoms: C21_29  and  O4_30 
REMARK   11  A    between atoms: S1_43  and  C33_46 
ROOT
HETATM    1  C6  UNL     1       6.930   4.281   4.695  1.00  0.00     0.010 C 
HETATM    2  C7  UNL     1       5.533   4.707   4.254  1.00  0.00    -0.010 C 
HETATM    3  C8  UNL     1       5.644   5.699   3.128  1.00  0.00     0.010 C 
HETATM    4  C9  UNL     1       4.640   5.150   5.361  1.00  0.00     0.039 C 
HETATM    5  C10 UNL     1       3.204   5.265   5.014  1.00  0.00     0.154 C 
HETATM    6  C12 UNL     1       2.295   4.554   6.043  1.00  0.00     0.175 C 
HETATM    7  C13 UNL     1       2.060   5.384   7.244  1.00  0.00    -0.056 C 
HETATM    8  C14 UNL     1       2.087   6.875   7.059  1.00  0.00     0.046 C 
HETATM    9  C15 UNL     1       1.822   4.919   8.454  1.00  0.00    -0.015 C 
HETATM   10  C16 UNL     1       1.741   3.491   8.842  1.00  0.00     0.033 C 
HETATM   11  C17 UNL     1       0.494   3.324   9.681  1.00  0.00     0.017 C 
HETATM   12  C18 UNL     1       2.974   2.986   9.564  1.00  0.00     0.131 C 
HETATM   13  C19 UNL     1       3.218   3.644  10.896  1.00  0.00     0.040 C 
HETATM   14  C20 UNL     1       2.930   2.762  12.077  1.00  0.00     0.015 C 
HETATM   15  C21 UNL     1       4.502   4.383  10.995  1.00  0.00     0.131 C 
HETATM   16  C22 UNL     1       5.701   3.636  11.495  1.00  0.00     0.033 C 
HETATM   17  C23 UNL     1       6.797   4.652  11.695  1.00  0.00     0.017 C 
HETATM   18  C24 UNL     1       6.075   2.425  10.789  1.00  0.00    -0.020 C 
HETATM   19  C25 UNL     1       7.140   2.040  10.132  1.00  0.00    -0.004 C 
HETATM   20  C26 UNL     1       8.384   2.726   9.859  1.00  0.00    -0.004 C 
HETATM   21  C27 UNL     1       8.689   3.628   8.948  1.00  0.00    -0.022 C 
HETATM   22  C28 UNL     1       7.771   4.148   7.969  1.00  0.00     0.012 C 
HETATM   23  C29 UNL     1       7.271   3.101   6.938  1.00  0.00     0.014 C 
HETATM   24  C30 UNL     1       7.077   4.353   6.114  1.00  0.00    -0.004 C 
HETATM   25  C31 UNL     1       8.463   4.708   6.691  1.00  0.00    -0.007 C 
HETATM   26  C32 UNL     1       8.735   6.172   6.742  1.00  0.00     0.011 C 
ENDROOT
BRANCH   1  27
HETATM   27  C5  UNL     1       7.212   3.016   3.959  1.00  0.00     0.137 C 
BRANCH  27  28
HETATM   28  N2  UNL     1       8.538   2.695   3.622  1.00  0.00    -0.118 NA
BRANCH  28  29
HETATM   29  N1  UNL     1       9.035   1.481   4.060  1.00  0.00    -0.337 N 
ATOM     30  H1  UNL     1      10.038   1.294   4.067  1.00  0.00     0.175 HD
BRANCH  29  31
HETATM   31  C4  UNL     1       8.107   0.506   4.498  1.00  0.00     0.167 C 
BRANCH  31  32
HETATM   32  C2  UNL     1       8.403  -0.857   3.947  1.00  0.00    -0.074 C 
HETATM   33  C1  UNL     1       7.842  -1.305   2.842  1.00  0.00     0.015 C 
HETATM   34  C3  UNL     1       9.355  -1.736   4.661  1.00  0.00     0.044 C 
ENDBRANCH  31  32
ENDBRANCH  29  31
ENDBRANCH  28  29
BRANCH  28  35
HETATM   35  S1  UNL     1       8.872   2.861   1.928  1.00  0.00     0.285 S 
HETATM   36  O5  UNL     1       8.011   1.839   1.220  1.00  0.00    -0.202 OA
HETATM   37  O6  UNL     1       8.479   4.200   1.409  1.00  0.00    -0.202 OA
BRANCH  35  38
HETATM   38  C33 UNL     1      10.523   2.553   1.513  1.00  0.00     0.385 C 
HETATM   39  O7  UNL     1      11.296   1.922   2.232  1.00  0.00    -0.289 OA
ENDBRANCH  35  38
ENDBRANCH  28  35
ENDBRANCH  27  28
ENDBRANCH   1  27
BRANCH   5  40
HETATM   40  O1  UNL     1       2.846   4.883   3.730  1.00  0.00    -0.388 OA
HETATM   41  C11 UNL     1       2.233   5.869   2.987  1.00  0.00     0.202 C 
ENDBRANCH   5  40
BRANCH   6  42
HETATM   42  O2  UNL     1       1.055   4.454   5.363  1.00  0.00    -0.389 OA
ATOM     43  H2  UNL     1       0.550   5.169   5.730  1.00  0.00     0.210 HD
ENDBRANCH   6  42
BRANCH  12  44
HETATM   44  O3  UNL     1       4.018   3.169   8.675  1.00  0.00    -0.394 OA
ATOM     45  H3  UNL     1       4.808   3.061   9.192  1.00  0.00     0.210 HD
ENDBRANCH  12  44
BRANCH  15  46
HETATM   46  O4  UNL     1       4.715   5.153   9.871  1.00  0.00    -0.394 OA
ATOM     47  H4  UNL     1       5.636   5.373   9.779  1.00  0.00     0.210 HD
ENDBRANCH  15  46
TORSDOF 11
ENDMDL
