MODEL 1
REMARK VINA RESULT: -8.884920789      0.000      0.000
REMARK  5 active torsions:
REMARK  status: ('A' for Active; 'I' for Inactive)
REMARK    1  A    between atoms: C2_2  and  C3_3 
REMARK    2  A    between atoms: C3_3  and  C4_4 
REMARK    3  A    between atoms: C4_4  and  N1_5 
REMARK       I    between atoms: N1_5  and  C5_7 
REMARK       I    between atoms: C5_7  and  N2_9 
REMARK       I    between atoms: N3_11  and  C7_12 
REMARK       I    between atoms: C7_12  and  N4_14 
REMARK    4  A    between atoms: C8_16  and  N5_17 
REMARK    5  A    between atoms: N5_17  and  C9_19 
ROOT
HETATM    1  N1  UNL     1     -15.974 -34.914  23.162  1.00  0.00    -0.343 N 
ATOM      2  H1  UNL     1     -15.204 -34.911  22.492  1.00  0.00     0.164 HD
HETATM    3  C5  UNL     1     -17.271 -34.628  22.693  1.00  0.00     0.320 C 
HETATM    4  O1  UNL     1     -18.219 -34.625  23.516  1.00  0.00    -0.247 OA
HETATM    5  N2  UNL     1     -17.586 -34.336  21.321  1.00  0.00    -0.307 N 
HETATM    6  C6  UNL     1     -18.935 -34.032  20.872  1.00  0.00     0.259 C 
HETATM    7  N3  UNL     1     -18.758 -33.436  19.553  1.00  0.00    -0.315 N 
HETATM    8  C7  UNL     1     -19.516 -32.432  18.897  1.00  0.00     0.324 C 
HETATM    9  O2  UNL     1     -19.182 -32.051  17.724  1.00  0.00    -0.247 OA
HETATM   10  N4  UNL     1     -20.642 -31.795  19.435  1.00  0.00    -0.305 N 
ATOM     11  H4  UNL     1     -20.751 -30.807  19.204  1.00  0.00     0.171 HD
HETATM   12  C8  UNL     1     -21.542 -32.300  20.175  1.00  0.00     0.186 C 
HETATM   13  C14 UNL     1     -17.600 -34.093  19.004  1.00  0.00     0.160 C 
HETATM   14  C15 UNL     1     -16.712 -34.286  20.199  1.00  0.00     0.047 C 
HETATM   15  C16 UNL     1     -15.788 -33.096  20.350  1.00  0.00     0.040 C 
HETATM   16  C17 UNL     1     -15.914 -35.570  20.021  1.00  0.00     0.040 C 
ENDROOT
BRANCH  12  17
HETATM   17  N5  UNL     1     -22.629 -31.480  20.633  1.00  0.00    -0.337 N 
ATOM     18  H5  UNL     1     -22.862 -30.612  20.152  1.00  0.00     0.168 HD
BRANCH  17  19
HETATM   19  C9  UNL     1     -23.307 -31.863  21.664  1.00  0.00     0.128 A 
HETATM   20  N6  UNL     1     -23.864 -33.085  21.863  1.00  0.00    -0.285 N 
HETATM   21  N7  UNL     1     -24.473 -33.094  23.029  1.00  0.00    -0.303 N 
ATOM     22  H6  UNL     1     -23.818 -33.870  21.214  1.00  0.00     0.188 HD
HETATM   23  C10 UNL     1     -24.337 -31.898  23.620  1.00  0.00     0.031 A 
ATOM     24  H7  UNL     1     -24.974 -33.890  23.424  1.00  0.00     0.186 HD
HETATM   25  C11 UNL     1     -24.852 -31.446  24.933  1.00  0.00     0.070 C 
HETATM   26  C12 UNL     1     -23.594 -31.088  22.771  1.00  0.00     0.007 A 
HETATM   27  C13 UNL     1     -23.214 -29.676  23.047  1.00  0.00     0.054 C 
ENDBRANCH  17  19
ENDBRANCH  12  17
BRANCH   1  28
HETATM   28  C4  UNL     1     -15.683 -35.208  24.538  1.00  0.00     0.124 C 
BRANCH  28  29
HETATM   29  C3  UNL     1     -14.536 -34.391  25.074  1.00  0.00     0.019 C 
BRANCH  29  30
HETATM   30  C2  UNL     1     -15.043 -33.327  26.020  1.00  0.00    -0.003 C 
HETATM   31  C1  UNL     1     -14.949 -33.799  27.447  1.00  0.00     0.005 C 
ENDBRANCH  29  30
ENDBRANCH  28  29
ENDBRANCH   1  28
TORSDOF 5
ENDMDL
MODEL 2
REMARK VINA RESULT: -8.700086275      3.734      6.574
REMARK  5 active torsions:
REMARK  status: ('A' for Active; 'I' for Inactive)
REMARK    1  A    between atoms: C2_2  and  C3_3 
REMARK    2  A    between atoms: C3_3  and  C4_4 
REMARK    3  A    between atoms: C4_4  and  N1_5 
REMARK       I    between atoms: N1_5  and  C5_7 
REMARK       I    between atoms: C5_7  and  N2_9 
REMARK       I    between atoms: N3_11  and  C7_12 
REMARK       I    between atoms: C7_12  and  N4_14 
REMARK    4  A    between atoms: C8_16  and  N5_17 
REMARK    5  A    between atoms: N5_17  and  C9_19 
ROOT
HETATM    1  N1  UNL     1     -20.248 -31.907  16.151  1.00  0.00    -0.343 N 
ATOM      2  H1  UNL     1     -19.569 -32.632  15.914  1.00  0.00     0.164 HD
HETATM    3  C5  UNL     1     -20.781 -31.889  17.454  1.00  0.00     0.320 C 
HETATM    4  O1  UNL     1     -21.620 -31.003  17.746  1.00  0.00    -0.247 OA
HETATM    5  N2  UNL     1     -20.425 -32.828  18.484  1.00  0.00    -0.307 N 
HETATM    6  C6  UNL     1     -21.005 -32.790  19.817  1.00  0.00     0.259 C 
HETATM    7  N3  UNL     1     -20.689 -34.091  20.393  1.00  0.00    -0.315 N 
HETATM    8  C7  UNL     1     -21.420 -34.883  21.314  1.00  0.00     0.324 C 
HETATM    9  O2  UNL     1     -20.952 -36.009  21.695  1.00  0.00    -0.247 OA
HETATM   10  N4  UNL     1     -22.658 -34.532  21.870  1.00  0.00    -0.305 N 
ATOM     11  H4  UNL     1     -23.316 -35.297  22.020  1.00  0.00     0.171 HD
HETATM   12  C8  UNL     1     -23.059 -33.375  22.209  1.00  0.00     0.186 C 
HETATM   13  C14 UNL     1     -19.417 -34.449  19.820  1.00  0.00     0.160 C 
HETATM   14  C15 UNL     1     -19.504 -33.911  18.421  1.00  0.00     0.047 C 
HETATM   15  C16 UNL     1     -20.059 -34.974  17.495  1.00  0.00     0.040 C 
HETATM   16  C17 UNL     1     -18.117 -33.473  17.970  1.00  0.00     0.040 C 
ENDROOT
BRANCH  12  17
HETATM   17  N5  UNL     1     -24.372 -33.212  22.766  1.00  0.00    -0.337 N 
ATOM     18  H5  UNL     1     -25.139 -33.815  22.471  1.00  0.00     0.168 HD
BRANCH  17  19
HETATM   19  C9  UNL     1     -24.565 -32.287  23.648  1.00  0.00     0.128 A 
HETATM   20  N6  UNL     1     -25.012 -32.456  24.919  1.00  0.00    -0.285 N 
HETATM   21  N7  UNL     1     -25.078 -31.283  25.510  1.00  0.00    -0.303 N 
ATOM     22  H6  UNL     1     -25.256 -33.349  25.348  1.00  0.00     0.188 HD
HETATM   23  C10 UNL     1     -24.683 -30.324  24.659  1.00  0.00     0.031 A 
ATOM     24  H7  UNL     1     -25.383 -31.126  26.471  1.00  0.00     0.186 HD
HETATM   25  C11 UNL     1     -24.594 -28.863  24.882  1.00  0.00     0.070 C 
HETATM   26  C12 UNL     1     -24.348 -30.936  23.458  1.00  0.00     0.007 A 
HETATM   27  C13 UNL     1     -23.860 -30.230  22.243  1.00  0.00     0.054 C 
ENDBRANCH  17  19
ENDBRANCH  12  17
BRANCH   1  28
HETATM   28  C4  UNL     1     -20.614 -30.955  15.139  1.00  0.00     0.124 C 
BRANCH  28  29
HETATM   29  C3  UNL     1     -20.950 -31.609  13.824  1.00  0.00     0.019 C 
BRANCH  29  30
HETATM   30  C2  UNL     1     -20.243 -32.940  13.702  1.00  0.00    -0.003 C 
HETATM   31  C1  UNL     1     -19.322 -32.944  12.511  1.00  0.00     0.005 C 
ENDBRANCH  29  30
ENDBRANCH  28  29
ENDBRANCH   1  28
TORSDOF 5
ENDMDL
MODEL 3
REMARK VINA RESULT: -8.620365049      1.766      7.437
REMARK  5 active torsions:
REMARK  status: ('A' for Active; 'I' for Inactive)
REMARK    1  A    between atoms: C2_2  and  C3_3 
REMARK    2  A    between atoms: C3_3  and  C4_4 
REMARK    3  A    between atoms: C4_4  and  N1_5 
REMARK       I    between atoms: N1_5  and  C5_7 
REMARK       I    between atoms: C5_7  and  N2_9 
REMARK       I    between atoms: N3_11  and  C7_12 
REMARK       I    between atoms: C7_12  and  N4_14 
REMARK    4  A    between atoms: C8_16  and  N5_17 
REMARK    5  A    between atoms: N5_17  and  C9_19 
ROOT
HETATM    1  N1  UNL     1     -22.366 -33.258  20.839  1.00  0.00    -0.343 N 
ATOM      2  H1  UNL     1     -22.566 -33.126  19.847  1.00  0.00     0.164 HD
HETATM    3  C5  UNL     1     -21.020 -33.305  21.250  1.00  0.00     0.320 C 
HETATM    4  O1  UNL     1     -20.771 -33.473  22.469  1.00  0.00    -0.247 OA
HETATM    5  N2  UNL     1     -19.899 -33.174  20.359  1.00  0.00    -0.307 N 
HETATM    6  C6  UNL     1     -18.520 -33.241  20.816  1.00  0.00     0.259 C 
HETATM    7  N3  UNL     1     -17.740 -33.451  19.601  1.00  0.00    -0.315 N 
HETATM    8  C7  UNL     1     -16.535 -34.171  19.405  1.00  0.00     0.324 C 
HETATM    9  O2  UNL     1     -16.013 -34.228  18.240  1.00  0.00    -0.247 OA
HETATM   10  N4  UNL     1     -15.833 -34.853  20.408  1.00  0.00    -0.305 N 
ATOM     11  H4  UNL     1     -15.382 -35.724  20.128  1.00  0.00     0.171 HD
HETATM   12  C8  UNL     1     -15.691 -34.515  21.624  1.00  0.00     0.186 C 
HETATM   13  C14 UNL     1     -18.465 -32.750  18.572  1.00  0.00     0.160 C 
HETATM   14  C15 UNL     1     -19.902 -32.967  18.951  1.00  0.00     0.047 C 
HETATM   15  C16 UNL     1     -20.430 -34.215  18.273  1.00  0.00     0.040 C 
HETATM   16  C17 UNL     1     -20.712 -31.746  18.541  1.00  0.00     0.040 C 
ENDROOT
BRANCH  12  17
HETATM   17  N5  UNL     1     -14.929 -35.350  22.510  1.00  0.00    -0.337 N 
ATOM     18  H5  UNL     1     -14.710 -36.312  22.255  1.00  0.00     0.168 HD
BRANCH  17  19
HETATM   19  C9  UNL     1     -14.527 -34.860  23.637  1.00  0.00     0.128 A 
HETATM   20  N6  UNL     1     -13.250 -34.547  23.977  1.00  0.00    -0.285 N 
HETATM   21  N7  UNL     1     -13.238 -34.074  25.205  1.00  0.00    -0.303 N 
ATOM     22  H6  UNL     1     -12.432 -34.659  23.378  1.00  0.00     0.188 HD
HETATM   23  C10 UNL     1     -14.485 -34.064  25.699  1.00  0.00     0.031 A 
ATOM     24  H7  UNL     1     -12.405 -33.763  25.705  1.00  0.00     0.186 HD
HETATM   25  C11 UNL     1     -14.953 -33.620  27.032  1.00  0.00     0.070 C 
HETATM   26  C12 UNL     1     -15.333 -34.561  24.718  1.00  0.00     0.007 A 
HETATM   27  C13 UNL     1     -16.806 -34.719  24.857  1.00  0.00     0.054 C 
ENDBRANCH  17  19
ENDBRANCH  12  17
BRANCH   1  28
HETATM   28  C4  UNL     1     -23.471 -33.386  21.749  1.00  0.00     0.124 C 
BRANCH  28  29
HETATM   29  C3  UNL     1     -23.904 -32.062  22.322  1.00  0.00     0.019 C 
BRANCH  29  30
HETATM   30  C2  UNL     1     -24.628 -32.267  23.633  1.00  0.00    -0.003 C 
HETATM   31  C1  UNL     1     -24.631 -30.995  24.441  1.00  0.00     0.005 C 
ENDBRANCH  29  30
ENDBRANCH  28  29
ENDBRANCH   1  28
TORSDOF 5
ENDMDL
MODEL 4
REMARK VINA RESULT: -8.567890967      1.025      1.102
REMARK  5 active torsions:
REMARK  status: ('A' for Active; 'I' for Inactive)
REMARK    1  A    between atoms: C2_2  and  C3_3 
REMARK    2  A    between atoms: C3_3  and  C4_4 
REMARK    3  A    between atoms: C4_4  and  N1_5 
REMARK       I    between atoms: N1_5  and  C5_7 
REMARK       I    between atoms: C5_7  and  N2_9 
REMARK       I    between atoms: N3_11  and  C7_12 
REMARK       I    between atoms: C7_12  and  N4_14 
REMARK    4  A    between atoms: C8_16  and  N5_17 
REMARK    5  A    between atoms: N5_17  and  C9_19 
ROOT
HETATM    1  N1  UNL     1     -16.342 -35.837  24.185  1.00  0.00    -0.343 N 
ATOM      2  H1  UNL     1     -15.465 -35.898  23.668  1.00  0.00     0.164 HD
HETATM    3  C5  UNL     1     -17.507 -35.465  23.488  1.00  0.00     0.320 C 
HETATM    4  O1  UNL     1     -18.587 -35.384  24.123  1.00  0.00    -0.247 OA
HETATM    5  N2  UNL     1     -17.545 -35.168  22.081  1.00  0.00    -0.307 N 
HETATM    6  C6  UNL     1     -18.764 -34.774  21.393  1.00  0.00     0.259 C 
HETATM    7  N3  UNL     1     -18.306 -34.208  20.130  1.00  0.00    -0.315 N 
HETATM    8  C7  UNL     1     -18.856 -33.161  19.347  1.00  0.00     0.324 C 
HETATM    9  O2  UNL     1     -18.287 -32.819  18.255  1.00  0.00    -0.247 OA
HETATM   10  N4  UNL     1     -20.012 -32.438  19.670  1.00  0.00    -0.305 N 
ATOM     11  H4  UNL     1     -20.006 -31.448  19.424  1.00  0.00     0.171 HD
HETATM   12  C8  UNL     1     -21.067 -32.868  20.233  1.00  0.00     0.186 C 
HETATM   13  C14 UNL     1     -17.118 -34.953  19.800  1.00  0.00     0.160 C 
HETATM   14  C15 UNL     1     -16.479 -35.194  21.138  1.00  0.00     0.047 C 
HETATM   15  C16 UNL     1     -15.514 -34.071  21.457  1.00  0.00     0.040 C 
HETATM   16  C17 UNL     1     -15.758 -36.534  21.108  1.00  0.00     0.040 C 
ENDROOT
BRANCH  12  17
HETATM   17  N5  UNL     1     -22.157 -31.967  20.484  1.00  0.00    -0.337 N 
ATOM     18  H5  UNL     1     -22.301 -31.150  19.892  1.00  0.00     0.168 HD
BRANCH  17  19
HETATM   19  C9  UNL     1     -22.951 -32.211  21.475  1.00  0.00     0.128 A 
HETATM   20  N6  UNL     1     -23.582 -33.383  21.741  1.00  0.00    -0.285 N 
HETATM   21  N7  UNL     1     -24.303 -33.243  22.832  1.00  0.00    -0.303 N 
ATOM     22  H6  UNL     1     -23.509 -34.236  21.185  1.00  0.00     0.188 HD
HETATM   23  C10 UNL     1     -24.170 -31.996  23.307  1.00  0.00     0.031 A 
ATOM     24  H7  UNL     1     -24.877 -33.973  23.254  1.00  0.00     0.186 HD
HETATM   25  C11 UNL     1     -24.790 -31.385  24.505  1.00  0.00     0.070 C 
HETATM   26  C12 UNL     1     -23.309 -31.310  22.459  1.00  0.00     0.007 A 
HETATM   27  C13 UNL     1     -22.892 -29.892  22.624  1.00  0.00     0.054 C 
ENDBRANCH  17  19
ENDBRANCH  12  17
BRANCH   1  28
HETATM   28  C4  UNL     1     -16.330 -36.134  25.591  1.00  0.00     0.124 C 
BRANCH  28  29
HETATM   29  C3  UNL     1     -15.063 -35.676  26.268  1.00  0.00     0.019 C 
BRANCH  29  30
HETATM   30  C2  UNL     1     -15.323 -34.430  27.083  1.00  0.00    -0.003 C 
HETATM   31  C1  UNL     1     -14.968 -33.198  26.293  1.00  0.00     0.005 C 
ENDBRANCH  29  30
ENDBRANCH  28  29
ENDBRANCH   1  28
TORSDOF 5
ENDMDL
MODEL 5
REMARK VINA RESULT: -8.470499720      2.831      4.264
REMARK  5 active torsions:
REMARK  status: ('A' for Active; 'I' for Inactive)
REMARK    1  A    between atoms: C2_2  and  C3_3 
REMARK    2  A    between atoms: C3_3  and  C4_4 
REMARK    3  A    between atoms: C4_4  and  N1_5 
REMARK       I    between atoms: N1_5  and  C5_7 
REMARK       I    between atoms: C5_7  and  N2_9 
REMARK       I    between atoms: N3_11  and  C7_12 
REMARK       I    between atoms: C7_12  and  N4_14 
REMARK    4  A    between atoms: C8_16  and  N5_17 
REMARK    5  A    between atoms: N5_17  and  C9_19 
ROOT
HETATM    1  N1  UNL     1     -16.464 -34.963  21.283  1.00  0.00    -0.343 N 
ATOM      2  H1  UNL     1     -16.282 -35.944  21.068  1.00  0.00     0.164 HD
HETATM    3  C5  UNL     1     -17.742 -34.606  21.751  1.00  0.00     0.320 C 
HETATM    4  O1  UNL     1     -17.971 -33.400  22.011  1.00  0.00    -0.247 OA
HETATM    5  N2  UNL     1     -18.817 -35.540  21.953  1.00  0.00    -0.307 N 
HETATM    6  C6  UNL     1     -20.132 -35.136  22.425  1.00  0.00     0.259 C 
HETATM    7  N3  UNL     1     -20.996 -36.271  22.123  1.00  0.00    -0.315 N 
HETATM    8  C7  UNL     1     -22.368 -36.303  21.766  1.00  0.00     0.324 C 
HETATM    9  O2  UNL     1     -22.939 -37.423  21.542  1.00  0.00    -0.247 OA
HETATM   10  N4  UNL     1     -23.190 -35.176  21.630  1.00  0.00    -0.305 N 
ATOM     11  H4  UNL     1     -23.889 -35.217  20.888  1.00  0.00     0.171 HD
HETATM   12  C8  UNL     1     -23.168 -34.110  22.321  1.00  0.00     0.186 C 
HETATM   13  C14 UNL     1     -20.149 -37.427  22.263  1.00  0.00     0.160 C 
HETATM   14  C15 UNL     1     -18.822 -36.949  21.748  1.00  0.00     0.047 C 
HETATM   15  C16 UNL     1     -18.716 -37.228  20.262  1.00  0.00     0.040 C 
HETATM   16  C17 UNL     1     -17.710 -37.654  22.510  1.00  0.00     0.040 C 
ENDROOT
BRANCH  12  17
HETATM   17  N5  UNL     1     -24.097 -33.054  22.029  1.00  0.00    -0.337 N 
ATOM     18  H5  UNL     1     -24.498 -32.960  21.096  1.00  0.00     0.168 HD
BRANCH  17  19
HETATM   19  C9  UNL     1     -24.416 -32.227  22.969  1.00  0.00     0.128 A 
HETATM   20  N6  UNL     1     -25.307 -32.440  23.972  1.00  0.00    -0.285 N 
HETATM   21  N7  UNL     1     -25.361 -31.367  24.732  1.00  0.00    -0.303 N 
ATOM     22  H6  UNL     1     -25.846 -33.293  24.114  1.00  0.00     0.188 HD
HETATM   23  C10 UNL     1     -24.522 -30.434  24.258  1.00  0.00     0.031 A 
ATOM     24  H7  UNL     1     -25.952 -31.261  25.556  1.00  0.00     0.186 HD
HETATM   25  C11 UNL     1     -24.250 -29.076  24.783  1.00  0.00     0.070 C 
HETATM   26  C12 UNL     1     -23.902 -30.955  23.130  1.00  0.00     0.007 A 
HETATM   27  C13 UNL     1     -22.895 -30.242  22.299  1.00  0.00     0.054 C 
ENDBRANCH  17  19
ENDBRANCH  12  17
BRANCH   1  28
HETATM   28  C4  UNL     1     -15.402 -34.013  21.095  1.00  0.00     0.124 C 
BRANCH  28  29
HETATM   29  C3  UNL     1     -15.640 -33.110  19.912  1.00  0.00     0.019 C 
BRANCH  29  30
HETATM   30  C2  UNL     1     -15.989 -33.926  18.688  1.00  0.00    -0.003 C 
HETATM   31  C1  UNL     1     -15.626 -33.178  17.432  1.00  0.00     0.005 C 
ENDBRANCH  29  30
ENDBRANCH  28  29
ENDBRANCH   1  28
TORSDOF 5
ENDMDL
