MODEL 1
REMARK VINA RESULT: -6.348629939      0.000      0.000
REMARK  9 active torsions:
REMARK  status: ('A' for Active; 'I' for Inactive)
REMARK    1  A    between atoms: C2_2  and  N1_3 
REMARK    2  A    between atoms: N1_3  and  C4_5 
REMARK    3  A    between atoms: C4_5  and  N2_7 
REMARK       I    between atoms: C5_9  and  N3_10 
REMARK       I    between atoms: C5_9  and  N6_22 
REMARK    4  A    between atoms: N3_10  and  C6_12 
REMARK    5  A    between atoms: C7_13  and  C8_14 
REMARK    6  A    between atoms: C8_14  and  C9_15 
REMARK    7  A    between atoms: C9_15  and  N4_16 
REMARK    8  A    between atoms: N4_16  and  C10_18 
REMARK    9  A    between atoms: C10_18  and  S2_20 
ROOT
HETATM    1  N2  UNL     1     -21.998 -32.784  20.198  1.00  0.00    -0.166 N 
ATOM      2  H2  UNL     1     -22.449 -32.858  19.286  1.00  0.00     0.186 HD
HETATM    3  C5  UNL     1     -20.716 -32.804  20.198  1.00  0.00     0.690 C 
HETATM    4  N3  UNL     1     -19.888 -32.715  21.347  1.00  0.00    -0.148 N 
ATOM      5  H3  UNL     1     -19.799 -31.811  21.809  1.00  0.00     0.195 HD
HETATM    6  N6  UNL     1     -20.128 -32.925  18.878  1.00  0.00    -0.217 N 
HETATM    7  C12 UNL     1     -20.046 -31.705  18.109  1.00  0.00     0.141 C 
HETATM    8  C13 UNL     1     -20.719 -31.972  16.783  1.00  0.00     0.020 C 
HETATM    9  C14 UNL     1     -20.013 -33.106  16.112  1.00  0.00     0.003 C 
HETATM   10  C15 UNL     1     -19.982 -34.380  16.907  1.00  0.00     0.020 C 
HETATM   11  C16 UNL     1     -19.657 -34.164  18.358  1.00  0.00     0.141 C 
ENDROOT
BRANCH   1  12
HETATM   12  C4  UNL     1     -22.849 -32.675  21.299  1.00  0.00     0.188 C 
HETATM   13  S1  UNL     1     -23.390 -34.006  22.060  1.00  0.00    -0.040 SA
BRANCH  12  14
HETATM   14  N1  UNL     1     -23.281 -31.401  21.804  1.00  0.00    -0.362 N 
HETATM   15  C3  UNL     1     -22.729 -30.168  21.228  1.00  0.00     0.152 C 
BRANCH  14  16
HETATM   16  C2  UNL     1     -24.246 -31.291  22.864  1.00  0.00     0.120 C 
HETATM   17  C1  UNL     1     -23.978 -30.028  23.677  1.00  0.00     0.026 C 
ENDBRANCH  14  16
ENDBRANCH  12  14
ENDBRANCH   1  12
BRANCH   4  18
HETATM   18  C6  UNL     1     -19.189 -33.803  21.878  1.00  0.00     0.026 C 
HETATM   19  C7  UNL     1     -18.571 -34.739  22.364  1.00  0.00    -0.081 C 
BRANCH  19  20
HETATM   20  C8  UNL     1     -17.829 -35.839  22.976  1.00  0.00     0.115 C 
BRANCH  20  21
HETATM   21  C9  UNL     1     -17.357 -35.354  24.342  1.00  0.00     0.133 C 
BRANCH  21  22
HETATM   22  N4  UNL     1     -16.369 -34.332  24.146  1.00  0.00    -0.372 N 
ATOM     23  H4  UNL     1     -16.740 -33.423  23.866  1.00  0.00     0.161 HD
BRANCH  22  24
HETATM   24  C10 UNL     1     -14.992 -34.384  24.277  1.00  0.00     0.149 C 
HETATM   25  N5  UNL     1     -14.208 -34.556  23.066  1.00  0.00    -0.075 NA
BRANCH  24  26
HETATM   26  S2  UNL     1     -14.182 -34.239  25.652  1.00  0.00    -0.102 SA
HETATM   27  C11 UNL     1     -14.976 -33.827  27.226  1.00  0.00     0.098 C 
ENDBRANCH  24  26
ENDBRANCH  22  24
ENDBRANCH  21  22
ENDBRANCH  20  21
ENDBRANCH  19  20
ENDBRANCH   4  18
TORSDOF 9
ENDMDL
MODEL 2
REMARK VINA RESULT: -6.328181503      2.022      4.548
REMARK  9 active torsions:
REMARK  status: ('A' for Active; 'I' for Inactive)
REMARK    1  A    between atoms: C2_2  and  N1_3 
REMARK    2  A    between atoms: N1_3  and  C4_5 
REMARK    3  A    between atoms: C4_5  and  N2_7 
REMARK       I    between atoms: C5_9  and  N3_10 
REMARK       I    between atoms: C5_9  and  N6_22 
REMARK    4  A    between atoms: N3_10  and  C6_12 
REMARK    5  A    between atoms: C7_13  and  C8_14 
REMARK    6  A    between atoms: C8_14  and  C9_15 
REMARK    7  A    between atoms: C9_15  and  N4_16 
REMARK    8  A    between atoms: N4_16  and  C10_18 
REMARK    9  A    between atoms: C10_18  and  S2_20 
ROOT
HETATM    1  N2  UNL     1     -22.399 -34.539  20.689  1.00  0.00    -0.166 N 
ATOM      2  H2  UNL     1     -23.243 -34.045  20.400  1.00  0.00     0.186 HD
HETATM    3  C5  UNL     1     -21.637 -33.921  21.515  1.00  0.00     0.690 C 
HETATM    4  N3  UNL     1     -20.418 -34.419  22.045  1.00  0.00    -0.148 N 
ATOM      5  H3  UNL     1     -20.463 -35.151  22.753  1.00  0.00     0.195 HD
HETATM    6  N6  UNL     1     -22.122 -32.611  21.897  1.00  0.00    -0.217 N 
HETATM    7  C12 UNL     1     -23.141 -32.589  22.922  1.00  0.00     0.141 C 
HETATM    8  C13 UNL     1     -24.306 -31.802  22.369  1.00  0.00     0.020 C 
HETATM    9  C14 UNL     1     -23.830 -30.428  22.024  1.00  0.00     0.003 C 
HETATM   10  C15 UNL     1     -22.703 -30.388  21.031  1.00  0.00     0.020 C 
HETATM   11  C16 UNL     1     -21.635 -31.409  21.308  1.00  0.00     0.141 C 
ENDROOT
BRANCH   1  12
HETATM   12  C4  UNL     1     -22.209 -35.808  20.140  1.00  0.00     0.188 C 
HETATM   13  S1  UNL     1     -23.251 -37.014  20.465  1.00  0.00    -0.040 SA
BRANCH  12  14
HETATM   14  N1  UNL     1     -21.101 -36.106  19.275  1.00  0.00    -0.362 N 
HETATM   15  C3  UNL     1     -20.091 -37.084  19.702  1.00  0.00     0.152 C 
BRANCH  14  16
HETATM   16  C2  UNL     1     -20.944 -35.474  17.994  1.00  0.00     0.120 C 
HETATM   17  C1  UNL     1     -19.933 -34.336  18.099  1.00  0.00     0.026 C 
ENDBRANCH  14  16
ENDBRANCH  12  14
ENDBRANCH   1  12
BRANCH   4  18
HETATM   18  C6  UNL     1     -19.160 -33.957  21.648  1.00  0.00     0.026 C 
HETATM   19  C7  UNL     1     -18.050 -33.559  21.326  1.00  0.00    -0.081 C 
BRANCH  19  20
HETATM   20  C8  UNL     1     -16.710 -33.094  20.973  1.00  0.00     0.115 C 
BRANCH  20  21
HETATM   21  C9  UNL     1     -15.798 -34.315  20.980  1.00  0.00     0.133 C 
BRANCH  21  22
HETATM   22  N4  UNL     1     -14.914 -34.218  22.105  1.00  0.00    -0.372 N 
ATOM     23  H4  UNL     1     -14.093 -33.630  21.958  1.00  0.00     0.161 HD
BRANCH  22  24
HETATM   24  C10 UNL     1     -14.999 -34.798  23.360  1.00  0.00     0.149 C 
HETATM   25  N5  UNL     1     -14.238 -36.014  23.590  1.00  0.00    -0.075 NA
BRANCH  24  26
HETATM   26  S2  UNL     1     -15.840 -34.223  24.595  1.00  0.00    -0.102 SA
HETATM   27  C11 UNL     1     -15.069 -33.462  26.045  1.00  0.00     0.098 C 
ENDBRANCH  24  26
ENDBRANCH  22  24
ENDBRANCH  21  22
ENDBRANCH  20  21
ENDBRANCH  19  20
ENDBRANCH   4  18
TORSDOF 9
ENDMDL
MODEL 3
REMARK VINA RESULT: -6.309396783      2.780      7.063
REMARK  9 active torsions:
REMARK  status: ('A' for Active; 'I' for Inactive)
REMARK    1  A    between atoms: C2_2  and  N1_3 
REMARK    2  A    between atoms: N1_3  and  C4_5 
REMARK    3  A    between atoms: C4_5  and  N2_7 
REMARK       I    between atoms: C5_9  and  N3_10 
REMARK       I    between atoms: C5_9  and  N6_22 
REMARK    4  A    between atoms: N3_10  and  C6_12 
REMARK    5  A    between atoms: C7_13  and  C8_14 
REMARK    6  A    between atoms: C8_14  and  C9_15 
REMARK    7  A    between atoms: C9_15  and  N4_16 
REMARK    8  A    between atoms: N4_16  and  C10_18 
REMARK    9  A    between atoms: C10_18  and  S2_20 
ROOT
HETATM    1  N2  UNL     1     -19.745 -34.398  22.474  1.00  0.00    -0.166 N 
ATOM      2  H2  UNL     1     -19.799 -34.228  23.478  1.00  0.00     0.186 HD
HETATM    3  C5  UNL     1     -18.672 -34.960  22.052  1.00  0.00     0.690 C 
HETATM    4  N3  UNL     1     -18.387 -35.287  20.701  1.00  0.00    -0.148 N 
ATOM      5  H3  UNL     1     -18.876 -36.077  20.282  1.00  0.00     0.195 HD
HETATM    6  N6  UNL     1     -17.716 -35.262  23.097  1.00  0.00    -0.217 N 
HETATM    7  C12 UNL     1     -17.970 -36.464  23.859  1.00  0.00     0.141 C 
HETATM    8  C13 UNL     1     -17.989 -36.067  25.317  1.00  0.00     0.020 C 
HETATM    9  C14 UNL     1     -16.669 -35.456  25.660  1.00  0.00     0.003 C 
HETATM   10  C15 UNL     1     -16.303 -34.255  24.834  1.00  0.00     0.020 C 
HETATM   11  C16 UNL     1     -16.589 -34.434  23.370  1.00  0.00     0.141 C 
ENDROOT
BRANCH   1  12
HETATM   12  C4  UNL     1     -20.847 -33.990  21.720  1.00  0.00     0.188 C 
HETATM   13  S1  UNL     1     -21.971 -35.067  21.251  1.00  0.00    -0.040 SA
BRANCH  12  14
HETATM   14  N1  UNL     1     -21.036 -32.621  21.327  1.00  0.00    -0.362 N 
HETATM   15  C3  UNL     1     -22.210 -31.884  21.812  1.00  0.00     0.152 C 
BRANCH  14  16
HETATM   16  C2  UNL     1     -20.107 -31.940  20.467  1.00  0.00     0.120 C 
HETATM   17  C1  UNL     1     -20.603 -31.995  19.025  1.00  0.00     0.026 C 
ENDBRANCH  14  16
ENDBRANCH  12  14
ENDBRANCH   1  12
BRANCH   4  18
HETATM   18  C6  UNL     1     -17.471 -34.582  19.915  1.00  0.00     0.026 C 
HETATM   19  C7  UNL     1     -16.652 -33.968  19.247  1.00  0.00    -0.081 C 
BRANCH  19  20
HETATM   20  C8  UNL     1     -15.647 -33.241  18.474  1.00  0.00     0.115 C 
BRANCH  20  21
HETATM   21  C9  UNL     1     -16.168 -33.143  17.045  1.00  0.00     0.133 C 
BRANCH  21  22
HETATM   22  N4  UNL     1     -17.566 -32.823  17.090  1.00  0.00    -0.372 N 
ATOM     23  H4  UNL     1     -18.015 -32.983  17.992  1.00  0.00     0.161 HD
BRANCH  22  24
HETATM   24  C10 UNL     1     -18.401 -32.332  16.101  1.00  0.00     0.149 C 
HETATM   25  N5  UNL     1     -18.305 -30.917  15.784  1.00  0.00    -0.075 NA
BRANCH  24  26
HETATM   26  S2  UNL     1     -19.447 -33.197  15.251  1.00  0.00    -0.102 SA
HETATM   27  C11 UNL     1     -20.469 -32.492  13.933  1.00  0.00     0.098 C 
ENDBRANCH  24  26
ENDBRANCH  22  24
ENDBRANCH  21  22
ENDBRANCH  20  21
ENDBRANCH  19  20
ENDBRANCH   4  18
TORSDOF 9
ENDMDL
MODEL 4
REMARK VINA RESULT: -6.305931583      2.717      4.600
REMARK  9 active torsions:
REMARK  status: ('A' for Active; 'I' for Inactive)
REMARK    1  A    between atoms: C2_2  and  N1_3 
REMARK    2  A    between atoms: N1_3  and  C4_5 
REMARK    3  A    between atoms: C4_5  and  N2_7 
REMARK       I    between atoms: C5_9  and  N3_10 
REMARK       I    between atoms: C5_9  and  N6_22 
REMARK    4  A    between atoms: N3_10  and  C6_12 
REMARK    5  A    between atoms: C7_13  and  C8_14 
REMARK    6  A    between atoms: C8_14  and  C9_15 
REMARK    7  A    between atoms: C9_15  and  N4_16 
REMARK    8  A    between atoms: N4_16  and  C10_18 
REMARK    9  A    between atoms: C10_18  and  S2_20 
ROOT
HETATM    1  N2  UNL     1     -22.396 -34.536  20.491  1.00  0.00    -0.166 N 
ATOM      2  H2  UNL     1     -23.233 -34.013  20.232  1.00  0.00     0.186 HD
HETATM    3  C5  UNL     1     -21.642 -33.995  21.375  1.00  0.00     0.690 C 
HETATM    4  N3  UNL     1     -20.435 -34.544  21.879  1.00  0.00    -0.148 N 
ATOM      5  H3  UNL     1     -20.495 -35.333  22.522  1.00  0.00     0.195 HD
HETATM    6  N6  UNL     1     -22.124 -32.717  21.858  1.00  0.00    -0.217 N 
HETATM    7  C12 UNL     1     -23.158 -32.772  22.867  1.00  0.00     0.141 C 
HETATM    8  C13 UNL     1     -24.309 -31.932  22.365  1.00  0.00     0.020 C 
HETATM    9  C14 UNL     1     -23.819 -30.538  22.143  1.00  0.00     0.003 C 
HETATM   10  C15 UNL     1     -22.677 -30.425  21.172  1.00  0.00     0.020 C 
HETATM   11  C16 UNL     1     -21.620 -31.474  21.378  1.00  0.00     0.141 C 
ENDROOT
BRANCH   1  12
HETATM   12  C4  UNL     1     -22.207 -35.756  19.840  1.00  0.00     0.188 C 
HETATM   13  S1  UNL     1     -21.286 -35.846  18.503  1.00  0.00    -0.040 SA
BRANCH  12  14
HETATM   14  N1  UNL     1     -22.811 -36.973  20.312  1.00  0.00    -0.362 N 
HETATM   15  C3  UNL     1     -21.960 -38.128  20.628  1.00  0.00     0.152 C 
BRANCH  14  16
HETATM   16  C2  UNL     1     -24.232 -37.099  20.486  1.00  0.00     0.120 C 
HETATM   17  C1  UNL     1     -24.907 -37.256  19.127  1.00  0.00     0.026 C 
ENDBRANCH  14  16
ENDBRANCH  12  14
ENDBRANCH   1  12
BRANCH   4  18
HETATM   18  C6  UNL     1     -19.167 -34.061  21.540  1.00  0.00     0.026 C 
HETATM   19  C7  UNL     1     -18.054 -33.636  21.269  1.00  0.00    -0.081 C 
BRANCH  19  20
HETATM   20  C8  UNL     1     -16.716 -33.124  20.981  1.00  0.00     0.115 C 
BRANCH  20  21
HETATM   21  C9  UNL     1     -15.764 -34.314  21.029  1.00  0.00     0.133 C 
BRANCH  21  22
HETATM   22  N4  UNL     1     -14.899 -34.161  22.163  1.00  0.00    -0.372 N 
ATOM     23  H4  UNL     1     -14.119 -33.517  22.025  1.00  0.00     0.161 HD
BRANCH  22  24
HETATM   24  C10 UNL     1     -14.955 -34.749  23.414  1.00  0.00     0.149 C 
HETATM   25  N5  UNL     1     -14.162 -35.948  23.629  1.00  0.00    -0.075 NA
BRANCH  24  26
HETATM   26  S2  UNL     1     -15.796 -34.202  24.663  1.00  0.00    -0.102 SA
HETATM   27  C11 UNL     1     -15.026 -33.449  26.118  1.00  0.00     0.098 C 
ENDBRANCH  24  26
ENDBRANCH  22  24
ENDBRANCH  21  22
ENDBRANCH  20  21
ENDBRANCH  19  20
ENDBRANCH   4  18
TORSDOF 9
ENDMDL
MODEL 5
REMARK VINA RESULT: -6.279946413      3.879      7.758
REMARK  9 active torsions:
REMARK  status: ('A' for Active; 'I' for Inactive)
REMARK    1  A    between atoms: C2_2  and  N1_3 
REMARK    2  A    between atoms: N1_3  and  C4_5 
REMARK    3  A    between atoms: C4_5  and  N2_7 
REMARK       I    between atoms: C5_9  and  N3_10 
REMARK       I    between atoms: C5_9  and  N6_22 
REMARK    4  A    between atoms: N3_10  and  C6_12 
REMARK    5  A    between atoms: C7_13  and  C8_14 
REMARK    6  A    between atoms: C8_14  and  C9_15 
REMARK    7  A    between atoms: C9_15  and  N4_16 
REMARK    8  A    between atoms: N4_16  and  C10_18 
REMARK    9  A    between atoms: C10_18  and  S2_20 
ROOT
HETATM    1  N2  UNL     1     -20.674 -33.143  21.596  1.00  0.00    -0.166 N 
ATOM      2  H2  UNL     1     -20.643 -32.468  22.360  1.00  0.00     0.186 HD
HETATM    3  C5  UNL     1     -21.791 -33.243  20.975  1.00  0.00     0.690 C 
HETATM    4  N3  UNL     1     -22.056 -34.115  19.887  1.00  0.00    -0.148 N 
ATOM      5  H3  UNL     1     -21.657 -33.885  18.977  1.00  0.00     0.195 HD
HETATM    6  N6  UNL     1     -22.826 -32.362  21.478  1.00  0.00    -0.217 N 
HETATM    7  C12 UNL     1     -22.767 -30.993  21.018  1.00  0.00     0.141 C 
HETATM    8  C13 UNL     1     -22.761 -30.115  22.248  1.00  0.00     0.020 C 
HETATM    9  C14 UNL     1     -24.003 -30.389  23.033  1.00  0.00     0.003 C 
HETATM   10  C15 UNL     1     -24.169 -31.820  23.459  1.00  0.00     0.020 C 
HETATM   11  C16 UNL     1     -23.844 -32.803  22.370  1.00  0.00     0.141 C 
ENDROOT
BRANCH   1  12
HETATM   12  C4  UNL     1     -19.495 -33.848  21.350  1.00  0.00     0.188 C 
HETATM   13  S1  UNL     1     -19.242 -35.301  22.036  1.00  0.00    -0.040 SA
BRANCH  12  14
HETATM   14  N1  UNL     1     -18.463 -33.333  20.492  1.00  0.00    -0.362 N 
HETATM   15  C3  UNL     1     -18.615 -33.434  19.034  1.00  0.00     0.152 C 
BRANCH  14  16
HETATM   16  C2  UNL     1     -17.276 -32.715  21.017  1.00  0.00     0.120 C 
HETATM   17  C1  UNL     1     -16.049 -33.244  20.279  1.00  0.00     0.026 C 
ENDBRANCH  14  16
ENDBRANCH  12  14
ENDBRANCH   1  12
BRANCH   4  18
HETATM   18  C6  UNL     1     -22.834 -35.271  19.997  1.00  0.00     0.026 C 
HETATM   19  C7  UNL     1     -23.537 -36.266  20.088  1.00  0.00    -0.081 C 
BRANCH  19  20
HETATM   20  C8  UNL     1     -24.406 -37.437  20.188  1.00  0.00     0.115 C 
BRANCH  20  21
HETATM   21  C9  UNL     1     -25.363 -37.385  19.003  1.00  0.00     0.133 C 
BRANCH  21  22
HETATM   22  N4  UNL     1     -24.766 -38.088  17.904  1.00  0.00    -0.372 N 
ATOM     23  H4  UNL     1     -24.846 -37.620  17.000  1.00  0.00     0.161 HD
BRANCH  22  24
HETATM   24  C10 UNL     1     -24.099 -39.300  17.876  1.00  0.00     0.149 C 
HETATM   25  N5  UNL     1     -24.869 -40.497  18.174  1.00  0.00    -0.075 NA
BRANCH  24  26
HETATM   26  S2  UNL     1     -22.553 -39.504  17.511  1.00  0.00    -0.102 SA
HETATM   27  C11 UNL     1     -21.280 -38.272  17.885  1.00  0.00     0.098 C 
ENDBRANCH  24  26
ENDBRANCH  22  24
ENDBRANCH  21  22
ENDBRANCH  20  21
ENDBRANCH  19  20
ENDBRANCH   4  18
TORSDOF 9
ENDMDL
