MODEL 1
REMARK VINA RESULT: -8.553921592      0.000      0.000
REMARK  9 active torsions:
REMARK  status: ('A' for Active; 'I' for Inactive)
REMARK    1  A    between atoms: C4_4  and  C5_5 
REMARK    2  A    between atoms: C5_5  and  N1_6 
REMARK    3  A    between atoms: C8_9  and  C9_10 
REMARK    4  A    between atoms: C10_13  and  N3_14 
REMARK    5  A    between atoms: N3_14  and  C11_16 
REMARK    6  A    between atoms: C11_16  and  C12_20 
REMARK    7  A    between atoms: C12_20  and  O1_21 
REMARK    8  A    between atoms: O1_21  and  C13_22 
REMARK    9  A    between atoms: C13_22  and  C14_23 
ROOT
HETATM    1  C1  UNL     1     -14.882 -33.788  27.453  1.00  0.00     0.027 C 
HETATM    2  C2  UNL     1     -15.031 -34.029  26.268  1.00  0.00    -0.026 C 
HETATM    3  C3  UNL     1     -15.224 -34.324  24.893  1.00  0.00    -0.014 C 
HETATM    4  C4  UNL     1     -15.402 -34.560  23.724  1.00  0.00    -0.072 C 
ENDROOT
BRANCH   4   5
HETATM    5  C5  UNL     1     -15.641 -34.833  22.307  1.00  0.00     0.223 C 
BRANCH   5   6
HETATM    6  N1  UNL     1     -16.785 -34.116  21.789  1.00  0.00    -0.350 N 
HETATM    7  C6  UNL     1     -17.970 -34.284  22.378  1.00  0.00     0.093 A 
HETATM    8  C7  UNL     1     -19.096 -33.645  21.949  1.00  0.00     0.031 A 
HETATM    9  C8  UNL     1     -19.031 -32.773  20.852  1.00  0.00    -0.004 A 
HETATM   10  C19 UNL     1     -17.806 -32.636  20.292  1.00  0.00     0.038 A 
HETATM   11  C20 UNL     1     -16.647 -33.304  20.743  1.00  0.00     0.009 A 
HETATM   12  C21 UNL     1     -15.353 -33.081  20.052  1.00  0.00     0.068 C 
BRANCH   9  13
HETATM   13  C9  UNL     1     -20.258 -32.083  20.459  1.00  0.00     0.082 A 
HETATM   14  N2  UNL     1     -21.147 -31.529  21.343  1.00  0.00    -0.189 N 
HETATM   15  C10 UNL     1     -22.161 -31.018  20.638  1.00  0.00     0.684 A 
ATOM     16  H2  UNL     1     -21.051 -31.511  22.359  1.00  0.00     0.184 HD
HETATM   17  N5  UNL     1     -21.989 -31.204  19.344  1.00  0.00    -0.193 N 
HETATM   18  C17 UNL     1     -20.794 -31.876  19.213  1.00  0.00     0.051 A 
ATOM     19  H5  UNL     1     -22.614 -30.910  18.593  1.00  0.00     0.184 HD
HETATM   20  C18 UNL     1     -20.244 -32.301  17.900  1.00  0.00     0.071 C 
BRANCH  15  21
HETATM   21  N3  UNL     1     -23.181 -30.415  21.180  1.00  0.00    -0.179 N 
ATOM     22  H3  UNL     1     -23.551 -29.567  20.751  1.00  0.00     0.185 HD
BRANCH  21  23
HETATM   23  C11 UNL     1     -23.786 -30.923  22.362  1.00  0.00     0.115 C 
HETATM   24  N4  UNL     1     -24.009 -30.107  23.332  1.00  0.00    -0.387 N 
ATOM     25  H42 UNL     1     -23.743 -29.129  23.219  1.00  0.00     0.157 HD
ATOM     26  H41 UNL     1     -24.443 -30.472  24.180  1.00  0.00     0.157 HD
BRANCH  23  27
HETATM   27  C12 UNL     1     -24.171 -32.342  22.527  1.00  0.00     0.245 C 
BRANCH  27  28
HETATM   28  O1  UNL     1     -23.844 -33.053  21.395  1.00  0.00    -0.372 OA
BRANCH  28  29
HETATM   29  C13 UNL     1     -23.345 -34.322  21.684  1.00  0.00     0.261 C 
BRANCH  29  30
HETATM   30  C14 UNL     1     -22.582 -34.874  20.563  1.00  0.00    -0.081 C 
HETATM   31  C15 UNL     1     -21.940 -35.316  19.621  1.00  0.00    -0.109 C 
HETATM   32  C16 UNL     1     -21.192 -35.859  18.490  1.00  0.00     0.112 C 
ENDBRANCH  29  30
ENDBRANCH  28  29
ENDBRANCH  27  28
ENDBRANCH  23  27
ENDBRANCH  21  23
ENDBRANCH  15  21
ENDBRANCH   9  13
ENDBRANCH   5   6
ENDBRANCH   4   5
TORSDOF 9
ENDMDL
MODEL 2
REMARK VINA RESULT: -7.931232544      1.546      2.562
REMARK  9 active torsions:
REMARK  status: ('A' for Active; 'I' for Inactive)
REMARK    1  A    between atoms: C4_4  and  C5_5 
REMARK    2  A    between atoms: C5_5  and  N1_6 
REMARK    3  A    between atoms: C8_9  and  C9_10 
REMARK    4  A    between atoms: C10_13  and  N3_14 
REMARK    5  A    between atoms: N3_14  and  C11_16 
REMARK    6  A    between atoms: C11_16  and  C12_20 
REMARK    7  A    between atoms: C12_20  and  O1_21 
REMARK    8  A    between atoms: O1_21  and  C13_22 
REMARK    9  A    between atoms: C13_22  and  C14_23 
ROOT
HETATM    1  C1  UNL     1     -14.869 -33.748  27.540  1.00  0.00     0.027 C 
HETATM    2  C2  UNL     1     -15.007 -33.960  26.348  1.00  0.00    -0.026 C 
HETATM    3  C3  UNL     1     -15.178 -34.230  24.965  1.00  0.00    -0.014 C 
HETATM    4  C4  UNL     1     -15.343 -34.454  23.792  1.00  0.00    -0.072 C 
ENDROOT
BRANCH   4   5
HETATM    5  C5  UNL     1     -15.568 -34.726  22.372  1.00  0.00     0.223 C 
BRANCH   5   6
HETATM    6  N1  UNL     1     -16.965 -34.647  22.007  1.00  0.00    -0.350 N 
HETATM    7  C6  UNL     1     -17.848 -35.392  22.676  1.00  0.00     0.093 A 
HETATM    8  C7  UNL     1     -19.182 -35.374  22.393  1.00  0.00     0.031 A 
HETATM    9  C8  UNL     1     -19.668 -34.551  21.366  1.00  0.00    -0.004 A 
HETATM   10  C19 UNL     1     -18.733 -33.816  20.720  1.00  0.00     0.038 A 
HETATM   11  C20 UNL     1     -17.354 -33.842  21.021  1.00  0.00     0.009 A 
HETATM   12  C21 UNL     1     -16.415 -32.993  20.246  1.00  0.00     0.068 C 
BRANCH   9  13
HETATM   13  C9  UNL     1     -21.111 -34.541  21.130  1.00  0.00     0.082 A 
HETATM   14  N2  UNL     1     -22.028 -34.005  21.995  1.00  0.00    -0.189 N 
HETATM   15  C10 UNL     1     -23.244 -34.203  21.477  1.00  0.00     0.684 A 
ATOM     16  H2  UNL     1     -21.820 -33.537  22.878  1.00  0.00     0.184 HD
HETATM   17  N5  UNL     1     -23.177 -34.837  20.323  1.00  0.00    -0.193 N 
HETATM   18  C17 UNL     1     -21.838 -35.060  20.089  1.00  0.00     0.051 A 
ATOM     19  H5  UNL     1     -23.959 -35.108  19.725  1.00  0.00     0.184 HD
HETATM   20  C18 UNL     1     -21.335 -35.778  18.890  1.00  0.00     0.071 C 
BRANCH  15  21
HETATM   21  N3  UNL     1     -24.344 -33.811  22.055  1.00  0.00    -0.179 N 
ATOM     22  H3  UNL     1     -25.198 -34.356  21.935  1.00  0.00     0.185 HD
BRANCH  21  23
HETATM   23  C11 UNL     1     -24.372 -32.632  22.850  1.00  0.00     0.115 C 
HETATM   24  N4  UNL     1     -24.734 -32.736  24.080  1.00  0.00    -0.387 N 
ATOM     25  H42 UNL     1     -24.988 -33.656  24.439  1.00  0.00     0.157 HD
ATOM     26  H41 UNL     1     -24.754 -31.891  24.650  1.00  0.00     0.157 HD
BRANCH  23  27
HETATM   27  C12 UNL     1     -24.005 -31.298  22.329  1.00  0.00     0.245 C 
BRANCH  27  28
HETATM   28  O1  UNL     1     -22.635 -31.156  22.319  1.00  0.00    -0.372 OA
BRANCH  28  29
HETATM   29  C13 UNL     1     -22.195 -30.260  21.347  1.00  0.00     0.261 C 
BRANCH  29  30
HETATM   30  C14 UNL     1     -21.687 -30.952  20.161  1.00  0.00    -0.081 C 
HETATM   31  C15 UNL     1     -21.244 -31.519  19.172  1.00  0.00    -0.109 C 
HETATM   32  C16 UNL     1     -20.737 -32.192  17.979  1.00  0.00     0.112 C 
ENDBRANCH  29  30
ENDBRANCH  28  29
ENDBRANCH  27  28
ENDBRANCH  23  27
ENDBRANCH  21  23
ENDBRANCH  15  21
ENDBRANCH   9  13
ENDBRANCH   5   6
ENDBRANCH   4   5
TORSDOF 9
ENDMDL
MODEL 3
REMARK VINA RESULT: -7.761212768      2.547      7.439
REMARK  9 active torsions:
REMARK  status: ('A' for Active; 'I' for Inactive)
REMARK    1  A    between atoms: C4_4  and  C5_5 
REMARK    2  A    between atoms: C5_5  and  N1_6 
REMARK    3  A    between atoms: C8_9  and  C9_10 
REMARK    4  A    between atoms: C10_13  and  N3_14 
REMARK    5  A    between atoms: N3_14  and  C11_16 
REMARK    6  A    between atoms: C11_16  and  C12_20 
REMARK    7  A    between atoms: C12_20  and  O1_21 
REMARK    8  A    between atoms: O1_21  and  C13_22 
REMARK    9  A    between atoms: C13_22  and  C14_23 
ROOT
HETATM    1  C1  UNL     1     -24.211 -28.238  25.096  1.00  0.00     0.027 C 
HETATM    2  C2  UNL     1     -24.254 -29.293  24.488  1.00  0.00    -0.026 C 
HETATM    3  C3  UNL     1     -24.281 -30.516  23.767  1.00  0.00    -0.014 C 
HETATM    4  C4  UNL     1     -24.291 -31.562  23.168  1.00  0.00    -0.072 C 
ENDROOT
BRANCH   4   5
HETATM    5  C5  UNL     1     -24.281 -32.838  22.452  1.00  0.00     0.223 C 
BRANCH   5   6
HETATM    6  N1  UNL     1     -23.135 -32.977  21.582  1.00  0.00    -0.350 N 
HETATM    7  C6  UNL     1     -22.270 -31.965  21.492  1.00  0.00     0.093 A 
HETATM    8  C7  UNL     1     -21.165 -32.017  20.694  1.00  0.00     0.031 A 
HETATM    9  C8  UNL     1     -20.906 -33.166  19.931  1.00  0.00    -0.004 A 
HETATM   10  C19 UNL     1     -21.813 -34.164  20.060  1.00  0.00     0.038 A 
HETATM   11  C20 UNL     1     -22.954 -34.099  20.888  1.00  0.00     0.009 A 
HETATM   12  C21 UNL     1     -23.884 -35.253  20.953  1.00  0.00     0.068 C 
BRANCH   9  13
HETATM   13  C9  UNL     1     -19.688 -33.186  19.124  1.00  0.00     0.082 A 
HETATM   14  N2  UNL     1     -18.475 -33.639  19.572  1.00  0.00    -0.189 N 
HETATM   15  C10 UNL     1     -17.588 -33.476  18.585  1.00  0.00     0.684 A 
ATOM     16  H2  UNL     1     -18.284 -34.031  20.494  1.00  0.00     0.184 HD
HETATM   17  N5  UNL     1     -18.148 -32.943  17.518  1.00  0.00    -0.193 N 
HETATM   18  C17 UNL     1     -19.474 -32.751  17.840  1.00  0.00     0.051 A 
ATOM     19  H5  UNL     1     -17.693 -32.718  16.633  1.00  0.00     0.184 HD
HETATM   20  C18 UNL     1     -20.454 -32.142  16.906  1.00  0.00     0.071 C 
BRANCH  15  21
HETATM   21  N3  UNL     1     -16.332 -33.809  18.687  1.00  0.00    -0.179 N 
ATOM     22  H3  UNL     1     -15.829 -34.131  17.859  1.00  0.00     0.185 HD
BRANCH  21  23
HETATM   23  C11 UNL     1     -15.653 -33.730  19.933  1.00  0.00     0.115 C 
HETATM   24  N4  UNL     1     -14.936 -32.690  20.171  1.00  0.00    -0.387 N 
ATOM     25  H42 UNL     1     -14.879 -31.961  19.460  1.00  0.00     0.157 HD
ATOM     26  H41 UNL     1     -14.449 -32.633  21.066  1.00  0.00     0.157 HD
BRANCH  23  27
HETATM   27  C12 UNL     1     -15.734 -34.787  20.965  1.00  0.00     0.245 C 
BRANCH  27  28
HETATM   28  O1  UNL     1     -15.352 -34.283  22.188  1.00  0.00    -0.372 OA
BRANCH  28  29
HETATM   29  C13 UNL     1     -16.393 -34.278  23.115  1.00  0.00     0.261 C 
BRANCH  29  30
HETATM   30  C14 UNL     1     -15.905 -34.062  24.478  1.00  0.00    -0.081 C 
HETATM   31  C15 UNL     1     -15.478 -33.887  25.611  1.00  0.00    -0.109 C 
HETATM   32  C16 UNL     1     -14.987 -33.692  26.972  1.00  0.00     0.112 C 
ENDBRANCH  29  30
ENDBRANCH  28  29
ENDBRANCH  27  28
ENDBRANCH  23  27
ENDBRANCH  21  23
ENDBRANCH  15  21
ENDBRANCH   9  13
ENDBRANCH   5   6
ENDBRANCH   4   5
TORSDOF 9
ENDMDL
MODEL 4
REMARK VINA RESULT: -7.687715263      4.042      9.140
REMARK  9 active torsions:
REMARK  status: ('A' for Active; 'I' for Inactive)
REMARK    1  A    between atoms: C4_4  and  C5_5 
REMARK    2  A    between atoms: C5_5  and  N1_6 
REMARK    3  A    between atoms: C8_9  and  C9_10 
REMARK    4  A    between atoms: C10_13  and  N3_14 
REMARK    5  A    between atoms: N3_14  and  C11_16 
REMARK    6  A    between atoms: C11_16  and  C12_20 
REMARK    7  A    between atoms: C12_20  and  O1_21 
REMARK    8  A    between atoms: O1_21  and  C13_22 
REMARK    9  A    between atoms: C13_22  and  C14_23 
ROOT
HETATM    1  C1  UNL     1     -22.393 -30.512  21.724  1.00  0.00     0.027 C 
HETATM    2  C2  UNL     1     -21.622 -31.432  21.512  1.00  0.00    -0.026 C 
HETATM    3  C3  UNL     1     -20.742 -32.520  21.277  1.00  0.00    -0.014 C 
HETATM    4  C4  UNL     1     -20.004 -33.449  21.062  1.00  0.00    -0.072 C 
ENDROOT
BRANCH   4   5
HETATM    5  C5  UNL     1     -19.127 -34.587  20.785  1.00  0.00     0.223 C 
BRANCH   5   6
HETATM    6  N1  UNL     1     -17.890 -34.528  21.531  1.00  0.00    -0.350 N 
HETATM    7  C6  UNL     1     -17.919 -34.768  22.844  1.00  0.00     0.093 A 
HETATM    8  C7  UNL     1     -16.796 -34.731  23.617  1.00  0.00     0.031 A 
HETATM    9  C8  UNL     1     -15.554 -34.434  23.036  1.00  0.00    -0.004 A 
HETATM   10  C19 UNL     1     -15.580 -34.200  21.702  1.00  0.00     0.038 A 
HETATM   11  C20 UNL     1     -16.748 -34.240  20.911  1.00  0.00     0.009 A 
HETATM   12  C21 UNL     1     -16.661 -33.965  19.455  1.00  0.00     0.068 C 
BRANCH   9  13
HETATM   13  C9  UNL     1     -14.378 -34.446  23.902  1.00  0.00     0.082 A 
HETATM   14  N2  UNL     1     -13.164 -34.973  23.545  1.00  0.00    -0.189 N 
HETATM   15  C10 UNL     1     -12.338 -34.843  24.588  1.00  0.00     0.684 A 
ATOM     16  H2  UNL     1     -12.932 -35.389  22.643  1.00  0.00     0.184 HD
HETATM   17  N5  UNL     1     -12.939 -34.263  25.608  1.00  0.00    -0.193 N 
HETATM   18  C17 UNL     1     -14.228 -34.007  25.193  1.00  0.00     0.051 A 
ATOM     19  H5  UNL     1     -12.533 -34.047  26.519  1.00  0.00     0.184 HD
HETATM   20  C18 UNL     1     -15.249 -33.375  26.068  1.00  0.00     0.071 C 
BRANCH  15  21
HETATM   21  N3  UNL     1     -11.099 -35.246  24.578  1.00  0.00    -0.179 N 
ATOM     22  H3  UNL     1     -10.379 -34.671  25.017  1.00  0.00     0.185 HD
BRANCH  21  23
HETATM   23  C11 UNL     1     -10.735 -36.475  23.963  1.00  0.00     0.115 C 
HETATM   24  N4  UNL     1      -9.761 -36.471  23.124  1.00  0.00    -0.387 N 
ATOM     25  H42 UNL     1      -9.287 -35.590  22.928  1.00  0.00     0.157 HD
ATOM     26  H41 UNL     1      -9.500 -37.353  22.683  1.00  0.00     0.157 HD
BRANCH  23  27
HETATM   27  C12 UNL     1     -11.423 -37.753  24.246  1.00  0.00     0.245 C 
BRANCH  27  28
HETATM   28  O1  UNL     1     -12.409 -37.975  23.311  1.00  0.00    -0.372 OA
BRANCH  28  29
HETATM   29  C13 UNL     1     -13.397 -38.845  23.770  1.00  0.00     0.261 C 
BRANCH  29  30
HETATM   30  C14 UNL     1     -14.301 -38.190  24.717  1.00  0.00    -0.081 C 
HETATM   31  C15 UNL     1     -15.049 -37.656  25.524  1.00  0.00    -0.109 C 
HETATM   32  C16 UNL     1     -15.961 -37.020  26.469  1.00  0.00     0.112 C 
ENDBRANCH  29  30
ENDBRANCH  28  29
ENDBRANCH  27  28
ENDBRANCH  23  27
ENDBRANCH  21  23
ENDBRANCH  15  21
ENDBRANCH   9  13
ENDBRANCH   5   6
ENDBRANCH   4   5
TORSDOF 9
ENDMDL
MODEL 5
REMARK VINA RESULT: -7.428395926      2.447      7.592
REMARK  9 active torsions:
REMARK  status: ('A' for Active; 'I' for Inactive)
REMARK    1  A    between atoms: C4_4  and  C5_5 
REMARK    2  A    between atoms: C5_5  and  N1_6 
REMARK    3  A    between atoms: C8_9  and  C9_10 
REMARK    4  A    between atoms: C10_13  and  N3_14 
REMARK    5  A    between atoms: N3_14  and  C11_16 
REMARK    6  A    between atoms: C11_16  and  C12_20 
REMARK    7  A    between atoms: C12_20  and  O1_21 
REMARK    8  A    between atoms: O1_21  and  C13_22 
REMARK    9  A    between atoms: C13_22  and  C14_23 
ROOT
HETATM    1  C1  UNL     1     -24.224 -28.651  25.024  1.00  0.00     0.027 C 
HETATM    2  C2  UNL     1     -24.165 -29.671  24.360  1.00  0.00    -0.026 C 
HETATM    3  C3  UNL     1     -24.102 -30.873  23.608  1.00  0.00    -0.014 C 
HETATM    4  C4  UNL     1     -24.068 -31.894  22.967  1.00  0.00    -0.072 C 
ENDROOT
BRANCH   4   5
HETATM    5  C5  UNL     1     -24.052 -33.137  22.195  1.00  0.00     0.223 C 
BRANCH   5   6
HETATM    6  N1  UNL     1     -22.729 -33.483  21.728  1.00  0.00    -0.350 N 
HETATM    7  C6  UNL     1     -21.769 -32.556  21.771  1.00  0.00     0.093 A 
HETATM    8  C7  UNL     1     -20.496 -32.803  21.349  1.00  0.00     0.031 A 
HETATM    9  C8  UNL     1     -20.157 -34.070  20.849  1.00  0.00    -0.004 A 
HETATM   10  C19 UNL     1     -21.166 -34.973  20.828  1.00  0.00     0.038 A 
HETATM   11  C20 UNL     1     -22.480 -34.707  21.267  1.00  0.00     0.009 A 
HETATM   12  C21 UNL     1     -23.510 -35.773  21.198  1.00  0.00     0.068 C 
BRANCH   9  13
HETATM   13  C9  UNL     1     -18.770 -34.293  20.448  1.00  0.00     0.082 A 
HETATM   14  N2  UNL     1     -17.840 -34.938  21.220  1.00  0.00    -0.189 N 
HETATM   15  C10 UNL     1     -16.679 -34.928  20.556  1.00  0.00     0.684 A 
ATOM     16  H2  UNL     1     -18.004 -35.352  22.138  1.00  0.00     0.184 HD
HETATM   17  N5  UNL     1     -16.794 -34.314  19.396  1.00  0.00    -0.193 N 
HETATM   18  C17 UNL     1     -18.107 -33.905  19.311  1.00  0.00     0.051 A 
ATOM     19  H5  UNL     1     -16.060 -34.172  18.701  1.00  0.00     0.184 HD
HETATM   20  C18 UNL     1     -18.645 -33.147  18.153  1.00  0.00     0.071 C 
BRANCH  15  21
HETATM   21  N3  UNL     1     -15.584 -35.463  21.017  1.00  0.00    -0.179 N 
ATOM     22  H3  UNL     1     -14.910 -35.869  20.367  1.00  0.00     0.185 HD
BRANCH  21  23
HETATM   23  C11 UNL     1     -15.314 -35.489  22.413  1.00  0.00     0.115 C 
HETATM   24  N4  UNL     1     -14.655 -34.510  22.924  1.00  0.00    -0.387 N 
ATOM     25  H42 UNL     1     -14.350 -33.753  22.312  1.00  0.00     0.157 HD
ATOM     26  H41 UNL     1     -14.461 -34.529  23.925  1.00  0.00     0.157 HD
BRANCH  23  27
HETATM   27  C12 UNL     1     -15.755 -36.588  23.300  1.00  0.00     0.245 C 
BRANCH  27  28
HETATM   28  O1  UNL     1     -17.016 -36.324  23.784  1.00  0.00    -0.372 OA
BRANCH  28  29
HETATM   29  C13 UNL     1     -17.115 -36.523  25.160  1.00  0.00     0.261 C 
BRANCH  29  30
HETATM   30  C14 UNL     1     -16.338 -35.534  25.909  1.00  0.00    -0.081 C 
HETATM   31  C15 UNL     1     -15.705 -34.703  26.546  1.00  0.00    -0.109 C 
HETATM   32  C16 UNL     1     -14.941 -33.702  27.284  1.00  0.00     0.112 C 
ENDBRANCH  29  30
ENDBRANCH  28  29
ENDBRANCH  27  28
ENDBRANCH  23  27
ENDBRANCH  21  23
ENDBRANCH  15  21
ENDBRANCH   9  13
ENDBRANCH   5   6
ENDBRANCH   4   5
TORSDOF 9
ENDMDL
