MODEL 1
REMARK VINA RESULT: -7.358930835      0.000      0.000
REMARK  7 active torsions:
REMARK  status: ('A' for Active; 'I' for Inactive)
REMARK    1  A    between atoms: C2_2  and  N1_5 
REMARK       I    between atoms: C5_7  and  N2_8 
REMARK       I    between atoms: C5_7  and  N4_19 
REMARK    2  A    between atoms: N2_8  and  C6_10 
REMARK    3  A    between atoms: C6_10  and  C7_11 
REMARK    4  A    between atoms: C8_12  and  C9_13 
REMARK    5  A    between atoms: C9_13  and  C10_14 
REMARK    6  A    between atoms: C10_14  and  N3_15 
REMARK       I    between atoms: N4_19  and  C14_21 
REMARK       I    between atoms: C14_21  and  N5_23 
REMARK    7  A    between atoms: N5_23  and  C15_25 
ROOT
HETATM    1  N1  UNL     1     -20.612 -35.345  20.362  1.00  0.00    -0.218 N 
ATOM      2  H1  UNL     1     -19.679 -35.708  20.171  1.00  0.00     0.178 HD
HETATM    3  C5  UNL     1     -20.645 -34.093  20.497  1.00  0.00     0.679 C 
HETATM    4  N2  UNL     1     -19.444 -33.353  20.376  1.00  0.00    -0.216 N 
ATOM      5  H2  UNL     1     -19.147 -32.758  21.150  1.00  0.00     0.178 HD
HETATM    6  N4  UNL     1     -21.841 -33.410  20.762  1.00  0.00    -0.141 N 
ATOM      7  H4  UNL     1     -22.686 -33.977  20.837  1.00  0.00     0.189 HD
HETATM    8  C14 UNL     1     -21.993 -32.019  20.934  1.00  0.00     0.339 C 
HETATM    9  O1  UNL     1     -20.995 -31.250  20.856  1.00  0.00    -0.246 OA
HETATM   10  N5  UNL     1     -23.275 -31.462  21.198  1.00  0.00    -0.308 N 
ATOM     11  H5  UNL     1     -23.820 -31.135  20.400  1.00  0.00     0.170 HD
ENDROOT
BRANCH   1  12
HETATM   12  C2  UNL     1     -21.604 -36.346  20.421  1.00  0.00     0.036 C 
HETATM   13  C1  UNL     1     -22.367 -36.399  21.718  1.00  0.00     0.038 C 
HETATM   14  C3  UNL     1     -22.610 -36.305  19.299  1.00  0.00     0.038 C 
HETATM   15  C4  UNL     1     -20.865 -37.697  20.306  1.00  0.00     0.038 C 
ENDBRANCH   1  12
BRANCH   4  16
HETATM   16  C6  UNL     1     -18.616 -33.417  19.170  1.00  0.00     0.232 C 
BRANCH  16  17
HETATM   17  C7  UNL     1     -19.321 -32.824  18.038  1.00  0.00    -0.086 C 
HETATM   18  C8  UNL     1     -19.890 -32.324  17.081  1.00  0.00    -0.103 C 
BRANCH  18  19
HETATM   19  C9  UNL     1     -20.548 -31.716  15.923  1.00  0.00     0.122 C 
BRANCH  19  20
HETATM   20  C10 UNL     1     -19.531 -31.613  14.812  1.00  0.00     0.248 C 
BRANCH  20  21
HETATM   21  N3  UNL     1     -19.901 -32.336  13.637  1.00  0.00    -0.078 N 
HETATM   22  C11 UNL     1     -21.338 -32.115  13.429  1.00  0.00     0.271 C 
HETATM   23  C12 UNL     1     -19.227 -31.865  12.438  1.00  0.00     0.271 C 
HETATM   24  C13 UNL     1     -19.704 -33.760  13.754  1.00  0.00     0.271 C 
ENDBRANCH  20  21
ENDBRANCH  19  20
ENDBRANCH  18  19
ENDBRANCH  16  17
ENDBRANCH   4  16
BRANCH  10  25
HETATM   25  C15 UNL     1     -23.793 -31.342  22.353  1.00  0.00     0.038 A 
HETATM   26  C16 UNL     1     -24.390 -32.382  23.034  1.00  0.00     0.046 A 
HETATM   27  C17 UNL     1     -24.932 -32.164  24.294  1.00  0.00     0.090 A 
HETATM   28  N6  UNL     1     -24.853 -30.938  24.804  1.00  0.00    -0.375 N 
HETATM   29  C18 UNL     1     -24.288 -29.909  24.180  1.00  0.00     0.090 A 
ATOM     30  H6  UNL     1     -25.251 -30.778  25.730  1.00  0.00     0.164 HD
HETATM   31  C19 UNL     1     -23.743 -30.087  22.939  1.00  0.00     0.046 A 
ENDBRANCH  10  25
TORSDOF 7
ENDMDL
MODEL 2
REMARK VINA RESULT: -7.324823230      3.775      6.996
REMARK  7 active torsions:
REMARK  status: ('A' for Active; 'I' for Inactive)
REMARK    1  A    between atoms: C2_2  and  N1_5 
REMARK       I    between atoms: C5_7  and  N2_8 
REMARK       I    between atoms: C5_7  and  N4_19 
REMARK    2  A    between atoms: N2_8  and  C6_10 
REMARK    3  A    between atoms: C6_10  and  C7_11 
REMARK    4  A    between atoms: C8_12  and  C9_13 
REMARK    5  A    between atoms: C9_13  and  C10_14 
REMARK    6  A    between atoms: C10_14  and  N3_15 
REMARK       I    between atoms: N4_19  and  C14_21 
REMARK       I    between atoms: C14_21  and  N5_23 
REMARK    7  A    between atoms: N5_23  and  C15_25 
ROOT
HETATM    1  N1  UNL     1     -18.788 -33.335  17.572  1.00  0.00    -0.218 N 
ATOM      2  H1  UNL     1     -18.126 -34.004  17.179  1.00  0.00     0.178 HD
HETATM    3  C5  UNL     1     -18.806 -33.328  18.832  1.00  0.00     0.679 C 
HETATM    4  N2  UNL     1     -17.950 -34.205  19.540  1.00  0.00    -0.216 N 
ATOM      5  H2  UNL     1     -18.355 -34.865  20.204  1.00  0.00     0.178 HD
HETATM    6  N4  UNL     1     -19.651 -32.471  19.553  1.00  0.00    -0.141 N 
ATOM      7  H4  UNL     1     -20.249 -31.851  19.007  1.00  0.00     0.189 HD
HETATM    8  C14 UNL     1     -19.755 -32.383  20.956  1.00  0.00     0.339 C 
HETATM    9  O1  UNL     1     -19.049 -33.117  21.700  1.00  0.00    -0.246 OA
HETATM   10  N5  UNL     1     -20.660 -31.461  21.553  1.00  0.00    -0.308 N 
ATOM     11  H5  UNL     1     -20.297 -30.542  21.807  1.00  0.00     0.170 HD
ENDROOT
BRANCH   1  12
HETATM   12  C2  UNL     1     -19.495 -32.605  16.594  1.00  0.00     0.036 C 
HETATM   13  C1  UNL     1     -20.818 -32.053  17.058  1.00  0.00     0.038 C 
HETATM   14  C3  UNL     1     -18.721 -31.472  15.969  1.00  0.00     0.038 C 
HETATM   15  C4  UNL     1     -19.822 -33.600  15.461  1.00  0.00     0.038 C 
ENDBRANCH   1  12
BRANCH   4  16
HETATM   16  C6  UNL     1     -16.498 -34.191  19.346  1.00  0.00     0.232 C 
BRANCH  16  17
HETATM   17  C7  UNL     1     -15.813 -34.245  20.633  1.00  0.00    -0.086 C 
HETATM   18  C8  UNL     1     -15.259 -34.299  21.720  1.00  0.00    -0.103 C 
BRANCH  18  19
HETATM   19  C9  UNL     1     -14.619 -34.369  23.034  1.00  0.00     0.122 C 
BRANCH  19  20
HETATM   20  C10 UNL     1     -15.702 -34.289  24.083  1.00  0.00     0.248 C 
BRANCH  20  21
HETATM   21  N3  UNL     1     -15.240 -34.600  25.398  1.00  0.00    -0.078 N 
HETATM   22  C11 UNL     1     -13.974 -35.328  25.249  1.00  0.00     0.271 C 
HETATM   23  C12 UNL     1     -14.954 -33.420  26.199  1.00  0.00     0.271 C 
HETATM   24  C13 UNL     1     -16.139 -35.456  26.133  1.00  0.00     0.271 C 
ENDBRANCH  20  21
ENDBRANCH  19  20
ENDBRANCH  18  19
ENDBRANCH  16  17
ENDBRANCH   4  16
BRANCH  10  25
HETATM   25  C15 UNL     1     -21.886 -31.696  21.794  1.00  0.00     0.038 A 
HETATM   26  C16 UNL     1     -22.447 -32.955  21.735  1.00  0.00     0.046 A 
HETATM   27  C17 UNL     1     -23.797 -33.125  22.014  1.00  0.00     0.090 A 
HETATM   28  N6  UNL     1     -24.509 -32.047  22.332  1.00  0.00    -0.375 N 
HETATM   29  C18 UNL     1     -24.006 -30.819  22.398  1.00  0.00     0.090 A 
ATOM     30  H6  UNL     1     -25.501 -32.172  22.538  1.00  0.00     0.164 HD
HETATM   31  C19 UNL     1     -22.682 -30.614  22.132  1.00  0.00     0.046 A 
ENDBRANCH  10  25
TORSDOF 7
ENDMDL
MODEL 3
REMARK VINA RESULT: -7.198215761      3.976      6.553
REMARK  7 active torsions:
REMARK  status: ('A' for Active; 'I' for Inactive)
REMARK    1  A    between atoms: C2_2  and  N1_5 
REMARK       I    between atoms: C5_7  and  N2_8 
REMARK       I    between atoms: C5_7  and  N4_19 
REMARK    2  A    between atoms: N2_8  and  C6_10 
REMARK    3  A    between atoms: C6_10  and  C7_11 
REMARK    4  A    between atoms: C8_12  and  C9_13 
REMARK    5  A    between atoms: C9_13  and  C10_14 
REMARK    6  A    between atoms: C10_14  and  N3_15 
REMARK       I    between atoms: N4_19  and  C14_21 
REMARK       I    between atoms: C14_21  and  N5_23 
REMARK    7  A    between atoms: N5_23  and  C15_25 
ROOT
HETATM    1  N1  UNL     1     -21.235 -36.609  20.954  1.00  0.00    -0.218 N 
ATOM      2  H1  UNL     1     -20.513 -37.323  21.047  1.00  0.00     0.178 HD
HETATM    3  C5  UNL     1     -20.869 -35.471  21.351  1.00  0.00     0.679 C 
HETATM    4  N2  UNL     1     -19.559 -35.305  21.860  1.00  0.00    -0.216 N 
ATOM      5  H2  UNL     1     -19.436 -34.936  22.803  1.00  0.00     0.178 HD
HETATM    6  N4  UNL     1     -21.725 -34.361  21.300  1.00  0.00    -0.141 N 
ATOM      7  H4  UNL     1     -22.660 -34.519  20.922  1.00  0.00     0.189 HD
HETATM    8  C14 UNL     1     -21.423 -33.049  21.718  1.00  0.00     0.339 C 
HETATM    9  O1  UNL     1     -20.289 -32.773  22.196  1.00  0.00    -0.246 OA
HETATM   10  N5  UNL     1     -22.396 -32.017  21.604  1.00  0.00    -0.308 N 
ATOM     11  H5  UNL     1     -22.380 -31.446  20.759  1.00  0.00     0.170 HD
ENDROOT
BRANCH   1  12
HETATM   12  C2  UNL     1     -22.440 -37.097  20.407  1.00  0.00     0.036 C 
HETATM   13  C1  UNL     1     -23.674 -36.750  21.197  1.00  0.00     0.038 C 
HETATM   14  C3  UNL     1     -22.688 -36.703  18.973  1.00  0.00     0.038 C 
HETATM   15  C4  UNL     1     -22.337 -38.637  20.433  1.00  0.00     0.038 C 
ENDBRANCH   1  12
BRANCH   4  16
HETATM   16  C6  UNL     1     -18.375 -35.648  21.070  1.00  0.00     0.232 C 
BRANCH  16  17
HETATM   17  C7  UNL     1     -17.159 -35.284  21.792  1.00  0.00    -0.086 C 
HETATM   18  C8  UNL     1     -16.156 -34.976  22.414  1.00  0.00    -0.103 C 
BRANCH  18  19
HETATM   19  C9  UNL     1     -14.968 -34.598  23.181  1.00  0.00     0.122 C 
BRANCH  19  20
HETATM   20  C10 UNL     1     -15.425 -34.124  24.541  1.00  0.00     0.248 C 
BRANCH  20  21
HETATM   21  N3  UNL     1     -14.531 -34.484  25.595  1.00  0.00    -0.078 N 
HETATM   22  C11 UNL     1     -14.889 -33.666  26.761  1.00  0.00     0.271 C 
HETATM   23  C12 UNL     1     -14.658 -35.874  26.004  1.00  0.00     0.271 C 
HETATM   24  C13 UNL     1     -13.148 -34.211  25.293  1.00  0.00     0.271 C 
ENDBRANCH  20  21
ENDBRANCH  19  20
ENDBRANCH  18  19
ENDBRANCH  16  17
ENDBRANCH   4  16
BRANCH  10  25
HETATM   25  C15 UNL     1     -23.281 -31.752  22.477  1.00  0.00     0.038 A 
HETATM   26  C16 UNL     1     -24.098 -32.705  23.050  1.00  0.00     0.046 A 
HETATM   27  C17 UNL     1     -25.041 -32.330  23.997  1.00  0.00     0.090 A 
HETATM   28  N6  UNL     1     -25.122 -31.042  24.322  1.00  0.00    -0.375 N 
HETATM   29  C18 UNL     1     -24.356 -30.094  23.793  1.00  0.00     0.090 A 
ATOM     30  H6  UNL     1     -25.815 -30.766  25.018  1.00  0.00     0.164 HD
HETATM   31  C19 UNL     1     -23.416 -30.426  22.858  1.00  0.00     0.046 A 
ENDBRANCH  10  25
TORSDOF 7
ENDMDL
MODEL 4
REMARK VINA RESULT: -7.167933288      0.770      1.127
REMARK  7 active torsions:
REMARK  status: ('A' for Active; 'I' for Inactive)
REMARK    1  A    between atoms: C2_2  and  N1_5 
REMARK       I    between atoms: C5_7  and  N2_8 
REMARK       I    between atoms: C5_7  and  N4_19 
REMARK    2  A    between atoms: N2_8  and  C6_10 
REMARK    3  A    between atoms: C6_10  and  C7_11 
REMARK    4  A    between atoms: C8_12  and  C9_13 
REMARK    5  A    between atoms: C9_13  and  C10_14 
REMARK    6  A    between atoms: C10_14  and  N3_15 
REMARK       I    between atoms: N4_19  and  C14_21 
REMARK       I    between atoms: C14_21  and  N5_23 
REMARK    7  A    between atoms: N5_23  and  C15_25 
ROOT
HETATM    1  N1  UNL     1     -20.898 -36.073  20.615  1.00  0.00    -0.218 N 
ATOM      2  H1  UNL     1     -20.033 -36.611  20.564  1.00  0.00     0.178 HD
HETATM    3  C5  UNL     1     -20.713 -34.845  20.830  1.00  0.00     0.679 C 
HETATM    4  N2  UNL     1     -19.391 -34.360  20.971  1.00  0.00    -0.216 N 
ATOM      5  H2  UNL     1     -19.133 -33.865  21.825  1.00  0.00     0.178 HD
HETATM    6  N4  UNL     1     -21.784 -33.944  20.929  1.00  0.00    -0.141 N 
ATOM      7  H4  UNL     1     -22.721 -34.331  20.817  1.00  0.00     0.189 HD
HETATM    8  C14 UNL     1     -21.693 -32.558  21.170  1.00  0.00     0.339 C 
HETATM    9  O1  UNL     1     -20.569 -32.005  21.320  1.00  0.00    -0.246 OA
HETATM   10  N5  UNL     1     -22.870 -31.763  21.245  1.00  0.00    -0.308 N 
ATOM     11  H5  UNL     1     -23.185 -31.306  20.390  1.00  0.00     0.170 HD
ENDROOT
BRANCH   1  12
HETATM   12  C2  UNL     1     -22.057 -36.855  20.430  1.00  0.00     0.036 C 
HETATM   13  C1  UNL     1     -23.120 -36.660  21.480  1.00  0.00     0.038 C 
HETATM   14  C3  UNL     1     -22.713 -36.703  19.081  1.00  0.00     0.038 C 
HETATM   15  C4  UNL     1     -21.611 -38.328  20.544  1.00  0.00     0.038 C 
ENDBRANCH   1  12
BRANCH   4  16
HETATM   16  C6  UNL     1     -18.383 -34.550  19.926  1.00  0.00     0.232 C 
BRANCH  16  17
HETATM   17  C7  UNL     1     -18.705 -33.737  18.757  1.00  0.00    -0.086 C 
HETATM   18  C8  UNL     1     -18.962 -33.040  17.788  1.00  0.00    -0.103 C 
BRANCH  18  19
HETATM   19  C9  UNL     1     -19.261 -32.183  16.640  1.00  0.00     0.122 C 
BRANCH  19  20
HETATM   20  C10 UNL     1     -19.934 -33.033  15.589  1.00  0.00     0.248 C 
BRANCH  20  21
HETATM   21  N3  UNL     1     -19.904 -32.450  14.285  1.00  0.00    -0.078 N 
HETATM   22  C11 UNL     1     -19.147 -31.196  14.391  1.00  0.00     0.271 C 
HETATM   23  C12 UNL     1     -19.215 -33.274  13.304  1.00  0.00     0.271 C 
HETATM   24  C13 UNL     1     -21.211 -32.115  13.776  1.00  0.00     0.271 C 
ENDBRANCH  20  21
ENDBRANCH  19  20
ENDBRANCH  18  19
ENDBRANCH  16  17
ENDBRANCH   4  16
BRANCH  10  25
HETATM   25  C15 UNL     1     -23.559 -31.580  22.298  1.00  0.00     0.038 A 
HETATM   26  C16 UNL     1     -24.288 -32.575  22.916  1.00  0.00     0.046 A 
HETATM   27  C17 UNL     1     -25.014 -32.289  24.065  1.00  0.00     0.090 A 
HETATM   28  N6  UNL     1     -24.978 -31.044  24.533  1.00  0.00    -0.375 N 
HETATM   29  C18 UNL     1     -24.290 -30.058  23.966  1.00  0.00     0.090 A 
ATOM     30  H6  UNL     1     -25.511 -30.834  25.377  1.00  0.00     0.164 HD
HETATM   31  C19 UNL     1     -23.563 -30.302  22.836  1.00  0.00     0.046 A 
ENDBRANCH  10  25
TORSDOF 7
ENDMDL
MODEL 5
REMARK VINA RESULT: -7.108009320      1.358      2.006
REMARK  7 active torsions:
REMARK  status: ('A' for Active; 'I' for Inactive)
REMARK    1  A    between atoms: C2_2  and  N1_5 
REMARK       I    between atoms: C5_7  and  N2_8 
REMARK       I    between atoms: C5_7  and  N4_19 
REMARK    2  A    between atoms: N2_8  and  C6_10 
REMARK    3  A    between atoms: C6_10  and  C7_11 
REMARK    4  A    between atoms: C8_12  and  C9_13 
REMARK    5  A    between atoms: C9_13  and  C10_14 
REMARK    6  A    between atoms: C10_14  and  N3_15 
REMARK       I    between atoms: N4_19  and  C14_21 
REMARK       I    between atoms: C14_21  and  N5_23 
REMARK    7  A    between atoms: N5_23  and  C15_25 
ROOT
HETATM    1  N1  UNL     1     -21.170 -36.525  20.963  1.00  0.00    -0.218 N 
ATOM      2  H1  UNL     1     -20.421 -37.213  21.039  1.00  0.00     0.178 HD
HETATM    3  C5  UNL     1     -20.825 -35.367  21.319  1.00  0.00     0.679 C 
HETATM    4  N2  UNL     1     -19.499 -35.147  21.766  1.00  0.00    -0.216 N 
ATOM      5  H2  UNL     1     -19.347 -34.753  22.695  1.00  0.00     0.178 HD
HETATM    6  N4  UNL     1     -21.718 -34.286  21.282  1.00  0.00    -0.141 N 
ATOM      7  H4  UNL     1     -22.663 -34.483  20.950  1.00  0.00     0.189 HD
HETATM    8  C14 UNL     1     -21.442 -32.956  21.659  1.00  0.00     0.339 C 
HETATM    9  O1  UNL     1     -20.297 -32.633  22.080  1.00  0.00    -0.246 OA
HETATM   10  N5  UNL     1     -22.451 -31.958  21.567  1.00  0.00    -0.308 N 
ATOM     11  H5  UNL     1     -22.492 -31.407  20.710  1.00  0.00     0.170 HD
ENDROOT
BRANCH   1  12
HETATM   12  C2  UNL     1     -22.380 -37.063  20.481  1.00  0.00     0.036 C 
HETATM   13  C1  UNL     1     -23.605 -36.648  21.254  1.00  0.00     0.038 C 
HETATM   14  C3  UNL     1     -22.650 -36.803  19.021  1.00  0.00     0.038 C 
HETATM   15  C4  UNL     1     -22.272 -38.594  20.646  1.00  0.00     0.038 C 
ENDBRANCH   1  12
BRANCH   4  16
HETATM   16  C6  UNL     1     -18.340 -35.470  20.931  1.00  0.00     0.232 C 
BRANCH  16  17
HETATM   17  C7  UNL     1     -18.291 -34.590  19.768  1.00  0.00    -0.086 C 
HETATM   18  C8  UNL     1     -18.238 -33.869  18.784  1.00  0.00    -0.103 C 
BRANCH  18  19
HETATM   19  C9  UNL     1     -18.157 -33.023  17.593  1.00  0.00     0.122 C 
BRANCH  19  20
HETATM   20  C10 UNL     1     -19.335 -33.353  16.707  1.00  0.00     0.248 C 
BRANCH  20  21
HETATM   21  N3  UNL     1     -19.840 -32.223  15.994  1.00  0.00    -0.078 N 
HETATM   22  C11 UNL     1     -18.720 -31.291  15.812  1.00  0.00     0.271 C 
HETATM   23  C12 UNL     1     -20.328 -32.556  14.665  1.00  0.00     0.271 C 
HETATM   24  C13 UNL     1     -20.874 -31.511  16.705  1.00  0.00     0.271 C 
ENDBRANCH  20  21
ENDBRANCH  19  20
ENDBRANCH  18  19
ENDBRANCH  16  17
ENDBRANCH   4  16
BRANCH  10  25
HETATM   25  C15 UNL     1     -23.306 -31.702  22.472  1.00  0.00     0.038 A 
HETATM   26  C16 UNL     1     -24.122 -32.656  23.045  1.00  0.00     0.046 A 
HETATM   27  C17 UNL     1     -25.030 -32.291  24.029  1.00  0.00     0.090 A 
HETATM   28  N6  UNL     1     -25.080 -31.011  24.389  1.00  0.00    -0.375 N 
HETATM   29  C18 UNL     1     -24.313 -30.062  23.861  1.00  0.00     0.090 A 
ATOM     30  H6  UNL     1     -25.747 -30.742  25.113  1.00  0.00     0.164 HD
HETATM   31  C19 UNL     1     -23.407 -30.384  22.891  1.00  0.00     0.046 A 
ENDBRANCH  10  25
TORSDOF 7
ENDMDL
