MODEL 1
REMARK VINA RESULT: -8.028763071      0.000      0.000
REMARK  6 active torsions:
REMARK  status: ('A' for Active; 'I' for Inactive)
REMARK    1  A    between atoms: C2_2  and  C3_3 
REMARK    2  A    between atoms: C5_9  and  N3_10 
REMARK    3  A    between atoms: N3_10  and  C6_12 
REMARK    4  A    between atoms: C6_12  and  C8_14 
REMARK    5  A    between atoms: C8_14  and  N4_15 
REMARK    6  A    between atoms: C8_14  and  C12_22 
REMARK       I    between atoms: N4_15  and  C9_17 
REMARK       I    between atoms: C9_17  and  N5_19 
ROOT
HETATM    1  N3  UNL     1     -18.826 -34.613  21.895  1.00  0.00    -0.368 N 
ATOM      2  H3  UNL     1     -19.539 -35.342  21.854  1.00  0.00     0.161 HD
ENDROOT
BRANCH   1   3
HETATM    3  C5  UNL     1     -18.142 -34.726  22.913  1.00  0.00     0.129 A 
HETATM    4  N2  UNL     1     -18.657 -34.990  24.181  1.00  0.00    -0.284 N 
HETATM    5  N1  UNL     1     -17.697 -35.056  25.057  1.00  0.00    -0.296 N 
ATOM      6  H2  UNL     1     -19.648 -35.115  24.392  1.00  0.00     0.188 HD
HETATM    7  C4  UNL     1     -16.499 -34.850  24.483  1.00  0.00     0.084 A 
ATOM      8  H1  UNL     1     -17.836 -35.240  26.051  1.00  0.00     0.187 HD
HETATM    9  C3  UNL     1     -15.222 -34.829  25.009  1.00  0.00     0.040 A 
HETATM   10  C16 UNL     1     -16.769 -34.642  23.134  1.00  0.00     0.040 A 
HETATM   11  N6  UNL     1     -14.217 -34.595  24.163  1.00  0.00    -0.362 N 
HETATM   12  C18 UNL     1     -14.419 -34.386  22.848  1.00  0.00     0.091 A 
HETATM   13  C19 UNL     1     -12.874 -34.562  24.663  1.00  0.00     0.155 C 
HETATM   14  C17 UNL     1     -15.689 -34.409  22.328  1.00  0.00     0.035 A 
BRANCH   9  15
HETATM   15  C2  UNL     1     -15.010 -35.057  26.441  1.00  0.00     0.055 C 
HETATM   16  C1  UNL     1     -15.063 -33.768  27.246  1.00  0.00     0.011 C 
ENDBRANCH   9  15
ENDBRANCH   1   3
BRANCH   1  17
HETATM   17  C6  UNL     1     -18.904 -33.801  20.816  1.00  0.00     0.102 C 
HETATM   18  C7  UNL     1     -18.678 -32.344  21.286  1.00  0.00     0.034 C 
BRANCH  17  19
HETATM   19  C8  UNL     1     -20.176 -33.851  19.977  1.00  0.00     0.115 C 
BRANCH  19  20
HETATM   20  N4  UNL     1     -21.103 -33.015  20.677  1.00  0.00    -0.336 N 
HETATM   21  C9  UNL     1     -22.174 -33.161  21.507  1.00  0.00     0.318 C 
HETATM   22  O1  UNL     1     -22.671 -34.220  21.887  1.00  0.00    -0.247 OA
HETATM   23  N5  UNL     1     -22.831 -31.979  22.024  1.00  0.00    -0.343 N 
HETATM   24  C10 UNL     1     -23.966 -32.100  22.903  1.00  0.00     0.154 C 
HETATM   25  C11 UNL     1     -22.367 -30.654  21.673  1.00  0.00     0.154 C 
ATOM     26  H4  UNL     1     -20.906 -32.029  20.506  1.00  0.00     0.164 HD
ENDBRANCH  19  20
BRANCH  19  27
HETATM   27  C12 UNL     1     -19.971 -33.655  18.533  1.00  0.00    -0.029 C 
HETATM   28  C13 UNL     1     -20.760 -32.448  18.071  1.00  0.00     0.016 C 
HETATM   29  C14 UNL     1     -20.541 -34.842  17.775  1.00  0.00     0.016 C 
HETATM   30  C15 UNL     1     -18.560 -33.475  18.077  1.00  0.00     0.016 C 
ENDBRANCH  19  27
ENDBRANCH  17  19
ENDBRANCH   1  17
TORSDOF 6
ENDMDL
MODEL 2
REMARK VINA RESULT: -7.887568801      1.244      1.808
REMARK  6 active torsions:
REMARK  status: ('A' for Active; 'I' for Inactive)
REMARK    1  A    between atoms: C2_2  and  C3_3 
REMARK    2  A    between atoms: C5_9  and  N3_10 
REMARK    3  A    between atoms: N3_10  and  C6_12 
REMARK    4  A    between atoms: C6_12  and  C8_14 
REMARK    5  A    between atoms: C8_14  and  N4_15 
REMARK    6  A    between atoms: C8_14  and  C12_22 
REMARK       I    between atoms: N4_15  and  C9_17 
REMARK       I    between atoms: C9_17  and  N5_19 
ROOT
HETATM    1  N3  UNL     1     -18.743 -34.587  21.374  1.00  0.00    -0.368 N 
ATOM      2  H3  UNL     1     -18.292 -35.189  20.685  1.00  0.00     0.161 HD
ENDROOT
BRANCH   1   3
HETATM    3  C5  UNL     1     -18.194 -34.689  22.472  1.00  0.00     0.129 A 
HETATM    4  N2  UNL     1     -18.868 -34.919  23.669  1.00  0.00    -0.284 N 
HETATM    5  N1  UNL     1     -18.027 -34.982  24.661  1.00  0.00    -0.296 N 
ATOM      6  H2  UNL     1     -19.880 -35.023  23.757  1.00  0.00     0.188 HD
HETATM    7  C4  UNL     1     -16.763 -34.806  24.237  1.00  0.00     0.084 A 
ATOM      8  H1  UNL     1     -18.293 -35.142  25.632  1.00  0.00     0.187 HD
HETATM    9  C3  UNL     1     -15.561 -34.794  24.919  1.00  0.00     0.040 A 
HETATM   10  C16 UNL     1     -16.859 -34.622  22.862  1.00  0.00     0.040 A 
HETATM   11  N6  UNL     1     -14.455 -34.594  24.202  1.00  0.00    -0.362 N 
HETATM   12  C18 UNL     1     -14.486 -34.410  22.869  1.00  0.00     0.091 A 
HETATM   13  C19 UNL     1     -13.185 -34.571  24.866  1.00  0.00     0.155 C 
HETATM   14  C17 UNL     1     -15.681 -34.423  22.193  1.00  0.00     0.035 A 
BRANCH   9  15
HETATM   15  C2  UNL     1     -15.534 -34.995  26.370  1.00  0.00     0.055 C 
HETATM   16  C1  UNL     1     -15.186 -33.722  27.125  1.00  0.00     0.011 C 
ENDBRANCH   9  15
ENDBRANCH   1   3
BRANCH   1  17
HETATM   17  C6  UNL     1     -19.774 -33.907  20.820  1.00  0.00     0.102 C 
HETATM   18  C7  UNL     1     -19.555 -32.397  21.080  1.00  0.00     0.034 C 
BRANCH  17  19
HETATM   19  C8  UNL     1     -21.187 -34.277  21.256  1.00  0.00     0.115 C 
BRANCH  19  20
HETATM   20  N4  UNL     1     -21.830 -33.022  21.498  1.00  0.00    -0.336 N 
HETATM   21  C9  UNL     1     -22.809 -32.521  22.303  1.00  0.00     0.318 C 
HETATM   22  O1  UNL     1     -23.478 -33.148  23.125  1.00  0.00    -0.247 OA
HETATM   23  N5  UNL     1     -23.136 -31.113  22.224  1.00  0.00    -0.343 N 
HETATM   24  C10 UNL     1     -24.167 -30.555  23.062  1.00  0.00     0.154 C 
HETATM   25  C11 UNL     1     -22.440 -30.236  21.307  1.00  0.00     0.154 C 
ATOM     26  H4  UNL     1     -21.446 -32.293  20.896  1.00  0.00     0.164 HD
ENDBRANCH  19  20
BRANCH  19  27
HETATM   27  C12 UNL     1     -21.851 -35.280  20.409  1.00  0.00    -0.029 C 
HETATM   28  C13 UNL     1     -21.538 -36.667  20.931  1.00  0.00     0.016 C 
HETATM   29  C14 UNL     1     -21.271 -35.222  19.006  1.00  0.00     0.016 C 
HETATM   30  C15 UNL     1     -23.334 -35.169  20.279  1.00  0.00     0.016 C 
ENDBRANCH  19  27
ENDBRANCH  17  19
ENDBRANCH   1  17
TORSDOF 6
ENDMDL
MODEL 3
REMARK VINA RESULT: -7.729511268      1.649      2.320
REMARK  6 active torsions:
REMARK  status: ('A' for Active; 'I' for Inactive)
REMARK    1  A    between atoms: C2_2  and  C3_3 
REMARK    2  A    between atoms: C5_9  and  N3_10 
REMARK    3  A    between atoms: N3_10  and  C6_12 
REMARK    4  A    between atoms: C6_12  and  C8_14 
REMARK    5  A    between atoms: C8_14  and  N4_15 
REMARK    6  A    between atoms: C8_14  and  C12_22 
REMARK       I    between atoms: N4_15  and  C9_17 
REMARK       I    between atoms: C9_17  and  N5_19 
ROOT
HETATM    1  N3  UNL     1     -18.699 -34.870  21.519  1.00  0.00    -0.368 N 
ATOM      2  H3  UNL     1     -17.979 -35.181  20.867  1.00  0.00     0.161 HD
ENDROOT
BRANCH   1   3
HETATM    3  C5  UNL     1     -18.480 -35.301  22.652  1.00  0.00     0.129 A 
HETATM    4  N2  UNL     1     -19.210 -36.320  23.260  1.00  0.00    -0.284 N 
HETATM    5  N1  UNL     1     -18.749 -36.563  24.452  1.00  0.00    -0.296 N 
ATOM      6  H2  UNL     1     -19.997 -36.808  22.830  1.00  0.00     0.188 HD
HETATM    7  C4  UNL     1     -17.709 -35.761  24.744  1.00  0.00     0.084 A 
ATOM      8  H1  UNL     1     -19.126 -37.269  25.084  1.00  0.00     0.187 HD
HETATM    9  C3  UNL     1     -16.915 -35.662  25.870  1.00  0.00     0.040 A 
HETATM   10  C16 UNL     1     -17.533 -34.965  23.616  1.00  0.00     0.040 A 
HETATM   11  N6  UNL     1     -15.942 -34.750  25.852  1.00  0.00    -0.362 N 
HETATM   12  C18 UNL     1     -15.724 -33.952  24.790  1.00  0.00     0.091 A 
HETATM   13  C19 UNL     1     -15.094 -34.609  26.999  1.00  0.00     0.155 C 
HETATM   14  C17 UNL     1     -16.513 -34.053  23.672  1.00  0.00     0.035 A 
BRANCH   9  15
HETATM   15  C2  UNL     1     -17.157 -36.534  27.022  1.00  0.00     0.055 C 
HETATM   16  C1  UNL     1     -16.596 -37.932  26.818  1.00  0.00     0.011 C 
ENDBRANCH   9  15
ENDBRANCH   1   3
BRANCH   1  17
HETATM   17  C6  UNL     1     -19.620 -34.102  20.892  1.00  0.00     0.102 C 
HETATM   18  C7  UNL     1     -19.359 -32.624  21.269  1.00  0.00     0.034 C 
BRANCH  17  19
HETATM   19  C8  UNL     1     -21.092 -34.415  21.135  1.00  0.00     0.115 C 
BRANCH  19  20
HETATM   20  N4  UNL     1     -21.688 -33.147  21.425  1.00  0.00    -0.336 N 
HETATM   21  C9  UNL     1     -22.668 -32.645  22.227  1.00  0.00     0.318 C 
HETATM   22  O1  UNL     1     -23.387 -33.282  22.997  1.00  0.00    -0.247 OA
HETATM   23  N5  UNL     1     -22.932 -31.221  22.213  1.00  0.00    -0.343 N 
HETATM   24  C10 UNL     1     -23.962 -30.661  23.050  1.00  0.00     0.154 C 
HETATM   25  C11 UNL     1     -22.171 -30.331  21.363  1.00  0.00     0.154 C 
ATOM     26  H4  UNL     1     -21.255 -32.406  20.873  1.00  0.00     0.164 HD
ENDBRANCH  19  20
BRANCH  19  27
HETATM   27  C12 UNL     1     -21.710 -35.294  20.130  1.00  0.00    -0.029 C 
HETATM   28  C13 UNL     1     -21.257 -36.721  20.361  1.00  0.00     0.016 C 
HETATM   29  C14 UNL     1     -21.207 -34.915  18.748  1.00  0.00     0.016 C 
HETATM   30  C15 UNL     1     -23.203 -35.297  20.072  1.00  0.00     0.016 C 
ENDBRANCH  19  27
ENDBRANCH  17  19
ENDBRANCH   1  17
TORSDOF 6
ENDMDL
MODEL 4
REMARK VINA RESULT: -7.481533589      1.587      2.557
REMARK  6 active torsions:
REMARK  status: ('A' for Active; 'I' for Inactive)
REMARK    1  A    between atoms: C2_2  and  C3_3 
REMARK    2  A    between atoms: C5_9  and  N3_10 
REMARK    3  A    between atoms: N3_10  and  C6_12 
REMARK    4  A    between atoms: C6_12  and  C8_14 
REMARK    5  A    between atoms: C8_14  and  N4_15 
REMARK    6  A    between atoms: C8_14  and  C12_22 
REMARK       I    between atoms: N4_15  and  C9_17 
REMARK       I    between atoms: C9_17  and  N5_19 
ROOT
HETATM    1  N3  UNL     1     -18.137 -33.571  22.030  1.00  0.00    -0.368 N 
ATOM      2  H3  UNL     1     -18.515 -32.894  22.694  1.00  0.00     0.161 HD
ENDROOT
BRANCH   1   3
HETATM    3  C5  UNL     1     -16.999 -33.914  22.353  1.00  0.00     0.129 A 
HETATM    4  N2  UNL     1     -15.892 -33.853  21.509  1.00  0.00    -0.284 N 
HETATM    5  N1  UNL     1     -14.827 -34.278  22.124  1.00  0.00    -0.296 N 
ATOM      6  H2  UNL     1     -15.914 -33.522  20.543  1.00  0.00     0.188 HD
HETATM    7  C4  UNL     1     -15.109 -34.649  23.386  1.00  0.00     0.084 A 
ATOM      8  H1  UNL     1     -13.899 -34.325  21.704  1.00  0.00     0.187 HD
HETATM    9  C3  UNL     1     -14.310 -35.151  24.394  1.00  0.00     0.040 A 
HETATM   10  C16 UNL     1     -16.473 -34.422  23.538  1.00  0.00     0.040 A 
HETATM   11  N6  UNL     1     -14.897 -35.424  25.559  1.00  0.00    -0.362 N 
HETATM   12  C18 UNL     1     -16.213 -35.226  25.765  1.00  0.00     0.091 A 
HETATM   13  C19 UNL     1     -14.109 -35.949  26.635  1.00  0.00     0.155 C 
HETATM   14  C17 UNL     1     -17.005 -34.726  24.762  1.00  0.00     0.035 A 
BRANCH   9  15
HETATM   15  C2  UNL     1     -12.878 -35.364  24.164  1.00  0.00     0.055 C 
HETATM   16  C1  UNL     1     -12.052 -34.126  24.472  1.00  0.00     0.011 C 
ENDBRANCH   9  15
ENDBRANCH   1   3
BRANCH   1  17
HETATM   17  C6  UNL     1     -19.031 -33.835  21.049  1.00  0.00     0.102 C 
HETATM   18  C7  UNL     1     -19.213 -32.554  20.200  1.00  0.00     0.034 C 
BRANCH  17  19
HETATM   19  C8  UNL     1     -20.407 -34.349  21.458  1.00  0.00     0.115 C 
BRANCH  19  20
HETATM   20  N4  UNL     1     -21.213 -33.172  21.572  1.00  0.00    -0.336 N 
HETATM   21  C9  UNL     1     -22.382 -32.795  22.161  1.00  0.00     0.318 C 
HETATM   22  O1  UNL     1     -23.136 -33.509  22.823  1.00  0.00    -0.247 OA
HETATM   23  N5  UNL     1     -22.831 -31.425  22.027  1.00  0.00    -0.343 N 
HETATM   24  C10 UNL     1     -24.063 -30.997  22.638  1.00  0.00     0.154 C 
HETATM   25  C11 UNL     1     -22.056 -30.457  21.280  1.00  0.00     0.154 C 
ATOM     26  H4  UNL     1     -20.791 -32.391  21.068  1.00  0.00     0.164 HD
ENDBRANCH  19  20
BRANCH  19  27
HETATM   27  C12 UNL     1     -20.898 -35.491  20.672  1.00  0.00    -0.029 C 
HETATM   28  C13 UNL     1     -21.654 -36.440  21.578  1.00  0.00     0.016 C 
HETATM   29  C14 UNL     1     -19.717 -36.281  20.133  1.00  0.00     0.016 C 
HETATM   30  C15 UNL     1     -21.783 -35.172  19.512  1.00  0.00     0.016 C 
ENDBRANCH  19  27
ENDBRANCH  17  19
ENDBRANCH   1  17
TORSDOF 6
ENDMDL
MODEL 5
REMARK VINA RESULT: -7.404048876      4.649      6.950
REMARK  6 active torsions:
REMARK  status: ('A' for Active; 'I' for Inactive)
REMARK    1  A    between atoms: C2_2  and  C3_3 
REMARK    2  A    between atoms: C5_9  and  N3_10 
REMARK    3  A    between atoms: N3_10  and  C6_12 
REMARK    4  A    between atoms: C6_12  and  C8_14 
REMARK    5  A    between atoms: C8_14  and  N4_15 
REMARK    6  A    between atoms: C8_14  and  C12_22 
REMARK       I    between atoms: N4_15  and  C9_17 
REMARK       I    between atoms: C9_17  and  N5_19 
ROOT
HETATM    1  N3  UNL     1     -20.128 -32.118  20.184  1.00  0.00    -0.368 N 
ATOM      2  H3  UNL     1     -19.417 -31.456  19.873  1.00  0.00     0.161 HD
ENDROOT
BRANCH   1   3
HETATM    3  C5  UNL     1     -21.004 -31.548  20.836  1.00  0.00     0.129 A 
HETATM    4  N2  UNL     1     -21.159 -30.165  20.902  1.00  0.00    -0.284 N 
HETATM    5  N1  UNL     1     -22.168 -29.856  21.664  1.00  0.00    -0.296 N 
ATOM      6  H2  UNL     1     -20.565 -29.489  20.421  1.00  0.00     0.188 HD
HETATM    7  C4  UNL     1     -22.759 -30.958  22.159  1.00  0.00     0.084 A 
ATOM      8  H1  UNL     1     -22.471 -28.903  21.860  1.00  0.00     0.187 HD
HETATM    9  C3  UNL     1     -23.846 -31.118  22.997  1.00  0.00     0.040 A 
HETATM   10  C16 UNL     1     -22.033 -32.027  21.643  1.00  0.00     0.040 A 
HETATM   11  N6  UNL     1     -24.196 -32.366  23.311  1.00  0.00    -0.362 N 
HETATM   12  C18 UNL     1     -23.531 -33.438  22.842  1.00  0.00     0.091 A 
HETATM   13  C19 UNL     1     -25.316 -32.582  24.178  1.00  0.00     0.155 C 
HETATM   14  C17 UNL     1     -22.452 -33.277  22.009  1.00  0.00     0.035 A 
BRANCH   9  15
HETATM   15  C2  UNL     1     -24.565 -29.946  23.504  1.00  0.00     0.055 C 
HETATM   16  C1  UNL     1     -23.826 -29.262  24.643  1.00  0.00     0.011 C 
ENDBRANCH   9  15
ENDBRANCH   1   3
BRANCH   1  17
HETATM   17  C6  UNL     1     -19.839 -33.371  19.761  1.00  0.00     0.102 C 
HETATM   18  C7  UNL     1     -18.448 -33.346  19.082  1.00  0.00     0.034 C 
BRANCH  17  19
HETATM   19  C8  UNL     1     -20.828 -34.052  18.821  1.00  0.00     0.115 C 
BRANCH  19  20
HETATM   20  N4  UNL     1     -20.514 -33.529  17.527  1.00  0.00    -0.336 N 
HETATM   21  C9  UNL     1     -20.643 -32.355  16.847  1.00  0.00     0.318 C 
HETATM   22  O1  UNL     1     -21.159 -31.317  17.263  1.00  0.00    -0.247 OA
HETATM   23  N5  UNL     1     -20.138 -32.264  15.493  1.00  0.00    -0.343 N 
HETATM   24  C10 UNL     1     -20.261 -31.036  14.749  1.00  0.00     0.154 C 
HETATM   25  C11 UNL     1     -19.501 -33.397  14.858  1.00  0.00     0.154 C 
ATOM     26  H4  UNL     1     -20.065 -34.237  16.946  1.00  0.00     0.164 HD
ENDBRANCH  19  20
BRANCH  19  27
HETATM   27  C12 UNL     1     -20.953 -35.506  19.006  1.00  0.00    -0.029 C 
HETATM   28  C13 UNL     1     -20.714 -36.204  17.683  1.00  0.00     0.016 C 
HETATM   29  C14 UNL     1     -22.379 -35.845  19.405  1.00  0.00     0.016 C 
HETATM   30  C15 UNL     1     -20.050 -36.131  20.017  1.00  0.00     0.016 C 
ENDBRANCH  19  27
ENDBRANCH  17  19
ENDBRANCH   1  17
TORSDOF 6
ENDMDL
