MODEL 1
REMARK VINA RESULT: -9.293946563      0.000      0.000
REMARK  15 active torsions:
REMARK  status: ('A' for Active; 'I' for Inactive)
REMARK    1  A    between atoms: O1_2  and  C2_3 
REMARK    2  A    between atoms: C4_5  and  S1_6 
REMARK    3  A    between atoms: S1_6  and  C5_7 
REMARK    4  A    between atoms: C8_10  and  C9_11 
REMARK    5  A    between atoms: C9_11  and  O2_12 
REMARK    6  A    between atoms: C9_11  and  C10_14 
REMARK    7  A    between atoms: C10_14  and  C11_15 
REMARK    8  A    between atoms: C11_15  and  C12_16 
REMARK    9  A    between atoms: C15_20  and  C16_21 
REMARK   10  A    between atoms: C24_33  and  C25_34 
REMARK   11  A    between atoms: C25_34  and  O5_35 
REMARK   12  A    between atoms: O5_35  and  C26_36 
REMARK   13  A    between atoms: C26_36  and  C27_38 
REMARK   14  A    between atoms: C27_38  and  C30_41 
REMARK   15  A    between atoms: C30_41  and  O7_42 
ROOT
HETATM    1  C5  UNL     1      10.199  26.018   7.670  1.00  0.00     0.011 A 
HETATM    2  C6  UNL     1      10.016  25.001   6.700  1.00  0.00     0.020 A 
HETATM    3  C7  UNL     1      11.000  24.049   6.466  1.00  0.00     0.015 A 
HETATM    4  C8  UNL     1      12.178  24.025   7.145  1.00  0.00    -0.003 A 
HETATM    5  C19 UNL     1      12.380  25.015   8.109  1.00  0.00     0.022 A 
HETATM    6  C20 UNL     1      11.418  25.978   8.357  1.00  0.00    -0.044 A 
HETATM    7  C21 UNL     1      11.646  27.068   9.325  1.00  0.00     0.049 C 
ENDROOT
BRANCH   1   8
HETATM    8  S1  UNL     1       8.874  27.060   7.926  1.00  0.00    -0.087 SA
BRANCH   8   9
HETATM    9  C4  UNL     1       7.602  27.392   6.822  1.00  0.00     0.046 A 
HETATM   10  C3  UNL     1       6.268  27.259   7.255  1.00  0.00     0.059 A 
HETATM   11  C2  UNL     1       5.166  27.328   6.480  1.00  0.00     0.078 A 
HETATM   12  C24 UNL     1       5.414  27.557   5.103  1.00  0.00     0.002 A 
HETATM   13  C23 UNL     1       6.673  27.703   4.620  1.00  0.00     0.055 A 
HETATM   14  C22 UNL     1       7.783  27.621   5.476  1.00  0.00     0.134 A 
HETATM   15  F2  UNL     1       9.001  27.797   4.934  1.00  0.00    -0.205 F 
BRANCH  11  16
HETATM   16  O1  UNL     1       3.868  27.196   6.927  1.00  0.00    -0.355 OA
HETATM   17  C1  UNL     1       3.244  28.257   7.591  1.00  0.00     0.210 C 
ENDBRANCH  11  16
BRANCH  12  18
HETATM   18  C25 UNL     1       4.188  27.667   4.235  1.00  0.00     0.220 C 
BRANCH  18  19
HETATM   19  O5  UNL     1       4.583  27.222   3.008  1.00  0.00    -0.316 OA
BRANCH  19  20
HETATM   20  C26 UNL     1       4.482  26.115   2.268  1.00  0.00     0.269 C 
HETATM   21  O6  UNL     1       3.397  25.526   2.194  1.00  0.00    -0.264 OA
BRANCH  20  22
HETATM   22  C27 UNL     1       5.668  25.552   1.529  1.00  0.00     0.062 C 
HETATM   23  C28 UNL     1       6.726  26.547   1.231  1.00  0.00     0.028 C 
HETATM   24  C29 UNL     1       5.211  24.734   0.366  1.00  0.00     0.028 C 
BRANCH  22  25
HETATM   25  C30 UNL     1       6.283  24.559   2.550  1.00  0.00     0.183 C 
BRANCH  25  26
HETATM   26  O7  UNL     1       5.464  24.429   3.670  1.00  0.00    -0.400 OA
ATOM     27  H7  UNL     1       4.700  23.901   3.469  1.00  0.00     0.209 HD
ENDBRANCH  25  26
ENDBRANCH  22  25
ENDBRANCH  20  22
ENDBRANCH  19  20
ENDBRANCH  18  19
ENDBRANCH  12  18
ENDBRANCH   8   9
ENDBRANCH   1   8
BRANCH   4  28
HETATM   28  C9  UNL     1      13.283  23.100   6.834  1.00  0.00     0.075 C 
BRANCH  28  29
HETATM   29  O2  UNL     1      13.536  22.225   7.763  1.00  0.00    -0.360 OA
ATOM     30  H2  UNL     1      14.415  22.270   8.121  1.00  0.00     0.217 HD
ENDBRANCH  28  29
BRANCH  28  31
HETATM   31  C10 UNL     1      14.084  23.055   5.663  1.00  0.00     0.038 C 
BRANCH  31  32
HETATM   32  C11 UNL     1      14.012  22.290   4.602  1.00  0.00     0.016 C 
BRANCH  32  33
HETATM   33  C12 UNL     1      15.041  21.243   4.377  1.00  0.00    -0.011 A 
HETATM   34  C13 UNL     1      16.017  20.950   5.297  1.00  0.00     0.056 A 
HETATM   35  C14 UNL     1      16.960  19.957   5.110  1.00  0.00     0.134 A 
HETATM   36  F1  UNL     1      17.915  19.754   6.065  1.00  0.00    -0.205 F 
HETATM   37  C15 UNL     1      16.956  19.202   3.957  1.00  0.00     0.081 A 
HETATM   38  C17 UNL     1      15.980  19.498   3.048  1.00  0.00     0.046 A 
HETATM   39  C18 UNL     1      15.031  20.499   3.228  1.00  0.00     0.045 A 
HETATM   40 CL1  UNL     1      13.870  20.879   2.006  1.00  0.00    -0.083 Cl
BRANCH  37  41
HETATM   41  C16 UNL     1      17.913  18.116   3.749  1.00  0.00     0.212 C 
HETATM   42  O3  UNL     1      18.821  18.332   2.910  1.00  0.00    -0.644 OA
HETATM   43  O4  UNL     1      17.845  16.920   4.404  1.00  0.00    -0.644 OA
ENDBRANCH  37  41
ENDBRANCH  32  33
ENDBRANCH  31  32
ENDBRANCH  28  31
ENDBRANCH   4  28
TORSDOF 15
ENDMDL
MODEL 2
REMARK VINA RESULT: -9.182211697      1.735      2.098
REMARK  15 active torsions:
REMARK  status: ('A' for Active; 'I' for Inactive)
REMARK    1  A    between atoms: O1_2  and  C2_3 
REMARK    2  A    between atoms: C4_5  and  S1_6 
REMARK    3  A    between atoms: S1_6  and  C5_7 
REMARK    4  A    between atoms: C8_10  and  C9_11 
REMARK    5  A    between atoms: C9_11  and  O2_12 
REMARK    6  A    between atoms: C9_11  and  C10_14 
REMARK    7  A    between atoms: C10_14  and  C11_15 
REMARK    8  A    between atoms: C11_15  and  C12_16 
REMARK    9  A    between atoms: C15_20  and  C16_21 
REMARK   10  A    between atoms: C24_33  and  C25_34 
REMARK   11  A    between atoms: C25_34  and  O5_35 
REMARK   12  A    between atoms: O5_35  and  C26_36 
REMARK   13  A    between atoms: C26_36  and  C27_38 
REMARK   14  A    between atoms: C27_38  and  C30_41 
REMARK   15  A    between atoms: C30_41  and  O7_42 
ROOT
HETATM    1  C5  UNL     1      10.206  26.253   7.131  1.00  0.00     0.011 A 
HETATM    2  C6  UNL     1       9.934  25.295   6.122  1.00  0.00     0.020 A 
HETATM    3  C7  UNL     1      10.668  24.119   6.035  1.00  0.00     0.015 A 
HETATM    4  C8  UNL     1      11.671  23.811   6.899  1.00  0.00    -0.003 A 
HETATM    5  C19 UNL     1      11.955  24.738   7.905  1.00  0.00     0.022 A 
HETATM    6  C20 UNL     1      11.243  25.919   8.010  1.00  0.00    -0.044 A 
HETATM    7  C21 UNL     1      11.577  26.936   9.025  1.00  0.00     0.049 C 
ENDROOT
BRANCH   1   8
HETATM    8  S1  UNL     1       9.167  27.604   7.185  1.00  0.00    -0.087 SA
BRANCH   8   9
HETATM    9  C4  UNL     1       7.714  27.816   6.296  1.00  0.00     0.046 A 
HETATM   10  C3  UNL     1       6.481  27.767   6.978  1.00  0.00     0.059 A 
HETATM   11  C2  UNL     1       5.256  27.757   6.414  1.00  0.00     0.078 A 
HETATM   12  C24 UNL     1       5.248  27.802   4.997  1.00  0.00     0.002 A 
HETATM   13  C23 UNL     1       6.397  27.859   4.279  1.00  0.00     0.055 A 
HETATM   14  C22 UNL     1       7.645  27.866   4.922  1.00  0.00     0.134 A 
HETATM   15  F2  UNL     1       8.742  27.946   4.150  1.00  0.00    -0.205 F 
BRANCH  11  16
HETATM   16  O1  UNL     1       4.062  27.709   7.102  1.00  0.00    -0.355 OA
HETATM   17  C1  UNL     1       3.556  28.865   7.709  1.00  0.00     0.210 C 
ENDBRANCH  11  16
BRANCH  12  18
HETATM   18  C25 UNL     1       3.884  27.824   4.359  1.00  0.00     0.220 C 
BRANCH  18  19
HETATM   19  O5  UNL     1       3.769  26.619   3.731  1.00  0.00    -0.316 OA
BRANCH  19  20
HETATM   20  C26 UNL     1       3.518  25.346   4.050  1.00  0.00     0.269 C 
HETATM   21  O6  UNL     1       3.182  25.061   5.206  1.00  0.00    -0.264 OA
BRANCH  20  22
HETATM   22  C27 UNL     1       3.651  24.240   3.036  1.00  0.00     0.062 C 
HETATM   23  C28 UNL     1       3.799  24.712   1.639  1.00  0.00     0.028 C 
HETATM   24  C29 UNL     1       2.593  23.208   3.255  1.00  0.00     0.028 C 
BRANCH  22  25
HETATM   25  C30 UNL     1       5.000  23.573   3.414  1.00  0.00     0.183 C 
BRANCH  25  26
HETATM   26  O7  UNL     1       5.931  24.531   3.811  1.00  0.00    -0.400 OA
ATOM     27  H7  UNL     1       6.658  24.125   4.269  1.00  0.00     0.209 HD
ENDBRANCH  25  26
ENDBRANCH  22  25
ENDBRANCH  20  22
ENDBRANCH  19  20
ENDBRANCH  18  19
ENDBRANCH  12  18
ENDBRANCH   8   9
ENDBRANCH   1   8
BRANCH   4  28
HETATM   28  C9  UNL     1      12.540  22.628   6.757  1.00  0.00     0.075 C 
BRANCH  28  29
HETATM   29  O2  UNL     1      11.970  21.601   6.198  1.00  0.00    -0.360 OA
ATOM     30  H2  UNL     1      12.534  20.843   6.095  1.00  0.00     0.217 HD
ENDBRANCH  28  29
BRANCH  28  31
HETATM   31  C10 UNL     1      13.896  22.486   7.152  1.00  0.00     0.038 C 
BRANCH  31  32
HETATM   32  C11 UNL     1      15.008  22.681   6.488  1.00  0.00     0.016 C 
BRANCH  32  33
HETATM   33  C12 UNL     1      15.622  21.560   5.731  1.00  0.00    -0.011 A 
HETATM   34  C13 UNL     1      15.128  21.116   4.529  1.00  0.00     0.056 A 
HETATM   35  C14 UNL     1      15.710  20.095   3.803  1.00  0.00     0.134 A 
HETATM   36  F1  UNL     1      15.134  19.695   2.631  1.00  0.00    -0.205 F 
HETATM   37  C15 UNL     1      16.841  19.463   4.274  1.00  0.00     0.081 A 
HETATM   38  C17 UNL     1      17.327  19.912   5.469  1.00  0.00     0.046 A 
HETATM   39  C18 UNL     1      16.744  20.937   6.207  1.00  0.00     0.045 A 
HETATM   40 CL1  UNL     1      17.360  21.407   7.751  1.00  0.00    -0.083 Cl
BRANCH  37  41
HETATM   41  C16 UNL     1      17.505  18.409   3.508  1.00  0.00     0.212 C 
HETATM   42  O3  UNL     1      17.284  17.231   3.883  1.00  0.00    -0.644 OA
HETATM   43  O4  UNL     1      18.330  18.656   2.449  1.00  0.00    -0.644 OA
ENDBRANCH  37  41
ENDBRANCH  32  33
ENDBRANCH  31  32
ENDBRANCH  28  31
ENDBRANCH   4  28
TORSDOF 15
ENDMDL
MODEL 3
REMARK VINA RESULT: -9.116221407      2.782      3.984
REMARK  15 active torsions:
REMARK  status: ('A' for Active; 'I' for Inactive)
REMARK    1  A    between atoms: O1_2  and  C2_3 
REMARK    2  A    between atoms: C4_5  and  S1_6 
REMARK    3  A    between atoms: S1_6  and  C5_7 
REMARK    4  A    between atoms: C8_10  and  C9_11 
REMARK    5  A    between atoms: C9_11  and  O2_12 
REMARK    6  A    between atoms: C9_11  and  C10_14 
REMARK    7  A    between atoms: C10_14  and  C11_15 
REMARK    8  A    between atoms: C11_15  and  C12_16 
REMARK    9  A    between atoms: C15_20  and  C16_21 
REMARK   10  A    between atoms: C24_33  and  C25_34 
REMARK   11  A    between atoms: C25_34  and  O5_35 
REMARK   12  A    between atoms: O5_35  and  C26_36 
REMARK   13  A    between atoms: C26_36  and  C27_38 
REMARK   14  A    between atoms: C27_38  and  C30_41 
REMARK   15  A    between atoms: C30_41  and  O7_42 
ROOT
HETATM    1  C5  UNL     1      12.235  23.219   5.555  1.00  0.00     0.011 A 
HETATM    2  C6  UNL     1      12.370  23.558   6.925  1.00  0.00     0.020 A 
HETATM    3  C7  UNL     1      13.619  23.616   7.529  1.00  0.00     0.015 A 
HETATM    4  C8  UNL     1      14.774  23.361   6.858  1.00  0.00    -0.003 A 
HETATM    5  C19 UNL     1      14.667  23.028   5.505  1.00  0.00     0.022 A 
HETATM    6  C20 UNL     1      13.434  22.959   4.882  1.00  0.00    -0.044 A 
HETATM    7  C21 UNL     1      13.303  22.542   3.472  1.00  0.00     0.049 C 
ENDROOT
BRANCH   1   8
HETATM    8  S1  UNL     1      10.655  23.283   4.916  1.00  0.00    -0.087 SA
BRANCH   8   9
HETATM    9  C4  UNL     1      10.022  24.485   3.868  1.00  0.00     0.046 A 
HETATM   10  C3  UNL     1       9.622  25.724   4.409  1.00  0.00     0.059 A 
HETATM   11  C2  UNL     1       8.966  26.706   3.757  1.00  0.00     0.078 A 
HETATM   12  C24 UNL     1       8.669  26.430   2.398  1.00  0.00     0.002 A 
HETATM   13  C23 UNL     1       9.033  25.262   1.812  1.00  0.00     0.055 A 
HETATM   14  C22 UNL     1       9.714  24.275   2.543  1.00  0.00     0.134 A 
HETATM   15  F2  UNL     1      10.063  23.151   1.893  1.00  0.00    -0.205 F 
BRANCH  11  16
HETATM   16  O1  UNL     1       8.585  27.911   4.308  1.00  0.00    -0.355 OA
HETATM   17  C1  UNL     1       7.904  27.940   5.530  1.00  0.00     0.210 C 
ENDBRANCH  11  16
BRANCH  12  18
HETATM   18  C25 UNL     1       7.965  27.533   1.654  1.00  0.00     0.220 C 
BRANCH  18  19
HETATM   19  O5  UNL     1       6.700  27.070   1.448  1.00  0.00    -0.316 OA
BRANCH  19  20
HETATM   20  C26 UNL     1       5.678  26.601   2.170  1.00  0.00     0.269 C 
HETATM   21  O6  UNL     1       5.345  27.186   3.208  1.00  0.00    -0.264 OA
BRANCH  20  22
HETATM   22  C27 UNL     1       4.927  25.362   1.759  1.00  0.00     0.062 C 
HETATM   23  C28 UNL     1       4.684  24.404   2.864  1.00  0.00     0.028 C 
HETATM   24  C29 UNL     1       5.535  24.777   0.525  1.00  0.00     0.028 C 
BRANCH  22  25
HETATM   25  C30 UNL     1       3.536  25.910   1.345  1.00  0.00     0.183 C 
BRANCH  25  26
HETATM   26  O7  UNL     1       3.655  27.171   0.762  1.00  0.00    -0.400 OA
ATOM     27  H7  UNL     1       2.804  27.500   0.496  1.00  0.00     0.209 HD
ENDBRANCH  25  26
ENDBRANCH  22  25
ENDBRANCH  20  22
ENDBRANCH  19  20
ENDBRANCH  18  19
ENDBRANCH  12  18
ENDBRANCH   8   9
ENDBRANCH   1   8
BRANCH   4  28
HETATM   28  C9  UNL     1      16.099  23.299   7.502  1.00  0.00     0.075 C 
BRANCH  28  29
HETATM   29  O2  UNL     1      16.854  24.337   7.290  1.00  0.00    -0.360 OA
ATOM     30  H2  UNL     1      17.722  24.281   7.674  1.00  0.00     0.217 HD
ENDBRANCH  28  29
BRANCH  28  31
HETATM   31  C10 UNL     1      16.632  22.260   8.309  1.00  0.00     0.038 C 
BRANCH  31  32
HETATM   32  C11 UNL     1      16.591  20.958   8.169  1.00  0.00     0.016 C 
BRANCH  32  33
HETATM   33  C12 UNL     1      16.833  20.352   6.836  1.00  0.00    -0.011 A 
HETATM   34  C13 UNL     1      15.828  20.132   5.925  1.00  0.00     0.056 A 
HETATM   35  C14 UNL     1      16.048  19.597   4.670  1.00  0.00     0.134 A 
HETATM   36  F1  UNL     1      14.986  19.383   3.839  1.00  0.00    -0.205 F 
HETATM   37  C15 UNL     1      17.322  19.253   4.274  1.00  0.00     0.081 A 
HETATM   38  C17 UNL     1      18.316  19.477   5.184  1.00  0.00     0.046 A 
HETATM   39  C18 UNL     1      18.102  20.011   6.451  1.00  0.00     0.045 A 
HETATM   40 CL1  UNL     1      19.389  20.197   7.588  1.00  0.00    -0.083 Cl
BRANCH  37  41
HETATM   41  C16 UNL     1      17.594  18.727   2.937  1.00  0.00     0.212 C 
HETATM   42  O3  UNL     1      18.745  18.262   2.749  1.00  0.00    -0.644 OA
HETATM   43  O4  UNL     1      16.675  18.734   1.926  1.00  0.00    -0.644 OA
ENDBRANCH  37  41
ENDBRANCH  32  33
ENDBRANCH  31  32
ENDBRANCH  28  31
ENDBRANCH   4  28
TORSDOF 15
ENDMDL
MODEL 4
REMARK VINA RESULT: -9.078939489      3.664      6.822
REMARK  15 active torsions:
REMARK  status: ('A' for Active; 'I' for Inactive)
REMARK    1  A    between atoms: O1_2  and  C2_3 
REMARK    2  A    between atoms: C4_5  and  S1_6 
REMARK    3  A    between atoms: S1_6  and  C5_7 
REMARK    4  A    between atoms: C8_10  and  C9_11 
REMARK    5  A    between atoms: C9_11  and  O2_12 
REMARK    6  A    between atoms: C9_11  and  C10_14 
REMARK    7  A    between atoms: C10_14  and  C11_15 
REMARK    8  A    between atoms: C11_15  and  C12_16 
REMARK    9  A    between atoms: C15_20  and  C16_21 
REMARK   10  A    between atoms: C24_33  and  C25_34 
REMARK   11  A    between atoms: C25_34  and  O5_35 
REMARK   12  A    between atoms: O5_35  and  C26_36 
REMARK   13  A    between atoms: C26_36  and  C27_38 
REMARK   14  A    between atoms: C27_38  and  C30_41 
REMARK   15  A    between atoms: C30_41  and  O7_42 
ROOT
HETATM    1  C5  UNL     1      10.329  24.786   3.001  1.00  0.00     0.011 A 
HETATM    2  C6  UNL     1      10.984  25.778   3.773  1.00  0.00     0.020 A 
HETATM    3  C7  UNL     1      12.151  25.490   4.469  1.00  0.00     0.015 A 
HETATM    4  C8  UNL     1      12.734  24.262   4.451  1.00  0.00    -0.003 A 
HETATM    5  C19 UNL     1      12.110  23.268   3.694  1.00  0.00     0.022 A 
HETATM    6  C20 UNL     1      10.944  23.528   2.996  1.00  0.00    -0.044 A 
HETATM    7  C21 UNL     1      10.238  22.470   2.249  1.00  0.00     0.049 C 
ENDROOT
BRANCH   1   8
HETATM    8  S1  UNL     1       8.964  25.300   2.118  1.00  0.00    -0.087 SA
BRANCH   8   9
HETATM    9  C4  UNL     1       7.387  25.577   2.737  1.00  0.00     0.046 A 
HETATM   10  C3  UNL     1       6.433  24.541   2.670  1.00  0.00     0.059 A 
HETATM   11  C2  UNL     1       5.121  24.643   2.964  1.00  0.00     0.078 A 
HETATM   12  C24 UNL     1       4.697  25.932   3.377  1.00  0.00     0.002 A 
HETATM   13  C23 UNL     1       5.564  26.971   3.472  1.00  0.00     0.055 A 
HETATM   14  C22 UNL     1       6.921  26.804   3.152  1.00  0.00     0.134 A 
HETATM   15  F2  UNL     1       7.728  27.871   3.289  1.00  0.00    -0.205 F 
BRANCH  11  16
HETATM   16  O1  UNL     1       4.206  23.614   2.891  1.00  0.00    -0.355 OA
HETATM   17  C1  UNL     1       4.262  22.560   3.810  1.00  0.00     0.210 C 
ENDBRANCH  11  16
BRANCH  12  18
HETATM   18  C25 UNL     1       3.240  26.048   3.738  1.00  0.00     0.220 C 
BRANCH  18  19
HETATM   19  O5  UNL     1       3.185  27.040   4.671  1.00  0.00    -0.316 OA
BRANCH  19  20
HETATM   20  C26 UNL     1       3.044  27.160   5.995  1.00  0.00     0.269 C 
HETATM   21  O6  UNL     1       2.606  26.207   6.651  1.00  0.00    -0.264 OA
BRANCH  20  22
HETATM   22  C27 UNL     1       3.391  28.439   6.710  1.00  0.00     0.062 C 
HETATM   23  C28 UNL     1       2.606  28.677   7.944  1.00  0.00     0.028 C 
HETATM   24  C29 UNL     1       3.426  29.577   5.743  1.00  0.00     0.028 C 
BRANCH  22  25
HETATM   25  C30 UNL     1       4.856  28.205   7.165  1.00  0.00     0.183 C 
BRANCH  25  26
HETATM   26  O7  UNL     1       5.232  26.879   6.959  1.00  0.00    -0.400 OA
ATOM     27  H7  UNL     1       5.305  26.417   7.787  1.00  0.00     0.209 HD
ENDBRANCH  25  26
ENDBRANCH  22  25
ENDBRANCH  20  22
ENDBRANCH  19  20
ENDBRANCH  18  19
ENDBRANCH  12  18
ENDBRANCH   8   9
ENDBRANCH   1   8
BRANCH   4  28
HETATM   28  C9  UNL     1      13.904  23.899   5.274  1.00  0.00     0.075 C 
BRANCH  28  29
HETATM   29  O2  UNL     1      15.004  23.722   4.603  1.00  0.00    -0.360 OA
ATOM     30  H2  UNL     1      15.373  24.515   4.231  1.00  0.00     0.217 HD
ENDBRANCH  28  29
BRANCH  28  31
HETATM   31  C10 UNL     1      13.963  23.726   6.681  1.00  0.00     0.038 C 
BRANCH  31  32
HETATM   32  C11 UNL     1      13.010  23.582   7.569  1.00  0.00     0.016 C 
BRANCH  32  33
HETATM   33  C12 UNL     1      11.998  24.654   7.745  1.00  0.00    -0.011 A 
HETATM   34  C13 UNL     1      12.270  25.835   8.391  1.00  0.00     0.056 A 
HETATM   35  C14 UNL     1      11.344  26.851   8.533  1.00  0.00     0.134 A 
HETATM   36  F1  UNL     1      11.690  27.980   9.219  1.00  0.00    -0.205 F 
HETATM   37  C15 UNL     1      10.074  26.713   8.015  1.00  0.00     0.081 A 
HETATM   38  C17 UNL     1       9.813  25.537   7.371  1.00  0.00     0.046 A 
HETATM   39  C18 UNL     1      10.739  24.508   7.229  1.00  0.00     0.045 A 
HETATM   40 CL1  UNL     1      10.323  23.011   6.473  1.00  0.00    -0.083 Cl
BRANCH  37  41
HETATM   41  C16 UNL     1       9.087  27.787   8.110  1.00  0.00     0.212 C 
HETATM   42  O3  UNL     1       9.449  28.910   7.682  1.00  0.00    -0.644 OA
HETATM   43  O4  UNL     1       7.839  27.615   8.636  1.00  0.00    -0.644 OA
ENDBRANCH  37  41
ENDBRANCH  32  33
ENDBRANCH  31  32
ENDBRANCH  28  31
ENDBRANCH   4  28
TORSDOF 15
ENDMDL
MODEL 5
REMARK VINA RESULT: -9.024344599      3.284      5.100
REMARK  15 active torsions:
REMARK  status: ('A' for Active; 'I' for Inactive)
REMARK    1  A    between atoms: O1_2  and  C2_3 
REMARK    2  A    between atoms: C4_5  and  S1_6 
REMARK    3  A    between atoms: S1_6  and  C5_7 
REMARK    4  A    between atoms: C8_10  and  C9_11 
REMARK    5  A    between atoms: C9_11  and  O2_12 
REMARK    6  A    between atoms: C9_11  and  C10_14 
REMARK    7  A    between atoms: C10_14  and  C11_15 
REMARK    8  A    between atoms: C11_15  and  C12_16 
REMARK    9  A    between atoms: C15_20  and  C16_21 
REMARK   10  A    between atoms: C24_33  and  C25_34 
REMARK   11  A    between atoms: C25_34  and  O5_35 
REMARK   12  A    between atoms: O5_35  and  C26_36 
REMARK   13  A    between atoms: C26_36  and  C27_38 
REMARK   14  A    between atoms: C27_38  and  C30_41 
REMARK   15  A    between atoms: C30_41  and  O7_42 
ROOT
HETATM    1  C5  UNL     1      13.981  22.624   6.625  1.00  0.00     0.011 A 
HETATM    2  C6  UNL     1      13.228  21.748   5.804  1.00  0.00     0.020 A 
HETATM    3  C7  UNL     1      13.836  20.692   5.137  1.00  0.00     0.015 A 
HETATM    4  C8  UNL     1      15.167  20.431   5.230  1.00  0.00    -0.003 A 
HETATM    5  C19 UNL     1      15.930  21.278   6.037  1.00  0.00     0.022 A 
HETATM    6  C20 UNL     1      15.349  22.340   6.708  1.00  0.00    -0.044 A 
HETATM    7  C21 UNL     1      16.154  23.282   7.508  1.00  0.00     0.049 C 
ENDROOT
BRANCH   1   8
HETATM    8  S1  UNL     1      13.095  23.815   7.465  1.00  0.00    -0.087 SA
BRANCH   8   9
HETATM    9  C4  UNL     1      11.991  24.940   6.786  1.00  0.00     0.046 A 
HETATM   10  C3  UNL     1      11.030  25.545   7.621  1.00  0.00     0.059 A 
HETATM   11  C2  UNL     1      10.001  26.320   7.223  1.00  0.00     0.078 A 
HETATM   12  C24 UNL     1       9.911  26.526   5.822  1.00  0.00     0.002 A 
HETATM   13  C23 UNL     1      10.808  25.981   4.963  1.00  0.00     0.055 A 
HETATM   14  C22 UNL     1      11.859  25.180   5.437  1.00  0.00     0.134 A 
HETATM   15  F2  UNL     1      12.724  24.690   4.531  1.00  0.00    -0.205 F 
BRANCH  11  16
HETATM   16  O1  UNL     1       9.071  26.903   8.059  1.00  0.00    -0.355 OA
HETATM   17  C1  UNL     1       9.332  28.151   8.636  1.00  0.00     0.210 C 
ENDBRANCH  11  16
BRANCH  12  18
HETATM   18  C25 UNL     1       8.784  27.417   5.371  1.00  0.00     0.220 C 
BRANCH  18  19
HETATM   19  O5  UNL     1       8.683  27.206   4.028  1.00  0.00    -0.316 OA
BRANCH  19  20
HETATM   20  C26 UNL     1       7.739  27.219   3.083  1.00  0.00     0.269 C 
HETATM   21  O6  UNL     1       6.635  27.718   3.329  1.00  0.00    -0.264 OA
BRANCH  20  22
HETATM   22  C27 UNL     1       7.981  26.620   1.722  1.00  0.00     0.062 C 
HETATM   23  C28 UNL     1       6.745  26.227   1.003  1.00  0.00     0.028 C 
HETATM   24  C29 UNL     1       9.038  25.568   1.801  1.00  0.00     0.028 C 
BRANCH  22  25
HETATM   25  C30 UNL     1       8.593  27.799   0.920  1.00  0.00     0.183 C 
BRANCH  25  26
HETATM   26  O7  UNL     1       8.742  28.923   1.729  1.00  0.00    -0.400 OA
ATOM     27  H7  UNL     1       9.637  29.244   1.699  1.00  0.00     0.209 HD
ENDBRANCH  25  26
ENDBRANCH  22  25
ENDBRANCH  20  22
ENDBRANCH  19  20
ENDBRANCH  18  19
ENDBRANCH  12  18
ENDBRANCH   8   9
ENDBRANCH   1   8
BRANCH   4  28
HETATM   28  C9  UNL     1      15.854  19.392   4.441  1.00  0.00     0.075 C 
BRANCH  28  29
HETATM   29  O2  UNL     1      15.130  18.344   4.176  1.00  0.00    -0.360 OA
ATOM     30  H2  UNL     1      14.911  18.236   3.258  1.00  0.00     0.217 HD
ENDBRANCH  28  29
BRANCH  28  31
HETATM   31  C10 UNL     1      17.186  19.405   3.949  1.00  0.00     0.038 C 
BRANCH  31  32
HETATM   32  C11 UNL     1      18.277  18.845   4.410  1.00  0.00     0.016 C 
BRANCH  32  33
HETATM   33  C12 UNL     1      18.537  18.831   5.872  1.00  0.00    -0.011 A 
HETATM   34  C13 UNL     1      18.765  19.974   6.598  1.00  0.00     0.056 A 
HETATM   35  C14 UNL     1      18.978  19.974   7.963  1.00  0.00     0.134 A 
HETATM   36  F1  UNL     1      19.229  21.155   8.601  1.00  0.00    -0.205 F 
HETATM   37  C15 UNL     1      18.969  18.790   8.669  1.00  0.00     0.081 A 
HETATM   38  C17 UNL     1      18.739  17.658   7.940  1.00  0.00     0.046 A 
HETATM   39  C18 UNL     1      18.528  17.650   6.565  1.00  0.00     0.045 A 
HETATM   40 CL1  UNL     1      18.322  16.177   5.686  1.00  0.00    -0.083 Cl
BRANCH  37  41
HETATM   41  C16 UNL     1      19.147  18.761  10.120  1.00  0.00     0.212 C 
HETATM   42  O3  UNL     1      20.274  18.390  10.531  1.00  0.00    -0.644 OA
HETATM   43  O4  UNL     1      18.163  19.101  11.004  1.00  0.00    -0.644 OA
ENDBRANCH  37  41
ENDBRANCH  32  33
ENDBRANCH  31  32
ENDBRANCH  28  31
ENDBRANCH   4  28
TORSDOF 15
ENDMDL
