MODEL 1
REMARK VINA RESULT: -9.046463683      0.000      0.000
REMARK  12 active torsions:
REMARK  status: ('A' for Active; 'I' for Inactive)
REMARK    1  A    between atoms: O1_2  and  C2_3 
REMARK    2  A    between atoms: C2_3  and  C3_5 
REMARK    3  A    between atoms: C3_5  and  C4_6 
REMARK    4  A    between atoms: C4_6  and  C5_7 
REMARK    5  A    between atoms: C5_7  and  C6_8 
REMARK    6  A    between atoms: C6_8  and  C7_9 
REMARK    7  A    between atoms: C7_9  and  C8_10 
REMARK    8  A    between atoms: C8_10  and  C9_11 
REMARK    9  A    between atoms: C9_11  and  C10_12 
REMARK   10  A    between atoms: C10_12  and  O3_13 
REMARK   11  A    between atoms: O3_13  and  C11_14 
REMARK   12  A    between atoms: C14_18  and  C15_19 
ROOT
HETATM    1  C11 UNL     1      11.037  24.944   6.870  1.00  0.00     0.092 A 
HETATM    2  C12 UNL     1      10.761  26.110   7.552  1.00  0.00     0.063 A 
HETATM    3  C13 UNL     1       9.813  27.031   7.167  1.00  0.00     0.044 A 
HETATM    4 CL1  UNL     1       9.520  28.507   8.102  1.00  0.00    -0.084 Cl
HETATM    5  C14 UNL     1       9.084  26.786   6.026  1.00  0.00    -0.014 A 
HETATM    6  C28 UNL     1       9.326  25.619   5.300  1.00  0.00     0.036 A 
HETATM    7  C29 UNL     1      10.278  24.717   5.707  1.00  0.00     0.068 A 
HETATM    8 CL3  UNL     1      10.606  23.249   4.824  1.00  0.00    -0.081 Cl
ENDROOT
BRANCH   5   9
HETATM    9  C15 UNL     1       8.056  27.768   5.594  1.00  0.00     0.187 C 
HETATM   10  C16 UNL     1       6.726  27.540   6.135  1.00  0.00     0.238 C 
HETATM   11  O4  UNL     1       6.441  27.906   7.298  1.00  0.00    -0.272 OA
HETATM   12  N1  UNL     1       5.676  26.884   5.368  1.00  0.00    -0.324 N 
HETATM   13  C17 UNL     1       5.854  26.735   3.987  1.00  0.00     0.067 A 
ATOM     14  H1  UNL     1       4.831  26.542   5.826  1.00  0.00     0.169 HD
HETATM   15  C18 UNL     1       7.010  27.208   3.366  1.00  0.00     0.106 A 
HETATM   16  C26 UNL     1       4.868  26.124   3.212  1.00  0.00     0.026 A 
HETATM   17  C19 UNL     1       7.157  27.071   2.009  1.00  0.00     0.262 A 
HETATM   18  C27 UNL     1       8.062  27.867   4.137  1.00  0.00     0.184 C 
HETATM   19  O5  UNL     1       8.238  27.520   1.468  1.00  0.00    -0.267 OA
HETATM   20  N2  UNL     1       6.216  26.494   1.283  1.00  0.00    -0.320 N 
HETATM   21  C20 UNL     1       5.085  26.018   1.826  1.00  0.00     0.070 A 
ATOM     22  H2  UNL     1       6.354  26.407   0.275  1.00  0.00     0.169 HD
HETATM   23  C21 UNL     1       4.152  25.422   1.013  1.00  0.00     0.061 A 
HETATM   24 CL2  UNL     1       4.493  25.329  -0.711  1.00  0.00    -0.082 Cl
HETATM   25  C22 UNL     1       3.015  24.932   1.556  1.00  0.00     0.027 A 
HETATM   26  C23 UNL     1       2.808  25.032   2.895  1.00  0.00     0.009 A 
HETATM   27  C24 UNL     1       3.729  25.635   3.793  1.00  0.00    -0.047 A 
HETATM   28  C25 UNL     1       3.408  25.627   5.213  1.00  0.00     0.049 C 
HETATM   29  O6  UNL     1       8.968  28.518   3.506  1.00  0.00    -0.291 OA
ENDBRANCH   5   9
BRANCH   1  30
HETATM   30  O3  UNL     1      11.969  24.036   7.251  1.00  0.00    -0.349 OA
BRANCH  30  31
HETATM   31  C10 UNL     1      13.306  23.891   7.006  1.00  0.00     0.175 C 
BRANCH  31  32
HETATM   32  C9  UNL     1      13.775  22.599   6.430  1.00  0.00     0.027 C 
BRANCH  32  33
HETATM   33  C8  UNL     1      14.160  22.714   4.973  1.00  0.00     0.002 C 
BRANCH  33  34
HETATM   34  C7  UNL     1      14.150  21.388   4.249  1.00  0.00     0.000 C 
BRANCH  34  35
HETATM   35  C6  UNL     1      14.135  21.673   2.754  1.00  0.00     0.000 C 
BRANCH  35  36
HETATM   36  C5  UNL     1      14.487  20.460   1.942  1.00  0.00     0.000 C 
BRANCH  36  37
HETATM   37  C4  UNL     1      15.088  19.357   2.802  1.00  0.00     0.010 C 
BRANCH  37  38
HETATM   38  C3  UNL     1      16.358  18.835   2.166  1.00  0.00     0.111 C 
BRANCH  38  39
HETATM   39  C2  UNL     1      17.454  18.922   3.161  1.00  0.00     0.258 C 
HETATM   40  O2  UNL     1      18.589  18.439   2.920  1.00  0.00    -0.265 OA
BRANCH  39  41
HETATM   41  O1  UNL     1      17.244  19.540   4.384  1.00  0.00    -0.326 OA
HETATM   42  C1  UNL     1      18.239  19.441   5.372  1.00  0.00     0.213 C 
ENDBRANCH  39  41
ENDBRANCH  38  39
ENDBRANCH  37  38
ENDBRANCH  36  37
ENDBRANCH  35  36
ENDBRANCH  34  35
ENDBRANCH  33  34
ENDBRANCH  32  33
ENDBRANCH  31  32
ENDBRANCH  30  31
ENDBRANCH   1  30
TORSDOF 12
ENDMDL
MODEL 2
REMARK VINA RESULT: -8.860087300      3.399      5.511
REMARK  12 active torsions:
REMARK  status: ('A' for Active; 'I' for Inactive)
REMARK    1  A    between atoms: O1_2  and  C2_3 
REMARK    2  A    between atoms: C2_3  and  C3_5 
REMARK    3  A    between atoms: C3_5  and  C4_6 
REMARK    4  A    between atoms: C4_6  and  C5_7 
REMARK    5  A    between atoms: C5_7  and  C6_8 
REMARK    6  A    between atoms: C6_8  and  C7_9 
REMARK    7  A    between atoms: C7_9  and  C8_10 
REMARK    8  A    between atoms: C8_10  and  C9_11 
REMARK    9  A    between atoms: C9_11  and  C10_12 
REMARK   10  A    between atoms: C10_12  and  O3_13 
REMARK   11  A    between atoms: O3_13  and  C11_14 
REMARK   12  A    between atoms: C14_18  and  C15_19 
ROOT
HETATM    1  C11 UNL     1       8.216  28.024   5.633  1.00  0.00     0.092 A 
HETATM    2  C12 UNL     1       9.128  27.311   4.884  1.00  0.00     0.063 A 
HETATM    3  C13 UNL     1       8.800  26.524   3.803  1.00  0.00     0.044 A 
HETATM    4 CL1  UNL     1      10.035  25.639   2.893  1.00  0.00    -0.084 Cl
HETATM    5  C14 UNL     1       7.478  26.433   3.433  1.00  0.00    -0.014 A 
HETATM    6  C28 UNL     1       6.517  27.136   4.160  1.00  0.00     0.036 A 
HETATM    7  C29 UNL     1       6.871  27.914   5.234  1.00  0.00     0.068 A 
HETATM    8 CL3  UNL     1       5.696  28.807   6.165  1.00  0.00    -0.081 Cl
ENDROOT
BRANCH   5   9
HETATM    9  C15 UNL     1       7.104  25.589   2.269  1.00  0.00     0.187 C 
HETATM   10  C16 UNL     1       6.398  26.288   1.208  1.00  0.00     0.238 C 
HETATM   11  O4  UNL     1       7.024  26.982   0.375  1.00  0.00    -0.272 OA
HETATM   12  N1  UNL     1       4.951  26.220   1.062  1.00  0.00    -0.324 N 
HETATM   13  C17 UNL     1       4.254  25.233   1.771  1.00  0.00     0.067 A 
ATOM     14  H1  UNL     1       4.455  26.877   0.458  1.00  0.00     0.169 HD
HETATM   15  C18 UNL     1       4.937  24.336   2.593  1.00  0.00     0.106 A 
HETATM   16  C26 UNL     1       2.868  25.124   1.651  1.00  0.00     0.026 A 
HETATM   17  C19 UNL     1       4.241  23.363   3.264  1.00  0.00     0.262 A 
HETATM   18  C27 UNL     1       6.390  24.405   2.737  1.00  0.00     0.184 C 
HETATM   19  O5  UNL     1       4.904  22.551   4.014  1.00  0.00    -0.267 OA
HETATM   20  N2  UNL     1       2.929  23.266   3.141  1.00  0.00    -0.320 N 
HETATM   21  C20 UNL     1       2.220  24.103   2.367  1.00  0.00     0.070 A 
ATOM     22  H2  UNL     1       2.438  22.531   3.651  1.00  0.00     0.169 HD
HETATM   23  C21 UNL     1       0.856  23.950   2.291  1.00  0.00     0.061 A 
HETATM   24 CL2  UNL     1       0.116  22.646   3.213  1.00  0.00    -0.082 Cl
HETATM   25  C22 UNL     1       0.136  24.794   1.521  1.00  0.00     0.027 A 
HETATM   26  C23 UNL     1       0.763  25.784   0.832  1.00  0.00     0.009 A 
HETATM   27  C24 UNL     1       2.167  25.999   0.865  1.00  0.00    -0.047 A 
HETATM   28  C25 UNL     1       2.705  27.130   0.122  1.00  0.00     0.049 C 
HETATM   29  O6  UNL     1       6.999  23.415   3.276  1.00  0.00    -0.291 OA
ENDBRANCH   5   9
BRANCH   1  30
HETATM   30  O3  UNL     1       8.539  28.801   6.697  1.00  0.00    -0.349 OA
BRANCH  30  31
HETATM   31  C10 UNL     1       9.039  28.542   7.942  1.00  0.00     0.175 C 
BRANCH  31  32
HETATM   32  C9  UNL     1       8.530  27.341   8.664  1.00  0.00     0.027 C 
BRANCH  32  33
HETATM   33  C8  UNL     1       9.558  26.237   8.761  1.00  0.00     0.002 C 
BRANCH  33  34
HETATM   34  C7  UNL     1      10.978  26.751   8.806  1.00  0.00     0.000 C 
BRANCH  34  35
HETATM   35  C6  UNL     1      11.870  25.717   8.132  1.00  0.00     0.000 C 
BRANCH  35  36
HETATM   36  C5  UNL     1      11.758  25.762   6.635  1.00  0.00     0.000 C 
BRANCH  36  37
HETATM   37  C4  UNL     1      11.220  24.457   6.067  1.00  0.00     0.010 C 
BRANCH  37  38
HETATM   38  C3  UNL     1      12.364  23.559   5.651  1.00  0.00     0.111 C 
BRANCH  38  39
HETATM   39  C2  UNL     1      12.360  22.357   6.519  1.00  0.00     0.258 C 
HETATM   40  O2  UNL     1      11.490  21.460   6.381  1.00  0.00    -0.265 OA
BRANCH  39  41
HETATM   41  O1  UNL     1      13.321  22.200   7.505  1.00  0.00    -0.326 OA
HETATM   42  C1  UNL     1      14.490  22.977   7.442  1.00  0.00     0.213 C 
ENDBRANCH  39  41
ENDBRANCH  38  39
ENDBRANCH  37  38
ENDBRANCH  36  37
ENDBRANCH  35  36
ENDBRANCH  34  35
ENDBRANCH  33  34
ENDBRANCH  32  33
ENDBRANCH  31  32
ENDBRANCH  30  31
ENDBRANCH   1  30
TORSDOF 12
ENDMDL
MODEL 3
REMARK VINA RESULT: -8.837586917      1.095      1.280
REMARK  12 active torsions:
REMARK  status: ('A' for Active; 'I' for Inactive)
REMARK    1  A    between atoms: O1_2  and  C2_3 
REMARK    2  A    between atoms: C2_3  and  C3_5 
REMARK    3  A    between atoms: C3_5  and  C4_6 
REMARK    4  A    between atoms: C4_6  and  C5_7 
REMARK    5  A    between atoms: C5_7  and  C6_8 
REMARK    6  A    between atoms: C6_8  and  C7_9 
REMARK    7  A    between atoms: C7_9  and  C8_10 
REMARK    8  A    between atoms: C8_10  and  C9_11 
REMARK    9  A    between atoms: C9_11  and  C10_12 
REMARK   10  A    between atoms: C10_12  and  O3_13 
REMARK   11  A    between atoms: O3_13  and  C11_14 
REMARK   12  A    between atoms: C14_18  and  C15_19 
ROOT
HETATM    1  C11 UNL     1      10.691  24.926   5.442  1.00  0.00     0.092 A 
HETATM    2  C12 UNL     1      10.364  26.082   6.117  1.00  0.00     0.063 A 
HETATM    3  C13 UNL     1       9.287  26.883   5.812  1.00  0.00     0.044 A 
HETATM    4 CL1  UNL     1       8.937  28.356   6.731  1.00  0.00    -0.084 Cl
HETATM    5  C14 UNL     1       8.473  26.519   4.764  1.00  0.00    -0.014 A 
HETATM    6  C28 UNL     1       8.762  25.356   4.049  1.00  0.00     0.036 A 
HETATM    7  C29 UNL     1       9.843  24.575   4.375  1.00  0.00     0.068 A 
HETATM    8 CL3  UNL     1      10.234  23.115   3.503  1.00  0.00    -0.081 Cl
ENDROOT
BRANCH   5   9
HETATM    9  C15 UNL     1       7.305  27.370   4.419  1.00  0.00     0.187 C 
HETATM   10  C16 UNL     1       6.076  27.035   5.120  1.00  0.00     0.238 C 
HETATM   11  O4  UNL     1       5.886  27.426   6.294  1.00  0.00    -0.272 OA
HETATM   12  N1  UNL     1       5.022  26.241   4.504  1.00  0.00    -0.324 N 
HETATM   13  C17 UNL     1       5.058  26.044   3.119  1.00  0.00     0.067 A 
ATOM     14  H1  UNL     1       4.275  25.838   5.070  1.00  0.00     0.169 HD
HETATM   15  C18 UNL     1       6.081  26.601   2.350  1.00  0.00     0.106 A 
HETATM   16  C26 UNL     1       4.062  25.300   2.486  1.00  0.00     0.026 A 
HETATM   17  C19 UNL     1       6.089  26.414   0.991  1.00  0.00     0.262 A 
HETATM   18  C27 UNL     1       7.137  27.399   2.969  1.00  0.00     0.184 C 
HETATM   19  O5  UNL     1       7.049  26.944   0.312  1.00  0.00    -0.267 OA
HETATM   20  N2  UNL     1       5.139  25.711   0.401  1.00  0.00    -0.320 N 
HETATM   21  C20 UNL     1       4.133  25.150   1.089  1.00  0.00     0.070 A 
ATOM     22  H2  UNL     1       5.171  25.591  -0.612  1.00  0.00     0.169 HD
HETATM   23  C21 UNL     1       3.182  24.425   0.412  1.00  0.00     0.061 A 
HETATM   24 CL2  UNL     1       3.336  24.284  -1.335  1.00  0.00    -0.082 Cl
HETATM   25  C22 UNL     1       2.171  23.850   1.101  1.00  0.00     0.027 A 
HETATM   26  C23 UNL     1       2.106  23.993   2.451  1.00  0.00     0.009 A 
HETATM   27  C24 UNL     1       3.053  24.727   3.213  1.00  0.00    -0.047 A 
HETATM   28  C25 UNL     1       2.896  24.756   4.660  1.00  0.00     0.049 C 
HETATM   29  O6  UNL     1       7.893  28.107   2.214  1.00  0.00    -0.291 OA
ENDBRANCH   5   9
BRANCH   1  30
HETATM   30  O3  UNL     1      11.751  24.136   5.744  1.00  0.00    -0.349 OA
BRANCH  30  31
HETATM   31  C10 UNL     1      11.911  23.015   6.509  1.00  0.00     0.175 C 
BRANCH  31  32
HETATM   32  C9  UNL     1      12.714  21.892   5.945  1.00  0.00     0.027 C 
BRANCH  32  33
HETATM   33  C8  UNL     1      13.591  22.322   4.792  1.00  0.00     0.002 C 
BRANCH  33  34
HETATM   34  C7  UNL     1      14.246  21.163   4.079  1.00  0.00     0.000 C 
BRANCH  34  35
HETATM   35  C6  UNL     1      14.189  21.443   2.584  1.00  0.00     0.000 C 
BRANCH  35  36
HETATM   36  C5  UNL     1      14.568  20.241   1.768  1.00  0.00     0.000 C 
BRANCH  36  37
HETATM   37  C4  UNL     1      15.187  19.146   2.624  1.00  0.00     0.010 C 
BRANCH  37  38
HETATM   38  C3  UNL     1      16.547  18.766   2.079  1.00  0.00     0.111 C 
BRANCH  38  39
HETATM   39  C2  UNL     1      17.530  18.816   3.188  1.00  0.00     0.258 C 
HETATM   40  O2  UNL     1      18.713  18.424   3.025  1.00  0.00    -0.265 OA
BRANCH  39  41
HETATM   41  O1  UNL     1      17.158  19.297   4.434  1.00  0.00    -0.326 OA
HETATM   42  C1  UNL     1      18.163  19.621   5.362  1.00  0.00     0.213 C 
ENDBRANCH  39  41
ENDBRANCH  38  39
ENDBRANCH  37  38
ENDBRANCH  36  37
ENDBRANCH  35  36
ENDBRANCH  34  35
ENDBRANCH  33  34
ENDBRANCH  32  33
ENDBRANCH  31  32
ENDBRANCH  30  31
ENDBRANCH   1  30
TORSDOF 12
ENDMDL
MODEL 4
REMARK VINA RESULT: -8.820570389      6.006     13.872
REMARK  12 active torsions:
REMARK  status: ('A' for Active; 'I' for Inactive)
REMARK    1  A    between atoms: O1_2  and  C2_3 
REMARK    2  A    between atoms: C2_3  and  C3_5 
REMARK    3  A    between atoms: C3_5  and  C4_6 
REMARK    4  A    between atoms: C4_6  and  C5_7 
REMARK    5  A    between atoms: C5_7  and  C6_8 
REMARK    6  A    between atoms: C6_8  and  C7_9 
REMARK    7  A    between atoms: C7_9  and  C8_10 
REMARK    8  A    between atoms: C8_10  and  C9_11 
REMARK    9  A    between atoms: C9_11  and  C10_12 
REMARK   10  A    between atoms: C10_12  and  O3_13 
REMARK   11  A    between atoms: O3_13  and  C11_14 
REMARK   12  A    between atoms: C14_18  and  C15_19 
ROOT
HETATM    1  C11 UNL     1      15.115  21.387   5.814  1.00  0.00     0.092 A 
HETATM    2  C12 UNL     1      15.884  20.678   4.917  1.00  0.00     0.063 A 
HETATM    3  C13 UNL     1      17.023  19.979   5.251  1.00  0.00     0.044 A 
HETATM    4 CL1  UNL     1      17.956  19.091   4.035  1.00  0.00    -0.084 Cl
HETATM    5  C14 UNL     1      17.432  19.979   6.565  1.00  0.00    -0.014 A 
HETATM    6  C28 UNL     1      16.686  20.683   7.511  1.00  0.00     0.036 A 
HETATM    7  C29 UNL     1      15.555  21.372   7.150  1.00  0.00     0.068 A 
HETATM    8 CL3  UNL     1      14.599  22.262   8.306  1.00  0.00    -0.081 Cl
ENDROOT
BRANCH   5   9
HETATM    9  C15 UNL     1      18.657  19.230   6.946  1.00  0.00     0.187 C 
HETATM   10  C16 UNL     1      18.424  17.874   7.415  1.00  0.00     0.238 C 
HETATM   11  O4  UNL     1      18.230  16.943   6.601  1.00  0.00    -0.272 OA
HETATM   12  N1  UNL     1      18.403  17.535   8.831  1.00  0.00    -0.324 N 
HETATM   13  C17 UNL     1      18.906  18.466   9.748  1.00  0.00     0.067 A 
ATOM     14  H1  UNL     1      18.030  16.639   9.148  1.00  0.00     0.169 HD
HETATM   15  C18 UNL     1      19.418  19.688   9.308  1.00  0.00     0.106 A 
HETATM   16  C26 UNL     1      18.917  18.177  11.113  1.00  0.00     0.026 A 
HETATM   17  C19 UNL     1      19.925  20.580  10.219  1.00  0.00     0.262 A 
HETATM   18  C27 UNL     1      19.440  20.026   7.887  1.00  0.00     0.184 C 
HETATM   19  O5  UNL     1      20.390  21.698   9.777  1.00  0.00    -0.267 OA
HETATM   20  N2  UNL     1      19.934  20.295  11.509  1.00  0.00    -0.320 N 
HETATM   21  C20 UNL     1      19.452  19.138  11.989  1.00  0.00     0.070 A 
ATOM     22  H2  UNL     1      20.319  20.978  12.162  1.00  0.00     0.169 HD
HETATM   23  C21 UNL     1      19.485  18.910  13.344  1.00  0.00     0.061 A 
HETATM   24 CL2  UNL     1      20.174  20.158  14.377  1.00  0.00    -0.082 Cl
HETATM   25  C22 UNL     1      18.994  17.751  13.834  1.00  0.00     0.027 A 
HETATM   26  C23 UNL     1      18.473  16.825  12.987  1.00  0.00     0.009 A 
HETATM   27  C24 UNL     1      18.408  16.995  11.578  1.00  0.00    -0.047 A 
HETATM   28  C25 UNL     1      17.775  15.947  10.789  1.00  0.00     0.049 C 
HETATM   29  O6  UNL     1      20.151  21.021   7.505  1.00  0.00    -0.291 OA
ENDBRANCH   5   9
BRANCH   1  30
HETATM   30  O3  UNL     1      13.993  22.075   5.484  1.00  0.00    -0.349 OA
BRANCH  30  31
HETATM   31  C10 UNL     1      12.675  21.735   5.361  1.00  0.00     0.175 C 
BRANCH  31  32
HETATM   32  C9  UNL     1      11.673  22.531   6.127  1.00  0.00     0.027 C 
BRANCH  32  33
HETATM   33  C8  UNL     1      12.084  23.975   6.302  1.00  0.00     0.002 C 
BRANCH  33  34
HETATM   34  C7  UNL     1      11.303  24.688   7.380  1.00  0.00     0.000 C 
BRANCH  34  35
HETATM   35  C6  UNL     1      12.143  25.862   7.865  1.00  0.00     0.000 C 
BRANCH  35  36
HETATM   36  C5  UNL     1      11.471  26.619   8.974  1.00  0.00     0.000 C 
BRANCH  36  37
HETATM   37  C4  UNL     1       9.956  26.496   8.909  1.00  0.00     0.010 C 
BRANCH  37  38
HETATM   38  C3  UNL     1       9.327  27.868   8.797  1.00  0.00     0.111 C 
BRANCH  38  39
HETATM   39  C2  UNL     1       8.824  28.045   7.413  1.00  0.00     0.258 C 
HETATM   40  O2  UNL     1       8.481  29.177   6.987  1.00  0.00    -0.265 OA
BRANCH  39  41
HETATM   41  O1  UNL     1       8.719  26.957   6.561  1.00  0.00    -0.326 OA
HETATM   42  C1  UNL     1       9.278  27.050   5.274  1.00  0.00     0.213 C 
ENDBRANCH  39  41
ENDBRANCH  38  39
ENDBRANCH  37  38
ENDBRANCH  36  37
ENDBRANCH  35  36
ENDBRANCH  34  35
ENDBRANCH  33  34
ENDBRANCH  32  33
ENDBRANCH  31  32
ENDBRANCH  30  31
ENDBRANCH   1  30
TORSDOF 12
ENDMDL
MODEL 5
REMARK VINA RESULT: -8.737427313      5.687     13.594
REMARK  12 active torsions:
REMARK  status: ('A' for Active; 'I' for Inactive)
REMARK    1  A    between atoms: O1_2  and  C2_3 
REMARK    2  A    between atoms: C2_3  and  C3_5 
REMARK    3  A    between atoms: C3_5  and  C4_6 
REMARK    4  A    between atoms: C4_6  and  C5_7 
REMARK    5  A    between atoms: C5_7  and  C6_8 
REMARK    6  A    between atoms: C6_8  and  C7_9 
REMARK    7  A    between atoms: C7_9  and  C8_10 
REMARK    8  A    between atoms: C8_10  and  C9_11 
REMARK    9  A    between atoms: C9_11  and  C10_12 
REMARK   10  A    between atoms: C10_12  and  O3_13 
REMARK   11  A    between atoms: O3_13  and  C11_14 
REMARK   12  A    between atoms: C14_18  and  C15_19 
ROOT
HETATM    1  C11 UNL     1      14.831  20.911   5.012  1.00  0.00     0.092 A 
HETATM    2  C12 UNL     1      15.637  20.231   4.124  1.00  0.00     0.063 A 
HETATM    3  C13 UNL     1      16.825  19.623   4.462  1.00  0.00     0.044 A 
HETATM    4 CL1  UNL     1      17.804  18.768   3.258  1.00  0.00    -0.084 Cl
HETATM    5  C14 UNL     1      17.250  19.689   5.769  1.00  0.00    -0.014 A 
HETATM    6  C28 UNL     1      16.468  20.366   6.706  1.00  0.00     0.036 A 
HETATM    7  C29 UNL     1      15.287  20.964   6.342  1.00  0.00     0.068 A 
HETATM    8 CL3  UNL     1      14.285  21.819   7.487  1.00  0.00    -0.081 Cl
ENDROOT
BRANCH   5   9
HETATM    9  C15 UNL     1      18.529  19.038   6.154  1.00  0.00     0.187 C 
HETATM   10  C16 UNL     1      18.408  17.650   6.568  1.00  0.00     0.238 C 
HETATM   11  O4  UNL     1      18.317  16.736   5.716  1.00  0.00    -0.272 OA
HETATM   12  N1  UNL     1      18.387  17.256   7.969  1.00  0.00    -0.324 N 
HETATM   13  C17 UNL     1      18.784  18.193   8.931  1.00  0.00     0.067 A 
ATOM     14  H1  UNL     1      18.090  16.319   8.244  1.00  0.00     0.169 HD
HETATM   15  C18 UNL     1      19.193  19.471   8.549  1.00  0.00     0.106 A 
HETATM   16  C26 UNL     1      18.791  17.854  10.285  1.00  0.00     0.026 A 
HETATM   17  C19 UNL     1      19.599  20.369   9.504  1.00  0.00     0.262 A 
HETATM   18  C27 UNL     1      19.216  19.864   7.142  1.00  0.00     0.184 C 
HETATM   19  O5  UNL     1      19.971  21.540   9.115  1.00  0.00    -0.267 OA
HETATM   20  N2  UNL     1      19.605  20.037  10.783  1.00  0.00    -0.320 N 
HETATM   21  C20 UNL     1      19.219  18.824  11.209  1.00  0.00     0.070 A 
ATOM     22  H2  UNL     1      19.912  20.726  11.470  1.00  0.00     0.169 HD
HETATM   23  C21 UNL     1      19.243  18.549  12.555  1.00  0.00     0.061 A 
HETATM   24 CL2  UNL     1      19.794  19.812  13.649  1.00  0.00    -0.082 Cl
HETATM   25  C22 UNL     1      18.847  17.332  12.990  1.00  0.00     0.027 A 
HETATM   26  C23 UNL     1      18.430  16.397  12.097  1.00  0.00     0.009 A 
HETATM   27  C24 UNL     1      18.380  16.614  10.694  1.00  0.00    -0.047 A 
HETATM   28  C25 UNL     1      17.861  15.544   9.852  1.00  0.00     0.049 C 
HETATM   29  O6  UNL     1      19.843  20.932   6.815  1.00  0.00    -0.291 OA
ENDBRANCH   5   9
BRANCH   1  30
HETATM   30  O3  UNL     1      13.660  21.509   4.680  1.00  0.00    -0.349 OA
BRANCH  30  31
HETATM   31  C10 UNL     1      13.333  22.591   3.911  1.00  0.00     0.175 C 
BRANCH  31  32
HETATM   32  C9  UNL     1      12.476  23.647   4.520  1.00  0.00     0.027 C 
BRANCH  32  33
HETATM   33  C8  UNL     1      11.368  23.079   5.378  1.00  0.00     0.002 C 
BRANCH  33  34
HETATM   34  C7  UNL     1      11.179  23.827   6.676  1.00  0.00     0.000 C 
BRANCH  34  35
HETATM   35  C6  UNL     1      12.273  24.881   6.771  1.00  0.00     0.000 C 
BRANCH  35  36
HETATM   36  C5  UNL     1      12.178  25.684   8.036  1.00  0.00     0.000 C 
BRANCH  36  37
HETATM   37  C4  UNL     1      10.736  25.867   8.486  1.00  0.00     0.010 C 
BRANCH  37  38
HETATM   38  C3  UNL     1      10.429  27.338   8.665  1.00  0.00     0.111 C 
BRANCH  38  39
HETATM   39  C2  UNL     1       9.552  27.775   7.553  1.00  0.00     0.258 C 
HETATM   40  O2  UNL     1       9.245  28.986   7.405  1.00  0.00    -0.265 OA
BRANCH  39  41
HETATM   41  O1  UNL     1       9.049  26.851   6.650  1.00  0.00    -0.326 OA
HETATM   42  C1  UNL     1       9.303  27.035   5.280  1.00  0.00     0.213 C 
ENDBRANCH  39  41
ENDBRANCH  38  39
ENDBRANCH  37  38
ENDBRANCH  36  37
ENDBRANCH  35  36
ENDBRANCH  34  35
ENDBRANCH  33  34
ENDBRANCH  32  33
ENDBRANCH  31  32
ENDBRANCH  30  31
ENDBRANCH   1  30
TORSDOF 12
ENDMDL
