MODEL 1
REMARK VINA RESULT: -9.520152655      0.000      0.000
REMARK  13 active torsions:
REMARK  status: ('A' for Active; 'I' for Inactive)
REMARK    1  A    between atoms: C3_3  and  O1_4 
REMARK    2  A    between atoms: C3_3  and  C4_7 
REMARK    3  A    between atoms: C4_7  and  O2_8 
REMARK    4  A    between atoms: O2_8  and  C5_9 
REMARK    5  A    between atoms: C6_12  and  C7_13 
REMARK    6  A    between atoms: C12_18  and  N2_19 
REMARK    7  A    between atoms: N2_19  and  C13_21 
REMARK    8  A    between atoms: C15_23  and  O3_24 
REMARK    9  A    between atoms: O3_24  and  C16_25 
REMARK   10  A    between atoms: C21_30  and  O4_31 
REMARK   11  A    between atoms: O4_31  and  C22_32 
REMARK   12  A    between atoms: C22_32  and  C23_33 
REMARK   13  A    between atoms: C23_33  and  C24_34 
ROOT
HETATM    1  C1  UNL     1      15.378  21.278   8.897  1.00  0.00     0.018 C 
HETATM    2  C2  UNL     1      15.593  21.371   7.718  1.00  0.00    -0.043 C 
HETATM    3  C3  UNL     1      15.884  21.486   6.267  1.00  0.00     0.289 C 
HETATM    4  F1  UNL     1      15.090  20.594   5.617  1.00  0.00    -0.194 F 
ENDROOT
BRANCH   3   5
HETATM    5  O1  UNL     1      17.219  21.124   6.128  1.00  0.00    -0.350 OA
ATOM      6  H1  UNL     1      17.227  20.434   5.475  1.00  0.00     0.214 HD
ENDBRANCH   3   5
BRANCH   3   7
HETATM    7  C4  UNL     1      15.665  22.916   5.822  1.00  0.00     0.265 C 
BRANCH   7   8
HETATM    8  O2  UNL     1      15.011  22.999   4.593  1.00  0.00    -0.329 OA
BRANCH   8   9
HETATM    9  C5  UNL     1      13.650  23.360   4.595  1.00  0.00     0.149 A 
HETATM   10  N1  UNL     1      13.149  24.177   5.520  1.00  0.00    -0.332 N 
HETATM   11  C6  UNL     1      11.817  24.527   5.518  1.00  0.00     0.100 A 
ATOM     12  H1  UNL     1      13.763  24.550   6.243  1.00  0.00     0.168 HD
HETATM   13  C28 UNL     1      11.051  24.005   4.537  1.00  0.00     0.151 A 
HETATM   14  F2  UNL     1       9.737  24.274   4.429  1.00  0.00    -0.203 F 
HETATM   15  C29 UNL     1      11.540  23.139   3.540  1.00  0.00    -0.011 A 
HETATM   16  C30 UNL     1      10.657  22.592   2.480  1.00  0.00     0.052 C 
HETATM   17  C31 UNL     1      12.873  22.825   3.591  1.00  0.00    -0.002 A 
HETATM   18  C32 UNL     1      13.506  21.912   2.582  1.00  0.00     0.053 C 
BRANCH  11  19
HETATM   19  C7  UNL     1      11.345  25.421   6.571  1.00  0.00     0.064 A 
HETATM   20  C8  UNL     1      11.705  25.405   7.878  1.00  0.00     0.038 A 
HETATM   21  C9  UNL     1      11.218  26.297   8.841  1.00  0.00    -0.056 A 
HETATM   22  C10 UNL     1      11.698  26.174  10.259  1.00  0.00     0.048 C 
HETATM   23  C11 UNL     1      10.328  27.247   8.462  1.00  0.00     0.055 A 
HETATM   24  C12 UNL     1       9.952  27.272   7.120  1.00  0.00     0.106 A 
HETATM   25  N3  UNL     1      10.441  26.401   6.232  1.00  0.00    -0.341 N 
ATOM     26  H3  UNL     1      10.130  26.466   5.263  1.00  0.00     0.167 HD
BRANCH  24  27
HETATM   27  N2  UNL     1       9.112  28.167   6.724  1.00  0.00    -0.341 N 
ATOM     28  H2  UNL     1       9.249  29.122   7.055  1.00  0.00     0.167 HD
BRANCH  27  29
HETATM   29  C13 UNL     1       8.031  27.926   5.875  1.00  0.00     0.058 A 
HETATM   30  C14 UNL     1       8.146  27.879   4.495  1.00  0.00     0.071 A 
HETATM   31  C15 UNL     1       7.097  27.641   3.668  1.00  0.00     0.104 A 
HETATM   32  C21 UNL     1       5.786  27.421   4.191  1.00  0.00     0.103 A 
HETATM   33  C26 UNL     1       5.717  27.476   5.584  1.00  0.00     0.065 A 
HETATM   34  C27 UNL     1       6.783  27.717   6.407  1.00  0.00     0.063 A 
HETATM   35 CL1  UNL     1       6.588  27.768   8.158  1.00  0.00    -0.082 Cl
BRANCH  31  36
HETATM   36  O3  UNL     1       7.209  27.596   2.308  1.00  0.00    -0.343 OA
BRANCH  36  37
HETATM   37  C16 UNL     1       8.118  26.890   1.533  1.00  0.00     0.129 C 
HETATM   38  C17 UNL     1       7.977  25.402   1.862  1.00  0.00     0.032 C 
HETATM   39  C18 UNL     1       6.646  25.019   1.235  1.00  0.00     0.002 C 
HETATM   40  C19 UNL     1       6.243  26.149   0.333  1.00  0.00     0.002 C 
HETATM   41  C20 UNL     1       7.558  26.886   0.102  1.00  0.00     0.032 C 
ENDBRANCH  36  37
ENDBRANCH  31  36
BRANCH  32  42
HETATM   42  O4  UNL     1       4.801  27.198   3.373  1.00  0.00    -0.348 OA
BRANCH  42  43
HETATM   43  C22 UNL     1       3.722  26.673   2.911  1.00  0.00     0.176 C 
BRANCH  43  44
HETATM   44  C23 UNL     1       3.180  25.416   3.511  1.00  0.00     0.026 C 
BRANCH  44  45
HETATM   45  C24 UNL     1       3.403  24.162   2.739  1.00  0.00    -0.002 C 
HETATM   46  C25 UNL     1       3.881  23.101   3.765  1.00  0.00     0.005 C 
ENDBRANCH  44  45
ENDBRANCH  43  44
ENDBRANCH  42  43
ENDBRANCH  32  42
ENDBRANCH  27  29
ENDBRANCH  24  27
ENDBRANCH  11  19
ENDBRANCH   8   9
ENDBRANCH   7   8
ENDBRANCH   3   7
TORSDOF 13
ENDMDL
MODEL 2
REMARK VINA RESULT: -9.443342807      4.324      7.935
REMARK  13 active torsions:
REMARK  status: ('A' for Active; 'I' for Inactive)
REMARK    1  A    between atoms: C3_3  and  O1_4 
REMARK    2  A    between atoms: C3_3  and  C4_7 
REMARK    3  A    between atoms: C4_7  and  O2_8 
REMARK    4  A    between atoms: O2_8  and  C5_9 
REMARK    5  A    between atoms: C6_12  and  C7_13 
REMARK    6  A    between atoms: C12_18  and  N2_19 
REMARK    7  A    between atoms: N2_19  and  C13_21 
REMARK    8  A    between atoms: C15_23  and  O3_24 
REMARK    9  A    between atoms: O3_24  and  C16_25 
REMARK   10  A    between atoms: C21_30  and  O4_31 
REMARK   11  A    between atoms: O4_31  and  C22_32 
REMARK   12  A    between atoms: C22_32  and  C23_33 
REMARK   13  A    between atoms: C23_33  and  C24_34 
ROOT
HETATM    1  C1  UNL     1      16.957  16.510  10.909  1.00  0.00     0.018 C 
HETATM    2  C2  UNL     1      17.081  17.631  10.496  1.00  0.00    -0.043 C 
HETATM    3  C3  UNL     1      17.220  19.011   9.964  1.00  0.00     0.289 C 
HETATM    4  F1  UNL     1      17.040  19.871  11.002  1.00  0.00    -0.194 F 
ENDROOT
BRANCH   3   5
HETATM    5  O1  UNL     1      16.191  19.156   9.041  1.00  0.00    -0.350 OA
ATOM      6  H1  UNL     1      15.488  19.589   9.512  1.00  0.00     0.214 HD
ENDBRANCH   3   5
BRANCH   3   7
HETATM    7  C4  UNL     1      18.570  19.158   9.294  1.00  0.00     0.265 C 
BRANCH   7   8
HETATM    8  O2  UNL     1      19.007  17.971   8.706  1.00  0.00    -0.329 OA
BRANCH   8   9
HETATM    9  C5  UNL     1      18.761  17.788   7.332  1.00  0.00     0.149 A 
HETATM   10  N1  UNL     1      17.953  18.603   6.656  1.00  0.00    -0.332 N 
HETATM   11  C6  UNL     1      17.717  18.421   5.311  1.00  0.00     0.100 A 
ATOM     12  H1  UNL     1      17.502  19.377   7.143  1.00  0.00     0.168 HD
HETATM   13  C28 UNL     1      18.342  17.382   4.718  1.00  0.00     0.151 A 
HETATM   14  F2  UNL     1      18.191  17.103   3.410  1.00  0.00    -0.203 F 
HETATM   15  C29 UNL     1      19.204  16.498   5.395  1.00  0.00    -0.011 A 
HETATM   16  C30 UNL     1      19.869  15.370   4.697  1.00  0.00     0.052 C 
HETATM   17  C31 UNL     1      19.403  16.727   6.731  1.00  0.00    -0.002 A 
HETATM   18  C32 UNL     1      20.299  15.850   7.556  1.00  0.00     0.053 C 
BRANCH  11  19
HETATM   19  C7  UNL     1      16.812  19.353   4.646  1.00  0.00     0.064 A 
HETATM   20  C8  UNL     1      16.155  19.160   3.476  1.00  0.00     0.038 A 
HETATM   21  C9  UNL     1      15.294  20.096   2.891  1.00  0.00    -0.056 A 
HETATM   22  C10 UNL     1      14.623  19.758   1.590  1.00  0.00     0.048 C 
HETATM   23  C11 UNL     1      15.090  21.280   3.520  1.00  0.00     0.055 A 
HETATM   24  C12 UNL     1      15.762  21.488   4.723  1.00  0.00     0.106 A 
HETATM   25  N3  UNL     1      16.576  20.568   5.248  1.00  0.00    -0.341 N 
ATOM     26  H3  UNL     1      17.042  20.775   6.131  1.00  0.00     0.167 HD
BRANCH  24  27
HETATM   27  N2  UNL     1      15.586  22.601   5.351  1.00  0.00    -0.341 N 
ATOM     28  H2  UNL     1      16.412  23.165   5.553  1.00  0.00     0.167 HD
BRANCH  27  29
HETATM   29  C13 UNL     1      14.350  23.092   5.775  1.00  0.00     0.058 A 
HETATM   30  C14 UNL     1      13.421  23.652   4.914  1.00  0.00     0.071 A 
HETATM   31  C15 UNL     1      12.217  24.126   5.323  1.00  0.00     0.104 A 
HETATM   32  C21 UNL     1      11.837  24.070   6.699  1.00  0.00     0.103 A 
HETATM   33  C26 UNL     1      12.801  23.498   7.529  1.00  0.00     0.065 A 
HETATM   34  C27 UNL     1      14.011  23.023   7.104  1.00  0.00     0.063 A 
HETATM   35 CL1  UNL     1      15.163  22.319   8.238  1.00  0.00    -0.082 Cl
BRANCH  31  36
HETATM   36  O3  UNL     1      11.301  24.679   4.475  1.00  0.00    -0.343 OA
BRANCH  36  37
HETATM   37  C16 UNL     1      11.226  24.583   3.093  1.00  0.00     0.129 C 
HETATM   38  C17 UNL     1      10.802  23.158   2.732  1.00  0.00     0.032 C 
HETATM   39  C18 UNL     1       9.340  23.102   3.142  1.00  0.00     0.002 C 
HETATM   40  C19 UNL     1       8.902  24.514   3.406  1.00  0.00     0.002 C 
HETATM   41  C20 UNL     1       9.956  25.339   2.673  1.00  0.00     0.032 C 
ENDBRANCH  36  37
ENDBRANCH  31  36
BRANCH  32  42
HETATM   42  O4  UNL     1      10.677  24.534   7.060  1.00  0.00    -0.348 OA
BRANCH  42  43
HETATM   43  C22 UNL     1       9.814  25.340   7.569  1.00  0.00     0.176 C 
BRANCH  43  44
HETATM   44  C23 UNL     1       9.840  26.791   7.215  1.00  0.00     0.026 C 
BRANCH  44  45
HETATM   45  C24 UNL     1      10.149  27.739   8.321  1.00  0.00    -0.002 C 
HETATM   46  C25 UNL     1       8.804  28.414   8.701  1.00  0.00     0.005 C 
ENDBRANCH  44  45
ENDBRANCH  43  44
ENDBRANCH  42  43
ENDBRANCH  32  42
ENDBRANCH  27  29
ENDBRANCH  24  27
ENDBRANCH  11  19
ENDBRANCH   8   9
ENDBRANCH   7   8
ENDBRANCH   3   7
TORSDOF 13
ENDMDL
MODEL 3
REMARK VINA RESULT: -9.438817070      2.690      9.466
REMARK  13 active torsions:
REMARK  status: ('A' for Active; 'I' for Inactive)
REMARK    1  A    between atoms: C3_3  and  O1_4 
REMARK    2  A    between atoms: C3_3  and  C4_7 
REMARK    3  A    between atoms: C4_7  and  O2_8 
REMARK    4  A    between atoms: O2_8  and  C5_9 
REMARK    5  A    between atoms: C6_12  and  C7_13 
REMARK    6  A    between atoms: C12_18  and  N2_19 
REMARK    7  A    between atoms: N2_19  and  C13_21 
REMARK    8  A    between atoms: C15_23  and  O3_24 
REMARK    9  A    between atoms: O3_24  and  C16_25 
REMARK   10  A    between atoms: C21_30  and  O4_31 
REMARK   11  A    between atoms: O4_31  and  C22_32 
REMARK   12  A    between atoms: C22_32  and  C23_33 
REMARK   13  A    between atoms: C23_33  and  C24_34 
ROOT
HETATM    1  C1  UNL     1       8.292  27.205   1.117  1.00  0.00     0.018 C 
HETATM    2  C2  UNL     1       7.239  26.625   1.101  1.00  0.00    -0.043 C 
HETATM    3  C3  UNL     1       5.927  25.931   1.070  1.00  0.00     0.289 C 
HETATM    4  F1  UNL     1       6.140  24.672   0.600  1.00  0.00    -0.194 F 
ENDROOT
BRANCH   3   5
HETATM    5  O1  UNL     1       5.150  26.650   0.169  1.00  0.00    -0.350 OA
ATOM      6  H1  UNL     1       5.351  26.285  -0.685  1.00  0.00     0.214 HD
ENDBRANCH   3   5
BRANCH   3   7
HETATM    7  C4  UNL     1       5.313  25.956   2.453  1.00  0.00     0.265 C 
BRANCH   7   8
HETATM    8  O2  UNL     1       5.232  27.245   2.978  1.00  0.00    -0.329 OA
BRANCH   8   9
HETATM    9  C5  UNL     1       5.648  27.441   4.310  1.00  0.00     0.149 A 
HETATM   10  N1  UNL     1       6.871  27.101   4.712  1.00  0.00    -0.332 N 
HETATM   11  C6  UNL     1       7.274  27.294   6.015  1.00  0.00     0.100 A 
ATOM     12  H1  UNL     1       7.523  26.692   4.043  1.00  0.00     0.168 HD
HETATM   13  C28 UNL     1       6.371  27.841   6.856  1.00  0.00     0.151 A 
HETATM   14  F2  UNL     1       6.647  28.080   8.152  1.00  0.00    -0.203 F 
HETATM   15  C29 UNL     1       5.069  28.215   6.472  1.00  0.00    -0.011 A 
HETATM   16  C30 UNL     1       4.114  28.815   7.436  1.00  0.00     0.052 C 
HETATM   17  C31 UNL     1       4.723  28.000   5.164  1.00  0.00    -0.002 A 
HETATM   18  C32 UNL     1       3.363  28.358   4.639  1.00  0.00     0.053 C 
BRANCH  11  19
HETATM   19  C7  UNL     1       8.628  26.889   6.377  1.00  0.00     0.064 A 
HETATM   20  C8  UNL     1       9.154  26.818   7.625  1.00  0.00     0.038 A 
HETATM   21  C9  UNL     1      10.464  26.415   7.907  1.00  0.00    -0.056 A 
HETATM   22  C10 UNL     1      10.925  26.377   9.337  1.00  0.00     0.048 C 
HETATM   23  C11 UNL     1      11.278  26.068   6.879  1.00  0.00     0.055 A 
HETATM   24  C12 UNL     1      10.746  26.137   5.593  1.00  0.00     0.106 A 
HETATM   25  N3  UNL     1       9.489  26.528   5.366  1.00  0.00    -0.341 N 
ATOM     26  H3  UNL     1       9.154  26.560   4.403  1.00  0.00     0.167 HD
BRANCH  24  27
HETATM   27  N2  UNL     1      11.491  25.808   4.592  1.00  0.00    -0.341 N 
ATOM     28  H2  UNL     1      11.542  26.459   3.807  1.00  0.00     0.167 HD
BRANCH  27  29
HETATM   29  C13 UNL     1      12.232  24.628   4.502  1.00  0.00     0.058 A 
HETATM   30  C14 UNL     1      13.310  24.347   5.324  1.00  0.00     0.071 A 
HETATM   31  C15 UNL     1      14.029  23.199   5.241  1.00  0.00     0.104 A 
HETATM   32  C21 UNL     1      13.703  22.197   4.277  1.00  0.00     0.103 A 
HETATM   33  C26 UNL     1      12.611  22.523   3.472  1.00  0.00     0.065 A 
HETATM   34  C27 UNL     1      11.893  23.684   3.566  1.00  0.00     0.063 A 
HETATM   35 CL1  UNL     1      10.528  23.999   2.496  1.00  0.00    -0.082 Cl
BRANCH  31  36
HETATM   36  O3  UNL     1      15.094  22.921   6.051  1.00  0.00    -0.343 OA
BRANCH  36  37
HETATM   37  C16 UNL     1      15.263  23.214   7.396  1.00  0.00     0.129 C 
HETATM   38  C17 UNL     1      14.577  22.121   8.218  1.00  0.00     0.032 C 
HETATM   39  C18 UNL     1      15.480  20.912   8.032  1.00  0.00     0.002 C 
HETATM   40  C19 UNL     1      16.757  21.406   7.416  1.00  0.00     0.002 C 
HETATM   41  C20 UNL     1      16.730  22.899   7.728  1.00  0.00     0.032 C 
ENDBRANCH  36  37
ENDBRANCH  31  36
BRANCH  32  42
HETATM   42  O4  UNL     1      14.412  21.109   4.221  1.00  0.00    -0.348 OA
BRANCH  42  43
HETATM   43  C22 UNL     1      14.783  19.905   4.480  1.00  0.00     0.176 C 
BRANCH  43  44
HETATM   44  C23 UNL     1      14.876  18.895   3.384  1.00  0.00     0.026 C 
BRANCH  44  45
HETATM   45  C24 UNL     1      15.606  19.313   2.155  1.00  0.00    -0.002 C 
HETATM   46  C25 UNL     1      16.992  18.619   2.218  1.00  0.00     0.005 C 
ENDBRANCH  44  45
ENDBRANCH  43  44
ENDBRANCH  42  43
ENDBRANCH  32  42
ENDBRANCH  27  29
ENDBRANCH  24  27
ENDBRANCH  11  19
ENDBRANCH   8   9
ENDBRANCH   7   8
ENDBRANCH   3   7
TORSDOF 13
ENDMDL
MODEL 4
REMARK VINA RESULT: -9.324998122      2.744      9.508
REMARK  13 active torsions:
REMARK  status: ('A' for Active; 'I' for Inactive)
REMARK    1  A    between atoms: C3_3  and  O1_4 
REMARK    2  A    between atoms: C3_3  and  C4_7 
REMARK    3  A    between atoms: C4_7  and  O2_8 
REMARK    4  A    between atoms: O2_8  and  C5_9 
REMARK    5  A    between atoms: C6_12  and  C7_13 
REMARK    6  A    between atoms: C12_18  and  N2_19 
REMARK    7  A    between atoms: N2_19  and  C13_21 
REMARK    8  A    between atoms: C15_23  and  O3_24 
REMARK    9  A    between atoms: O3_24  and  C16_25 
REMARK   10  A    between atoms: C21_30  and  O4_31 
REMARK   11  A    between atoms: O4_31  and  C22_32 
REMARK   12  A    between atoms: C22_32  and  C23_33 
REMARK   13  A    between atoms: C23_33  and  C24_34 
ROOT
HETATM    1  C1  UNL     1       5.699  25.387   0.782  1.00  0.00     0.018 C 
HETATM    2  C2  UNL     1       6.723  26.005   0.906  1.00  0.00    -0.043 C 
HETATM    3  C3  UNL     1       7.998  26.747   1.073  1.00  0.00     0.289 C 
HETATM    4  F1  UNL     1       8.307  27.306  -0.127  1.00  0.00    -0.194 F 
ENDROOT
BRANCH   3   5
HETATM    5  O1  UNL     1       8.944  25.786   1.409  1.00  0.00    -0.350 OA
ATOM      6  H1  UNL     1       9.570  26.232   1.968  1.00  0.00     0.214 HD
ENDBRANCH   3   5
BRANCH   3   7
HETATM    7  C4  UNL     1       7.845  27.765   2.185  1.00  0.00     0.265 C 
BRANCH   7   8
HETATM    8  O2  UNL     1       6.736  27.512   2.992  1.00  0.00    -0.329 OA
BRANCH   8   9
HETATM    9  C5  UNL     1       6.929  27.491   4.387  1.00  0.00     0.149 A 
HETATM   10  N1  UNL     1       8.098  27.146   4.922  1.00  0.00    -0.332 N 
HETATM   11  C6  UNL     1       8.282  27.127   6.286  1.00  0.00     0.100 A 
ATOM     12  H1  UNL     1       8.873  26.890   4.309  1.00  0.00     0.168 HD
HETATM   13  C28 UNL     1       7.224  27.476   7.048  1.00  0.00     0.151 A 
HETATM   14  F2  UNL     1       7.280  27.498   8.393  1.00  0.00    -0.203 F 
HETATM   15  C29 UNL     1       5.971  27.848   6.524  1.00  0.00    -0.011 A 
HETATM   16  C30 UNL     1       4.838  28.226   7.404  1.00  0.00     0.052 C 
HETATM   17  C31 UNL     1       5.846  27.849   5.159  1.00  0.00    -0.002 A 
HETATM   18  C32 UNL     1       4.558  28.227   4.486  1.00  0.00     0.053 C 
BRANCH  11  19
HETATM   19  C7  UNL     1       9.592  26.730   6.793  1.00  0.00     0.064 A 
HETATM   20  C8  UNL     1      10.001  26.724   8.085  1.00  0.00     0.038 A 
HETATM   21  C9  UNL     1      11.274  26.325   8.507  1.00  0.00    -0.056 A 
HETATM   22  C10 UNL     1      11.603  26.363   9.973  1.00  0.00     0.048 C 
HETATM   23  C11 UNL     1      12.173  25.912   7.579  1.00  0.00     0.055 A 
HETATM   24  C12 UNL     1      11.761  25.915   6.247  1.00  0.00     0.106 A 
HETATM   25  N3  UNL     1      10.536  26.304   5.886  1.00  0.00    -0.341 N 
ATOM     26  H3  UNL     1      10.289  26.286   4.896  1.00  0.00     0.167 HD
BRANCH  24  27
HETATM   27  N2  UNL     1      12.588  25.522   5.338  1.00  0.00    -0.341 N 
ATOM     28  H2  UNL     1      12.940  26.223   4.685  1.00  0.00     0.167 HD
BRANCH  27  29
HETATM   29  C13 UNL     1      13.038  24.210   5.181  1.00  0.00     0.058 A 
HETATM   30  C14 UNL     1      13.920  23.602   6.058  1.00  0.00     0.071 A 
HETATM   31  C15 UNL     1      14.356  22.325   5.910  1.00  0.00     0.104 A 
HETATM   32  C21 UNL     1      13.916  21.523   4.813  1.00  0.00     0.103 A 
HETATM   33  C26 UNL     1      13.029  22.176   3.956  1.00  0.00     0.065 A 
HETATM   34  C27 UNL     1      12.597  23.463   4.118  1.00  0.00     0.063 A 
HETATM   35 CL1  UNL     1      11.473  24.197   2.974  1.00  0.00    -0.082 Cl
BRANCH  31  36
HETATM   36  O3  UNL     1      15.227  21.725   6.773  1.00  0.00    -0.343 OA
BRANCH  36  37
HETATM   37  C16 UNL     1      15.756  22.217   7.958  1.00  0.00     0.129 C 
HETATM   38  C17 UNL     1      15.236  21.358   9.112  1.00  0.00     0.032 C 
HETATM   39  C18 UNL     1      15.980  20.042   8.945  1.00  0.00     0.002 C 
HETATM   40  C19 UNL     1      17.085  20.283   7.957  1.00  0.00     0.002 C 
HETATM   41  C20 UNL     1      17.236  21.802   7.979  1.00  0.00     0.032 C 
ENDBRANCH  36  37
ENDBRANCH  31  36
BRANCH  32  42
HETATM   42  O4  UNL     1      14.353  20.305   4.697  1.00  0.00    -0.348 OA
BRANCH  42  43
HETATM   43  C22 UNL     1      14.607  19.169   4.149  1.00  0.00     0.176 C 
BRANCH  43  44
HETATM   44  C23 UNL     1      16.019  18.768   3.870  1.00  0.00     0.026 C 
BRANCH  44  45
HETATM   45  C24 UNL     1      16.439  18.767   2.441  1.00  0.00    -0.002 C 
HETATM   46  C25 UNL     1      17.589  17.731   2.329  1.00  0.00     0.005 C 
ENDBRANCH  44  45
ENDBRANCH  43  44
ENDBRANCH  42  43
ENDBRANCH  32  42
ENDBRANCH  27  29
ENDBRANCH  24  27
ENDBRANCH  11  19
ENDBRANCH   8   9
ENDBRANCH   7   8
ENDBRANCH   3   7
TORSDOF 13
ENDMDL
MODEL 5
REMARK VINA RESULT: -9.312201896      2.927     10.606
REMARK  13 active torsions:
REMARK  status: ('A' for Active; 'I' for Inactive)
REMARK    1  A    between atoms: C3_3  and  O1_4 
REMARK    2  A    between atoms: C3_3  and  C4_7 
REMARK    3  A    between atoms: C4_7  and  O2_8 
REMARK    4  A    between atoms: O2_8  and  C5_9 
REMARK    5  A    between atoms: C6_12  and  C7_13 
REMARK    6  A    between atoms: C12_18  and  N2_19 
REMARK    7  A    between atoms: N2_19  and  C13_21 
REMARK    8  A    between atoms: C15_23  and  O3_24 
REMARK    9  A    between atoms: O3_24  and  C16_25 
REMARK   10  A    between atoms: C21_30  and  O4_31 
REMARK   11  A    between atoms: O4_31  and  C22_32 
REMARK   12  A    between atoms: C22_32  and  C23_33 
REMARK   13  A    between atoms: C23_33  and  C24_34 
ROOT
HETATM    1  C1  UNL     1       7.518  25.033   3.106  1.00  0.00     0.018 C 
HETATM    2  C2  UNL     1       7.287  26.071   3.665  1.00  0.00    -0.043 C 
HETATM    3  C3  UNL     1       6.994  27.365   4.333  1.00  0.00     0.289 C 
HETATM    4  F1  UNL     1       6.313  27.090   5.478  1.00  0.00    -0.194 F 
ENDROOT
BRANCH   3   5
HETATM    5  O1  UNL     1       6.177  28.060   3.448  1.00  0.00    -0.350 OA
ATOM      6  H1  UNL     1       5.296  27.970   3.794  1.00  0.00     0.214 HD
ENDBRANCH   3   5
BRANCH   3   7
HETATM    7  C4  UNL     1       8.289  28.112   4.572  1.00  0.00     0.265 C 
BRANCH   7   8
HETATM    8  O2  UNL     1       8.601  28.219   5.927  1.00  0.00    -0.329 OA
BRANCH   8   9
HETATM    9  C5  UNL     1       9.486  27.271   6.475  1.00  0.00     0.149 A 
HETATM   10  N1  UNL     1      10.148  26.411   5.703  1.00  0.00    -0.332 N 
HETATM   11  C6  UNL     1      11.013  25.486   6.244  1.00  0.00     0.100 A 
ATOM     12  H1  UNL     1      10.013  26.439   4.693  1.00  0.00     0.168 HD
HETATM   13  C28 UNL     1      11.155  25.496   7.586  1.00  0.00     0.151 A 
HETATM   14  F2  UNL     1      11.971  24.641   8.230  1.00  0.00    -0.203 F 
HETATM   15  C29 UNL     1      10.475  26.387   8.438  1.00  0.00    -0.011 A 
HETATM   16  C30 UNL     1      10.666  26.359   9.909  1.00  0.00     0.052 C 
HETATM   17  C31 UNL     1       9.627  27.286   7.845  1.00  0.00    -0.002 A 
HETATM   18  C32 UNL     1       8.848  28.285   8.652  1.00  0.00     0.053 C 
BRANCH  11  19
HETATM   19  C7  UNL     1      11.695  24.574   5.330  1.00  0.00     0.064 A 
HETATM   20  C8  UNL     1      11.132  23.830   4.346  1.00  0.00     0.038 A 
HETATM   21  C9  UNL     1      11.844  22.976   3.498  1.00  0.00    -0.056 A 
HETATM   22  C10 UNL     1      11.100  22.206   2.443  1.00  0.00     0.048 C 
HETATM   23  C11 UNL     1      13.188  22.871   3.652  1.00  0.00     0.055 A 
HETATM   24  C12 UNL     1      13.776  23.632   4.660  1.00  0.00     0.106 A 
HETATM   25  N3  UNL     1      13.059  24.436   5.450  1.00  0.00    -0.341 N 
ATOM     26  H3  UNL     1      13.543  24.969   6.172  1.00  0.00     0.167 HD
BRANCH  24  27
HETATM   27  N2  UNL     1      15.053  23.561   4.831  1.00  0.00    -0.341 N 
ATOM     28  H2  UNL     1      15.620  24.332   4.476  1.00  0.00     0.167 HD
BRANCH  27  29
HETATM   29  C13 UNL     1      15.716  22.509   5.464  1.00  0.00     0.058 A 
HETATM   30  C14 UNL     1      16.223  21.414   4.784  1.00  0.00     0.071 A 
HETATM   31  C15 UNL     1      16.872  20.392   5.397  1.00  0.00     0.104 A 
HETATM   32  C21 UNL     1      17.069  20.393   6.813  1.00  0.00     0.103 A 
HETATM   33  C26 UNL     1      16.543  21.514   7.456  1.00  0.00     0.065 A 
HETATM   34  C27 UNL     1      15.892  22.538   6.825  1.00  0.00     0.063 A 
HETATM   35 CL1  UNL     1      15.262  23.912   7.733  1.00  0.00    -0.082 Cl
BRANCH  31  36
HETATM   36  O3  UNL     1      17.371  19.311   4.729  1.00  0.00    -0.343 OA
BRANCH  36  37
HETATM   37  C16 UNL     1      16.737  18.121   4.403  1.00  0.00     0.129 C 
HETATM   38  C17 UNL     1      15.550  18.441   3.491  1.00  0.00     0.032 C 
HETATM   39  C18 UNL     1      16.203  18.833   2.175  1.00  0.00     0.002 C 
HETATM   40  C19 UNL     1      17.647  18.432   2.263  1.00  0.00     0.002 C 
HETATM   41  C20 UNL     1      17.647  17.406   3.392  1.00  0.00     0.032 C 
ENDBRANCH  36  37
ENDBRANCH  31  36
BRANCH  32  42
HETATM   42  O4  UNL     1      17.692  19.398   7.371  1.00  0.00    -0.348 OA
BRANCH  42  43
HETATM   43  C22 UNL     1      18.232  18.691   8.300  1.00  0.00     0.176 C 
BRANCH  43  44
HETATM   44  C23 UNL     1      18.729  19.343   9.549  1.00  0.00     0.026 C 
BRANCH  44  45
HETATM   45  C24 UNL     1      17.789  19.366  10.704  1.00  0.00    -0.002 C 
HETATM   46  C25 UNL     1      18.669  19.303  11.980  1.00  0.00     0.005 C 
ENDBRANCH  44  45
ENDBRANCH  43  44
ENDBRANCH  42  43
ENDBRANCH  32  42
ENDBRANCH  27  29
ENDBRANCH  24  27
ENDBRANCH  11  19
ENDBRANCH   8   9
ENDBRANCH   7   8
ENDBRANCH   3   7
TORSDOF 13
ENDMDL
