MODEL 1
REMARK VINA RESULT: -9.236812923      0.000      0.000
REMARK  12 active torsions:
REMARK  status: ('A' for Active; 'I' for Inactive)
REMARK    1  A    between atoms: O1_2  and  C2_3 
REMARK    2  A    between atoms: C5_8  and  N2_9 
REMARK    3  A    between atoms: C12_16  and  C13_17 
REMARK    4  A    between atoms: C19_27  and  N4_28 
REMARK    5  A    between atoms: C22_34  and  O2_35 
REMARK    6  A    between atoms: O2_35  and  C23_36 
REMARK    7  A    between atoms: C23_36  and  C24_37 
REMARK    8  A    between atoms: C24_37  and  C25_38 
REMARK    9  A    between atoms: C25_38  and  C26_39 
REMARK   10  A    between atoms: C26_39  and  C27_40 
REMARK   11  A    between atoms: C27_40  and  C28_41 
REMARK   12  A    between atoms: C28_41  and  N5_42 
ROOT
HETATM    1  C2  UNL     1      16.784  19.625   9.152  1.00  0.00     0.105 A 
HETATM    2  C3  UNL     1      15.672  20.437   9.129  1.00  0.00     0.070 A 
HETATM    3  C4  UNL     1      15.286  21.162   8.028  1.00  0.00     0.067 A 
HETATM    4  N1  UNL     1      14.192  21.960   8.036  1.00  0.00    -0.191 N 
ATOM      5  H1  UNL     1      13.617  22.036   8.875  1.00  0.00     0.184 HD
HETATM    6  C5  UNL     1      13.869  22.651   6.930  1.00  0.00     0.682 A 
HETATM    7  N3  UNL     1      14.605  22.564   5.832  1.00  0.00    -0.176 N 
ATOM      8  H3  UNL     1      14.329  23.104   5.012  1.00  0.00     0.186 HD
HETATM    9  C19 UNL     1      15.718  21.780   5.755  1.00  0.00     0.129 A 
HETATM   10  C20 UNL     1      16.055  21.072   6.881  1.00  0.00     0.060 A 
HETATM   11  C21 UNL     1      17.168  20.265   6.886  1.00  0.00     0.086 A 
HETATM   12 CL3  UNL     1      18.112  20.180   5.407  1.00  0.00    -0.080 Cl
HETATM   13  C22 UNL     1      17.552  19.528   8.018  1.00  0.00     0.124 A 
ENDROOT
BRANCH   6  14
HETATM   14  N2  UNL     1      12.694  23.489   6.953  1.00  0.00    -0.217 N 
HETATM   15  C6  UNL     1      12.866  24.821   7.496  1.00  0.00     0.146 C 
HETATM   16  C7  UNL     1      11.921  25.811   6.798  1.00  0.00     0.013 C 
HETATM   17  C8  UNL     1      12.286  25.789   5.350  1.00  0.00     0.007 C 
HETATM   18  C12 UNL     1      10.554  25.229   6.912  1.00  0.00     0.031 C 
HETATM   19  C9  UNL     1      11.328  24.813   4.717  1.00  0.00     0.007 C 
HETATM   20  C10 UNL     1      10.614  24.120   5.861  1.00  0.00     0.013 C 
HETATM   21  C11 UNL     1      11.428  23.012   6.460  1.00  0.00     0.146 C 
BRANCH  18  22
HETATM   22  C13 UNL     1       9.444  26.157   6.702  1.00  0.00    -0.031 A 
HETATM   23  C14 UNL     1       8.974  26.583   5.483  1.00  0.00     0.011 A 
HETATM   24  C15 UNL     1       7.921  27.454   5.348  1.00  0.00     0.024 A 
HETATM   25  C16 UNL     1       7.301  27.930   6.483  1.00  0.00     0.035 A 
HETATM   26 CL1  UNL     1       5.944  29.053   6.361  1.00  0.00    -0.084 Cl
HETATM   27  C17 UNL     1       7.736  27.531   7.726  1.00  0.00     0.048 A 
HETATM   28  C18 UNL     1       8.800  26.652   7.823  1.00  0.00     0.042 A 
HETATM   29 CL2  UNL     1       9.288  26.212   9.449  1.00  0.00    -0.084 Cl
ENDBRANCH  18  22
ENDBRANCH   6  14
BRANCH   9  30
HETATM   30  N4  UNL     1      16.391  21.736   4.670  1.00  0.00    -0.384 N 
ATOM     31  H42 UNL     1      16.119  21.172   3.863  1.00  0.00     0.157 HD
ATOM     32  H41 UNL     1      17.247  22.282   4.582  1.00  0.00     0.157 HD
ENDBRANCH   9  30
BRANCH   1  33
HETATM   33  O1  UNL     1      17.112  18.918  10.322  1.00  0.00    -0.353 OA
HETATM   34  C1  UNL     1      16.461  17.688  10.566  1.00  0.00     0.210 C 
ENDBRANCH   1  33
BRANCH  13  35
HETATM   35  O2  UNL     1      18.668  18.754   7.932  1.00  0.00    -0.347 OA
BRANCH  35  36
HETATM   36  C23 UNL     1      18.753  17.365   7.694  1.00  0.00     0.176 C 
BRANCH  36  37
HETATM   37  C24 UNL     1      19.283  17.103   6.344  1.00  0.00     0.030 C 
BRANCH  37  38
HETATM   38  C25 UNL     1      18.335  16.795   5.244  1.00  0.00     0.029 C 
BRANCH  38  39
HETATM   39  C26 UNL     1      18.587  17.324   3.914  1.00  0.00    -0.029 C 
BRANCH  39  40
HETATM   40  C27 UNL     1      17.598  17.395   2.850  1.00  0.00    -0.001 C 
BRANCH  40  41
HETATM   41  C28 UNL     1      16.895  18.644   2.520  1.00  0.00     0.298 C 
BRANCH  41  42
HETATM   42  N5  UNL     1      15.487  18.689   2.609  1.00  0.00     0.083 N 
HETATM   43  C29 UNL     1      14.864  18.672   3.874  1.00  0.00     0.309 C 
HETATM   44  C30 UNL     1      15.030  19.874   1.879  1.00  0.00     0.309 C 
ENDBRANCH  41  42
ENDBRANCH  40  41
ENDBRANCH  39  40
ENDBRANCH  38  39
ENDBRANCH  37  38
ENDBRANCH  36  37
ENDBRANCH  35  36
ENDBRANCH  13  35
TORSDOF 12
ENDMDL
MODEL 2
REMARK VINA RESULT: -9.155691127      1.943      3.894
REMARK  12 active torsions:
REMARK  status: ('A' for Active; 'I' for Inactive)
REMARK    1  A    between atoms: O1_2  and  C2_3 
REMARK    2  A    between atoms: C5_8  and  N2_9 
REMARK    3  A    between atoms: C12_16  and  C13_17 
REMARK    4  A    between atoms: C19_27  and  N4_28 
REMARK    5  A    between atoms: C22_34  and  O2_35 
REMARK    6  A    between atoms: O2_35  and  C23_36 
REMARK    7  A    between atoms: C23_36  and  C24_37 
REMARK    8  A    between atoms: C24_37  and  C25_38 
REMARK    9  A    between atoms: C25_38  and  C26_39 
REMARK   10  A    between atoms: C26_39  and  C27_40 
REMARK   11  A    between atoms: C27_40  and  C28_41 
REMARK   12  A    between atoms: C28_41  and  N5_42 
ROOT
HETATM    1  C2  UNL     1      18.213  19.663   5.949  1.00  0.00     0.105 A 
HETATM    2  C3  UNL     1      17.161  20.510   6.219  1.00  0.00     0.070 A 
HETATM    3  C4  UNL     1      16.115  20.718   5.354  1.00  0.00     0.067 A 
HETATM    4  N1  UNL     1      15.097  21.563   5.642  1.00  0.00    -0.191 N 
ATOM      5  H1  UNL     1      15.083  22.067   6.528  1.00  0.00     0.184 HD
HETATM    6  C5  UNL     1      14.105  21.732   4.752  1.00  0.00     0.682 A 
HETATM    7  N3  UNL     1      14.109  21.084   3.595  1.00  0.00    -0.176 N 
ATOM      8  H3  UNL     1      13.339  21.238   2.944  1.00  0.00     0.186 HD
HETATM    9  C19 UNL     1      15.102  20.219   3.242  1.00  0.00     0.129 A 
HETATM   10  C20 UNL     1      16.119  20.043   4.146  1.00  0.00     0.060 A 
HETATM   11  C21 UNL     1      17.161  19.193   3.861  1.00  0.00     0.086 A 
HETATM   12 CL3  UNL     1      17.122  18.355   2.316  1.00  0.00    -0.080 Cl
HETATM   13  C22 UNL     1      18.225  18.988   4.754  1.00  0.00     0.124 A 
ENDROOT
BRANCH   6  14
HETATM   14  N2  UNL     1      13.022  22.628   5.079  1.00  0.00    -0.217 N 
HETATM   15  C6  UNL     1      12.006  22.107   5.971  1.00  0.00     0.146 C 
HETATM   16  C7  UNL     1      11.424  23.235   6.837  1.00  0.00     0.013 C 
HETATM   17  C8  UNL     1      12.566  23.794   7.620  1.00  0.00     0.007 C 
HETATM   18  C12 UNL     1      10.982  24.297   5.891  1.00  0.00     0.031 C 
HETATM   19  C9  UNL     1      13.042  24.985   6.829  1.00  0.00     0.007 C 
HETATM   20  C10 UNL     1      12.322  24.919   5.496  1.00  0.00     0.013 C 
HETATM   21  C11 UNL     1      12.969  23.962   4.539  1.00  0.00     0.146 C 
BRANCH  18  22
HETATM   22  C13 UNL     1      10.033  25.273   6.423  1.00  0.00    -0.031 A 
HETATM   23  C14 UNL     1       9.730  25.456   7.752  1.00  0.00     0.011 A 
HETATM   24  C15 UNL     1       8.830  26.396   8.193  1.00  0.00     0.024 A 
HETATM   25  C16 UNL     1       8.197  27.198   7.268  1.00  0.00     0.035 A 
HETATM   26 CL1  UNL     1       7.033  28.419   7.786  1.00  0.00    -0.084 Cl
HETATM   27  C17 UNL     1       8.469  27.052   5.927  1.00  0.00     0.048 A 
HETATM   28  C18 UNL     1       9.381  26.094   5.519  1.00  0.00     0.042 A 
HETATM   29 CL2  UNL     1       9.652  25.978   3.790  1.00  0.00    -0.084 Cl
ENDBRANCH  18  22
ENDBRANCH   6  14
BRANCH   9  30
HETATM   30  N4  UNL     1      15.054  19.623   2.113  1.00  0.00    -0.384 N 
ATOM     31  H42 UNL     1      14.451  19.922   1.346  1.00  0.00     0.157 HD
ATOM     32  H41 UNL     1      15.636  18.802   1.948  1.00  0.00     0.157 HD
ENDBRANCH   9  30
BRANCH   1  33
HETATM   33  O1  UNL     1      19.248  19.508   6.889  1.00  0.00    -0.353 OA
HETATM   34  C1  UNL     1      19.494  20.565   7.794  1.00  0.00     0.210 C 
ENDBRANCH   1  33
BRANCH  13  35
HETATM   35  O2  UNL     1      19.214  18.127   4.388  1.00  0.00    -0.347 OA
BRANCH  35  36
HETATM   36  C23 UNL     1      19.238  16.720   4.508  1.00  0.00     0.176 C 
BRANCH  36  37
HETATM   37  C24 UNL     1      18.417  16.284   5.650  1.00  0.00     0.030 C 
BRANCH  37  38
HETATM   38  C25 UNL     1      19.066  15.560   6.772  1.00  0.00     0.029 C 
BRANCH  38  39
HETATM   39  C26 UNL     1      19.263  16.238   8.042  1.00  0.00    -0.029 C 
BRANCH  39  40
HETATM   40  C27 UNL     1      18.197  16.584   8.969  1.00  0.00    -0.001 C 
BRANCH  40  41
HETATM   41  C28 UNL     1      18.267  17.776   9.828  1.00  0.00     0.298 C 
BRANCH  41  42
HETATM   42  N5  UNL     1      17.080  18.294  10.389  1.00  0.00     0.083 N 
HETATM   43  C29 UNL     1      16.285  19.189   9.645  1.00  0.00     0.309 C 
HETATM   44  C30 UNL     1      16.248  17.160  10.800  1.00  0.00     0.309 C 
ENDBRANCH  41  42
ENDBRANCH  40  41
ENDBRANCH  39  40
ENDBRANCH  38  39
ENDBRANCH  37  38
ENDBRANCH  36  37
ENDBRANCH  35  36
ENDBRANCH  13  35
TORSDOF 12
ENDMDL
MODEL 3
REMARK VINA RESULT: -9.102627137      4.057     11.117
REMARK  12 active torsions:
REMARK  status: ('A' for Active; 'I' for Inactive)
REMARK    1  A    between atoms: O1_2  and  C2_3 
REMARK    2  A    between atoms: C5_8  and  N2_9 
REMARK    3  A    between atoms: C12_16  and  C13_17 
REMARK    4  A    between atoms: C19_27  and  N4_28 
REMARK    5  A    between atoms: C22_34  and  O2_35 
REMARK    6  A    between atoms: O2_35  and  C23_36 
REMARK    7  A    between atoms: C23_36  and  C24_37 
REMARK    8  A    between atoms: C24_37  and  C25_38 
REMARK    9  A    between atoms: C25_38  and  C26_39 
REMARK   10  A    between atoms: C26_39  and  C27_40 
REMARK   11  A    between atoms: C27_40  and  C28_41 
REMARK   12  A    between atoms: C28_41  and  N5_42 
ROOT
HETATM    1  C2  UNL     1       9.018  27.111   4.756  1.00  0.00     0.105 A 
HETATM    2  C3  UNL     1       9.945  26.103   4.618  1.00  0.00     0.070 A 
HETATM    3  C4  UNL     1      10.710  25.630   5.655  1.00  0.00     0.067 A 
HETATM    4  N1  UNL     1      11.622  24.642   5.489  1.00  0.00    -0.191 N 
ATOM      5  H1  UNL     1      11.756  24.217   4.572  1.00  0.00     0.184 HD
HETATM    6  C5  UNL     1      12.347  24.227   6.541  1.00  0.00     0.682 A 
HETATM    7  N3  UNL     1      12.184  24.770   7.738  1.00  0.00    -0.176 N 
ATOM      8  H3  UNL     1      12.753  24.428   8.513  1.00  0.00     0.186 HD
HETATM    9  C19 UNL     1      11.284  25.767   7.976  1.00  0.00     0.129 A 
HETATM   10  C20 UNL     1      10.541  26.197   6.906  1.00  0.00     0.060 A 
HETATM   11  C21 UNL     1       9.619  27.204   7.062  1.00  0.00     0.086 A 
HETATM   12 CL3  UNL     1       9.437  27.892   8.669  1.00  0.00    -0.080 Cl
HETATM   13  C22 UNL     1       8.842  27.679   5.994  1.00  0.00     0.124 A 
ENDROOT
BRANCH   6  14
HETATM   14  N2  UNL     1      13.306  23.165   6.348  1.00  0.00    -0.217 N 
HETATM   15  C6  UNL     1      12.786  21.917   5.827  1.00  0.00     0.146 C 
HETATM   16  C7  UNL     1      13.842  21.217   4.960  1.00  0.00     0.013 C 
HETATM   17  C8  UNL     1      14.156  22.155   3.842  1.00  0.00     0.007 C 
HETATM   18  C12 UNL     1      15.068  21.115   5.801  1.00  0.00     0.031 C 
HETATM   19  C9  UNL     1      15.383  22.907   4.290  1.00  0.00     0.007 C 
HETATM   20  C10 UNL     1      15.583  22.554   5.751  1.00  0.00     0.013 C 
HETATM   21  C11 UNL     1      14.698  23.353   6.662  1.00  0.00     0.146 C 
BRANCH  18  22
HETATM   22  C13 UNL     1      16.062  20.136   5.367  1.00  0.00    -0.031 A 
HETATM   23  C14 UNL     1      15.977  19.349   4.243  1.00  0.00     0.011 A 
HETATM   24  C15 UNL     1      16.948  18.447   3.882  1.00  0.00     0.024 A 
HETATM   25  C16 UNL     1      18.066  18.319   4.680  1.00  0.00     0.035 A 
HETATM   26 CL1  UNL     1      19.341  17.173   4.258  1.00  0.00    -0.084 Cl
HETATM   27  C17 UNL     1      18.196  19.086   5.815  1.00  0.00     0.048 A 
HETATM   28  C18 UNL     1      17.196  19.983   6.146  1.00  0.00     0.042 A 
HETATM   29 CL2  UNL     1      17.449  20.907   7.615  1.00  0.00    -0.084 Cl
ENDBRANCH  18  22
ENDBRANCH   6  14
BRANCH   9  30
HETATM   30  N4  UNL     1      11.172  26.253   9.152  1.00  0.00    -0.384 N 
ATOM     31  H42 UNL     1      11.785  26.981   9.520  1.00  0.00     0.157 HD
ATOM     32  H41 UNL     1      10.440  25.911   9.774  1.00  0.00     0.157 HD
ENDBRANCH   9  30
BRANCH   1  33
HETATM   33  O1  UNL     1       8.276  27.541   3.641  1.00  0.00    -0.353 OA
HETATM   34  C1  UNL     1       8.586  26.988   2.378  1.00  0.00     0.210 C 
ENDBRANCH   1  33
BRANCH  13  35
HETATM   35  O2  UNL     1       7.952  28.679   6.241  1.00  0.00    -0.347 OA
BRANCH  35  36
HETATM   36  C23 UNL     1       6.548  28.657   6.094  1.00  0.00     0.176 C 
BRANCH  36  37
HETATM   37  C24 UNL     1       5.936  27.764   7.093  1.00  0.00     0.030 C 
BRANCH  37  38
HETATM   38  C25 UNL     1       4.515  27.366   6.932  1.00  0.00     0.029 C 
BRANCH  38  39
HETATM   39  C26 UNL     1       3.974  27.173   5.597  1.00  0.00    -0.029 C 
BRANCH  39  40
HETATM   40  C27 UNL     1       4.153  25.972   4.797  1.00  0.00    -0.001 C 
BRANCH  40  41
HETATM   41  C28 UNL     1       5.151  25.894   3.718  1.00  0.00     0.298 C 
BRANCH  41  42
HETATM   42  N5  UNL     1       5.429  24.644   3.124  1.00  0.00     0.083 N 
HETATM   43  C29 UNL     1       6.703  24.062   3.281  1.00  0.00     0.309 C 
HETATM   44  C30 UNL     1       4.419  23.691   3.592  1.00  0.00     0.309 C 
ENDBRANCH  41  42
ENDBRANCH  40  41
ENDBRANCH  39  40
ENDBRANCH  38  39
ENDBRANCH  37  38
ENDBRANCH  36  37
ENDBRANCH  35  36
ENDBRANCH  13  35
TORSDOF 12
ENDMDL
MODEL 4
REMARK VINA RESULT: -9.066372298      4.193     11.167
REMARK  12 active torsions:
REMARK  status: ('A' for Active; 'I' for Inactive)
REMARK    1  A    between atoms: O1_2  and  C2_3 
REMARK    2  A    between atoms: C5_8  and  N2_9 
REMARK    3  A    between atoms: C12_16  and  C13_17 
REMARK    4  A    between atoms: C19_27  and  N4_28 
REMARK    5  A    between atoms: C22_34  and  O2_35 
REMARK    6  A    between atoms: O2_35  and  C23_36 
REMARK    7  A    between atoms: C23_36  and  C24_37 
REMARK    8  A    between atoms: C24_37  and  C25_38 
REMARK    9  A    between atoms: C25_38  and  C26_39 
REMARK   10  A    between atoms: C26_39  and  C27_40 
REMARK   11  A    between atoms: C27_40  and  C28_41 
REMARK   12  A    between atoms: C28_41  and  N5_42 
ROOT
HETATM    1  C2  UNL     1       8.550  27.309   4.786  1.00  0.00     0.105 A 
HETATM    2  C3  UNL     1       9.432  26.278   4.549  1.00  0.00     0.070 A 
HETATM    3  C4  UNL     1      10.304  25.794   5.494  1.00  0.00     0.067 A 
HETATM    4  N1  UNL     1      11.167  24.785   5.230  1.00  0.00    -0.191 N 
ATOM      5  H1  UNL     1      11.182  24.350   4.308  1.00  0.00     0.184 HD
HETATM    6  C5  UNL     1      12.001  24.360   6.193  1.00  0.00     0.682 A 
HETATM    7  N3  UNL     1      11.994  24.915   7.397  1.00  0.00    -0.176 N 
ATOM      8  H3  UNL     1      12.643  24.567   8.102  1.00  0.00     0.186 HD
HETATM    9  C19 UNL     1      11.151  25.935   7.729  1.00  0.00     0.129 A 
HETATM   10  C20 UNL     1      10.296  26.374   6.750  1.00  0.00     0.060 A 
HETATM   11  C21 UNL     1       9.422  27.404   7.004  1.00  0.00     0.086 A 
HETATM   12 CL3  UNL     1       9.446  28.108   8.614  1.00  0.00    -0.080 Cl
HETATM   13  C22 UNL     1       8.534  27.890   6.030  1.00  0.00     0.124 A 
ENDROOT
BRANCH   6  14
HETATM   14  N2  UNL     1      12.908  23.276   5.899  1.00  0.00    -0.217 N 
HETATM   15  C6  UNL     1      13.309  23.133   4.514  1.00  0.00     0.146 C 
HETATM   16  C7  UNL     1      14.738  22.577   4.425  1.00  0.00     0.013 C 
HETATM   17  C8  UNL     1      15.616  23.564   5.122  1.00  0.00     0.007 C 
HETATM   18  C12 UNL     1      14.749  21.331   5.242  1.00  0.00     0.031 C 
HETATM   19  C9  UNL     1      15.765  23.037   6.526  1.00  0.00     0.007 C 
HETATM   20  C10 UNL     1      14.767  21.904   6.659  1.00  0.00     0.013 C 
HETATM   21  C11 UNL     1      13.376  22.393   6.936  1.00  0.00     0.146 C 
BRANCH  18  22
HETATM   22  C13 UNL     1      15.853  20.407   4.985  1.00  0.00    -0.031 A 
HETATM   23  C14 UNL     1      16.910  20.165   5.830  1.00  0.00     0.011 A 
HETATM   24  C15 UNL     1      17.918  19.279   5.535  1.00  0.00     0.024 A 
HETATM   25  C16 UNL     1      17.876  18.597   4.338  1.00  0.00     0.035 A 
HETATM   26 CL1  UNL     1      19.148  17.449   3.914  1.00  0.00    -0.084 Cl
HETATM   27  C17 UNL     1      16.837  18.806   3.460  1.00  0.00     0.048 A 
HETATM   28  C18 UNL     1      15.840  19.707   3.791  1.00  0.00     0.042 A 
HETATM   29 CL2  UNL     1      14.565  19.912   2.604  1.00  0.00    -0.084 Cl
ENDBRANCH  18  22
ENDBRANCH   6  14
BRANCH   9  30
HETATM   30  N4  UNL     1      11.189  26.432   8.905  1.00  0.00    -0.384 N 
ATOM     31  H42 UNL     1      11.775  26.061   9.653  1.00  0.00     0.157 HD
ATOM     32  H41 UNL     1      10.609  27.240   9.133  1.00  0.00     0.157 HD
ENDBRANCH   9  30
BRANCH   1  33
HETATM   33  O1  UNL     1       7.691  27.747   3.762  1.00  0.00    -0.353 OA
HETATM   34  C1  UNL     1       8.167  27.718   2.432  1.00  0.00     0.210 C 
ENDBRANCH   1  33
BRANCH  13  35
HETATM   35  O2  UNL     1       7.702  28.911   6.371  1.00  0.00    -0.347 OA
BRANCH  35  36
HETATM   36  C23 UNL     1       6.290  28.934   6.353  1.00  0.00     0.176 C 
BRANCH  36  37
HETATM   37  C24 UNL     1       5.746  27.766   7.067  1.00  0.00     0.030 C 
BRANCH  37  38
HETATM   38  C25 UNL     1       4.528  27.101   6.539  1.00  0.00     0.029 C 
BRANCH  38  39
HETATM   39  C26 UNL     1       4.491  26.676   5.150  1.00  0.00    -0.029 C 
BRANCH  39  40
HETATM   40  C27 UNL     1       3.815  25.482   4.667  1.00  0.00    -0.001 C 
BRANCH  40  41
HETATM   41  C28 UNL     1       4.438  24.572   3.693  1.00  0.00     0.298 C 
BRANCH  41  42
HETATM   42  N5  UNL     1       5.643  24.953   3.064  1.00  0.00     0.083 N 
HETATM   43  C29 UNL     1       6.787  24.141   3.192  1.00  0.00     0.309 C 
HETATM   44  C30 UNL     1       5.362  25.145   1.639  1.00  0.00     0.309 C 
ENDBRANCH  41  42
ENDBRANCH  40  41
ENDBRANCH  39  40
ENDBRANCH  38  39
ENDBRANCH  37  38
ENDBRANCH  36  37
ENDBRANCH  35  36
ENDBRANCH  13  35
TORSDOF 12
ENDMDL
MODEL 5
REMARK VINA RESULT: -9.039202850      4.604     11.383
REMARK  12 active torsions:
REMARK  status: ('A' for Active; 'I' for Inactive)
REMARK    1  A    between atoms: O1_2  and  C2_3 
REMARK    2  A    between atoms: C5_8  and  N2_9 
REMARK    3  A    between atoms: C12_16  and  C13_17 
REMARK    4  A    between atoms: C19_27  and  N4_28 
REMARK    5  A    between atoms: C22_34  and  O2_35 
REMARK    6  A    between atoms: O2_35  and  C23_36 
REMARK    7  A    between atoms: C23_36  and  C24_37 
REMARK    8  A    between atoms: C24_37  and  C25_38 
REMARK    9  A    between atoms: C25_38  and  C26_39 
REMARK   10  A    between atoms: C26_39  and  C27_40 
REMARK   11  A    between atoms: C27_40  and  C28_41 
REMARK   12  A    between atoms: C28_41  and  N5_42 
ROOT
HETATM    1  C2  UNL     1       9.237  27.568   6.353  1.00  0.00     0.105 A 
HETATM    2  C3  UNL     1      10.227  26.612   6.312  1.00  0.00     0.070 A 
HETATM    3  C4  UNL     1      10.212  25.543   5.450  1.00  0.00     0.067 A 
HETATM    4  N1  UNL     1      11.195  24.612   5.437  1.00  0.00    -0.191 N 
ATOM      5  H1  UNL     1      11.986  24.691   6.077  1.00  0.00     0.184 HD
HETATM    6  C5  UNL     1      11.122  23.583   4.576  1.00  0.00     0.682 A 
HETATM    7  N3  UNL     1      10.101  23.466   3.740  1.00  0.00    -0.176 N 
ATOM      8  H3  UNL     1      10.079  22.671   3.101  1.00  0.00     0.186 HD
HETATM    9  C19 UNL     1       9.078  24.367   3.700  1.00  0.00     0.129 A 
HETATM   10  C20 UNL     1       9.146  25.419   4.577  1.00  0.00     0.060 A 
HETATM   11  C21 UNL     1       8.149  26.366   4.604  1.00  0.00     0.086 A 
HETATM   12 CL3  UNL     1       6.817  26.170   3.475  1.00  0.00    -0.080 Cl
HETATM   13  C22 UNL     1       8.176  27.455   5.489  1.00  0.00     0.124 A 
ENDROOT
BRANCH   6  14
HETATM   14  N2  UNL     1      12.183  22.605   4.569  1.00  0.00    -0.217 N 
HETATM   15  C6  UNL     1      12.970  22.523   3.355  1.00  0.00     0.146 C 
HETATM   16  C7  UNL     1      14.417  22.124   3.680  1.00  0.00     0.013 C 
HETATM   17  C8  UNL     1      14.955  23.191   4.576  1.00  0.00     0.007 C 
HETATM   18  C12 UNL     1      14.331  20.877   4.491  1.00  0.00     0.031 C 
HETATM   19  C9  UNL     1      14.759  22.667   5.975  1.00  0.00     0.007 C 
HETATM   20  C10 UNL     1      13.889  21.432   5.845  1.00  0.00     0.013 C 
HETATM   21  C11 UNL     1      12.433  21.766   5.712  1.00  0.00     0.146 C 
BRANCH  18  22
HETATM   22  C13 UNL     1      15.553  20.080   4.571  1.00  0.00    -0.031 A 
HETATM   23  C14 UNL     1      16.534  20.208   5.526  1.00  0.00     0.011 A 
HETATM   24  C15 UNL     1      17.662  19.425   5.553  1.00  0.00     0.024 A 
HETATM   25  C16 UNL     1      17.827  18.462   4.580  1.00  0.00     0.035 A 
HETATM   26 CL1  UNL     1      19.260  17.431   4.572  1.00  0.00    -0.084 Cl
HETATM   27  C17 UNL     1      16.872  18.296   3.604  1.00  0.00     0.048 A 
HETATM   28  C18 UNL     1      15.749  19.104   3.609  1.00  0.00     0.042 A 
HETATM   29 CL2  UNL     1      14.594  18.823   2.319  1.00  0.00    -0.084 Cl
ENDBRANCH  18  22
ENDBRANCH   6  14
BRANCH   9  30
HETATM   30  N4  UNL     1       8.118  24.202   2.872  1.00  0.00    -0.384 N 
ATOM     31  H42 UNL     1       7.321  23.590   3.050  1.00  0.00     0.157 HD
ATOM     32  H41 UNL     1       8.129  24.695   1.979  1.00  0.00     0.157 HD
ENDBRANCH   9  30
BRANCH   1  33
HETATM   33  O1  UNL     1       9.326  28.632   7.269  1.00  0.00    -0.353 OA
HETATM   34  C1  UNL     1       9.183  28.344   8.645  1.00  0.00     0.210 C 
ENDBRANCH   1  33
BRANCH  13  35
HETATM   35  O2  UNL     1       7.147  28.345   5.444  1.00  0.00    -0.347 OA
BRANCH  35  36
HETATM   36  C23 UNL     1       6.217  28.660   6.460  1.00  0.00     0.176 C 
BRANCH  36  37
HETATM   37  C24 UNL     1       5.467  27.460   6.865  1.00  0.00     0.030 C 
BRANCH  37  38
HETATM   38  C25 UNL     1       4.056  27.309   6.428  1.00  0.00     0.029 C 
BRANCH  38  39
HETATM   39  C26 UNL     1       3.760  26.580   5.207  1.00  0.00    -0.029 C 
BRANCH  39  40
HETATM   40  C27 UNL     1       2.840  25.456   5.115  1.00  0.00    -0.001 C 
BRANCH  40  41
HETATM   41  C28 UNL     1       2.723  24.640   3.897  1.00  0.00     0.298 C 
BRANCH  41  42
HETATM   42  N5  UNL     1       3.189  23.308   3.911  1.00  0.00     0.083 N 
HETATM   43  C29 UNL     1       2.530  22.327   3.144  1.00  0.00     0.309 C 
HETATM   44  C30 UNL     1       4.604  23.325   3.531  1.00  0.00     0.309 C 
ENDBRANCH  41  42
ENDBRANCH  40  41
ENDBRANCH  39  40
ENDBRANCH  38  39
ENDBRANCH  37  38
ENDBRANCH  36  37
ENDBRANCH  35  36
ENDBRANCH  13  35
TORSDOF 12
ENDMDL
