MODEL 1
REMARK VINA RESULT: -6.737170663      0.000      0.000
REMARK  8 active torsions:
REMARK  status: ('A' for Active; 'I' for Inactive)
REMARK    1  A    between atoms: C11_11  and  C12_12 
REMARK    2  A    between atoms: C12_12  and  C13_13 
REMARK    3  A    between atoms: C20_23  and  C21_24 
REMARK    4  A    between atoms: C21_24  and  O1_25 
REMARK    5  A    between atoms: O1_25  and  C22_26 
REMARK    6  A    between atoms: C22_26  and  C23_27 
REMARK    7  A    between atoms: C23_27  and  C24_28 
REMARK    8  A    between atoms: C24_28  and  O2_29 
ROOT
HETATM    1  C13 UNL     1      10.999  16.918 -13.510  1.00  0.00     0.126 C 
HETATM    2  C14 UNL     1      12.066  15.901 -13.286  1.00  0.00     0.059 C 
HETATM    3  N1  UNL     1      12.903  15.121 -13.123  1.00  0.00    -0.197 NA
ENDROOT
BRANCH   1   4
HETATM    4  C12 UNL     1       9.795  16.604 -12.671  1.00  0.00     0.043 C 
BRANCH   4   5
HETATM    5  C11 UNL     1       8.715  16.006 -13.534  1.00  0.00     0.106 C 
HETATM    6  C9  UNL     1       7.452  16.765 -13.566  1.00  0.00    -0.059 C 
HETATM    7  C8  UNL     1       6.455  16.481 -12.729  1.00  0.00    -0.069 C 
HETATM    8  C10 UNL     1       7.191  17.905 -14.527  1.00  0.00     0.046 C 
HETATM    9  C7  UNL     1       5.088  16.993 -12.456  1.00  0.00     0.044 C 
HETATM   10  C16 UNL     1       6.742  15.308 -11.815  1.00  0.00     0.042 C 
HETATM   11  C6  UNL     1       4.768  16.360 -11.150  1.00  0.00     0.022 C 
HETATM   12  C5  UNL     1       3.316  16.166 -10.902  1.00  0.00    -0.024 C 
HETATM   13  C17 UNL     1       5.451  14.988 -11.146  1.00  0.00    -0.015 C 
HETATM   14  C4  UNL     1       2.703  15.157 -10.323  1.00  0.00    -0.021 C 
HETATM   15  C3  UNL     1       3.284  13.916  -9.747  1.00  0.00     0.036 C 
HETATM   16  C2  UNL     1       4.473  14.372  -8.951  1.00  0.00    -0.075 C 
HETATM   17  C19 UNL     1       3.786  13.112 -10.937  1.00  0.00     0.014 C 
HETATM   18  C1  UNL     1       4.366  14.463  -7.635  1.00  0.00     0.015 C 
HETATM   19  C20 UNL     1       5.714  14.703  -9.683  1.00  0.00     0.048 C 
HETATM   20  C18 UNL     1       4.650  13.939 -11.840  1.00  0.00     0.012 C 
HETATM   21  C15 UNL     1       7.257  14.243 -12.750  1.00  0.00     0.124 C 
HETATM   22  N2  UNL     1       8.564  14.624 -13.196  1.00  0.00    -0.413 N 
ATOM     23  H2  UNL     1       9.333  13.957 -13.269  1.00  0.00     0.153 HD
BRANCH  19  24
HETATM   24  C21 UNL     1       6.749  13.666  -9.433  1.00  0.00     0.177 C 
BRANCH  24  25
HETATM   25  O1  UNL     1       7.479  14.040  -8.313  1.00  0.00    -0.390 OA
BRANCH  25  26
HETATM   26  C22 UNL     1       8.070  15.270  -8.422  1.00  0.00     0.169 C 
BRANCH  26  27
HETATM   27  C23 UNL     1       8.051  16.081  -7.155  1.00  0.00     0.052 C 
BRANCH  27  28
HETATM   28  C24 UNL     1       9.315  15.972  -6.364  1.00  0.00     0.166 C 
BRANCH  28  29
HETATM   29  O2  UNL     1       9.853  14.688  -6.391  1.00  0.00    -0.401 OA
ATOM     30  H2  UNL     1       9.988  14.368  -7.276  1.00  0.00     0.209 HD
ENDBRANCH  28  29
ENDBRANCH  27  28
ENDBRANCH  26  27
ENDBRANCH  25  26
ENDBRANCH  24  25
ENDBRANCH  19  24
ENDBRANCH   4   5
ENDBRANCH   1   4
TORSDOF 8
ENDMDL
MODEL 2
REMARK VINA RESULT: -6.447771222      3.967      6.867
REMARK  8 active torsions:
REMARK  status: ('A' for Active; 'I' for Inactive)
REMARK    1  A    between atoms: C11_11  and  C12_12 
REMARK    2  A    between atoms: C12_12  and  C13_13 
REMARK    3  A    between atoms: C20_23  and  C21_24 
REMARK    4  A    between atoms: C21_24  and  O1_25 
REMARK    5  A    between atoms: O1_25  and  C22_26 
REMARK    6  A    between atoms: C22_26  and  C23_27 
REMARK    7  A    between atoms: C23_27  and  C24_28 
REMARK    8  A    between atoms: C24_28  and  O2_29 
ROOT
HETATM    1  C13 UNL     1      10.699  12.043  -5.206  1.00  0.00     0.126 C 
HETATM    2  C14 UNL     1      10.157  12.014  -3.817  1.00  0.00     0.059 C 
HETATM    3  N1  UNL     1       9.741  11.975  -2.740  1.00  0.00    -0.197 NA
ENDROOT
BRANCH   1   4
HETATM    4  C12 UNL     1      10.705  13.447  -5.733  1.00  0.00     0.043 C 
BRANCH   4   5
HETATM    5  C11 UNL     1       9.367  14.092  -5.482  1.00  0.00     0.106 C 
HETATM    6  C9  UNL     1       8.330  13.786  -6.483  1.00  0.00    -0.059 C 
HETATM    7  C8  UNL     1       8.125  14.584  -7.530  1.00  0.00    -0.069 C 
HETATM    8  C10 UNL     1       7.435  12.567  -6.409  1.00  0.00     0.046 C 
HETATM    9  C7  UNL     1       7.221  14.619  -8.707  1.00  0.00     0.044 C 
HETATM   10  C16 UNL     1       9.011  15.812  -7.543  1.00  0.00     0.042 C 
HETATM   11  C6  UNL     1       7.859  15.652  -9.565  1.00  0.00     0.022 C 
HETATM   12  C5  UNL     1       6.921  16.349 -10.484  1.00  0.00    -0.024 C 
HETATM   13  C17 UNL     1       8.476  16.689  -8.621  1.00  0.00    -0.015 C 
HETATM   14  C4  UNL     1       6.895  17.616 -10.833  1.00  0.00    -0.021 C 
HETATM   15  C3  UNL     1       7.792  18.722 -10.410  1.00  0.00     0.036 C 
HETATM   16  C2  UNL     1       9.181  18.155 -10.494  1.00  0.00    -0.075 C 
HETATM   17  C19 UNL     1       7.468  18.971  -8.945  1.00  0.00     0.014 C 
HETATM   18  C1  UNL     1       9.937  18.465 -11.535  1.00  0.00     0.015 C 
HETATM   19  C20 UNL     1       9.636  17.266  -9.404  1.00  0.00     0.048 C 
HETATM   20  C18 UNL     1       7.492  17.703  -8.148  1.00  0.00     0.012 C 
HETATM   21  C15 UNL     1       8.877  16.365  -6.147  1.00  0.00     0.124 C 
HETATM   22  N2  UNL     1       9.563  15.489  -5.243  1.00  0.00    -0.413 N 
ATOM     23  H2  UNL     1      10.150  15.836  -4.484  1.00  0.00     0.153 HD
BRANCH  19  24
HETATM   24  C21 UNL     1      10.659  17.956  -8.574  1.00  0.00     0.177 C 
BRANCH  24  25
HETATM   25  O1  UNL     1      11.864  17.285  -8.721  1.00  0.00    -0.390 OA
BRANCH  25  26
HETATM   26  C22 UNL     1      12.851  18.038  -9.296  1.00  0.00     0.169 C 
BRANCH  26  27
HETATM   27  C23 UNL     1      14.247  17.551  -9.014  1.00  0.00     0.052 C 
BRANCH  27  28
HETATM   28  C24 UNL     1      14.512  17.327  -7.560  1.00  0.00     0.166 C 
BRANCH  28  29
HETATM   29  O2  UNL     1      13.955  16.139  -7.092  1.00  0.00    -0.401 OA
ATOM     30  H2  UNL     1      14.273  15.904  -6.229  1.00  0.00     0.209 HD
ENDBRANCH  28  29
ENDBRANCH  27  28
ENDBRANCH  26  27
ENDBRANCH  25  26
ENDBRANCH  24  25
ENDBRANCH  19  24
ENDBRANCH   4   5
ENDBRANCH   1   4
TORSDOF 8
ENDMDL
MODEL 3
REMARK VINA RESULT: -6.434729826      2.652      5.141
REMARK  8 active torsions:
REMARK  status: ('A' for Active; 'I' for Inactive)
REMARK    1  A    between atoms: C11_11  and  C12_12 
REMARK    2  A    between atoms: C12_12  and  C13_13 
REMARK    3  A    between atoms: C20_23  and  C21_24 
REMARK    4  A    between atoms: C21_24  and  O1_25 
REMARK    5  A    between atoms: O1_25  and  C22_26 
REMARK    6  A    between atoms: C22_26  and  C23_27 
REMARK    7  A    between atoms: C23_27  and  C24_28 
REMARK    8  A    between atoms: C24_28  and  O2_29 
ROOT
HETATM    1  C13 UNL     1       6.214  12.453 -13.475  1.00  0.00     0.126 C 
HETATM    2  C14 UNL     1       4.953  11.658 -13.450  1.00  0.00     0.059 C 
HETATM    3  N1  UNL     1       3.979  11.037 -13.446  1.00  0.00    -0.197 NA
ENDROOT
BRANCH   1   4
HETATM    4  C12 UNL     1       6.456  13.089 -12.138  1.00  0.00     0.043 C 
BRANCH   4   5
HETATM    5  C11 UNL     1       5.929  14.500 -12.141  1.00  0.00     0.106 C 
HETATM    6  C9  UNL     1       6.899  15.525 -12.566  1.00  0.00    -0.059 C 
HETATM    7  C8  UNL     1       7.646  16.178 -11.677  1.00  0.00    -0.069 C 
HETATM    8  C10 UNL     1       7.123  15.910 -14.012  1.00  0.00     0.046 C 
HETATM    9  C7  UNL     1       8.692  17.231 -11.704  1.00  0.00     0.044 C 
HETATM   10  C16 UNL     1       7.360  15.794 -10.241  1.00  0.00     0.042 C 
HETATM   11  C6  UNL     1       9.251  17.158 -10.329  1.00  0.00     0.022 C 
HETATM   12  C5  UNL     1       9.854  18.427  -9.843  1.00  0.00    -0.024 C 
HETATM   13  C17 UNL     1       8.090  16.783  -9.401  1.00  0.00    -0.015 C 
HETATM   14  C4  UNL     1       9.811  18.955  -8.641  1.00  0.00    -0.021 C 
HETATM   15  C3  UNL     1       9.146  18.440  -7.415  1.00  0.00     0.036 C 
HETATM   16  C2  UNL     1       9.493  16.979  -7.365  1.00  0.00    -0.075 C 
HETATM   17  C19 UNL     1       7.653  18.565  -7.679  1.00  0.00     0.014 C 
HETATM   18  C1  UNL     1      10.448  16.577  -6.542  1.00  0.00     0.015 C 
HETATM   19  C20 UNL     1       8.750  16.057  -8.249  1.00  0.00     0.048 C 
HETATM   20  C18 UNL     1       7.270  17.959  -8.995  1.00  0.00     0.012 C 
HETATM   21  C15 UNL     1       5.857  15.862 -10.143  1.00  0.00     0.124 C 
HETATM   22  N2  UNL     1       5.305  14.764 -10.882  1.00  0.00    -0.413 N 
ATOM     23  H2  UNL     1       4.521  14.211 -10.534  1.00  0.00     0.153 HD
BRANCH  19  24
HETATM   24  C21 UNL     1       7.830  15.209  -7.446  1.00  0.00     0.177 C 
BRANCH  24  25
HETATM   25  O1  UNL     1       8.459  13.998  -7.196  1.00  0.00    -0.390 OA
BRANCH  25  26
HETATM   26  C22 UNL     1       7.624  13.029  -6.708  1.00  0.00     0.169 C 
BRANCH  26  27
HETATM   27  C23 UNL     1       8.179  12.266  -5.535  1.00  0.00     0.052 C 
BRANCH  27  28
HETATM   28  C24 UNL     1       9.513  12.765  -5.084  1.00  0.00     0.166 C 
BRANCH  28  29
HETATM   29  O2  UNL     1      10.566  12.194  -5.795  1.00  0.00    -0.401 OA
ATOM     30  H2  UNL     1      10.271  11.555  -6.433  1.00  0.00     0.209 HD
ENDBRANCH  28  29
ENDBRANCH  27  28
ENDBRANCH  26  27
ENDBRANCH  25  26
ENDBRANCH  24  25
ENDBRANCH  19  24
ENDBRANCH   4   5
ENDBRANCH   1   4
TORSDOF 8
ENDMDL
MODEL 4
REMARK VINA RESULT: -6.411931854      3.711      6.630
REMARK  8 active torsions:
REMARK  status: ('A' for Active; 'I' for Inactive)
REMARK    1  A    between atoms: C11_11  and  C12_12 
REMARK    2  A    between atoms: C12_12  and  C13_13 
REMARK    3  A    between atoms: C20_23  and  C21_24 
REMARK    4  A    between atoms: C21_24  and  O1_25 
REMARK    5  A    between atoms: O1_25  and  C22_26 
REMARK    6  A    between atoms: C22_26  and  C23_27 
REMARK    7  A    between atoms: C23_27  and  C24_28 
REMARK    8  A    between atoms: C24_28  and  O2_29 
ROOT
HETATM    1  C13 UNL     1       9.631  13.422  -5.159  1.00  0.00     0.126 C 
HETATM    2  C14 UNL     1      10.692  12.401  -5.394  1.00  0.00     0.059 C 
HETATM    3  N1  UNL     1      11.506  11.599  -5.565  1.00  0.00    -0.197 NA
ENDROOT
BRANCH   1   4
HETATM    4  C12 UNL     1       9.886  14.639  -5.998  1.00  0.00     0.043 C 
BRANCH   4   5
HETATM    5  C11 UNL     1       8.587  15.352  -6.268  1.00  0.00     0.106 C 
HETATM    6  C9  UNL     1       7.922  14.979  -7.530  1.00  0.00    -0.059 C 
HETATM    7  C8  UNL     1       8.129  15.670  -8.649  1.00  0.00    -0.069 C 
HETATM    8  C10 UNL     1       6.973  13.806  -7.654  1.00  0.00     0.046 C 
HETATM    9  C7  UNL     1       7.671  15.612 -10.060  1.00  0.00     0.044 C 
HETATM   10  C16 UNL     1       9.050  16.858  -8.470  1.00  0.00     0.042 C 
HETATM   11  C6  UNL     1       8.625  16.528 -10.740  1.00  0.00     0.022 C 
HETATM   12  C5  UNL     1       8.094  17.156 -11.978  1.00  0.00    -0.024 C 
HETATM   13  C17 UNL     1       8.963  17.636  -9.738  1.00  0.00    -0.015 C 
HETATM   14  C4  UNL     1       8.270  18.380 -12.425  1.00  0.00    -0.021 C 
HETATM   15  C3  UNL     1       9.049  19.493 -11.822  1.00  0.00     0.036 C 
HETATM   16  C2  UNL     1      10.346  18.872 -11.384  1.00  0.00    -0.075 C 
HETATM   17  C19 UNL     1       8.276  19.905 -10.579  1.00  0.00     0.014 C 
HETATM   18  C1  UNL     1      11.423  19.046 -12.133  1.00  0.00     0.015 C 
HETATM   19  C20 UNL     1      10.353  18.088 -10.132  1.00  0.00     0.048 C 
HETATM   20  C18 UNL     1       7.948  18.727  -9.713  1.00  0.00     0.012 C 
HETATM   21  C15 UNL     1       8.499  17.559  -7.254  1.00  0.00     0.124 C 
HETATM   22  N2  UNL     1       8.787  16.759  -6.100  1.00  0.00    -0.413 N 
ATOM     23  H2  UNL     1       9.110  17.163  -5.221  1.00  0.00     0.153 HD
BRANCH  19  24
HETATM   24  C21 UNL     1      11.087  18.825  -9.070  1.00  0.00     0.177 C 
BRANCH  24  25
HETATM   25  O1  UNL     1      12.111  18.013  -8.603  1.00  0.00    -0.390 OA
BRANCH  25  26
HETATM   26  C22 UNL     1      12.398  18.189  -7.277  1.00  0.00     0.169 C 
BRANCH  26  27
HETATM   27  C23 UNL     1      11.711  19.371  -6.646  1.00  0.00     0.052 C 
BRANCH  27  28
HETATM   28  C24 UNL     1      11.560  19.244  -5.164  1.00  0.00     0.166 C 
BRANCH  28  29
HETATM   29  O2  UNL     1      10.227  19.272  -4.759  1.00  0.00    -0.401 OA
ATOM     30  H2  UNL     1      10.120  19.036  -3.846  1.00  0.00     0.209 HD
ENDBRANCH  28  29
ENDBRANCH  27  28
ENDBRANCH  26  27
ENDBRANCH  25  26
ENDBRANCH  24  25
ENDBRANCH  19  24
ENDBRANCH   4   5
ENDBRANCH   1   4
TORSDOF 8
ENDMDL
MODEL 5
REMARK VINA RESULT: -6.404484082      3.194      6.022
REMARK  8 active torsions:
REMARK  status: ('A' for Active; 'I' for Inactive)
REMARK    1  A    between atoms: C11_11  and  C12_12 
REMARK    2  A    between atoms: C12_12  and  C13_13 
REMARK    3  A    between atoms: C20_23  and  C21_24 
REMARK    4  A    between atoms: C21_24  and  O1_25 
REMARK    5  A    between atoms: O1_25  and  C22_26 
REMARK    6  A    between atoms: C22_26  and  C23_27 
REMARK    7  A    between atoms: C23_27  and  C24_28 
REMARK    8  A    between atoms: C24_28  and  O2_29 
ROOT
HETATM    1  C13 UNL     1       9.620  13.750  -5.199  1.00  0.00     0.126 C 
HETATM    2  C14 UNL     1      10.651  12.694  -5.416  1.00  0.00     0.059 C 
HETATM    3  N1  UNL     1      11.444  11.868  -5.571  1.00  0.00    -0.197 NA
ENDROOT
BRANCH   1   4
HETATM    4  C12 UNL     1       9.689  14.776  -6.290  1.00  0.00     0.043 C 
BRANCH   4   5
HETATM    5  C11 UNL     1       8.312  15.322  -6.564  1.00  0.00     0.106 C 
HETATM    6  C9  UNL     1       7.570  14.633  -7.635  1.00  0.00    -0.059 C 
HETATM    7  C8  UNL     1       7.610  15.069  -8.892  1.00  0.00    -0.069 C 
HETATM    8  C10 UNL     1       6.723  13.401  -7.400  1.00  0.00     0.046 C 
HETATM    9  C7  UNL     1       7.032  14.667 -10.199  1.00  0.00     0.044 C 
HETATM   10  C16 UNL     1       8.433  16.327  -9.075  1.00  0.00     0.042 C 
HETATM   11  C6  UNL     1       7.833  15.470 -11.161  1.00  0.00     0.022 C 
HETATM   12  C5  UNL     1       7.136  15.769 -12.439  1.00  0.00    -0.024 C 
HETATM   13  C17 UNL     1       8.161  16.794 -10.463  1.00  0.00    -0.015 C 
HETATM   14  C4  UNL     1       7.159  16.872 -13.155  1.00  0.00    -0.021 C 
HETATM   15  C3  UNL     1       7.888  18.141 -12.894  1.00  0.00     0.036 C 
HETATM   16  C2  UNL     1       9.269  17.722 -12.478  1.00  0.00    -0.075 C 
HETATM   17  C19 UNL     1       7.197  18.767 -11.692  1.00  0.00     0.014 C 
HETATM   18  C1  UNL     1      10.253  17.797 -13.360  1.00  0.00     0.015 C 
HETATM   19  C20 UNL     1       9.462  17.239 -11.095  1.00  0.00     0.048 C 
HETATM   20  C18 UNL     1       7.058  17.792 -10.563  1.00  0.00     0.012 C 
HETATM   21  C15 UNL     1       7.936  17.242  -7.986  1.00  0.00     0.124 C 
HETATM   22  N2  UNL     1       8.399  16.741  -6.725  1.00  0.00    -0.413 N 
ATOM     23  H2  UNL     1       8.764  17.352  -5.995  1.00  0.00     0.153 HD
BRANCH  19  24
HETATM   24  C21 UNL     1      10.221  18.243 -10.303  1.00  0.00     0.177 C 
BRANCH  24  25
HETATM   25  O1  UNL     1      11.426  17.672  -9.916  1.00  0.00    -0.390 OA
BRANCH  25  26
HETATM   26  C22 UNL     1      12.021  18.299  -8.855  1.00  0.00     0.169 C 
BRANCH  26  27
HETATM   27  C23 UNL     1      11.732  17.667  -7.520  1.00  0.00     0.052 C 
BRANCH  27  28
HETATM   28  C24 UNL     1      11.445  18.664  -6.444  1.00  0.00     0.166 C 
BRANCH  28  29
HETATM   29  O2  UNL     1      10.608  18.156  -5.453  1.00  0.00    -0.401 OA
ATOM     30  H2  UNL     1       9.709  18.067  -5.747  1.00  0.00     0.209 HD
ENDBRANCH  28  29
ENDBRANCH  27  28
ENDBRANCH  26  27
ENDBRANCH  25  26
ENDBRANCH  24  25
ENDBRANCH  19  24
ENDBRANCH   4   5
ENDBRANCH   1   4
TORSDOF 8
ENDMDL
