MODEL 1
REMARK VINA RESULT: -7.437207410      0.000      0.000
REMARK  8 active torsions:
REMARK  status: ('A' for Active; 'I' for Inactive)
REMARK    1  A    between atoms: C2_2  and  N1_4 
REMARK    2  A    between atoms: N1_4  and  C4_6 
REMARK    3  A    between atoms: C4_6  and  C5_10 
REMARK    4  A    between atoms: C5_10  and  N3_11 
REMARK    5  A    between atoms: C5_10  and  C18_28 
REMARK    6  A    between atoms: N3_11  and  S1_13 
REMARK    7  A    between atoms: S1_13  and  C6_16 
REMARK    8  A    between atoms: C7_17  and  C8_18 
ROOT
HETATM    1  N3  UNL     1       9.464  17.841  -6.263  1.00  0.00    -0.303 N 
ATOM      2  H3  UNL     1       8.808  17.661  -5.503  1.00  0.00     0.173 HD
ENDROOT
BRANCH   1   3
HETATM    3  C5  UNL     1       9.974  19.115  -6.375  1.00  0.00     0.163 C 
BRANCH   3   4
HETATM    4  C4  UNL     1      11.239  19.277  -5.630  1.00  0.00     0.095 C 
HETATM    5  N2  UNL     1      11.248  19.859  -4.469  1.00  0.00    -0.387 N 
ATOM      6  H22 UNL     1      12.122  19.972  -3.955  1.00  0.00     0.157 HD
ATOM      7  H21 UNL     1      10.369  20.216  -4.093  1.00  0.00     0.157 HD
BRANCH   4   8
HETATM    8  N1  UNL     1      12.483  18.772  -6.162  1.00  0.00    -0.374 N 
ATOM      9  H1  UNL     1      13.078  18.202  -5.561  1.00  0.00     0.161 HD
BRANCH   8  10
HETATM   10  C2  UNL     1      12.910  19.040  -7.492  1.00  0.00     0.074 C 
HETATM   11  C1  UNL     1      13.332  20.487  -7.695  1.00  0.00     0.031 C 
HETATM   12  C3  UNL     1      14.036  18.085  -7.860  1.00  0.00     0.031 C 
ENDBRANCH   8  10
ENDBRANCH   4   8
ENDBRANCH   3   4
BRANCH   3  13
HETATM   13  C18 UNL     1       9.064  20.253  -5.981  1.00  0.00     0.008 C 
HETATM   14  C19 UNL     1       9.117  21.440  -6.910  1.00  0.00     0.012 C 
HETATM   15  C20 UNL     1       7.626  19.775  -5.961  1.00  0.00     0.012 C 
ENDBRANCH   3  13
ENDBRANCH   1   3
BRANCH   1  16
HETATM   16  S1  UNL     1       9.839  16.578  -7.270  1.00  0.00     0.260 S 
HETATM   17  O1  UNL     1      11.205  16.023  -7.010  1.00  0.00    -0.200 OA
HETATM   18  O2  UNL     1      10.030  17.281  -8.645  1.00  0.00    -0.200 OA
BRANCH  16  19
HETATM   19  C6  UNL     1       8.711  15.319  -7.506  1.00  0.00     0.092 A 
HETATM   20  C7  UNL     1       7.799  15.224  -8.525  1.00  0.00    -0.031 A 
HETATM   21  C11 UNL     1       6.905  14.137  -8.617  1.00  0.00     0.009 A 
HETATM   22  C12 UNL     1       6.910  13.126  -7.689  1.00  0.00     0.008 A 
HETATM   23  C13 UNL     1       7.846  13.257  -6.674  1.00  0.00    -0.050 A 
HETATM   24  C14 UNL     1       8.728  14.285  -6.544  1.00  0.00    -0.028 A 
HETATM   25  C17 UNL     1       8.043  12.256  -5.545  1.00  0.00     0.039 C 
HETATM   26  C15 UNL     1       9.547  14.042  -5.341  1.00  0.00     0.041 C 
HETATM   27  C16 UNL     1       9.505  12.551  -5.178  1.00  0.00     0.009 C 
BRANCH  20  28
HETATM   28  C8  UNL     1       7.698  16.207  -9.615  1.00  0.00     0.012 C 
HETATM   29  C9  UNL     1       6.589  17.226  -9.361  1.00  0.00     0.015 C 
HETATM   30  C10 UNL     1       7.173  15.446 -10.857  1.00  0.00     0.015 C 
ENDBRANCH  20  28
ENDBRANCH  16  19
ENDBRANCH   1  16
TORSDOF 8
ENDMDL
MODEL 2
REMARK VINA RESULT: -7.410745551      1.127      1.659
REMARK  8 active torsions:
REMARK  status: ('A' for Active; 'I' for Inactive)
REMARK    1  A    between atoms: C2_2  and  N1_4 
REMARK    2  A    between atoms: N1_4  and  C4_6 
REMARK    3  A    between atoms: C4_6  and  C5_10 
REMARK    4  A    between atoms: C5_10  and  N3_11 
REMARK    5  A    between atoms: C5_10  and  C18_28 
REMARK    6  A    between atoms: N3_11  and  S1_13 
REMARK    7  A    between atoms: S1_13  and  C6_16 
REMARK    8  A    between atoms: C7_17  and  C8_18 
ROOT
HETATM    1  N3  UNL     1       9.491  17.996  -6.347  1.00  0.00    -0.303 N 
ATOM      2  H3  UNL     1       8.854  17.817  -5.572  1.00  0.00     0.173 HD
ENDROOT
BRANCH   1   3
HETATM    3  C5  UNL     1       9.962  19.280  -6.500  1.00  0.00     0.163 C 
BRANCH   3   4
HETATM    4  C4  UNL     1      11.122  19.556  -5.628  1.00  0.00     0.095 C 
HETATM    5  N2  UNL     1      12.081  18.688  -5.515  1.00  0.00    -0.387 N 
ATOM      6  H22 UNL     1      12.882  18.878  -4.912  1.00  0.00     0.157 HD
ATOM      7  H21 UNL     1      12.008  17.808  -6.027  1.00  0.00     0.157 HD
BRANCH   4   8
HETATM    8  N1  UNL     1      11.225  20.801  -4.903  1.00  0.00    -0.374 N 
ATOM      9  H1  UNL     1      10.509  21.029  -4.214  1.00  0.00     0.161 HD
BRANCH   8  10
HETATM   10  C2  UNL     1      12.289  21.721  -5.113  1.00  0.00     0.074 C 
HETATM   11  C1  UNL     1      12.207  22.417  -6.463  1.00  0.00     0.031 C 
HETATM   12  C3  UNL     1      12.310  22.733  -3.977  1.00  0.00     0.031 C 
ENDBRANCH   8  10
ENDBRANCH   4   8
ENDBRANCH   3   4
BRANCH   3  13
HETATM   13  C18 UNL     1       8.970  20.401  -6.307  1.00  0.00     0.008 C 
HETATM   14  C19 UNL     1       8.733  21.239  -7.539  1.00  0.00     0.012 C 
HETATM   15  C20 UNL     1       7.627  19.831  -5.899  1.00  0.00     0.012 C 
ENDBRANCH   3  13
ENDBRANCH   1   3
BRANCH   1  16
HETATM   16  S1  UNL     1       9.881  16.719  -7.331  1.00  0.00     0.260 S 
HETATM   17  O1  UNL     1      11.220  16.133  -7.005  1.00  0.00    -0.200 OA
HETATM   18  O2  UNL     1      10.154  17.410  -8.698  1.00  0.00    -0.200 OA
BRANCH  16  19
HETATM   19  C6  UNL     1       8.737  15.486  -7.615  1.00  0.00     0.092 A 
HETATM   20  C7  UNL     1       7.838  15.432  -8.648  1.00  0.00    -0.031 A 
HETATM   21  C11 UNL     1       6.928  14.364  -8.780  1.00  0.00     0.009 A 
HETATM   22  C12 UNL     1       6.902  13.330  -7.878  1.00  0.00     0.008 A 
HETATM   23  C13 UNL     1       7.825  13.419  -6.847  1.00  0.00    -0.050 A 
HETATM   24  C14 UNL     1       8.722  14.429  -6.679  1.00  0.00    -0.028 A 
HETATM   25  C17 UNL     1       7.989  12.387  -5.741  1.00  0.00     0.039 C 
HETATM   26  C15 UNL     1       9.519  14.141  -5.471  1.00  0.00     0.041 C 
HETATM   27  C16 UNL     1       9.450  12.648  -5.345  1.00  0.00     0.009 C 
BRANCH  20  28
HETATM   28  C8  UNL     1       7.769  16.444  -9.715  1.00  0.00     0.012 C 
HETATM   29  C9  UNL     1       6.719  17.512  -9.418  1.00  0.00     0.015 C 
HETATM   30  C10 UNL     1       7.185  15.739 -10.964  1.00  0.00     0.015 C 
ENDBRANCH  20  28
ENDBRANCH  16  19
ENDBRANCH   1  16
TORSDOF 8
ENDMDL
MODEL 3
REMARK VINA RESULT: -7.239637462      1.768      2.328
REMARK  8 active torsions:
REMARK  status: ('A' for Active; 'I' for Inactive)
REMARK    1  A    between atoms: C2_2  and  N1_4 
REMARK    2  A    between atoms: N1_4  and  C4_6 
REMARK    3  A    between atoms: C4_6  and  C5_10 
REMARK    4  A    between atoms: C5_10  and  N3_11 
REMARK    5  A    between atoms: C5_10  and  C18_28 
REMARK    6  A    between atoms: N3_11  and  S1_13 
REMARK    7  A    between atoms: S1_13  and  C6_16 
REMARK    8  A    between atoms: C7_17  and  C8_18 
ROOT
HETATM    1  N3  UNL     1      10.897  17.075  -7.138  1.00  0.00    -0.303 N 
ATOM      2  H3  UNL     1      10.942  16.507  -6.292  1.00  0.00     0.173 HD
ENDROOT
BRANCH   1   3
HETATM    3  C5  UNL     1      11.946  17.930  -7.387  1.00  0.00     0.163 C 
BRANCH   3   4
HETATM    4  C4  UNL     1      13.192  17.205  -7.711  1.00  0.00     0.095 C 
HETATM    5  N2  UNL     1      13.702  16.364  -6.863  1.00  0.00    -0.387 N 
ATOM      6  H22 UNL     1      14.563  15.864  -7.086  1.00  0.00     0.157 HD
ATOM      7  H21 UNL     1      13.235  16.229  -5.966  1.00  0.00     0.157 HD
BRANCH   4   8
HETATM    8  N1  UNL     1      13.853  17.397  -8.980  1.00  0.00    -0.374 N 
ATOM      9  H1  UNL     1      13.752  16.680  -9.699  1.00  0.00     0.161 HD
BRANCH   8  10
HETATM   10  C2  UNL     1      14.639  18.547  -9.267  1.00  0.00     0.074 C 
HETATM   11  C1  UNL     1      15.764  18.755  -8.265  1.00  0.00     0.031 C 
HETATM   12  C3  UNL     1      15.181  18.444 -10.685  1.00  0.00     0.031 C 
ENDBRANCH   8  10
ENDBRANCH   4   8
ENDBRANCH   3   4
BRANCH   3  13
HETATM   13  C18 UNL     1      12.272  18.942  -6.316  1.00  0.00     0.008 C 
HETATM   14  C19 UNL     1      12.512  20.338  -6.834  1.00  0.00     0.012 C 
HETATM   15  C20 UNL     1      11.127  19.031  -5.329  1.00  0.00     0.012 C 
ENDBRANCH   3  13
ENDBRANCH   1   3
BRANCH   1  16
HETATM   16  S1  UNL     1       9.566  16.898  -8.110  1.00  0.00     0.260 S 
HETATM   17  O1  UNL     1       9.875  17.140  -9.556  1.00  0.00    -0.200 OA
HETATM   18  O2  UNL     1       8.708  18.145  -7.749  1.00  0.00    -0.200 OA
BRANCH  16  19
HETATM   19  C6  UNL     1       8.559  15.532  -7.931  1.00  0.00     0.092 A 
HETATM   20  C7  UNL     1       7.504  15.187  -8.734  1.00  0.00    -0.031 A 
HETATM   21  C11 UNL     1       6.731  14.035  -8.485  1.00  0.00     0.009 A 
HETATM   22  C12 UNL     1       7.003  13.206  -7.425  1.00  0.00     0.008 A 
HETATM   23  C13 UNL     1       8.077  13.587  -6.635  1.00  0.00    -0.050 A 
HETATM   24  C14 UNL     1       8.850  14.689  -6.836  1.00  0.00    -0.028 A 
HETATM   25  C17 UNL     1       8.570  12.819  -5.418  1.00  0.00     0.039 C 
HETATM   26  C15 UNL     1       9.883  14.726  -5.782  1.00  0.00     0.041 C 
HETATM   27  C16 UNL     1      10.032  13.289  -5.379  1.00  0.00     0.009 C 
BRANCH  20  28
HETATM   28  C8  UNL     1       7.113  15.952  -9.930  1.00  0.00     0.012 C 
HETATM   29  C9  UNL     1       5.614  16.244  -9.953  1.00  0.00     0.015 C 
HETATM   30  C10 UNL     1       7.287  15.006 -11.143  1.00  0.00     0.015 C 
ENDBRANCH  20  28
ENDBRANCH  16  19
ENDBRANCH   1  16
TORSDOF 8
ENDMDL
MODEL 4
REMARK VINA RESULT: -7.234690865      1.360      1.882
REMARK  8 active torsions:
REMARK  status: ('A' for Active; 'I' for Inactive)
REMARK    1  A    between atoms: C2_2  and  N1_4 
REMARK    2  A    between atoms: N1_4  and  C4_6 
REMARK    3  A    between atoms: C4_6  and  C5_10 
REMARK    4  A    between atoms: C5_10  and  N3_11 
REMARK    5  A    between atoms: C5_10  and  C18_28 
REMARK    6  A    between atoms: N3_11  and  S1_13 
REMARK    7  A    between atoms: S1_13  and  C6_16 
REMARK    8  A    between atoms: C7_17  and  C8_18 
ROOT
HETATM    1  N3  UNL     1       8.645  18.353  -7.461  1.00  0.00    -0.303 N 
ATOM      2  H3  UNL     1       7.650  18.372  -7.236  1.00  0.00     0.173 HD
ENDROOT
BRANCH   1   3
HETATM    3  C5  UNL     1       9.292  19.561  -7.584  1.00  0.00     0.163 C 
BRANCH   3   4
HETATM    4  C4  UNL     1       9.511  20.212  -6.276  1.00  0.00     0.095 C 
HETATM    5  N2  UNL     1       9.117  21.433  -6.075  1.00  0.00    -0.387 N 
ATOM      6  H22 UNL     1       9.269  21.882  -5.171  1.00  0.00     0.157 HD
ATOM      7  H21 UNL     1       8.671  21.936  -6.842  1.00  0.00     0.157 HD
BRANCH   4   8
HETATM    8  N1  UNL     1      10.143  19.500  -5.190  1.00  0.00    -0.374 N 
ATOM      9  H1  UNL     1       9.556  18.996  -4.526  1.00  0.00     0.161 HD
BRANCH   8  10
HETATM   10  C2  UNL     1      11.554  19.475  -5.011  1.00  0.00     0.074 C 
HETATM   11  C1  UNL     1      12.316  19.647  -6.316  1.00  0.00     0.031 C 
HETATM   12  C3  UNL     1      11.952  20.540  -4.000  1.00  0.00     0.031 C 
ENDBRANCH   8  10
ENDBRANCH   4   8
ENDBRANCH   3   4
BRANCH   3  13
HETATM   13  C18 UNL     1       8.666  20.583  -8.502  1.00  0.00     0.008 C 
HETATM   14  C19 UNL     1       9.564  21.040  -9.625  1.00  0.00     0.012 C 
HETATM   15  C20 UNL     1       7.423  20.001  -9.142  1.00  0.00     0.012 C 
ENDBRANCH   3  13
ENDBRANCH   1   3
BRANCH   1  16
HETATM   16  S1  UNL     1       9.361  16.870  -7.652  1.00  0.00     0.260 S 
HETATM   17  O1  UNL     1      10.503  16.658  -6.707  1.00  0.00    -0.200 OA
HETATM   18  O2  UNL     1      10.093  17.015  -9.017  1.00  0.00    -0.200 OA
BRANCH  16  19
HETATM   19  C6  UNL     1       8.394  15.467  -7.751  1.00  0.00     0.092 A 
HETATM   20  C7  UNL     1       7.431  15.208  -8.692  1.00  0.00    -0.031 A 
HETATM   21  C11 UNL     1       6.682  14.013  -8.672  1.00  0.00     0.009 A 
HETATM   22  C12 UNL     1       6.886  13.057  -7.709  1.00  0.00     0.008 A 
HETATM   23  C13 UNL     1       7.868  13.354  -6.776  1.00  0.00    -0.050 A 
HETATM   24  C14 UNL     1       8.615  14.492  -6.755  1.00  0.00    -0.028 A 
HETATM   25  C17 UNL     1       8.275  12.441  -5.629  1.00  0.00     0.039 C 
HETATM   26  C15 UNL     1       9.543  14.412  -5.610  1.00  0.00     0.041 C 
HETATM   27  C16 UNL     1       9.709  12.939  -5.388  1.00  0.00     0.009 C 
BRANCH  20  28
HETATM   28  C8  UNL     1       7.123  16.117  -9.808  1.00  0.00     0.012 C 
HETATM   29  C9  UNL     1       5.627  16.403  -9.912  1.00  0.00     0.015 C 
HETATM   30  C10 UNL     1       7.405  15.334 -11.114  1.00  0.00     0.015 C 
ENDBRANCH  20  28
ENDBRANCH  16  19
ENDBRANCH   1  16
TORSDOF 8
ENDMDL
MODEL 5
REMARK VINA RESULT: -7.062989655      0.885      1.048
REMARK  8 active torsions:
REMARK  status: ('A' for Active; 'I' for Inactive)
REMARK    1  A    between atoms: C2_2  and  N1_4 
REMARK    2  A    between atoms: N1_4  and  C4_6 
REMARK    3  A    between atoms: C4_6  and  C5_10 
REMARK    4  A    between atoms: C5_10  and  N3_11 
REMARK    5  A    between atoms: C5_10  and  C18_28 
REMARK    6  A    between atoms: N3_11  and  S1_13 
REMARK    7  A    between atoms: S1_13  and  C6_16 
REMARK    8  A    between atoms: C7_17  and  C8_18 
ROOT
HETATM    1  N3  UNL     1       9.279  17.966  -6.704  1.00  0.00    -0.303 N 
ATOM      2  H3  UNL     1       8.980  17.569  -5.814  1.00  0.00     0.173 HD
ENDROOT
BRANCH   1   3
HETATM    3  C5  UNL     1       9.947  19.169  -6.673  1.00  0.00     0.163 C 
BRANCH   3   4
HETATM    4  C4  UNL     1      11.126  19.130  -5.784  1.00  0.00     0.095 C 
HETATM    5  N2  UNL     1      11.150  19.831  -4.692  1.00  0.00    -0.387 N 
ATOM      6  H22 UNL     1      11.965  19.804  -4.078  1.00  0.00     0.157 HD
ATOM      7  H21 UNL     1      10.347  20.421  -4.471  1.00  0.00     0.157 HD
BRANCH   4   8
HETATM    8  N1  UNL     1      12.262  18.295  -6.096  1.00  0.00    -0.374 N 
ATOM      9  H1  UNL     1      12.645  17.694  -5.366  1.00  0.00     0.161 HD
BRANCH   8  10
HETATM   10  C2  UNL     1      12.868  18.278  -7.383  1.00  0.00     0.074 C 
HETATM   11  C1  UNL     1      13.573  19.583  -7.718  1.00  0.00     0.031 C 
HETATM   12  C3  UNL     1      13.826  17.099  -7.472  1.00  0.00     0.031 C 
ENDBRANCH   8  10
ENDBRANCH   4   8
ENDBRANCH   3   4
BRANCH   3  13
HETATM   13  C18 UNL     1       9.139  20.390  -6.304  1.00  0.00     0.008 C 
HETATM   14  C19 UNL     1       9.000  21.401  -7.415  1.00  0.00     0.012 C 
HETATM   15  C20 UNL     1       7.737  19.976  -5.909  1.00  0.00     0.012 C 
ENDBRANCH   3  13
ENDBRANCH   1   3
BRANCH   1  16
HETATM   16  S1  UNL     1       8.925  17.114  -8.082  1.00  0.00     0.260 S 
HETATM   17  O1  UNL     1      10.087  17.038  -9.024  1.00  0.00    -0.200 OA
HETATM   18  O2  UNL     1       7.957  18.070  -8.838  1.00  0.00    -0.200 OA
BRANCH  16  19
HETATM   19  C6  UNL     1       8.143  15.601  -7.967  1.00  0.00     0.092 A 
HETATM   20  C7  UNL     1       7.155  15.131  -8.791  1.00  0.00    -0.031 A 
HETATM   21  C11 UNL     1       6.571  13.863  -8.596  1.00  0.00     0.009 A 
HETATM   22  C12 UNL     1       6.968  13.043  -7.570  1.00  0.00     0.008 A 
HETATM   23  C13 UNL     1       7.970  13.551  -6.758  1.00  0.00    -0.050 A 
HETATM   24  C14 UNL     1       8.562  14.768  -6.907  1.00  0.00    -0.028 A 
HETATM   25  C17 UNL     1       8.577  12.818  -5.571  1.00  0.00     0.039 C 
HETATM   26  C15 UNL     1       9.576  14.920  -5.845  1.00  0.00     0.041 C 
HETATM   27  C16 UNL     1       9.947  13.508  -5.502  1.00  0.00     0.009 C 
BRANCH  20  28
HETATM   28  C8  UNL     1       6.650  15.877  -9.956  1.00  0.00     0.012 C 
HETATM   29  C9  UNL     1       5.179  15.571 -10.232  1.00  0.00     0.015 C 
HETATM   30  C10 UNL     1       7.353  15.288 -11.204  1.00  0.00     0.015 C 
ENDBRANCH  20  28
ENDBRANCH  16  19
ENDBRANCH   1  16
TORSDOF 8
ENDMDL
