MODEL 1
REMARK VINA RESULT: -8.658838842      0.000      0.000
REMARK  10 active torsions:
REMARK  status: ('A' for Active; 'I' for Inactive)
REMARK    1  A    between atoms: C2_2  and  C3_3 
REMARK    2  A    between atoms: C3_3  and  N1_4 
REMARK    3  A    between atoms: C5_9  and  C7_11 
REMARK    4  A    between atoms: C7_11  and  C8_12 
REMARK    5  A    between atoms: C8_12  and  C9_13 
REMARK    6  A    between atoms: C12_16  and  C13_17 
REMARK    7  A    between atoms: C18_22  and  O1_23 
REMARK    8  A    between atoms: C19_25  and  C20_26 
REMARK    9  A    between atoms: C20_26  and  O2_27 
REMARK   10  A    between atoms: C20_26  and  C21_29 
ROOT
HETATM    1  N1  UNL     1       5.363  14.204 -11.446  1.00  0.00    -0.345 N 
HETATM    2  C4  UNL     1       6.781  14.476 -11.592  1.00  0.00     0.171 C 
HETATM    3  S1  UNL     1       7.595  14.657 -13.004  1.00  0.00    -0.041 SA
HETATM    4  N2  UNL     1       7.304  14.550 -10.263  1.00  0.00    -0.356 N 
ATOM      5  H2  UNL     1       8.248  14.334  -9.944  1.00  0.00     0.162 HD
HETATM    6  C5  UNL     1       6.162  15.009  -9.466  1.00  0.00     0.052 C 
HETATM    7  C6  UNL     1       6.022  16.471  -9.688  1.00  0.00     0.041 C 
HETATM    8  C19 UNL     1       5.086  14.156 -10.038  1.00  0.00     0.147 C 
ENDROOT
BRANCH   6   9
HETATM    9  C7  UNL     1       6.411  14.769  -7.986  1.00  0.00     0.037 C 
BRANCH   9  10
HETATM   10  C8  UNL     1       7.895  14.692  -7.777  1.00  0.00     0.044 C 
BRANCH  10  11
HETATM   11  C9  UNL     1       8.277  13.811  -6.622  1.00  0.00    -0.025 A 
HETATM   12  C10 UNL     1       7.535  12.705  -6.268  1.00  0.00     0.010 A 
HETATM   13  C11 UNL     1       7.874  11.895  -5.204  1.00  0.00     0.008 A 
HETATM   14  C12 UNL     1       8.994  12.151  -4.421  1.00  0.00    -0.048 A 
HETATM   15  C17 UNL     1       9.736  13.253  -4.774  1.00  0.00     0.044 A 
HETATM   16  C18 UNL     1       9.388  14.069  -5.853  1.00  0.00     0.072 A 
BRANCH  14  17
HETATM   17  C13 UNL     1       9.333  11.261  -3.274  1.00  0.00    -0.024 C 
HETATM   18  C14 UNL     1      10.458  10.308  -3.633  1.00  0.00     0.019 C 
HETATM   19  C15 UNL     1       9.775  12.080  -2.088  1.00  0.00     0.019 C 
HETATM   20  C16 UNL     1       8.182  10.384  -2.831  1.00  0.00     0.019 C 
ENDBRANCH  14  17
BRANCH  16  21
HETATM   21  O1  UNL     1      10.162  15.181  -6.185  1.00  0.00    -0.360 OA
ATOM     22  H1  UNL     1      10.270  15.383  -7.107  1.00  0.00     0.217 HD
ENDBRANCH  16  21
ENDBRANCH  10  11
ENDBRANCH   9  10
ENDBRANCH   6   9
BRANCH   8  23
HETATM   23  C20 UNL     1       3.682  14.543  -9.781  1.00  0.00     0.165 C 
BRANCH  23  24
HETATM   24  O2  UNL     1       3.541  15.903  -9.595  1.00  0.00    -0.390 OA
ATOM     25  H2  UNL     1       2.991  16.109  -8.848  1.00  0.00     0.210 HD
ENDBRANCH  23  24
BRANCH  23  26
HETATM   26  C21 UNL     1       2.957  13.731  -8.779  1.00  0.00    -0.004 C 
HETATM   27  C22 UNL     1       2.075  12.840  -9.188  1.00  0.00     0.009 C 
ENDBRANCH  23  26
ENDBRANCH   8  23
BRANCH   1  28
HETATM   28  C3  UNL     1       4.503  14.027 -12.605  1.00  0.00     0.152 C 
BRANCH  28  29
HETATM   29  C2  UNL     1       4.408  12.588 -13.002  1.00  0.00    -0.017 C 
HETATM   30  C1  UNL     1       3.487  11.813 -12.476  1.00  0.00     0.008 C 
ENDBRANCH  28  29
ENDBRANCH   1  28
TORSDOF 10
ENDMDL
MODEL 2
REMARK VINA RESULT: -8.523539127      0.555      1.036
REMARK  10 active torsions:
REMARK  status: ('A' for Active; 'I' for Inactive)
REMARK    1  A    between atoms: C2_2  and  C3_3 
REMARK    2  A    between atoms: C3_3  and  N1_4 
REMARK    3  A    between atoms: C5_9  and  C7_11 
REMARK    4  A    between atoms: C7_11  and  C8_12 
REMARK    5  A    between atoms: C8_12  and  C9_13 
REMARK    6  A    between atoms: C12_16  and  C13_17 
REMARK    7  A    between atoms: C18_22  and  O1_23 
REMARK    8  A    between atoms: C19_25  and  C20_26 
REMARK    9  A    between atoms: C20_26  and  O2_27 
REMARK   10  A    between atoms: C20_26  and  C21_29 
ROOT
HETATM    1  N1  UNL     1       5.608  14.472 -11.795  1.00  0.00    -0.345 N 
HETATM    2  C4  UNL     1       7.003  14.869 -11.791  1.00  0.00     0.171 C 
HETATM    3  S1  UNL     1       7.884  15.337 -13.094  1.00  0.00    -0.041 SA
HETATM    4  N2  UNL     1       7.436  14.764 -10.432  1.00  0.00    -0.356 N 
ATOM      5  H2  UNL     1       8.374  14.570 -10.083  1.00  0.00     0.162 HD
HETATM    6  C5  UNL     1       6.213  15.001  -9.660  1.00  0.00     0.052 C 
HETATM    7  C6  UNL     1       5.963  16.464  -9.659  1.00  0.00     0.041 C 
HETATM    8  C19 UNL     1       5.250  14.174 -10.437  1.00  0.00     0.147 C 
ENDROOT
BRANCH   6   9
HETATM    9  C7  UNL     1       6.391  14.542  -8.222  1.00  0.00     0.037 C 
BRANCH   9  10
HETATM   10  C8  UNL     1       7.839  14.703  -7.864  1.00  0.00     0.044 C 
BRANCH  10  11
HETATM   11  C9  UNL     1       8.253  13.846  -6.704  1.00  0.00    -0.025 A 
HETATM   12  C10 UNL     1       7.545  12.723  -6.333  1.00  0.00     0.010 A 
HETATM   13  C11 UNL     1       7.913  11.934  -5.264  1.00  0.00     0.008 A 
HETATM   14  C12 UNL     1       9.031  12.229  -4.491  1.00  0.00    -0.048 A 
HETATM   15  C17 UNL     1       9.739  13.348  -4.860  1.00  0.00     0.044 A 
HETATM   16  C18 UNL     1       9.362  14.143  -5.944  1.00  0.00     0.072 A 
BRANCH  14  17
HETATM   17  C13 UNL     1       9.402  11.360  -3.338  1.00  0.00    -0.024 C 
HETATM   18  C14 UNL     1       8.234  10.492  -2.907  1.00  0.00     0.019 C 
HETATM   19  C15 UNL     1      10.545  10.451  -3.712  1.00  0.00     0.019 C 
HETATM   20  C16 UNL     1       9.810  12.136  -2.105  1.00  0.00     0.019 C 
ENDBRANCH  14  17
BRANCH  16  21
HETATM   21  O1  UNL     1      10.101  15.272  -6.292  1.00  0.00    -0.360 OA
ATOM     22  H1  UNL     1       9.748  16.121  -6.055  1.00  0.00     0.217 HD
ENDBRANCH  16  21
ENDBRANCH  10  11
ENDBRANCH   9  10
ENDBRANCH   6   9
BRANCH   8  23
HETATM   23  C20 UNL     1       3.806  14.409 -10.228  1.00  0.00     0.165 C 
BRANCH  23  24
HETATM   24  O2  UNL     1       3.563  15.266  -9.174  1.00  0.00    -0.390 OA
ATOM     25  H2  UNL     1       3.807  14.887  -8.338  1.00  0.00     0.210 HD
ENDBRANCH  23  24
BRANCH  23  26
HETATM   26  C21 UNL     1       2.946  13.204 -10.219  1.00  0.00    -0.004 C 
HETATM   27  C22 UNL     1       2.101  13.023  -9.224  1.00  0.00     0.009 C 
ENDBRANCH  23  26
ENDBRANCH   8  23
BRANCH   1  28
HETATM   28  C3  UNL     1       4.839  14.422 -13.029  1.00  0.00     0.152 C 
BRANCH  28  29
HETATM   29  C2  UNL     1       4.559  13.013 -13.444  1.00  0.00    -0.017 C 
HETATM   30  C1  UNL     1       5.547  12.167 -13.634  1.00  0.00     0.008 C 
ENDBRANCH  28  29
ENDBRANCH   1  28
TORSDOF 10
ENDMDL
MODEL 3
REMARK VINA RESULT: -8.442949260      2.243      3.349
REMARK  10 active torsions:
REMARK  status: ('A' for Active; 'I' for Inactive)
REMARK    1  A    between atoms: C2_2  and  C3_3 
REMARK    2  A    between atoms: C3_3  and  N1_4 
REMARK    3  A    between atoms: C5_9  and  C7_11 
REMARK    4  A    between atoms: C7_11  and  C8_12 
REMARK    5  A    between atoms: C8_12  and  C9_13 
REMARK    6  A    between atoms: C12_16  and  C13_17 
REMARK    7  A    between atoms: C18_22  and  O1_23 
REMARK    8  A    between atoms: C19_25  and  C20_26 
REMARK    9  A    between atoms: C20_26  and  O2_27 
REMARK   10  A    between atoms: C20_26  and  C21_29 
ROOT
HETATM    1  N1  UNL     1       8.646  16.869 -10.548  1.00  0.00    -0.345 N 
HETATM    2  C4  UNL     1       9.708  17.262  -9.640  1.00  0.00     0.171 C 
HETATM    3  S1  UNL     1      11.001  18.202 -10.007  1.00  0.00    -0.041 SA
HETATM    4  N2  UNL     1       9.388  16.663  -8.381  1.00  0.00    -0.356 N 
ATOM      5  H2  UNL     1      10.027  16.370  -7.642  1.00  0.00     0.162 HD
HETATM    6  C5  UNL     1       7.925  16.570  -8.404  1.00  0.00     0.052 C 
HETATM    7  C6  UNL     1       7.387  17.921  -8.104  1.00  0.00     0.041 C 
HETATM    8  C19 UNL     1       7.717  16.077  -9.792  1.00  0.00     0.147 C 
ENDROOT
BRANCH   6   9
HETATM    9  C7  UNL     1       7.434  15.609  -7.334  1.00  0.00     0.037 C 
BRANCH   9  10
HETATM   10  C8  UNL     1       7.992  14.251  -7.644  1.00  0.00     0.044 C 
BRANCH  10  11
HETATM   11  C9  UNL     1       8.376  13.481  -6.414  1.00  0.00    -0.025 A 
HETATM   12  C10 UNL     1       7.629  12.418  -5.954  1.00  0.00     0.010 A 
HETATM   13  C11 UNL     1       7.968  11.710  -4.820  1.00  0.00     0.008 A 
HETATM   14  C12 UNL     1       9.094  12.031  -4.069  1.00  0.00    -0.048 A 
HETATM   15  C17 UNL     1       9.840  13.091  -4.527  1.00  0.00     0.044 A 
HETATM   16  C18 UNL     1       9.491  13.804  -5.676  1.00  0.00     0.072 A 
BRANCH  14  17
HETATM   17  C13 UNL     1       9.433  11.251  -2.845  1.00  0.00    -0.024 C 
HETATM   18  C14 UNL     1       8.212  10.539  -2.292  1.00  0.00     0.019 C 
HETATM   19  C15 UNL     1      10.477  10.210  -3.159  1.00  0.00     0.019 C 
HETATM   20  C16 UNL     1       9.955  12.105  -1.711  1.00  0.00     0.019 C 
ENDBRANCH  14  17
BRANCH  16  21
HETATM   21  O1  UNL     1      10.269  14.875  -6.115  1.00  0.00    -0.360 OA
ATOM     22  H1  UNL     1      11.136  14.974  -5.738  1.00  0.00     0.217 HD
ENDBRANCH  16  21
ENDBRANCH  10  11
ENDBRANCH   9  10
ENDBRANCH   6   9
BRANCH   8  23
HETATM   23  C20 UNL     1       6.362  16.189 -10.373  1.00  0.00     0.165 C 
BRANCH  23  24
HETATM   24  O2  UNL     1       5.712  17.336  -9.967  1.00  0.00    -0.390 OA
ATOM     25  H2  UNL     1       5.099  17.653 -10.619  1.00  0.00     0.210 HD
ENDBRANCH  23  24
BRANCH  23  26
HETATM   26  C21 UNL     1       5.521  14.974 -10.297  1.00  0.00    -0.004 C 
HETATM   27  C22 UNL     1       6.019  13.819 -10.690  1.00  0.00     0.009 C 
ENDBRANCH  23  26
ENDBRANCH   8  23
BRANCH   1  28
HETATM   28  C3  UNL     1       8.658  17.271 -11.945  1.00  0.00     0.152 C 
BRANCH  28  29
HETATM   29  C2  UNL     1       8.995  16.124 -12.843  1.00  0.00    -0.017 C 
HETATM   30  C1  UNL     1      10.186  16.037 -13.392  1.00  0.00     0.008 C 
ENDBRANCH  28  29
ENDBRANCH   1  28
TORSDOF 10
ENDMDL
MODEL 4
REMARK VINA RESULT: -8.397628247      1.304      1.724
REMARK  10 active torsions:
REMARK  status: ('A' for Active; 'I' for Inactive)
REMARK    1  A    between atoms: C2_2  and  C3_3 
REMARK    2  A    between atoms: C3_3  and  N1_4 
REMARK    3  A    between atoms: C5_9  and  C7_11 
REMARK    4  A    between atoms: C7_11  and  C8_12 
REMARK    5  A    between atoms: C8_12  and  C9_13 
REMARK    6  A    between atoms: C12_16  and  C13_17 
REMARK    7  A    between atoms: C18_22  and  O1_23 
REMARK    8  A    between atoms: C19_25  and  C20_26 
REMARK    9  A    between atoms: C20_26  and  O2_27 
REMARK   10  A    between atoms: C20_26  and  C21_29 
ROOT
HETATM    1  N1  UNL     1       5.081  15.210 -11.204  1.00  0.00    -0.345 N 
HETATM    2  C4  UNL     1       6.447  15.527 -11.578  1.00  0.00     0.171 C 
HETATM    3  S1  UNL     1       6.915  16.494 -12.817  1.00  0.00    -0.041 SA
HETATM    4  N2  UNL     1       7.280  14.825 -10.650  1.00  0.00    -0.356 N 
ATOM      5  H2  UNL     1       8.225  14.472 -10.794  1.00  0.00     0.162 HD
HETATM    6  C5  UNL     1       6.452  14.733  -9.443  1.00  0.00     0.052 C 
HETATM    7  C6  UNL     1       6.500  16.055  -8.768  1.00  0.00     0.041 C 
HETATM    8  C19 UNL     1       5.147  14.357 -10.051  1.00  0.00     0.147 C 
ENDROOT
BRANCH   6   9
HETATM    9  C7  UNL     1       7.008  13.686  -8.492  1.00  0.00     0.037 C 
BRANCH   9  10
HETATM   10  C8  UNL     1       8.024  14.356  -7.615  1.00  0.00     0.044 C 
BRANCH  10  11
HETATM   11  C9  UNL     1       8.383  13.539  -6.407  1.00  0.00    -0.025 A 
HETATM   12  C10 UNL     1       7.599  12.492  -5.972  1.00  0.00     0.010 A 
HETATM   13  C11 UNL     1       7.916  11.742  -4.859  1.00  0.00     0.008 A 
HETATM   14  C12 UNL     1       9.056  12.002  -4.105  1.00  0.00    -0.048 A 
HETATM   15  C17 UNL     1       9.838  13.046  -4.538  1.00  0.00     0.044 A 
HETATM   16  C18 UNL     1       9.513  13.801  -5.666  1.00  0.00     0.072 A 
BRANCH  14  17
HETATM   17  C13 UNL     1       9.370  11.177  -2.904  1.00  0.00    -0.024 C 
HETATM   18  C14 UNL     1      10.446  10.151  -3.208  1.00  0.00     0.019 C 
HETATM   19  C15 UNL     1       9.866  12.054  -1.782  1.00  0.00     0.019 C 
HETATM   20  C16 UNL     1       8.188  10.388  -2.388  1.00  0.00     0.019 C 
ENDBRANCH  14  17
BRANCH  16  21
HETATM   21  O1  UNL     1      10.328  14.854  -6.080  1.00  0.00    -0.360 OA
ATOM     22  H1  UNL     1      10.617  14.859  -6.985  1.00  0.00     0.217 HD
ENDBRANCH  16  21
ENDBRANCH  10  11
ENDBRANCH   9  10
ENDBRANCH   6   9
BRANCH   8  23
HETATM   23  C20 UNL     1       3.928  14.516  -9.230  1.00  0.00     0.165 C 
BRANCH  23  24
HETATM   24  O2  UNL     1       4.154  14.239  -7.898  1.00  0.00    -0.390 OA
ATOM     25  H2  UNL     1       3.895  14.957  -7.332  1.00  0.00     0.210 HD
ENDBRANCH  23  24
BRANCH  23  26
HETATM   26  C21 UNL     1       2.699  13.885  -9.764  1.00  0.00    -0.004 C 
HETATM   27  C22 UNL     1       2.169  12.863  -9.122  1.00  0.00     0.009 C 
ENDBRANCH  23  26
ENDBRANCH   8  23
BRANCH   1  28
HETATM   28  C3  UNL     1       3.951  15.726 -11.960  1.00  0.00     0.152 C 
BRANCH  28  29
HETATM   29  C2  UNL     1       3.615  17.126 -11.556  1.00  0.00    -0.017 C 
HETATM   30  C1  UNL     1       2.422  17.414 -11.085  1.00  0.00     0.008 C 
ENDBRANCH  28  29
ENDBRANCH   1  28
TORSDOF 10
ENDMDL
MODEL 5
REMARK VINA RESULT: -8.278012613      1.815      2.854
REMARK  10 active torsions:
REMARK  status: ('A' for Active; 'I' for Inactive)
REMARK    1  A    between atoms: C2_2  and  C3_3 
REMARK    2  A    between atoms: C3_3  and  N1_4 
REMARK    3  A    between atoms: C5_9  and  C7_11 
REMARK    4  A    between atoms: C7_11  and  C8_12 
REMARK    5  A    between atoms: C8_12  and  C9_13 
REMARK    6  A    between atoms: C12_16  and  C13_17 
REMARK    7  A    between atoms: C18_22  and  O1_23 
REMARK    8  A    between atoms: C19_25  and  C20_26 
REMARK    9  A    between atoms: C20_26  and  O2_27 
REMARK   10  A    between atoms: C20_26  and  C21_29 
ROOT
HETATM    1  N1  UNL     1       6.859  15.735 -11.205  1.00  0.00    -0.345 N 
HETATM    2  C4  UNL     1       6.803  16.812 -10.235  1.00  0.00     0.171 C 
HETATM    3  S1  UNL     1       6.699  18.415 -10.568  1.00  0.00    -0.041 SA
HETATM    4  N2  UNL     1       6.860  16.186  -8.951  1.00  0.00    -0.356 N 
ATOM      5  H2  UNL     1       7.230  16.566  -8.080  1.00  0.00     0.162 HD
HETATM    6  C5  UNL     1       6.260  14.868  -9.182  1.00  0.00     0.052 C 
HETATM    7  C6  UNL     1       4.787  15.051  -9.230  1.00  0.00     0.041 C 
HETATM    8  C19 UNL     1       6.916  14.505 -10.467  1.00  0.00     0.147 C 
ENDROOT
BRANCH   6   9
HETATM    9  C7  UNL     1       6.589  13.922  -8.038  1.00  0.00     0.037 C 
BRANCH   9  10
HETATM   10  C8  UNL     1       7.969  14.254  -7.551  1.00  0.00     0.044 C 
BRANCH  10  11
HETATM   11  C9  UNL     1       8.371  13.454  -6.346  1.00  0.00    -0.025 A 
HETATM   12  C10 UNL     1       7.611  12.403  -5.877  1.00  0.00     0.010 A 
HETATM   13  C11 UNL     1       7.969  11.668  -4.767  1.00  0.00     0.008 A 
HETATM   14  C12 UNL     1       9.128  11.947  -4.050  1.00  0.00    -0.048 A 
HETATM   15  C17 UNL     1       9.886  12.993  -4.517  1.00  0.00     0.044 A 
HETATM   16  C18 UNL     1       9.520  13.734  -5.642  1.00  0.00     0.072 A 
BRANCH  14  17
HETATM   17  C13 UNL     1       9.486  11.138  -2.850  1.00  0.00    -0.024 C 
HETATM   18  C14 UNL     1       8.259  10.476  -2.248  1.00  0.00     0.019 C 
HETATM   19  C15 UNL     1      10.465  10.053  -3.222  1.00  0.00     0.019 C 
HETATM   20  C16 UNL     1      10.098  11.953  -1.733  1.00  0.00     0.019 C 
ENDBRANCH  14  17
BRANCH  16  21
HETATM   21  O1  UNL     1      10.312  14.790  -6.090  1.00  0.00    -0.360 OA
ATOM     22  H1  UNL     1      10.410  15.542  -5.517  1.00  0.00     0.217 HD
ENDBRANCH  16  21
ENDBRANCH  10  11
ENDBRANCH   9  10
ENDBRANCH   6   9
BRANCH   8  23
HETATM   23  C20 UNL     1       6.327  13.406 -11.261  1.00  0.00     0.165 C 
BRANCH  23  24
HETATM   24  O2  UNL     1       7.259  12.785 -12.066  1.00  0.00    -0.390 OA
ATOM     25  H2  UNL     1       6.903  12.550 -12.915  1.00  0.00     0.210 HD
ENDBRANCH  23  24
BRANCH  23  26
HETATM   26  C21 UNL     1       5.058  13.717 -11.958  1.00  0.00    -0.004 C 
HETATM   27  C22 UNL     1       4.158  12.766 -12.111  1.00  0.00     0.009 C 
ENDBRANCH  23  26
ENDBRANCH   8  23
BRANCH   1  28
HETATM   28  C3  UNL     1       6.860  16.003 -12.635  1.00  0.00     0.152 C 
BRANCH  28  29
HETATM   29  C2  UNL     1       8.223  16.379 -13.122  1.00  0.00    -0.017 C 
HETATM   30  C1  UNL     1       9.186  15.485 -13.157  1.00  0.00     0.008 C 
ENDBRANCH  28  29
ENDBRANCH   1  28
TORSDOF 10
ENDMDL
