MODEL 1
REMARK VINA RESULT: -9.535670716      0.000      0.000
REMARK  9 active torsions:
REMARK  status: ('A' for Active; 'I' for Inactive)
REMARK    1  A    between atoms: C7_7  and  N1_8 
REMARK    2  A    between atoms: N1_8  and  C8_10 
REMARK    3  A    between atoms: C8_10  and  C9_11 
REMARK    4  A    between atoms: C9_11  and  C10_12 
REMARK    5  A    between atoms: C10_12  and  C11_13 
REMARK    6  A    between atoms: C11_13  and  C12_14 
REMARK    7  A    between atoms: C12_14  and  C13_15 
REMARK    8  A    between atoms: C13_15  and  C14_16 
REMARK       I    between atoms: C14_16  and  N2_18 
REMARK    9  A    between atoms: N2_18  and  C15_20 
ROOT
HETATM    1  C9  UNL     1       6.936  13.187  -6.668  1.00  0.00     0.020 C 
ENDROOT
BRANCH   1   2
HETATM    2  C8  UNL     1       8.048  12.304  -6.137  1.00  0.00     0.121 C 
BRANCH   2   3
HETATM    3  N1  UNL     1       7.763  11.849  -4.794  1.00  0.00    -0.376 N 
ATOM      4  H1  UNL     1       6.785  11.820  -4.507  1.00  0.00     0.161 HD
BRANCH   3   5
HETATM    5  C7  UNL     1       8.641  11.479  -3.936  1.00  0.00     0.102 A 
HETATM    6  C6  UNL     1       9.839  12.140  -3.807  1.00  0.00     0.049 A 
HETATM    7  C5  UNL     1      10.752  11.690  -2.859  1.00  0.00     0.019 A 
HETATM    8  C4  UNL     1      10.418  10.599  -2.086  1.00  0.00     0.010 A 
HETATM    9  C3  UNL     1      11.060   9.903  -1.081  1.00  0.00     0.039 A 
HETATM   10  C20 UNL     1       9.193   9.941  -2.235  1.00  0.00     0.117 A 
HETATM   11  C2  UNL     1      10.275   8.865  -0.626  1.00  0.00     0.007 A 
HETATM   12  C1  UNL     1      10.609   7.877   0.454  1.00  0.00     0.068 C 
HETATM   13  N5  UNL     1       9.142   8.919  -1.354  1.00  0.00    -0.346 N 
ATOM     14  H5  UNL     1       8.355   8.277  -1.254  1.00  0.00     0.167 HD
HETATM   15  N4  UNL     1       8.331  10.407  -3.166  1.00  0.00    -0.328 N 
ATOM     16  H4  UNL     1       7.431   9.943  -3.292  1.00  0.00     0.169 HD
ENDBRANCH   3   5
ENDBRANCH   2   3
ENDBRANCH   1   2
BRANCH   1  17
HETATM   17  C10 UNL     1       7.076  13.429  -8.151  1.00  0.00     0.002 C 
BRANCH  17  18
HETATM   18  C11 UNL     1       6.375  14.697  -8.586  1.00  0.00     0.001 C 
BRANCH  18  19
HETATM   19  C12 UNL     1       7.128  15.929  -8.215  1.00  0.00     0.009 C 
BRANCH  19  20
HETATM   20  C13 UNL     1       8.609  15.829  -8.265  1.00  0.00     0.103 C 
BRANCH  20  21
HETATM   21  C14 UNL     1       9.320  16.065  -7.002  1.00  0.00     0.223 C 
HETATM   22  O1  UNL     1      10.190  15.265  -6.605  1.00  0.00    -0.273 OA
HETATM   23  N2  UNL     1       9.025  17.201  -6.213  1.00  0.00    -0.307 N 
ATOM     24  H2  UNL     1       8.127  17.302  -5.740  1.00  0.00     0.171 HD
BRANCH  23  25
HETATM   25  C15 UNL     1       9.958  18.121  -6.116  1.00  0.00     0.151 A 
HETATM   26  N3  UNL     1      10.428  18.709  -5.019  1.00  0.00    -0.339 N 
HETATM   27  C16 UNL     1      11.374  19.615  -5.147  1.00  0.00     0.020 A 
ATOM     28  H3  UNL     1      10.062  18.464  -4.099  1.00  0.00     0.168 HD
HETATM   29  C17 UNL     1      11.979  20.347  -3.948  1.00  0.00     0.069 C 
HETATM   30  C18 UNL     1      11.812  19.888  -6.417  1.00  0.00     0.004 A 
HETATM   31  C19 UNL     1      12.875  20.872  -6.836  1.00  0.00     0.058 C 
HETATM   32  S1  UNL     1      10.860  18.847  -7.364  1.00  0.00    -0.057 SA
ENDBRANCH  23  25
ENDBRANCH  20  21
ENDBRANCH  19  20
ENDBRANCH  18  19
ENDBRANCH  17  18
ENDBRANCH   1  17
TORSDOF 9
ENDMDL
MODEL 2
REMARK VINA RESULT: -9.418572495      1.250      1.557
REMARK  9 active torsions:
REMARK  status: ('A' for Active; 'I' for Inactive)
REMARK    1  A    between atoms: C7_7  and  N1_8 
REMARK    2  A    between atoms: N1_8  and  C8_10 
REMARK    3  A    between atoms: C8_10  and  C9_11 
REMARK    4  A    between atoms: C9_11  and  C10_12 
REMARK    5  A    between atoms: C10_12  and  C11_13 
REMARK    6  A    between atoms: C11_13  and  C12_14 
REMARK    7  A    between atoms: C12_14  and  C13_15 
REMARK    8  A    between atoms: C13_15  and  C14_16 
REMARK       I    between atoms: C14_16  and  N2_18 
REMARK    9  A    between atoms: N2_18  and  C15_20 
ROOT
HETATM    1  C9  UNL     1       6.902  13.213  -6.726  1.00  0.00     0.020 C 
ENDROOT
BRANCH   1   2
HETATM    2  C8  UNL     1       8.026  12.341  -6.203  1.00  0.00     0.121 C 
BRANCH   2   3
HETATM    3  N1  UNL     1       7.746  11.865  -4.867  1.00  0.00    -0.376 N 
ATOM      4  H1  UNL     1       6.768  11.825  -4.579  1.00  0.00     0.161 HD
BRANCH   3   5
HETATM    5  C7  UNL     1       8.627  11.490  -4.015  1.00  0.00     0.102 A 
HETATM    6  C6  UNL     1       9.842  12.123  -3.914  1.00  0.00     0.049 A 
HETATM    7  C5  UNL     1      10.758  11.668  -2.971  1.00  0.00     0.019 A 
HETATM    8  C4  UNL     1      10.408  10.599  -2.174  1.00  0.00     0.010 A 
HETATM    9  C3  UNL     1      11.048   9.906  -1.165  1.00  0.00     0.039 A 
HETATM   10  C20 UNL     1       9.165   9.969  -2.293  1.00  0.00     0.117 A 
HETATM   11  C2  UNL     1      10.244   8.896  -0.680  1.00  0.00     0.007 A 
HETATM   12  C1  UNL     1      10.570   7.920   0.413  1.00  0.00     0.068 C 
HETATM   13  N5  UNL     1       9.102   8.965  -1.393  1.00  0.00    -0.346 N 
ATOM     14  H5  UNL     1       8.302   8.344  -1.270  1.00  0.00     0.167 HD
HETATM   15  N4  UNL     1       8.302  10.439  -3.220  1.00  0.00    -0.328 N 
ATOM     16  H4  UNL     1       7.389   9.995  -3.325  1.00  0.00     0.169 HD
ENDBRANCH   3   5
ENDBRANCH   2   3
ENDBRANCH   1   2
BRANCH   1  17
HETATM   17  C10 UNL     1       7.214  13.763  -8.097  1.00  0.00     0.002 C 
BRANCH  17  18
HETATM   18  C11 UNL     1       6.623  15.141  -8.302  1.00  0.00     0.001 C 
BRANCH  18  19
HETATM   19  C12 UNL     1       7.648  16.222  -8.245  1.00  0.00     0.009 C 
BRANCH  19  20
HETATM   20  C13 UNL     1       7.941  16.773  -6.897  1.00  0.00     0.103 C 
BRANCH  20  21
HETATM   21  C14 UNL     1       9.301  16.552  -6.386  1.00  0.00     0.223 C 
HETATM   22  O1  UNL     1       9.854  15.442  -6.516  1.00  0.00    -0.273 OA
HETATM   23  N2  UNL     1      10.002  17.594  -5.737  1.00  0.00    -0.307 N 
ATOM     24  H2  UNL     1       9.706  17.949  -4.828  1.00  0.00     0.171 HD
BRANCH  23  25
HETATM   25  C15 UNL     1      11.052  18.086  -6.355  1.00  0.00     0.151 A 
HETATM   26  N3  UNL     1      11.997  17.432  -7.026  1.00  0.00    -0.339 N 
HETATM   27  C16 UNL     1      12.971  18.126  -7.575  1.00  0.00     0.020 A 
ATOM     28  H3  UNL     1      11.967  16.416  -7.113  1.00  0.00     0.168 HD
HETATM   29  C17 UNL     1      14.103  17.469  -8.367  1.00  0.00     0.069 C 
HETATM   30  C18 UNL     1      12.941  19.487  -7.413  1.00  0.00     0.004 A 
HETATM   31  C19 UNL     1      13.926  20.502  -7.935  1.00  0.00     0.058 C 
HETATM   32  S1  UNL     1      11.531  19.713  -6.491  1.00  0.00    -0.057 SA
ENDBRANCH  23  25
ENDBRANCH  20  21
ENDBRANCH  19  20
ENDBRANCH  18  19
ENDBRANCH  17  18
ENDBRANCH   1  17
TORSDOF 9
ENDMDL
MODEL 3
REMARK VINA RESULT: -9.282156937      4.382      6.987
REMARK  9 active torsions:
REMARK  status: ('A' for Active; 'I' for Inactive)
REMARK    1  A    between atoms: C7_7  and  N1_8 
REMARK    2  A    between atoms: N1_8  and  C8_10 
REMARK    3  A    between atoms: C8_10  and  C9_11 
REMARK    4  A    between atoms: C9_11  and  C10_12 
REMARK    5  A    between atoms: C10_12  and  C11_13 
REMARK    6  A    between atoms: C11_13  and  C12_14 
REMARK    7  A    between atoms: C12_14  and  C13_15 
REMARK    8  A    between atoms: C13_15  and  C14_16 
REMARK       I    between atoms: C14_16  and  N2_18 
REMARK    9  A    between atoms: N2_18  and  C15_20 
ROOT
HETATM    1  C9  UNL     1       8.777  13.760  -6.250  1.00  0.00     0.020 C 
ENDROOT
BRANCH   1   2
HETATM    2  C8  UNL     1       9.780  12.856  -5.560  1.00  0.00     0.121 C 
BRANCH   2   3
HETATM    3  N1  UNL     1       9.633  12.905  -4.123  1.00  0.00    -0.376 N 
ATOM      4  H1  UNL     1       9.629  13.826  -3.683  1.00  0.00     0.161 HD
BRANCH   3   5
HETATM    5  C7  UNL     1       9.507  11.886  -3.356  1.00  0.00     0.102 A 
HETATM    6  C6  UNL     1       8.315  11.211  -3.251  1.00  0.00     0.049 A 
HETATM    7  C5  UNL     1       8.240  10.113  -2.400  1.00  0.00     0.019 A 
HETATM    8  C4  UNL     1       9.367   9.744  -1.697  1.00  0.00     0.010 A 
HETATM    9  C3  UNL     1       9.646   8.739  -0.793  1.00  0.00     0.039 A 
HETATM   10  C20 UNL     1      10.571  10.445  -1.820  1.00  0.00     0.117 A 
HETATM   11  C2  UNL     1      10.957   8.810  -0.374  1.00  0.00     0.007 A 
HETATM   12  C1  UNL     1      11.651   7.904   0.603  1.00  0.00     0.068 C 
HETATM   13  N5  UNL     1      11.491   9.865  -1.021  1.00  0.00    -0.346 N 
ATOM     14  H5  UNL     1      12.457  10.180  -0.922  1.00  0.00     0.167 HD
HETATM   15  N4  UNL     1      10.605  11.507  -2.655  1.00  0.00    -0.328 N 
ATOM     16  H4  UNL     1      11.473  12.033  -2.760  1.00  0.00     0.169 HD
ENDBRANCH   3   5
ENDBRANCH   2   3
ENDBRANCH   1   2
BRANCH   1  17
HETATM   17  C10 UNL     1       7.553  12.998  -6.694  1.00  0.00     0.002 C 
BRANCH  17  18
HETATM   18  C11 UNL     1       7.007  13.518  -8.006  1.00  0.00     0.001 C 
BRANCH  18  19
HETATM   19  C12 UNL     1       6.101  14.688  -7.831  1.00  0.00     0.009 C 
BRANCH  19  20
HETATM   20  C13 UNL     1       4.648  14.416  -7.974  1.00  0.00     0.103 C 
BRANCH  20  21
HETATM   21  C14 UNL     1       4.065  14.678  -9.297  1.00  0.00     0.223 C 
HETATM   22  O1  UNL     1       4.420  15.671  -9.961  1.00  0.00    -0.273 OA
HETATM   23  N2  UNL     1       3.087  13.809  -9.835  1.00  0.00    -0.307 N 
ATOM     24  H2  UNL     1       2.156  13.737  -9.426  1.00  0.00     0.171 HD
BRANCH  23  25
HETATM   25  C15 UNL     1       3.431  13.099 -10.886  1.00  0.00     0.151 A 
HETATM   26  N3  UNL     1       4.566  13.144 -11.579  1.00  0.00    -0.339 N 
HETATM   27  C16 UNL     1       4.706  12.337 -12.608  1.00  0.00     0.020 A 
ATOM     28  H3  UNL     1       5.311  13.790 -11.317  1.00  0.00     0.168 HD
HETATM   29  C17 UNL     1       5.972  12.312 -13.467  1.00  0.00     0.069 C 
HETATM   30  C18 UNL     1       3.660  11.499 -12.896  1.00  0.00     0.004 A 
HETATM   31  C19 UNL     1       3.565  10.487 -14.009  1.00  0.00     0.058 C 
HETATM   32  S1  UNL     1       2.531  11.898 -11.690  1.00  0.00    -0.057 SA
ENDBRANCH  23  25
ENDBRANCH  20  21
ENDBRANCH  19  20
ENDBRANCH  18  19
ENDBRANCH  17  18
ENDBRANCH   1  17
TORSDOF 9
ENDMDL
MODEL 4
REMARK VINA RESULT: -9.258978531      4.443      7.057
REMARK  9 active torsions:
REMARK  status: ('A' for Active; 'I' for Inactive)
REMARK    1  A    between atoms: C7_7  and  N1_8 
REMARK    2  A    between atoms: N1_8  and  C8_10 
REMARK    3  A    between atoms: C8_10  and  C9_11 
REMARK    4  A    between atoms: C9_11  and  C10_12 
REMARK    5  A    between atoms: C10_12  and  C11_13 
REMARK    6  A    between atoms: C11_13  and  C12_14 
REMARK    7  A    between atoms: C12_14  and  C13_15 
REMARK    8  A    between atoms: C13_15  and  C14_16 
REMARK       I    between atoms: C14_16  and  N2_18 
REMARK    9  A    between atoms: N2_18  and  C15_20 
ROOT
HETATM    1  C9  UNL     1       8.651  13.590  -6.155  1.00  0.00     0.020 C 
ENDROOT
BRANCH   1   2
HETATM    2  C8  UNL     1       7.997  12.226  -6.045  1.00  0.00     0.121 C 
BRANCH   2   3
HETATM    3  N1  UNL     1       7.745  11.873  -4.666  1.00  0.00    -0.376 N 
ATOM      4  H1  UNL     1       6.785  11.951  -4.330  1.00  0.00     0.161 HD
BRANCH   3   5
HETATM    5  C7  UNL     1       8.630  11.468  -3.831  1.00  0.00     0.102 A 
HETATM    6  C6  UNL     1       9.848  12.095  -3.718  1.00  0.00     0.049 A 
HETATM    7  C5  UNL     1      10.768  11.608  -2.796  1.00  0.00     0.019 A 
HETATM    8  C4  UNL     1      10.421  10.515  -2.031  1.00  0.00     0.010 A 
HETATM    9  C3  UNL     1      11.064   9.789  -1.049  1.00  0.00     0.039 A 
HETATM   10  C20 UNL     1       9.175   9.893  -2.162  1.00  0.00     0.117 A 
HETATM   11  C2  UNL     1      10.261   8.766  -0.591  1.00  0.00     0.007 A 
HETATM   12  C1  UNL     1      10.590   7.755   0.469  1.00  0.00     0.068 C 
HETATM   13  N5  UNL     1       9.115   8.860  -1.294  1.00  0.00    -0.346 N 
ATOM     14  H5  UNL     1       8.314   8.238  -1.186  1.00  0.00     0.167 HD
HETATM   15  N4  UNL     1       8.307  10.393  -3.069  1.00  0.00    -0.328 N 
ATOM     16  H4  UNL     1       7.393   9.955  -3.182  1.00  0.00     0.169 HD
ENDBRANCH   3   5
ENDBRANCH   2   3
ENDBRANCH   1   2
BRANCH   1  17
HETATM   17  C10 UNL     1       8.076  14.394  -7.295  1.00  0.00     0.002 C 
BRANCH  17  18
HETATM   18  C11 UNL     1       6.795  13.788  -7.825  1.00  0.00     0.001 C 
BRANCH  18  19
HETATM   19  C12 UNL     1       5.805  14.817  -8.254  1.00  0.00     0.009 C 
BRANCH  19  20
HETATM   20  C13 UNL     1       4.377  14.411  -8.200  1.00  0.00     0.103 C 
BRANCH  20  21
HETATM   21  C14 UNL     1       3.625  14.509  -9.459  1.00  0.00     0.223 C 
HETATM   22  O1  UNL     1       3.690  15.540 -10.157  1.00  0.00    -0.273 OA
HETATM   23  N2  UNL     1       2.815  13.436  -9.896  1.00  0.00    -0.307 N 
ATOM     24  H2  UNL     1       1.965  13.173  -9.396  1.00  0.00     0.171 HD
BRANCH  23  25
HETATM   25  C15 UNL     1       3.202  12.793 -10.974  1.00  0.00     0.151 A 
HETATM   26  N3  UNL     1       4.360  12.891 -11.623  1.00  0.00    -0.339 N 
HETATM   27  C16 UNL     1       4.544  12.147 -12.693  1.00  0.00     0.020 A 
ATOM     28  H3  UNL     1       5.088  13.527 -11.299  1.00  0.00     0.168 HD
HETATM   29  C17 UNL     1       5.838  12.185 -13.508  1.00  0.00     0.069 C 
HETATM   30  C18 UNL     1       3.518  11.317 -13.065  1.00  0.00     0.004 A 
HETATM   31  C19 UNL     1       3.473  10.372 -14.239  1.00  0.00     0.058 C 
HETATM   32  S1  UNL     1       2.344  11.633 -11.878  1.00  0.00    -0.057 SA
ENDBRANCH  23  25
ENDBRANCH  20  21
ENDBRANCH  19  20
ENDBRANCH  18  19
ENDBRANCH  17  18
ENDBRANCH   1  17
TORSDOF 9
ENDMDL
MODEL 5
REMARK VINA RESULT: -9.182074831      3.511      9.991
REMARK  9 active torsions:
REMARK  status: ('A' for Active; 'I' for Inactive)
REMARK    1  A    between atoms: C7_7  and  N1_8 
REMARK    2  A    between atoms: N1_8  and  C8_10 
REMARK    3  A    between atoms: C8_10  and  C9_11 
REMARK    4  A    between atoms: C9_11  and  C10_12 
REMARK    5  A    between atoms: C10_12  and  C11_13 
REMARK    6  A    between atoms: C11_13  and  C12_14 
REMARK    7  A    between atoms: C12_14  and  C13_15 
REMARK    8  A    between atoms: C13_15  and  C14_16 
REMARK       I    between atoms: C14_16  and  N2_18 
REMARK    9  A    between atoms: N2_18  and  C15_20 
ROOT
HETATM    1  C9  UNL     1       9.443  14.795  -6.301  1.00  0.00     0.020 C 
ENDROOT
BRANCH   1   2
HETATM    2  C8  UNL     1       9.537  16.308  -6.342  1.00  0.00     0.121 C 
BRANCH   2   3
HETATM    3  N1  UNL     1       8.227  16.918  -6.343  1.00  0.00    -0.376 N 
ATOM      4  H1  UNL     1       7.455  16.372  -5.961  1.00  0.00     0.161 HD
BRANCH   3   5
HETATM    5  C7  UNL     1       7.957  18.090  -6.786  1.00  0.00     0.102 A 
HETATM    6  C6  UNL     1       7.804  18.332  -8.130  1.00  0.00     0.049 A 
HETATM    7  C5  UNL     1       7.514  19.626  -8.548  1.00  0.00     0.019 A 
HETATM    8  C4  UNL     1       7.389  20.615  -7.597  1.00  0.00     0.010 A 
HETATM    9  C3  UNL     1       7.115  21.967  -7.650  1.00  0.00     0.039 A 
HETATM   10  C20 UNL     1       7.548  20.347  -6.233  1.00  0.00     0.117 A 
HETATM   11  C2  UNL     1       7.102  22.514  -6.385  1.00  0.00     0.007 A 
HETATM   12  C1  UNL     1       6.845  23.947  -6.014  1.00  0.00     0.068 C 
HETATM   13  N5  UNL     1       7.372  21.495  -5.544  1.00  0.00    -0.346 N 
ATOM     14  H5  UNL     1       7.433  21.579  -4.530  1.00  0.00     0.167 HD
HETATM   15  N4  UNL     1       7.830  19.078  -5.864  1.00  0.00    -0.328 N 
ATOM     16  H4  UNL     1       7.950  18.860  -4.875  1.00  0.00     0.169 HD
ENDBRANCH   3   5
ENDBRANCH   2   3
ENDBRANCH   1   2
BRANCH   1  17
HETATM   17  C10 UNL     1       8.191  14.296  -6.979  1.00  0.00     0.002 C 
BRANCH  17  18
HETATM   18  C11 UNL     1       7.768  12.939  -6.459  1.00  0.00     0.001 C 
BRANCH  18  19
HETATM   19  C12 UNL     1       8.835  12.269  -5.662  1.00  0.00     0.009 C 
BRANCH  19  20
HETATM   20  C13 UNL     1       8.479  10.953  -5.071  1.00  0.00     0.103 C 
BRANCH  20  21
HETATM   21  C14 UNL     1       8.239  10.935  -3.622  1.00  0.00     0.223 C 
HETATM   22  O1  UNL     1       7.199  10.429  -3.158  1.00  0.00    -0.273 OA
HETATM   23  N2  UNL     1       9.185  11.494  -2.731  1.00  0.00    -0.307 N 
ATOM     24  H2  UNL     1       9.358  12.499  -2.701  1.00  0.00     0.171 HD
BRANCH  23  25
HETATM   25  C15 UNL     1       9.830  10.664  -1.943  1.00  0.00     0.151 A 
HETATM   26  N3  UNL     1       9.578   9.378  -1.715  1.00  0.00    -0.339 N 
HETATM   27  C16 UNL     1      10.357   8.724  -0.879  1.00  0.00     0.020 A 
ATOM     28  H3  UNL     1       8.799   8.908  -2.177  1.00  0.00     0.168 HD
HETATM   29  C17 UNL     1      10.152   7.244  -0.551  1.00  0.00     0.069 C 
HETATM   30  C18 UNL     1      11.383   9.424  -0.299  1.00  0.00     0.004 A 
HETATM   31  C19 UNL     1      12.408   8.918   0.683  1.00  0.00     0.058 C 
HETATM   32  S1  UNL     1      11.190  10.975  -0.968  1.00  0.00    -0.057 SA
ENDBRANCH  23  25
ENDBRANCH  20  21
ENDBRANCH  19  20
ENDBRANCH  18  19
ENDBRANCH  17  18
ENDBRANCH   1  17
TORSDOF 9
ENDMDL
