MODEL 1
REMARK VINA RESULT: -9.145306400      0.000      0.000
REMARK  9 active torsions:
REMARK  status: ('A' for Active; 'I' for Inactive)
REMARK    1  A    between atoms: C5_5  and  N1_6 
REMARK    2  A    between atoms: N1_6  and  C6_8 
REMARK    3  A    between atoms: C10_14  and  N3_15 
REMARK    4  A    between atoms: N3_15  and  C11_17 
REMARK    5  A    between atoms: C11_17  and  C12_18 
REMARK    6  A    between atoms: C12_18  and  C13_19 
REMARK    7  A    between atoms: C13_19  and  O1_20 
REMARK    8  A    between atoms: O1_20  and  C14_21 
REMARK    9  A    between atoms: C14_21  and  C15_22 
ROOT
HETATM    1  C6  UNL     1      10.619  17.378  -7.248  1.00  0.00     0.684 A 
HETATM    2  N2  UNL     1       9.606  17.956  -7.957  1.00  0.00    -0.196 N 
ATOM      3  H2  UNL     1       9.760  18.845  -8.432  1.00  0.00     0.184 HD
HETATM    4  C7  UNL     1       8.408  17.355  -8.029  1.00  0.00     0.026 A 
HETATM    5  C8  UNL     1       7.337  18.027  -8.815  1.00  0.00     0.069 C 
HETATM    6  C9  UNL     1       8.233  16.159  -7.377  1.00  0.00     0.073 A 
HETATM    7  C10 UNL     1       9.258  15.558  -6.650  1.00  0.00     0.118 A 
HETATM    8  N5  UNL     1      10.431  16.200  -6.611  1.00  0.00    -0.177 N 
ATOM      9  H5  UNL     1      11.204  15.790  -6.088  1.00  0.00     0.186 HD
ENDROOT
BRANCH   7  10
HETATM   10  N3  UNL     1       9.035  14.453  -6.068  1.00  0.00    -0.376 N 
ATOM     11  H3  UNL     1       9.503  14.287  -5.176  1.00  0.00     0.161 HD
BRANCH  10  12
HETATM   12  C11 UNL     1       8.174  13.415  -6.566  1.00  0.00     0.123 C 
BRANCH  12  13
HETATM   13  C12 UNL     1       8.133  12.250  -5.571  1.00  0.00     0.046 C 
BRANCH  13  14
HETATM   14  C13 UNL     1       9.532  11.662  -5.413  1.00  0.00     0.169 C 
BRANCH  14  15
HETATM   15  O1  UNL     1      10.208  12.239  -4.369  1.00  0.00    -0.387 OA
BRANCH  15  16
HETATM   16  C14 UNL     1       9.625  12.179  -3.139  1.00  0.00     0.208 C 
BRANCH  16  17
HETATM   17  C15 UNL     1       9.773  10.942  -2.367  1.00  0.00    -0.011 A 
HETATM   18  C16 UNL     1      10.857  10.421  -1.700  1.00  0.00     0.035 A 
HETATM   19  C17 UNL     1      10.494   9.230  -1.076  1.00  0.00     0.006 A 
HETATM   20  C18 UNL     1      11.386   8.369  -0.258  1.00  0.00     0.068 C 
HETATM   21  N4  UNL     1       9.205   9.069  -1.385  1.00  0.00    -0.363 N 
HETATM   22  C19 UNL     1       8.716  10.042  -2.145  1.00  0.00     0.014 A 
ATOM     23  H4  UNL     1       8.649   8.275  -1.069  1.00  0.00     0.165 HD
HETATM   24  C20 UNL     1       7.328  10.199  -2.683  1.00  0.00     0.068 C 
ENDBRANCH  16  17
ENDBRANCH  15  16
ENDBRANCH  14  15
ENDBRANCH  13  14
ENDBRANCH  12  13
ENDBRANCH  10  12
ENDBRANCH   7  10
BRANCH   1  25
HETATM   25  N1  UNL     1      11.770  17.950  -7.175  1.00  0.00    -0.192 N 
ATOM     26  H1  UNL     1      12.570  17.564  -7.676  1.00  0.00     0.184 HD
BRANCH  25  27
HETATM   27  C5  UNL     1      11.913  19.123  -6.390  1.00  0.00     0.049 A 
HETATM   28  C4  UNL     1      12.344  20.315  -6.955  1.00  0.00     0.030 A 
HETATM   29  C3  UNL     1      12.497  21.475  -6.235  1.00  0.00     0.009 A 
HETATM   30  C2  UNL     1      12.217  21.476  -4.894  1.00  0.00    -0.062 A 
HETATM   31  C1  UNL     1      12.356  22.684  -4.049  1.00  0.00     0.048 C 
HETATM   32  C22 UNL     1      11.785  20.313  -4.287  1.00  0.00     0.009 A 
HETATM   33  C21 UNL     1      11.637  19.147  -5.040  1.00  0.00     0.030 A 
ENDBRANCH  25  27
ENDBRANCH   1  25
TORSDOF 9
ENDMDL
MODEL 2
REMARK VINA RESULT: -8.887775115      2.657      3.086
REMARK  9 active torsions:
REMARK  status: ('A' for Active; 'I' for Inactive)
REMARK    1  A    between atoms: C5_5  and  N1_6 
REMARK    2  A    between atoms: N1_6  and  C6_8 
REMARK    3  A    between atoms: C10_14  and  N3_15 
REMARK    4  A    between atoms: N3_15  and  C11_17 
REMARK    5  A    between atoms: C11_17  and  C12_18 
REMARK    6  A    between atoms: C12_18  and  C13_19 
REMARK    7  A    between atoms: C13_19  and  O1_20 
REMARK    8  A    between atoms: O1_20  and  C14_21 
REMARK    9  A    between atoms: C14_21  and  C15_22 
ROOT
HETATM    1  C6  UNL     1       7.883  16.227  -8.316  1.00  0.00     0.684 A 
HETATM    2  N2  UNL     1       6.608  15.929  -8.701  1.00  0.00    -0.196 N 
ATOM      3  H2  UNL     1       6.096  16.571  -9.307  1.00  0.00     0.184 HD
HETATM    4  C7  UNL     1       6.026  14.794  -8.282  1.00  0.00     0.026 A 
HETATM    5  C8  UNL     1       4.635  14.517  -8.732  1.00  0.00     0.069 C 
HETATM    6  C9  UNL     1       6.741  13.953  -7.466  1.00  0.00     0.073 A 
HETATM    7  C10 UNL     1       8.043  14.245  -7.065  1.00  0.00     0.118 A 
HETATM    8  N5  UNL     1       8.574  15.389  -7.511  1.00  0.00    -0.177 N 
ATOM      9  H5  UNL     1       9.525  15.635  -7.238  1.00  0.00     0.186 HD
ENDROOT
BRANCH   7  10
HETATM   10  N3  UNL     1       8.653  13.428  -6.308  1.00  0.00    -0.376 N 
ATOM     11  H3  UNL     1       9.624  13.637  -6.076  1.00  0.00     0.161 HD
BRANCH  10  12
HETATM   12  C11 UNL     1       8.082  12.232  -5.753  1.00  0.00     0.123 C 
BRANCH  12  13
HETATM   13  C12 UNL     1       9.193  11.228  -5.426  1.00  0.00     0.046 C 
BRANCH  13  14
HETATM   14  C13 UNL     1      10.499  11.974  -5.173  1.00  0.00     0.169 C 
BRANCH  14  15
HETATM   15  O1  UNL     1      11.068  11.605  -3.981  1.00  0.00    -0.387 OA
BRANCH  15  16
HETATM   16  C14 UNL     1      10.286  11.673  -2.867  1.00  0.00     0.208 C 
BRANCH  16  17
HETATM   17  C15 UNL     1      10.113  10.453  -2.074  1.00  0.00    -0.011 A 
HETATM   18  C16 UNL     1      11.022   9.703  -1.366  1.00  0.00     0.035 A 
HETATM   19  C17 UNL     1      10.368   8.646  -0.737  1.00  0.00     0.006 A 
HETATM   20  C18 UNL     1      11.006   7.615   0.121  1.00  0.00     0.068 C 
HETATM   21  N4  UNL     1       9.087   8.792  -1.083  1.00  0.00    -0.363 N 
HETATM   22  C19 UNL     1       8.865   9.837  -1.871  1.00  0.00     0.014 A 
ATOM     23  H4  UNL     1       8.349   8.161  -0.772  1.00  0.00     0.165 HD
HETATM   24  C20 UNL     1       7.570  10.310  -2.454  1.00  0.00     0.068 C 
ENDBRANCH  16  17
ENDBRANCH  15  16
ENDBRANCH  14  15
ENDBRANCH  13  14
ENDBRANCH  12  13
ENDBRANCH  10  12
ENDBRANCH   7  10
BRANCH   1  25
HETATM   25  N1  UNL     1       8.445  17.315  -8.714  1.00  0.00    -0.192 N 
ATOM     26  H1  UNL     1       9.133  17.294  -9.466  1.00  0.00     0.184 HD
BRANCH  25  27
HETATM   27  C5  UNL     1       8.095  18.543  -8.096  1.00  0.00     0.049 A 
HETATM   28  C4  UNL     1       7.736  19.649  -8.853  1.00  0.00     0.030 A 
HETATM   29  C3  UNL     1       7.390  20.858  -8.299  1.00  0.00     0.009 A 
HETATM   30  C2  UNL     1       7.393  20.998  -6.936  1.00  0.00    -0.062 A 
HETATM   31  C1  UNL     1       7.032  22.267  -6.262  1.00  0.00     0.048 C 
HETATM   32  C22 UNL     1       7.743  19.925  -6.141  1.00  0.00     0.009 A 
HETATM   33  C21 UNL     1       8.091  18.706  -6.727  1.00  0.00     0.030 A 
ENDBRANCH  25  27
ENDBRANCH   1  25
TORSDOF 9
ENDMDL
MODEL 3
REMARK VINA RESULT: -8.870122171      1.065      1.548
REMARK  9 active torsions:
REMARK  status: ('A' for Active; 'I' for Inactive)
REMARK    1  A    between atoms: C5_5  and  N1_6 
REMARK    2  A    between atoms: N1_6  and  C6_8 
REMARK    3  A    between atoms: C10_14  and  N3_15 
REMARK    4  A    between atoms: N3_15  and  C11_17 
REMARK    5  A    between atoms: C11_17  and  C12_18 
REMARK    6  A    between atoms: C12_18  and  C13_19 
REMARK    7  A    between atoms: C13_19  and  O1_20 
REMARK    8  A    between atoms: O1_20  and  C14_21 
REMARK    9  A    between atoms: C14_21  and  C15_22 
ROOT
HETATM    1  C6  UNL     1       9.553  17.409  -6.196  1.00  0.00     0.684 A 
HETATM    2  N2  UNL     1       8.749  17.797  -7.229  1.00  0.00    -0.196 N 
ATOM      3  H2  UNL     1       8.664  18.786  -7.464  1.00  0.00     0.184 HD
HETATM    4  C7  UNL     1       8.071  16.878  -7.935  1.00  0.00     0.026 A 
HETATM    5  C8  UNL     1       7.209  17.355  -9.051  1.00  0.00     0.069 C 
HETATM    6  C9  UNL     1       8.206  15.556  -7.593  1.00  0.00     0.073 A 
HETATM    7  C10 UNL     1       9.023  15.146  -6.541  1.00  0.00     0.118 A 
HETATM    8  N5  UNL     1       9.676  16.102  -5.871  1.00  0.00    -0.177 N 
ATOM      9  H5  UNL     1      10.282  15.839  -5.095  1.00  0.00     0.186 HD
ENDROOT
BRANCH   7  10
HETATM   10  N3  UNL     1       9.106  13.908  -6.272  1.00  0.00    -0.376 N 
ATOM     11  H3  UNL     1      10.026  13.541  -6.028  1.00  0.00     0.161 HD
BRANCH  10  12
HETATM   12  C11 UNL     1       8.007  12.984  -6.284  1.00  0.00     0.123 C 
BRANCH  12  13
HETATM   13  C12 UNL     1       8.172  11.962  -5.153  1.00  0.00     0.046 C 
BRANCH  13  14
HETATM   14  C13 UNL     1       9.605  11.442  -5.139  1.00  0.00     0.169 C 
BRANCH  14  15
HETATM   15  O1  UNL     1      10.331  11.986  -4.111  1.00  0.00    -0.387 OA
BRANCH  15  16
HETATM   16  C14 UNL     1       9.784  11.936  -2.865  1.00  0.00     0.208 C 
BRANCH  16  17
HETATM   17  C15 UNL     1       9.865  10.671  -2.129  1.00  0.00    -0.011 A 
HETATM   18  C16 UNL     1      10.936  10.039  -1.540  1.00  0.00     0.035 A 
HETATM   19  C17 UNL     1      10.504   8.869  -0.920  1.00  0.00     0.006 A 
HETATM   20  C18 UNL     1      11.362   7.911  -0.176  1.00  0.00     0.068 C 
HETATM   21  N4  UNL     1       9.190   8.831  -1.152  1.00  0.00    -0.363 N 
HETATM   22  C19 UNL     1       8.746   9.863  -1.860  1.00  0.00     0.014 A 
ATOM     23  H4  UNL     1       8.585   8.082  -0.818  1.00  0.00     0.165 HD
HETATM   24  C20 UNL     1       7.349  10.157  -2.307  1.00  0.00     0.068 C 
ENDBRANCH  16  17
ENDBRANCH  15  16
ENDBRANCH  14  15
ENDBRANCH  13  14
ENDBRANCH  12  13
ENDBRANCH  10  12
ENDBRANCH   7  10
BRANCH   1  25
HETATM   25  N1  UNL     1      10.205  18.285  -5.516  1.00  0.00    -0.192 N 
ATOM     26  H1  UNL     1       9.961  18.470  -4.543  1.00  0.00     0.184 HD
BRANCH  25  27
HETATM   27  C5  UNL     1      11.269  18.992  -6.135  1.00  0.00     0.049 A 
HETATM   28  C4  UNL     1      12.173  18.343  -6.963  1.00  0.00     0.030 A 
HETATM   29  C3  UNL     1      13.218  18.986  -7.583  1.00  0.00     0.009 A 
HETATM   30  C2  UNL     1      13.392  20.331  -7.387  1.00  0.00    -0.062 A 
HETATM   31  C1  UNL     1      14.491  21.096  -8.019  1.00  0.00     0.048 C 
HETATM   32  C22 UNL     1      12.516  21.020  -6.571  1.00  0.00     0.009 A 
HETATM   33  C21 UNL     1      11.462  20.344  -5.951  1.00  0.00     0.030 A 
ENDBRANCH  25  27
ENDBRANCH   1  25
TORSDOF 9
ENDMDL
MODEL 4
REMARK VINA RESULT: -8.864808227      1.455      2.186
REMARK  9 active torsions:
REMARK  status: ('A' for Active; 'I' for Inactive)
REMARK    1  A    between atoms: C5_5  and  N1_6 
REMARK    2  A    between atoms: N1_6  and  C6_8 
REMARK    3  A    between atoms: C10_14  and  N3_15 
REMARK    4  A    between atoms: N3_15  and  C11_17 
REMARK    5  A    between atoms: C11_17  and  C12_18 
REMARK    6  A    between atoms: C12_18  and  C13_19 
REMARK    7  A    between atoms: C13_19  and  O1_20 
REMARK    8  A    between atoms: O1_20  and  C14_21 
REMARK    9  A    between atoms: C14_21  and  C15_22 
ROOT
HETATM    1  C6  UNL     1       8.595  16.097  -8.396  1.00  0.00     0.684 A 
HETATM    2  N2  UNL     1       7.574  15.687  -9.204  1.00  0.00    -0.196 N 
ATOM      3  H2  UNL     1       7.316  16.244 -10.020  1.00  0.00     0.184 HD
HETATM    4  C7  UNL     1       6.910  14.554  -8.928  1.00  0.00     0.026 A 
HETATM    5  C8  UNL     1       5.806  14.152  -9.841  1.00  0.00     0.069 C 
HETATM    6  C9  UNL     1       7.282  13.829  -7.822  1.00  0.00     0.073 A 
HETATM    7  C10 UNL     1       8.322  14.235  -6.988  1.00  0.00     0.118 A 
HETATM    8  N5  UNL     1       8.949  15.372  -7.311  1.00  0.00    -0.177 N 
ATOM      9  H5  UNL     1       9.715  15.700  -6.723  1.00  0.00     0.186 HD
ENDROOT
BRANCH   7  10
HETATM   10  N3  UNL     1       8.618  13.523  -5.981  1.00  0.00    -0.376 N 
ATOM     11  H3  UNL     1       9.313  13.892  -5.331  1.00  0.00     0.161 HD
BRANCH  10  12
HETATM   12  C11 UNL     1       8.051  12.237  -5.682  1.00  0.00     0.123 C 
BRANCH  12  13
HETATM   13  C12 UNL     1       9.169  11.230  -5.389  1.00  0.00     0.046 C 
BRANCH  13  14
HETATM   14  C13 UNL     1      10.481  11.975  -5.161  1.00  0.00     0.169 C 
BRANCH  14  15
HETATM   15  O1  UNL     1      11.048  11.644  -3.957  1.00  0.00    -0.387 OA
BRANCH  15  16
HETATM   16  C14 UNL     1      10.247  11.689  -2.856  1.00  0.00     0.208 C 
BRANCH  16  17
HETATM   17  C15 UNL     1      10.085  10.460  -2.074  1.00  0.00    -0.011 A 
HETATM   18  C16 UNL     1      11.004   9.706  -1.382  1.00  0.00     0.035 A 
HETATM   19  C17 UNL     1      10.358   8.641  -0.757  1.00  0.00     0.006 A 
HETATM   20  C18 UNL     1      11.008   7.603   0.084  1.00  0.00     0.068 C 
HETATM   21  N4  UNL     1       9.074   8.786  -1.090  1.00  0.00    -0.363 N 
HETATM   22  C19 UNL     1       8.842   9.838  -1.866  1.00  0.00     0.014 A 
ATOM     23  H4  UNL     1       8.341   8.149  -0.779  1.00  0.00     0.165 HD
HETATM   24  C20 UNL     1       7.540  10.313  -2.431  1.00  0.00     0.068 C 
ENDBRANCH  16  17
ENDBRANCH  15  16
ENDBRANCH  14  15
ENDBRANCH  13  14
ENDBRANCH  12  13
ENDBRANCH  10  12
ENDBRANCH   7  10
BRANCH   1  25
HETATM   25  N1  UNL     1       9.235  17.183  -8.657  1.00  0.00    -0.192 N 
ATOM     26  H1  UNL     1       9.292  17.531  -9.614  1.00  0.00     0.184 HD
BRANCH  25  27
HETATM   27  C5  UNL     1       9.860  17.891  -7.598  1.00  0.00     0.049 A 
HETATM   28  C4  UNL     1      11.238  17.878  -7.444  1.00  0.00     0.030 A 
HETATM   29  C3  UNL     1      11.887  18.548  -6.434  1.00  0.00     0.009 A 
HETATM   30  C2  UNL     1      11.156  19.268  -5.527  1.00  0.00    -0.062 A 
HETATM   31  C1  UNL     1      11.780  20.018  -4.412  1.00  0.00     0.048 C 
HETATM   32  C22 UNL     1       9.780  19.311  -5.640  1.00  0.00     0.009 A 
HETATM   33  C21 UNL     1       9.144  18.622  -6.674  1.00  0.00     0.030 A 
ENDBRANCH  25  27
ENDBRANCH   1  25
TORSDOF 9
ENDMDL
MODEL 5
REMARK VINA RESULT: -8.750358142      3.041      6.166
REMARK  9 active torsions:
REMARK  status: ('A' for Active; 'I' for Inactive)
REMARK    1  A    between atoms: C5_5  and  N1_6 
REMARK    2  A    between atoms: N1_6  and  C6_8 
REMARK    3  A    between atoms: C10_14  and  N3_15 
REMARK    4  A    between atoms: N3_15  and  C11_17 
REMARK    5  A    between atoms: C11_17  and  C12_18 
REMARK    6  A    between atoms: C12_18  and  C13_19 
REMARK    7  A    between atoms: C13_19  and  O1_20 
REMARK    8  A    between atoms: O1_20  and  C14_21 
REMARK    9  A    between atoms: C14_21  and  C15_22 
ROOT
HETATM    1  C6  UNL     1       7.513  15.822  -8.965  1.00  0.00     0.684 A 
HETATM    2  N2  UNL     1       7.518  17.071  -8.414  1.00  0.00    -0.196 N 
ATOM      3  H2  UNL     1       7.183  17.868  -8.955  1.00  0.00     0.184 HD
HETATM    4  C7  UNL     1       7.966  17.251  -7.161  1.00  0.00     0.026 A 
HETATM    5  C8  UNL     1       7.951  18.632  -6.608  1.00  0.00     0.069 C 
HETATM    6  C9  UNL     1       8.413  16.158  -6.460  1.00  0.00     0.073 A 
HETATM    7  C10 UNL     1       8.413  14.878  -7.011  1.00  0.00     0.118 A 
HETATM    8  N5  UNL     1       7.956  14.756  -8.262  1.00  0.00    -0.177 N 
ATOM      9  H5  UNL     1       7.941  13.833  -8.697  1.00  0.00     0.186 HD
ENDROOT
BRANCH   7  10
HETATM   10  N3  UNL     1       8.840  13.907  -6.313  1.00  0.00    -0.376 N 
ATOM     11  H3  UNL     1       9.748  14.016  -5.861  1.00  0.00     0.161 HD
BRANCH  10  12
HETATM   12  C11 UNL     1       8.144  12.666  -6.111  1.00  0.00     0.123 C 
BRANCH  12  13
HETATM   13  C12 UNL     1       9.100  11.623  -5.521  1.00  0.00     0.046 C 
BRANCH  13  14
HETATM   14  C13 UNL     1      10.417  12.293  -5.141  1.00  0.00     0.169 C 
BRANCH  14  15
HETATM   15  O1  UNL     1      10.952  11.748  -4.002  1.00  0.00    -0.387 OA
BRANCH  15  16
HETATM   16  C14 UNL     1      10.188  11.782  -2.875  1.00  0.00     0.208 C 
BRANCH  16  17
HETATM   17  C15 UNL     1      10.056  10.547  -2.097  1.00  0.00    -0.011 A 
HETATM   18  C16 UNL     1      10.983   9.838  -1.369  1.00  0.00     0.035 A 
HETATM   19  C17 UNL     1      10.367   8.743  -0.767  1.00  0.00     0.006 A 
HETATM   20  C18 UNL     1      11.034   7.738   0.099  1.00  0.00     0.068 C 
HETATM   21  N4  UNL     1       9.091   8.826  -1.148  1.00  0.00    -0.363 N 
HETATM   22  C19 UNL     1       8.837   9.866  -1.934  1.00  0.00     0.014 A 
ATOM     23  H4  UNL     1       8.378   8.154  -0.864  1.00  0.00     0.165 HD
HETATM   24  C20 UNL     1       7.536  10.277  -2.549  1.00  0.00     0.068 C 
ENDBRANCH  16  17
ENDBRANCH  15  16
ENDBRANCH  14  15
ENDBRANCH  13  14
ENDBRANCH  12  13
ENDBRANCH  10  12
ENDBRANCH   7  10
BRANCH   1  25
HETATM   25  N1  UNL     1       7.084  15.644 -10.166  1.00  0.00    -0.192 N 
ATOM     26  H1  UNL     1       7.556  16.089 -10.953  1.00  0.00     0.184 HD
BRANCH  25  27
HETATM   27  C5  UNL     1       5.949  14.821 -10.382  1.00  0.00     0.049 A 
HETATM   28  C4  UNL     1       5.949  13.846 -11.369  1.00  0.00     0.030 A 
HETATM   29  C3  UNL     1       4.873  13.027 -11.615  1.00  0.00     0.009 A 
HETATM   30  C2  UNL     1       3.738  13.163 -10.860  1.00  0.00    -0.062 A 
HETATM   31  C1  UNL     1       2.538  12.319 -11.062  1.00  0.00     0.048 C 
HETATM   32  C22 UNL     1       3.691  14.119  -9.865  1.00  0.00     0.009 A 
HETATM   33  C21 UNL     1       4.797  14.940  -9.635  1.00  0.00     0.030 A 
ENDBRANCH  25  27
ENDBRANCH   1  25
TORSDOF 9
ENDMDL
