MODEL 1
REMARK VINA RESULT: -7.870759348      0.000      0.000
REMARK  9 active torsions:
REMARK  status: ('A' for Active; 'I' for Inactive)
REMARK    1  A    between atoms: C2_2  and  O1_3 
REMARK    2  A    between atoms: O1_3  and  C3_4 
REMARK    3  A    between atoms: C3_4  and  C4_5 
REMARK    4  A    between atoms: C4_5  and  O2_6 
REMARK    5  A    between atoms: C5_8  and  O3_9 
REMARK    6  A    between atoms: C14_21  and  C15_22 
REMARK    7  A    between atoms: C15_22  and  O6_23 
REMARK    8  A    between atoms: C24_35  and  C25_36 
REMARK    9  A    between atoms: C25_36  and  O9_37 
ROOT
HETATM    1  C4  UNL     1      14.572 -12.844  19.718  1.00  0.00     0.132 C 
HETATM    2  C5  UNL     1      16.069 -13.000  19.566  1.00  0.00     0.166 C 
HETATM    3  C6  UNL     1      16.666 -13.678  20.813  1.00  0.00     0.077 C 
HETATM    4  C7  UNL     1      15.844 -12.976  21.923  1.00  0.00     0.178 C 
HETATM    5  O4  UNL     1      14.571 -13.494  21.917  1.00  0.00    -0.382 OA
HETATM    6  C8  UNL     1      14.160 -13.994  20.651  1.00  0.00     0.168 C 
HETATM    7  C9  UNL     1      14.917 -15.143  20.193  1.00  0.00     0.060 C 
HETATM    8  C10 UNL     1      14.532 -16.527  20.378  1.00  0.00     0.027 C 
HETATM    9  C11 UNL     1      15.860 -17.188  19.939  1.00  0.00     0.018 C 
HETATM   10  C12 UNL     1      16.959 -16.188  20.343  1.00  0.00     0.054 C 
HETATM   11  C13 UNL     1      17.744 -16.781  21.535  1.00  0.00     0.166 C 
HETATM   12  O5  UNL     1      18.928 -16.099  21.506  1.00  0.00    -0.366 OA
HETATM   13  C14 UNL     1      19.675 -16.113  22.636  1.00  0.00     0.108 C 
HETATM   14  C16 UNL     1      20.850 -15.147  22.418  1.00  0.00     0.045 C 
HETATM   15  C17 UNL     1      21.030 -14.259  23.617  1.00  0.00     0.034 C 
HETATM   16  C18 UNL     1      20.778 -14.937  24.922  1.00  0.00     0.118 C 
HETATM   17  C19 UNL     1      20.564 -13.837  25.967  1.00  0.00     0.039 C 
HETATM   18  O7  UNL     1      19.634 -15.719  24.945  1.00  0.00    -0.378 OA
HETATM   19  C20 UNL     1      18.896 -15.572  23.775  1.00  0.00     0.161 C 
HETATM   20  C21 UNL     1      17.549 -16.139  23.965  1.00  0.00     0.078 C 
HETATM   21  C22 UNL     1      16.829 -16.475  22.658  1.00  0.00     0.112 C 
HETATM   22  C23 UNL     1      15.894 -17.581  23.037  1.00  0.00     0.209 C 
HETATM   23  O8  UNL     1      14.983 -17.960  22.132  1.00  0.00    -0.380 OA
HETATM   24  C24 UNL     1      14.079 -17.023  21.689  1.00  0.00     0.149 C 
HETATM   25  O10 UNL     1      16.096 -15.385  22.304  1.00  0.00    -0.363 OA
HETATM   26  C27 UNL     1      16.246 -15.098  20.977  1.00  0.00     0.083 C 
ENDROOT
BRANCH   1  27
HETATM   27  C3  UNL     1      13.922 -13.076  18.386  1.00  0.00     0.210 C 
BRANCH  27  28
HETATM   28  O1  UNL     1      14.240 -12.035  17.500  1.00  0.00    -0.388 OA
BRANCH  28  29
HETATM   29  C2  UNL     1      14.652 -12.514  16.277  1.00  0.00     0.163 C 
HETATM   30  C1  UNL     1      16.011 -11.922  15.978  1.00  0.00     0.033 C 
ENDBRANCH  28  29
ENDBRANCH  27  28
ENDBRANCH   1  27
BRANCH   1  31
HETATM   31  O2  UNL     1      14.211 -11.617  20.257  1.00  0.00    -0.382 OA
ATOM     32  H2  UNL     1      14.479 -11.540  21.165  1.00  0.00     0.210 HD
ENDBRANCH   1  31
BRANCH   2  33
HETATM   33  O3  UNL     1      16.616 -11.695  19.589  1.00  0.00    -0.392 OA
ATOM     34  H3  UNL     1      16.407 -11.328  20.440  1.00  0.00     0.210 HD
ENDBRANCH   2  33
BRANCH  24  35
HETATM   35  C25 UNL     1      12.759 -17.795  21.493  1.00  0.00     0.199 C 
BRANCH  35  36
HETATM   36  O9  UNL     1      11.754 -16.943  21.048  1.00  0.00    -0.393 OA
HETATM   37  C26 UNL     1      10.971 -17.682  20.161  1.00  0.00     0.201 C 
ENDBRANCH  35  36
ENDBRANCH  24  35
BRANCH  13  38
HETATM   38  C15 UNL     1      20.256 -17.482  22.887  1.00  0.00     0.204 C 
BRANCH  38  39
HETATM   39  O6  UNL     1      21.565 -17.582  22.423  1.00  0.00    -0.398 OA
ATOM     40  H6  UNL     1      21.597 -17.767  21.492  1.00  0.00     0.209 HD
ENDBRANCH  38  39
ENDBRANCH  13  38
TORSDOF 9
ENDMDL
MODEL 2
REMARK VINA RESULT: -7.834732561      1.640      4.562
REMARK  9 active torsions:
REMARK  status: ('A' for Active; 'I' for Inactive)
REMARK    1  A    between atoms: C2_2  and  O1_3 
REMARK    2  A    between atoms: O1_3  and  C3_4 
REMARK    3  A    between atoms: C3_4  and  C4_5 
REMARK    4  A    between atoms: C4_5  and  O2_6 
REMARK    5  A    between atoms: C5_8  and  O3_9 
REMARK    6  A    between atoms: C14_21  and  C15_22 
REMARK    7  A    between atoms: C15_22  and  O6_23 
REMARK    8  A    between atoms: C24_35  and  C25_36 
REMARK    9  A    between atoms: C25_36  and  O9_37 
ROOT
HETATM    1  C4  UNL     1      13.816 -16.601  20.361  1.00  0.00     0.132 C 
HETATM    2  C5  UNL     1      14.253 -16.518  21.806  1.00  0.00     0.166 C 
HETATM    3  C6  UNL     1      15.788 -16.429  21.897  1.00  0.00     0.077 C 
HETATM    4  C7  UNL     1      16.183 -17.440  20.792  1.00  0.00     0.178 C 
HETATM    5  O4  UNL     1      15.951 -16.861  19.567  1.00  0.00    -0.382 OA
HETATM    6  C8  UNL     1      14.926 -15.876  19.583  1.00  0.00     0.168 C 
HETATM    7  C9  UNL     1      15.241 -14.703  20.376  1.00  0.00     0.060 C 
HETATM    8  C10 UNL     1      15.812 -13.476  19.864  1.00  0.00     0.027 C 
HETATM    9  C11 UNL     1      16.145 -12.804  21.217  1.00  0.00     0.018 C 
HETATM   10  C12 UNL     1      16.470 -13.966  22.173  1.00  0.00     0.054 C 
HETATM   11  C13 UNL     1      17.988 -13.949  22.464  1.00  0.00     0.166 C 
HETATM   12  O5  UNL     1      18.096 -14.658  23.627  1.00  0.00    -0.366 OA
HETATM   13  C14 UNL     1      19.321 -15.145  23.941  1.00  0.00     0.108 C 
HETATM   14  C16 UNL     1      19.152 -16.040  25.179  1.00  0.00     0.045 C 
HETATM   15  C17 UNL     1      19.890 -17.336  24.994  1.00  0.00     0.034 C 
HETATM   16  C18 UNL     1      21.187 -17.202  24.269  1.00  0.00     0.118 C 
HETATM   17  C19 UNL     1      21.578 -18.602  23.781  1.00  0.00     0.039 C 
HETATM   18  O7  UNL     1      21.127 -16.402  23.139  1.00  0.00    -0.378 OA
HETATM   19  C20 UNL     1      19.819 -16.022  22.856  1.00  0.00     0.161 C 
HETATM   20  C21 UNL     1      19.748 -15.469  21.492  1.00  0.00     0.078 C 
HETATM   21  C22 UNL     1      18.519 -14.594  21.242  1.00  0.00     0.112 C 
HETATM   22  C23 UNL     1      18.960 -13.652  20.165  1.00  0.00     0.209 C 
HETATM   23  O8  UNL     1      18.027 -12.879  19.596  1.00  0.00    -0.380 OA
HETATM   24  C24 UNL     1      16.974 -13.494  18.960  1.00  0.00     0.149 C 
HETATM   25  O10 UNL     1      17.540 -15.398  20.744  1.00  0.00    -0.363 OA
HETATM   26  C27 UNL     1      16.344 -15.157  21.357  1.00  0.00     0.083 C 
ENDROOT
BRANCH   1  27
HETATM   27  C3  UNL     1      12.548 -15.818  20.192  1.00  0.00     0.210 C 
BRANCH  27  28
HETATM   28  O1  UNL     1      12.128 -15.296  21.426  1.00  0.00    -0.388 OA
BRANCH  28  29
HETATM   29  C2  UNL     1      11.772 -13.971  21.325  1.00  0.00     0.163 C 
HETATM   30  C1  UNL     1      12.498 -13.208  22.410  1.00  0.00     0.033 C 
ENDBRANCH  28  29
ENDBRANCH  27  28
ENDBRANCH   1  27
BRANCH   1  31
HETATM   31  O2  UNL     1      13.673 -17.908  19.917  1.00  0.00    -0.382 OA
ATOM     32  H2  UNL     1      13.450 -17.942  18.994  1.00  0.00     0.210 HD
ENDBRANCH   1  31
BRANCH   2  33
HETATM   33  O3  UNL     1      13.946 -17.768  22.394  1.00  0.00    -0.392 OA
ATOM     34  H3  UNL     1      13.036 -17.725  22.665  1.00  0.00     0.210 HD
ENDBRANCH   2  33
BRANCH  24  35
HETATM   35  C25 UNL     1      16.663 -12.605  17.740  1.00  0.00     0.199 C 
BRANCH  35  36
HETATM   36  O9  UNL     1      15.319 -12.249  17.722  1.00  0.00    -0.393 OA
HETATM   37  C26 UNL     1      14.884 -12.405  16.406  1.00  0.00     0.201 C 
ENDBRANCH  35  36
ENDBRANCH  24  35
BRANCH  13  38
HETATM   38  C15 UNL     1      20.269 -14.032  24.313  1.00  0.00     0.204 C 
BRANCH  38  39
HETATM   39  O6  UNL     1      20.316 -13.831  25.689  1.00  0.00    -0.398 OA
ATOM     40  H6  UNL     1      21.180 -14.007  26.042  1.00  0.00     0.209 HD
ENDBRANCH  38  39
ENDBRANCH  13  38
TORSDOF 9
ENDMDL
MODEL 3
REMARK VINA RESULT: -7.751639581      2.604      6.398
REMARK  9 active torsions:
REMARK  status: ('A' for Active; 'I' for Inactive)
REMARK    1  A    between atoms: C2_2  and  O1_3 
REMARK    2  A    between atoms: O1_3  and  C3_4 
REMARK    3  A    between atoms: C3_4  and  C4_5 
REMARK    4  A    between atoms: C4_5  and  O2_6 
REMARK    5  A    between atoms: C5_8  and  O3_9 
REMARK    6  A    between atoms: C14_21  and  C15_22 
REMARK    7  A    between atoms: C15_22  and  O6_23 
REMARK    8  A    between atoms: C24_35  and  C25_36 
REMARK    9  A    between atoms: C25_36  and  O9_37 
ROOT
HETATM    1  C4  UNL     1      17.730 -13.648  21.450  1.00  0.00     0.132 C 
HETATM    2  C5  UNL     1      17.511 -14.803  20.498  1.00  0.00     0.166 C 
HETATM    3  C6  UNL     1      16.128 -15.437  20.735  1.00  0.00     0.077 C 
HETATM    4  C7  UNL     1      16.072 -15.395  22.282  1.00  0.00     0.178 C 
HETATM    5  O4  UNL     1      15.846 -14.098  22.676  1.00  0.00    -0.382 OA
HETATM    6  C8  UNL     1      16.316 -13.127  21.750  1.00  0.00     0.168 C 
HETATM    7  C9  UNL     1      15.627 -13.141  20.474  1.00  0.00     0.060 C 
HETATM    8  C10 UNL     1      14.503 -12.300  20.121  1.00  0.00     0.027 C 
HETATM    9  C11 UNL     1      14.100 -13.007  18.805  1.00  0.00     0.018 C 
HETATM   10  C12 UNL     1      14.467 -14.488  19.017  1.00  0.00     0.054 C 
HETATM   11  C13 UNL     1      13.158 -15.298  19.161  1.00  0.00     0.166 C 
HETATM   12  O5  UNL     1      13.543 -16.577  18.870  1.00  0.00    -0.366 OA
HETATM   13  C14 UNL     1      12.722 -17.575  19.274  1.00  0.00     0.108 C 
HETATM   14  C16 UNL     1      13.444 -18.902  18.994  1.00  0.00     0.045 C 
HETATM   15  C17 UNL     1      13.344 -19.817  20.182  1.00  0.00     0.034 C 
HETATM   16  C18 UNL     1      12.034 -19.749  20.895  1.00  0.00     0.118 C 
HETATM   17  C19 UNL     1      12.243 -20.368  22.281  1.00  0.00     0.039 C 
HETATM   18  O7  UNL     1      11.571 -18.461  21.112  1.00  0.00    -0.378 OA
HETATM   19  C20 UNL     1      12.518 -17.513  20.740  1.00  0.00     0.161 C 
HETATM   20  C21 UNL     1      12.141 -16.196  21.286  1.00  0.00     0.078 C 
HETATM   21  C22 UNL     1      12.804 -15.018  20.571  1.00  0.00     0.112 C 
HETATM   22  C23 UNL     1      11.841 -13.888  20.772  1.00  0.00     0.209 C 
HETATM   23  O8  UNL     1      12.241 -12.662  20.417  1.00  0.00    -0.380 OA
HETATM   24  C24 UNL     1      13.356 -12.139  21.030  1.00  0.00     0.149 C 
HETATM   25  O10 UNL     1      13.956 -14.732  21.235  1.00  0.00    -0.363 OA
HETATM   26  C27 UNL     1      14.993 -14.544  20.366  1.00  0.00     0.083 C 
ENDROOT
BRANCH   1  27
HETATM   27  C3  UNL     1      18.479 -12.564  20.732  1.00  0.00     0.210 C 
BRANCH  27  28
HETATM   28  O1  UNL     1      19.000 -13.049  19.523  1.00  0.00    -0.388 OA
BRANCH  28  29
HETATM   29  C2  UNL     1      20.367 -12.901  19.461  1.00  0.00     0.163 C 
HETATM   30  C1  UNL     1      20.742 -12.618  18.024  1.00  0.00     0.033 C 
ENDBRANCH  28  29
ENDBRANCH  27  28
ENDBRANCH   1  27
BRANCH   1  31
HETATM   31  O2  UNL     1      18.376 -14.029  22.618  1.00  0.00    -0.382 OA
ATOM     32  H2  UNL     1      19.214 -14.440  22.436  1.00  0.00     0.210 HD
ENDBRANCH   1  31
BRANCH   2  33
HETATM   33  O3  UNL     1      18.423 -15.818  20.876  1.00  0.00    -0.392 OA
ATOM     34  H3  UNL     1      19.268 -15.570  20.519  1.00  0.00     0.210 HD
ENDBRANCH   2  33
BRANCH  24  35
HETATM   35  C25 UNL     1      13.062 -10.634  21.190  1.00  0.00     0.199 C 
BRANCH  35  36
HETATM   36  O9  UNL     1      13.363 -10.209  22.479  1.00  0.00    -0.393 OA
HETATM   37  C26 UNL     1      12.236 -10.473  23.257  1.00  0.00     0.201 C 
ENDBRANCH  35  36
ENDBRANCH  24  35
BRANCH  13  38
HETATM   38  C15 UNL     1      11.441 -17.581  18.478  1.00  0.00     0.204 C 
BRANCH  38  39
HETATM   39  O6  UNL     1      11.579 -18.275  17.279  1.00  0.00    -0.398 OA
ATOM     40  H6  UNL     1      10.739 -18.551  16.933  1.00  0.00     0.209 HD
ENDBRANCH  38  39
ENDBRANCH  13  38
TORSDOF 9
ENDMDL
MODEL 4
REMARK VINA RESULT: -7.524176473      1.524      4.723
REMARK  9 active torsions:
REMARK  status: ('A' for Active; 'I' for Inactive)
REMARK    1  A    between atoms: C2_2  and  O1_3 
REMARK    2  A    between atoms: O1_3  and  C3_4 
REMARK    3  A    between atoms: C3_4  and  C4_5 
REMARK    4  A    between atoms: C4_5  and  O2_6 
REMARK    5  A    between atoms: C5_8  and  O3_9 
REMARK    6  A    between atoms: C14_21  and  C15_22 
REMARK    7  A    between atoms: C15_22  and  O6_23 
REMARK    8  A    between atoms: C24_35  and  C25_36 
REMARK    9  A    between atoms: C25_36  and  O9_37 
ROOT
HETATM    1  C4  UNL     1      14.158 -17.045  20.329  1.00  0.00     0.132 C 
HETATM    2  C5  UNL     1      14.590 -16.979  21.777  1.00  0.00     0.166 C 
HETATM    3  C6  UNL     1      16.107 -16.732  21.872  1.00  0.00     0.077 C 
HETATM    4  C7  UNL     1      16.603 -17.647  20.724  1.00  0.00     0.178 C 
HETATM    5  O4  UNL     1      16.305 -17.043  19.525  1.00  0.00    -0.382 OA
HETATM    6  C8  UNL     1      15.182 -16.174  19.584  1.00  0.00     0.168 C 
HETATM    7  C9  UNL     1      15.374 -15.010  20.427  1.00  0.00     0.060 C 
HETATM    8  C10 UNL     1      15.810 -13.707  19.969  1.00  0.00     0.027 C 
HETATM    9  C11 UNL     1      16.076 -13.063  21.349  1.00  0.00     0.018 C 
HETATM   10  C12 UNL     1      16.526 -14.225  22.255  1.00  0.00     0.054 C 
HETATM   11  C13 UNL     1      18.035 -14.059  22.546  1.00  0.00     0.166 C 
HETATM   12  O5  UNL     1      18.222 -14.802  23.678  1.00  0.00    -0.366 OA
HETATM   13  C14 UNL     1      19.493 -15.170  23.971  1.00  0.00     0.108 C 
HETATM   14  C16 UNL     1      19.426 -16.131  25.168  1.00  0.00     0.045 C 
HETATM   15  C17 UNL     1      20.295 -17.332  24.928  1.00  0.00     0.034 C 
HETATM   16  C18 UNL     1      21.568 -17.030  24.209  1.00  0.00     0.118 C 
HETATM   17  C19 UNL     1      22.102 -18.358  23.662  1.00  0.00     0.039 C 
HETATM   18  O7  UNL     1      21.419 -16.193  23.115  1.00  0.00    -0.378 OA
HETATM   19  C20 UNL     1      20.077 -15.942  22.849  1.00  0.00     0.161 C 
HETATM   20  C21 UNL     1      19.942 -15.341  21.510  1.00  0.00     0.078 C 
HETATM   21  C22 UNL     1      18.626 -14.592  21.298  1.00  0.00     0.112 C 
HETATM   22  C23 UNL     1      18.960 -13.562  20.263  1.00  0.00     0.209 C 
HETATM   23  O8  UNL     1      17.948 -12.869  19.728  1.00  0.00    -0.380 OA
HETATM   24  C24 UNL     1      16.964 -13.564  19.065  1.00  0.00     0.149 C 
HETATM   25  O10 UNL     1      17.736 -15.472  20.765  1.00  0.00    -0.363 OA
HETATM   26  C27 UNL     1      16.523 -15.385  21.388  1.00  0.00     0.083 C 
ENDROOT
BRANCH   1  27
HETATM   27  C3  UNL     1      12.813 -16.394  20.194  1.00  0.00     0.210 C 
BRANCH  27  28
HETATM   28  O1  UNL     1      11.908 -16.947  21.114  1.00  0.00    -0.388 OA
BRANCH  28  29
HETATM   29  C2  UNL     1      10.934 -17.691  20.487  1.00  0.00     0.163 C 
HETATM   30  C1  UNL     1      10.739 -17.128  19.098  1.00  0.00     0.033 C 
ENDBRANCH  28  29
ENDBRANCH  27  28
ENDBRANCH   1  27
BRANCH   1  31
HETATM   31  O2  UNL     1      14.152 -18.340  19.828  1.00  0.00    -0.382 OA
ATOM     32  H2  UNL     1      14.512 -18.958  20.453  1.00  0.00     0.210 HD
ENDBRANCH   1  31
BRANCH   2  33
HETATM   33  O3  UNL     1      14.419 -18.279  22.310  1.00  0.00    -0.392 OA
ATOM     34  H3  UNL     1      14.519 -18.201  23.252  1.00  0.00     0.210 HD
ENDBRANCH   2  33
BRANCH  24  35
HETATM   35  C25 UNL     1      16.555 -12.660  17.884  1.00  0.00     0.199 C 
BRANCH  35  36
HETATM   36  O9  UNL     1      15.201 -12.351  17.949  1.00  0.00    -0.393 OA
HETATM   37  C26 UNL     1      14.714 -12.424  16.644  1.00  0.00     0.201 C 
ENDBRANCH  35  36
ENDBRANCH  24  35
BRANCH  13  38
HETATM   38  C15 UNL     1      20.319 -13.980  24.391  1.00  0.00     0.204 C 
BRANCH  38  39
HETATM   39  O6  UNL     1      20.310 -13.805  25.772  1.00  0.00    -0.398 OA
ATOM     40  H6  UNL     1      20.764 -14.508  26.220  1.00  0.00     0.209 HD
ENDBRANCH  38  39
ENDBRANCH  13  38
TORSDOF 9
ENDMDL
MODEL 5
REMARK VINA RESULT: -7.469270022      3.303      5.979
REMARK  9 active torsions:
REMARK  status: ('A' for Active; 'I' for Inactive)
REMARK    1  A    between atoms: C2_2  and  O1_3 
REMARK    2  A    between atoms: O1_3  and  C3_4 
REMARK    3  A    between atoms: C3_4  and  C4_5 
REMARK    4  A    between atoms: C4_5  and  O2_6 
REMARK    5  A    between atoms: C5_8  and  O3_9 
REMARK    6  A    between atoms: C14_21  and  C15_22 
REMARK    7  A    between atoms: C15_22  and  O6_23 
REMARK    8  A    between atoms: C24_35  and  C25_36 
REMARK    9  A    between atoms: C25_36  and  O9_37 
ROOT
HETATM    1  C4  UNL     1      12.582 -12.090  21.296  1.00  0.00     0.132 C 
HETATM    2  C5  UNL     1      13.179 -13.147  22.198  1.00  0.00     0.166 C 
HETATM    3  C6  UNL     1      13.372 -14.464  21.423  1.00  0.00     0.077 C 
HETATM    4  C7  UNL     1      12.064 -14.484  20.593  1.00  0.00     0.178 C 
HETATM    5  O4  UNL     1      12.174 -13.558  19.583  1.00  0.00    -0.382 OA
HETATM    6  C8  UNL     1      13.051 -12.480  19.885  1.00  0.00     0.168 C 
HETATM    7  C9  UNL     1      14.439 -12.869  20.041  1.00  0.00     0.060 C 
HETATM    8  C10 UNL     1      15.443 -12.823  18.999  1.00  0.00     0.027 C 
HETATM    9  C11 UNL     1      16.555 -13.614  19.726  1.00  0.00     0.018 C 
HETATM   10  C12 UNL     1      15.811 -14.618  20.626  1.00  0.00     0.054 C 
HETATM   11  C13 UNL     1      16.005 -16.035  20.039  1.00  0.00     0.166 C 
HETATM   12  O5  UNL     1      15.746 -16.856  21.101  1.00  0.00    -0.366 OA
HETATM   13  C14 UNL     1      15.460 -18.151  20.823  1.00  0.00     0.108 C 
HETATM   14  C16 UNL     1      15.038 -18.817  22.142  1.00  0.00     0.045 C 
HETATM   15  C17 UNL     1      13.797 -19.640  21.941  1.00  0.00     0.034 C 
HETATM   16  C18 UNL     1      13.739 -20.347  20.628  1.00  0.00     0.118 C 
HETATM   17  C19 UNL     1      12.279 -20.753  20.399  1.00  0.00     0.039 C 
HETATM   18  O7  UNL     1      14.098 -19.563  19.544  1.00  0.00    -0.378 OA
HETATM   19  C20 UNL     1      14.290 -18.237  19.919  1.00  0.00     0.161 C 
HETATM   20  C21 UNL     1      14.335 -17.384  18.718  1.00  0.00     0.078 C 
HETATM   21  C22 UNL     1      15.007 -16.029  18.946  1.00  0.00     0.112 C 
HETATM   22  C23 UNL     1      15.542 -15.661  17.597  1.00  0.00     0.209 C 
HETATM   23  O8  UNL     1      16.023 -14.422  17.438  1.00  0.00    -0.380 OA
HETATM   24  C24 UNL     1      15.174 -13.363  17.656  1.00  0.00     0.149 C 
HETATM   25  O10 UNL     1      14.032 -15.143  19.285  1.00  0.00    -0.363 OA
HETATM   26  C27 UNL     1      14.408 -14.381  20.355  1.00  0.00     0.083 C 
ENDROOT
BRANCH   1  27
HETATM   27  C3  UNL     1      13.193 -10.762  21.634  1.00  0.00     0.210 C 
BRANCH  27  28
HETATM   28  O1  UNL     1      13.274 -10.603  23.027  1.00  0.00    -0.388 OA
BRANCH  28  29
HETATM   29  C2  UNL     1      12.414  -9.629  23.480  1.00  0.00     0.163 C 
HETATM   30  C1  UNL     1      11.352 -10.300  24.323  1.00  0.00     0.033 C 
ENDBRANCH  28  29
ENDBRANCH  27  28
ENDBRANCH   1  27
BRANCH   1  31
HETATM   31  O2  UNL     1      11.196 -12.047  21.363  1.00  0.00    -0.382 OA
ATOM     32  H2  UNL     1      10.872 -11.154  21.328  1.00  0.00     0.210 HD
ENDBRANCH   1  31
BRANCH   2  33
HETATM   33  O3  UNL     1      12.194 -13.459  23.165  1.00  0.00    -0.392 OA
ATOM     34  H3  UNL     1      12.464 -14.271  23.576  1.00  0.00     0.210 HD
ENDBRANCH   2  33
BRANCH  24  35
HETATM   35  C25 UNL     1      15.572 -12.302  16.610  1.00  0.00     0.199 C 
BRANCH  35  36
HETATM   36  O9  UNL     1      14.463 -11.565  16.211  1.00  0.00    -0.393 OA
HETATM   37  C26 UNL     1      14.722 -11.129  14.912  1.00  0.00     0.201 C 
ENDBRANCH  35  36
ENDBRANCH  24  35
BRANCH  13  38
HETATM   38  C15 UNL     1      16.680 -18.880  20.318  1.00  0.00     0.204 C 
BRANCH  38  39
HETATM   39  O6  UNL     1      17.320 -19.584  21.334  1.00  0.00    -0.398 OA
ATOM     40  H6  UNL     1      17.473 -20.490  21.093  1.00  0.00     0.209 HD
ENDBRANCH  38  39
ENDBRANCH  13  38
TORSDOF 9
ENDMDL
