MODEL 1
REMARK VINA RESULT: -6.907416449      0.000      0.000
REMARK  13 active torsions:
REMARK  status: ('A' for Active; 'I' for Inactive)
REMARK    1  A    between atoms: C2_2  and  C3_3 
REMARK    2  A    between atoms: C3_3  and  C5_5 
REMARK    3  A    between atoms: C5_5  and  C6_6 
REMARK    4  A    between atoms: C6_6  and  O2_8 
REMARK    5  A    between atoms: O2_8  and  C7_9 
REMARK    6  A    between atoms: C8_10  and  O3_11 
REMARK    7  A    between atoms: C10_14  and  O4_15 
REMARK    8  A    between atoms: O4_15  and  C11_16 
REMARK    9  A    between atoms: C13_19  and  C14_20 
REMARK   10  A    between atoms: C14_20  and  O6_21 
REMARK   11  A    between atoms: C19_28  and  C20_29 
REMARK   12  A    between atoms: C21_31  and  C22_32 
REMARK   13  A    between atoms: C24_35  and  O10_36 
ROOT
HETATM    1  C7  UNL     1      16.571 -16.083  23.224  1.00  0.00     0.175 C 
HETATM    2  C8  UNL     1      15.835 -15.301  22.213  1.00  0.00     0.156 C 
HETATM    3  C9  UNL     1      15.928 -15.358  20.795  1.00  0.00     0.063 C 
HETATM    4  C10 UNL     1      16.902 -14.292  20.383  1.00  0.00     0.170 C 
HETATM    5  C13 UNL     1      18.223 -14.863  20.926  1.00  0.00    -0.028 C 
HETATM    6  C15 UNL     1      18.588 -16.049  21.445  1.00  0.00     0.022 C 
HETATM    7  C16 UNL     1      18.017 -17.368  21.771  1.00  0.00     0.125 A 
HETATM    8  O7  UNL     1      18.096 -18.452  20.950  1.00  0.00    -0.356 OA
HETATM    9  C17 UNL     1      16.827 -17.986  21.560  1.00  0.00     0.112 A 
HETATM   10  C18 UNL     1      15.716 -18.042  20.687  1.00  0.00     0.061 C 
HETATM   11  C19 UNL     1      14.504 -17.233  20.533  1.00  0.00     0.036 C 
HETATM   12  C21 UNL     1      13.798 -17.781  19.260  1.00  0.00     0.066 C 
HETATM   13  C23 UNL     1      13.384 -16.608  18.449  1.00  0.00     0.045 C 
HETATM   14  C24 UNL     1      14.605 -15.699  18.674  1.00  0.00     0.128 C 
HETATM   15  C25 UNL     1      14.659 -15.743  20.182  1.00  0.00     0.005 C 
HETATM   16  C26 UNL     1      13.574 -14.866  20.659  1.00  0.00     0.020 C 
HETATM   17  C27 UNL     1      17.020 -17.443  22.836  1.00  0.00     0.058 A 
HETATM   18  C28 UNL     1      17.091 -18.539  23.904  1.00  0.00     0.025 C 
ENDROOT
BRANCH   1  19
HETATM   19  O2  UNL     1      17.506 -15.288  23.884  1.00  0.00    -0.312 OA
BRANCH  19  20
HETATM   20  C6  UNL     1      18.228 -15.548  24.995  1.00  0.00     0.259 C 
HETATM   21  O1  UNL     1      17.483 -15.789  25.951  1.00  0.00    -0.265 OA
BRANCH  20  22
HETATM   22  C5  UNL     1      19.686 -15.573  25.179  1.00  0.00     0.115 C 
BRANCH  22  23
HETATM   23  C3  UNL     1      20.302 -14.248  24.789  1.00  0.00    -0.010 C 
HETATM   24  C4  UNL     1      20.865 -13.487  25.941  1.00  0.00     0.010 C 
BRANCH  23  25
HETATM   25  C2  UNL     1      21.442 -14.555  23.821  1.00  0.00     0.000 C 
HETATM   26  C1  UNL     1      22.784 -14.278  24.420  1.00  0.00     0.005 C 
ENDBRANCH  23  25
ENDBRANCH  22  23
ENDBRANCH  20  22
ENDBRANCH  19  20
ENDBRANCH   1  19
BRANCH   2  27
HETATM   27  O3  UNL     1      15.962 -13.924  22.628  1.00  0.00    -0.392 OA
ATOM     28  H3  UNL     1      15.672 -13.410  21.883  1.00  0.00     0.210 HD
ENDBRANCH   2  27
BRANCH   4  29
HETATM   29  O4  UNL     1      16.990 -14.022  19.035  1.00  0.00    -0.311 OA
BRANCH  29  30
HETATM   30  C11 UNL     1      16.687 -12.789  18.499  1.00  0.00     0.255 C 
HETATM   31  C12 UNL     1      16.715 -12.459  17.065  1.00  0.00     0.126 C 
HETATM   32  O5  UNL     1      16.366 -11.902  19.327  1.00  0.00    -0.266 OA
ENDBRANCH  29  30
ENDBRANCH   4  29
BRANCH   5  33
HETATM   33  C14 UNL     1      19.338 -13.928  20.877  1.00  0.00     0.200 C 
BRANCH  33  34
HETATM   34  O6  UNL     1      18.963 -12.597  20.765  1.00  0.00    -0.397 OA
ATOM     35  H6  UNL     1      19.660 -12.017  20.481  1.00  0.00     0.209 HD
ENDBRANCH  33  34
ENDBRANCH   5  33
BRANCH  11  36
HETATM   36  C20 UNL     1      13.482 -17.498  21.574  1.00  0.00     0.242 C 
HETATM   37  O8  UNL     1      13.794 -18.140  22.549  1.00  0.00    -0.306 OA
ENDBRANCH  11  36
BRANCH  14  38
HETATM   38  O10 UNL     1      15.641 -16.347  18.035  1.00  0.00    -0.395 OA
ATOM     39  H10 UNL     1      16.395 -16.201  18.594  1.00  0.00     0.210 HD
ENDBRANCH  14  38
BRANCH  12  40
HETATM   40  C22 UNL     1      12.717 -18.711  19.551  1.00  0.00     0.236 C 
HETATM   41  O9  UNL     1      11.803 -18.854  18.765  1.00  0.00    -0.306 OA
ENDBRANCH  12  40
TORSDOF 13
ENDMDL
MODEL 2
REMARK VINA RESULT: -6.778557799      2.531      6.859
REMARK  13 active torsions:
REMARK  status: ('A' for Active; 'I' for Inactive)
REMARK    1  A    between atoms: C2_2  and  C3_3 
REMARK    2  A    between atoms: C3_3  and  C5_5 
REMARK    3  A    between atoms: C5_5  and  C6_6 
REMARK    4  A    between atoms: C6_6  and  O2_8 
REMARK    5  A    between atoms: O2_8  and  C7_9 
REMARK    6  A    between atoms: C8_10  and  O3_11 
REMARK    7  A    between atoms: C10_14  and  O4_15 
REMARK    8  A    between atoms: O4_15  and  C11_16 
REMARK    9  A    between atoms: C13_19  and  C14_20 
REMARK   10  A    between atoms: C14_20  and  O6_21 
REMARK   11  A    between atoms: C19_28  and  C20_29 
REMARK   12  A    between atoms: C21_31  and  C22_32 
REMARK   13  A    between atoms: C24_35  and  O10_36 
ROOT
HETATM    1  C7  UNL     1      14.152 -13.344  20.268  1.00  0.00     0.175 C 
HETATM    2  C8  UNL     1      14.819 -13.999  21.409  1.00  0.00     0.156 C 
HETATM    3  C9  UNL     1      15.597 -15.190  21.429  1.00  0.00     0.063 C 
HETATM    4  C10 UNL     1      14.666 -16.308  21.797  1.00  0.00     0.170 C 
HETATM    5  C13 UNL     1      13.781 -16.391  20.542  1.00  0.00    -0.028 C 
HETATM    6  C15 UNL     1      13.839 -15.840  19.316  1.00  0.00     0.022 C 
HETATM    7  C16 UNL     1      14.683 -14.932  18.521  1.00  0.00     0.125 A 
HETATM    8  O7  UNL     1      15.643 -15.355  17.651  1.00  0.00    -0.356 OA
HETATM    9  C17 UNL     1      15.887 -14.329  18.694  1.00  0.00     0.112 A 
HETATM   10  C18 UNL     1      17.137 -14.457  19.342  1.00  0.00     0.061 C 
HETATM   11  C19 UNL     1      17.610 -14.175  20.700  1.00  0.00     0.036 C 
HETATM   12  C21 UNL     1      19.071 -14.707  20.750  1.00  0.00     0.066 C 
HETATM   13  C23 UNL     1      19.218 -15.467  22.017  1.00  0.00     0.045 C 
HETATM   14  C24 UNL     1      17.841 -16.151  22.065  1.00  0.00     0.128 C 
HETATM   15  C25 UNL     1      16.966 -14.936  21.872  1.00  0.00     0.005 C 
HETATM   16  C26 UNL     1      16.961 -14.222  23.162  1.00  0.00     0.020 C 
HETATM   17  C27 UNL     1      14.761 -13.531  18.927  1.00  0.00     0.058 A 
HETATM   18  C28 UNL     1      14.652 -12.405  17.894  1.00  0.00     0.025 C 
ENDROOT
BRANCH   1  19
HETATM   19  O2  UNL     1      12.769 -13.496  20.345  1.00  0.00    -0.312 OA
BRANCH  19  20
HETATM   20  C6  UNL     1      11.883 -12.916  21.184  1.00  0.00     0.259 C 
HETATM   21  O1  UNL     1      11.187 -13.772  21.740  1.00  0.00    -0.265 OA
BRANCH  20  22
HETATM   22  C5  UNL     1      11.673 -11.494  21.484  1.00  0.00     0.115 C 
BRANCH  22  23
HETATM   23  C3  UNL     1      12.749 -10.974  22.413  1.00  0.00    -0.010 C 
HETATM   24  C4  UNL     1      13.731 -10.072  21.747  1.00  0.00     0.010 C 
BRANCH  23  25
HETATM   25  C2  UNL     1      12.043 -10.180  23.510  1.00  0.00     0.000 C 
HETATM   26  C1  UNL     1      10.959 -10.970  24.173  1.00  0.00     0.005 C 
ENDBRANCH  23  25
ENDBRANCH  22  23
ENDBRANCH  20  22
ENDBRANCH  19  20
ENDBRANCH   1  19
BRANCH   2  27
HETATM   27  O3  UNL     1      13.811 -14.091  22.439  1.00  0.00    -0.392 OA
ATOM     28  H3  UNL     1      13.592 -15.014  22.494  1.00  0.00     0.210 HD
ENDBRANCH   2  27
BRANCH   4  29
HETATM   29  O4  UNL     1      15.244 -17.525  22.084  1.00  0.00    -0.311 OA
BRANCH  29  30
HETATM   30  C11 UNL     1      15.066 -18.172  23.287  1.00  0.00     0.255 C 
HETATM   31  C12 UNL     1      16.033 -18.180  24.397  1.00  0.00     0.126 C 
HETATM   32  O5  UNL     1      13.983 -18.792  23.414  1.00  0.00    -0.266 OA
ENDBRANCH  29  30
ENDBRANCH   4  29
BRANCH   5  33
HETATM   33  C14 UNL     1      12.615 -17.251  20.694  1.00  0.00     0.200 C 
BRANCH  33  34
HETATM   34  O6  UNL     1      11.635 -16.742  21.532  1.00  0.00    -0.397 OA
ATOM     35  H6  UNL     1      10.827 -17.243  21.539  1.00  0.00     0.209 HD
ENDBRANCH  33  34
ENDBRANCH   5  33
BRANCH  11  36
HETATM   36  C20 UNL     1      17.813 -12.731  20.966  1.00  0.00     0.242 C 
HETATM   37  O8  UNL     1      17.333 -11.923  20.205  1.00  0.00    -0.306 OA
ENDBRANCH  11  36
BRANCH  14  38
HETATM   38  O10 UNL     1      17.855 -17.033  21.005  1.00  0.00    -0.395 OA
ATOM     39  H10 UNL     1      17.227 -16.675  20.388  1.00  0.00     0.210 HD
ENDBRANCH  14  38
BRANCH  12  40
HETATM   40  C22 UNL     1      20.074 -13.668  20.564  1.00  0.00     0.236 C 
HETATM   41  O9  UNL     1      20.699 -13.598  19.526  1.00  0.00    -0.306 OA
ENDBRANCH  12  40
TORSDOF 13
ENDMDL
MODEL 3
REMARK VINA RESULT: -6.774130482      1.554      4.735
REMARK  13 active torsions:
REMARK  status: ('A' for Active; 'I' for Inactive)
REMARK    1  A    between atoms: C2_2  and  C3_3 
REMARK    2  A    between atoms: C3_3  and  C5_5 
REMARK    3  A    between atoms: C5_5  and  C6_6 
REMARK    4  A    between atoms: C6_6  and  O2_8 
REMARK    5  A    between atoms: O2_8  and  C7_9 
REMARK    6  A    between atoms: C8_10  and  O3_11 
REMARK    7  A    between atoms: C10_14  and  O4_15 
REMARK    8  A    between atoms: O4_15  and  C11_16 
REMARK    9  A    between atoms: C13_19  and  C14_20 
REMARK   10  A    between atoms: C14_20  and  O6_21 
REMARK   11  A    between atoms: C19_28  and  C20_29 
REMARK   12  A    between atoms: C21_31  and  C22_32 
REMARK   13  A    between atoms: C24_35  and  O10_36 
ROOT
HETATM    1  C7  UNL     1      18.225 -15.759  21.176  1.00  0.00     0.175 C 
HETATM    2  C8  UNL     1      17.497 -17.019  21.414  1.00  0.00     0.156 C 
HETATM    3  C9  UNL     1      16.282 -17.232  22.122  1.00  0.00     0.063 C 
HETATM    4  C10 UNL     1      16.659 -17.609  23.525  1.00  0.00     0.170 C 
HETATM    5  C13 UNL     1      17.237 -16.283  24.048  1.00  0.00    -0.028 C 
HETATM    6  C15 UNL     1      17.266 -15.022  23.579  1.00  0.00     0.022 C 
HETATM    7  C16 UNL     1      16.814 -14.235  22.418  1.00  0.00     0.125 A 
HETATM    8  O7  UNL     1      15.659 -13.513  22.395  1.00  0.00    -0.356 OA
HETATM    9  C17 UNL     1      16.039 -14.472  21.330  1.00  0.00     0.112 A 
HETATM   10  C18 UNL     1      14.962 -15.255  20.852  1.00  0.00     0.061 C 
HETATM   11  C19 UNL     1      14.851 -16.621  20.335  1.00  0.00     0.036 C 
HETATM   12  C21 UNL     1      13.328 -16.871  20.146  1.00  0.00     0.066 C 
HETATM   13  C23 UNL     1      13.030 -18.213  20.707  1.00  0.00     0.045 C 
HETATM   14  C24 UNL     1      13.953 -18.184  21.938  1.00  0.00     0.128 C 
HETATM   15  C25 UNL     1      15.241 -17.788  21.260  1.00  0.00     0.005 C 
HETATM   16  C26 UNL     1      15.736 -18.997  20.575  1.00  0.00     0.020 C 
HETATM   17  C27 UNL     1      17.422 -14.512  21.120  1.00  0.00     0.058 A 
HETATM   18  C28 UNL     1      17.880 -13.370  20.206  1.00  0.00     0.025 C 
ENDROOT
BRANCH   1  19
HETATM   19  O2  UNL     1      19.393 -15.708  21.935  1.00  0.00    -0.312 OA
BRANCH  19  20
HETATM   20  C6  UNL     1      20.495 -14.945  21.771  1.00  0.00     0.259 C 
HETATM   21  O1  UNL     1      20.838 -14.926  20.584  1.00  0.00    -0.265 OA
BRANCH  20  22
HETATM   22  C5  UNL     1      21.271 -14.195  22.769  1.00  0.00     0.115 C 
BRANCH  22  23
HETATM   23  C3  UNL     1      21.093 -14.790  24.148  1.00  0.00    -0.010 C 
HETATM   24  C4  UNL     1      22.378 -15.059  24.855  1.00  0.00     0.010 C 
BRANCH  23  25
HETATM   25  C2  UNL     1      20.302 -13.775  24.972  1.00  0.00     0.000 C 
HETATM   26  C1  UNL     1      21.010 -13.395  26.233  1.00  0.00     0.005 C 
ENDBRANCH  23  25
ENDBRANCH  22  23
ENDBRANCH  20  22
ENDBRANCH  19  20
ENDBRANCH   1  19
BRANCH   2  27
HETATM   27  O3  UNL     1      18.488 -17.945  21.912  1.00  0.00    -0.392 OA
ATOM     28  H3  UNL     1      18.026 -18.766  22.033  1.00  0.00     0.210 HD
ENDBRANCH   2  27
BRANCH   4  29
HETATM   29  O4  UNL     1      15.645 -18.068  24.336  1.00  0.00    -0.311 OA
BRANCH  29  30
HETATM   30  C11 UNL     1      15.635 -19.336  24.875  1.00  0.00     0.255 C 
HETATM   31  C12 UNL     1      14.470 -20.235  24.904  1.00  0.00     0.126 C 
HETATM   32  O5  UNL     1      16.721 -19.723  25.369  1.00  0.00    -0.266 OA
ENDBRANCH  29  30
ENDBRANCH   4  29
BRANCH   5  33
HETATM   33  C14 UNL     1      17.908 -16.396  25.337  1.00  0.00     0.200 C 
BRANCH  33  34
HETATM   34  O6  UNL     1      18.644 -17.560  25.498  1.00  0.00    -0.397 OA
ATOM     35  H6  UNL     1      19.295 -17.519  26.188  1.00  0.00     0.209 HD
ENDBRANCH  33  34
ENDBRANCH   5  33
BRANCH  11  36
HETATM   36  C20 UNL     1      15.349 -16.767  18.946  1.00  0.00     0.242 C 
HETATM   37  O8  UNL     1      15.876 -15.821  18.411  1.00  0.00    -0.306 OA
ENDBRANCH  11  36
BRANCH  14  38
HETATM   38  O10 UNL     1      13.406 -17.220  22.758  1.00  0.00    -0.395 OA
ATOM     39  H10 UNL     1      12.964 -17.711  23.441  1.00  0.00     0.210 HD
ENDBRANCH  14  38
BRANCH  12  40
HETATM   40  C22 UNL     1      12.876 -16.690  18.773  1.00  0.00     0.236 C 
HETATM   41  O9  UNL     1      11.883 -17.262  18.374  1.00  0.00    -0.306 OA
ENDBRANCH  12  40
TORSDOF 13
ENDMDL
MODEL 4
REMARK VINA RESULT: -6.584135975      1.765      4.857
REMARK  13 active torsions:
REMARK  status: ('A' for Active; 'I' for Inactive)
REMARK    1  A    between atoms: C2_2  and  C3_3 
REMARK    2  A    between atoms: C3_3  and  C5_5 
REMARK    3  A    between atoms: C5_5  and  C6_6 
REMARK    4  A    between atoms: C6_6  and  O2_8 
REMARK    5  A    between atoms: O2_8  and  C7_9 
REMARK    6  A    between atoms: C8_10  and  O3_11 
REMARK    7  A    between atoms: C10_14  and  O4_15 
REMARK    8  A    between atoms: O4_15  and  C11_16 
REMARK    9  A    between atoms: C13_19  and  C14_20 
REMARK   10  A    between atoms: C14_20  and  O6_21 
REMARK   11  A    between atoms: C19_28  and  C20_29 
REMARK   12  A    between atoms: C21_31  and  C22_32 
REMARK   13  A    between atoms: C24_35  and  O10_36 
ROOT
HETATM    1  C7  UNL     1      18.148 -16.584  21.409  1.00  0.00     0.175 C 
HETATM    2  C8  UNL     1      16.911 -17.339  21.136  1.00  0.00     0.156 C 
HETATM    3  C9  UNL     1      15.645 -17.248  21.777  1.00  0.00     0.063 C 
HETATM    4  C10 UNL     1      15.624 -18.305  22.844  1.00  0.00     0.170 C 
HETATM    5  C13 UNL     1      16.655 -17.748  23.841  1.00  0.00    -0.028 C 
HETATM    6  C15 UNL     1      17.303 -16.576  23.963  1.00  0.00     0.022 C 
HETATM    7  C16 UNL     1      17.408 -15.265  23.298  1.00  0.00     0.125 A 
HETATM    8  O7  UNL     1      16.709 -14.161  23.684  1.00  0.00    -0.356 OA
HETATM    9  C17 UNL     1      16.763 -14.641  22.282  1.00  0.00     0.112 A 
HETATM   10  C18 UNL     1      15.525 -14.562  21.601  1.00  0.00     0.061 C 
HETATM   11  C19 UNL     1      14.889 -15.365  20.554  1.00  0.00     0.036 C 
HETATM   12  C21 UNL     1      13.454 -14.786  20.399  1.00  0.00     0.066 C 
HETATM   13  C23 UNL     1      12.519 -15.938  20.346  1.00  0.00     0.045 C 
HETATM   14  C24 UNL     1      13.184 -16.853  21.388  1.00  0.00     0.128 C 
HETATM   15  C25 UNL     1      14.593 -16.847  20.847  1.00  0.00     0.005 C 
HETATM   16  C26 UNL     1      14.586 -17.734  19.669  1.00  0.00     0.020 C 
HETATM   17  C27 UNL     1      17.999 -15.215  21.964  1.00  0.00     0.058 A 
HETATM   18  C28 UNL     1      19.034 -14.146  21.601  1.00  0.00     0.025 C 
ENDROOT
BRANCH   1  19
HETATM   19  O2  UNL     1      19.104 -17.396  22.018  1.00  0.00    -0.312 OA
BRANCH  19  20
HETATM   20  C6  UNL     1      20.359 -17.099  22.419  1.00  0.00     0.259 C 
HETATM   21  O1  UNL     1      21.114 -17.000  21.447  1.00  0.00    -0.265 OA
BRANCH  20  22
HETATM   22  C5  UNL     1      20.883 -16.896  23.776  1.00  0.00     0.115 C 
BRANCH  22  23
HETATM   23  C3  UNL     1      21.322 -15.462  23.977  1.00  0.00    -0.010 C 
HETATM   24  C4  UNL     1      20.510 -14.722  24.985  1.00  0.00     0.010 C 
BRANCH  23  25
HETATM   25  C2  UNL     1      22.767 -15.504  24.469  1.00  0.00     0.000 C 
HETATM   26  C1  UNL     1      23.520 -14.261  24.119  1.00  0.00     0.005 C 
ENDBRANCH  23  25
ENDBRANCH  22  23
ENDBRANCH  20  22
ENDBRANCH  19  20
ENDBRANCH   1  19
BRANCH   2  27
HETATM   27  O3  UNL     1      17.311 -18.727  21.102  1.00  0.00    -0.392 OA
ATOM     28  H3  UNL     1      16.814 -19.114  20.391  1.00  0.00     0.210 HD
ENDBRANCH   2  27
BRANCH   4  29
HETATM   29  O4  UNL     1      14.413 -18.542  23.455  1.00  0.00    -0.311 OA
BRANCH  29  30
HETATM   30  C11 UNL     1      13.768 -19.758  23.389  1.00  0.00     0.255 C 
HETATM   31  C12 UNL     1      13.559 -20.541  22.160  1.00  0.00     0.126 C 
HETATM   32  O5  UNL     1      13.338 -20.203  24.480  1.00  0.00    -0.266 OA
ENDBRANCH  29  30
ENDBRANCH   4  29
BRANCH   5  33
HETATM   33  C14 UNL     1      17.026 -18.684  24.894  1.00  0.00     0.200 C 
BRANCH  33  34
HETATM   34  O6  UNL     1      15.961 -19.133  25.661  1.00  0.00    -0.397 OA
ATOM     35  H6  UNL     1      16.206 -19.457  26.519  1.00  0.00     0.209 HD
ENDBRANCH  33  34
ENDBRANCH   5  33
BRANCH  11  36
HETATM   36  C20 UNL     1      15.452 -15.125  19.204  1.00  0.00     0.242 C 
HETATM   37  O8  UNL     1      16.442 -14.440  19.096  1.00  0.00    -0.306 OA
ENDBRANCH  11  36
BRANCH  14  38
HETATM   38  O10 UNL     1      13.018 -16.192  22.587  1.00  0.00    -0.395 OA
ATOM     39  H10 UNL     1      12.662 -16.848  23.174  1.00  0.00     0.210 HD
ENDBRANCH  14  38
BRANCH  12  40
HETATM   40  C22 UNL     1      13.319 -13.862  19.282  1.00  0.00     0.236 C 
HETATM   41  O9  UNL     1      12.796 -12.779  19.442  1.00  0.00    -0.306 OA
ENDBRANCH  12  40
TORSDOF 13
ENDMDL
MODEL 5
REMARK VINA RESULT: -6.541130642      2.589      6.706
REMARK  13 active torsions:
REMARK  status: ('A' for Active; 'I' for Inactive)
REMARK    1  A    between atoms: C2_2  and  C3_3 
REMARK    2  A    between atoms: C3_3  and  C5_5 
REMARK    3  A    between atoms: C5_5  and  C6_6 
REMARK    4  A    between atoms: C6_6  and  O2_8 
REMARK    5  A    between atoms: O2_8  and  C7_9 
REMARK    6  A    between atoms: C8_10  and  O3_11 
REMARK    7  A    between atoms: C10_14  and  O4_15 
REMARK    8  A    between atoms: O4_15  and  C11_16 
REMARK    9  A    between atoms: C13_19  and  C14_20 
REMARK   10  A    between atoms: C14_20  and  O6_21 
REMARK   11  A    between atoms: C19_28  and  C20_29 
REMARK   12  A    between atoms: C21_31  and  C22_32 
REMARK   13  A    between atoms: C24_35  and  O10_36 
ROOT
HETATM    1  C7  UNL     1      14.030 -14.389  21.463  1.00  0.00     0.175 C 
HETATM    2  C8  UNL     1      14.188 -15.786  21.908  1.00  0.00     0.156 C 
HETATM    3  C9  UNL     1      14.757 -16.888  21.214  1.00  0.00     0.063 C 
HETATM    4  C10 UNL     1      13.623 -17.611  20.547  1.00  0.00     0.170 C 
HETATM    5  C13 UNL     1      13.207 -16.593  19.472  1.00  0.00    -0.028 C 
HETATM    6  C15 UNL     1      13.740 -15.448  19.007  1.00  0.00     0.022 C 
HETATM    7  C16 UNL     1      14.910 -14.577  19.217  1.00  0.00     0.125 A 
HETATM    8  O7  UNL     1      16.044 -14.635  18.463  1.00  0.00    -0.356 OA
HETATM    9  C17 UNL     1      16.052 -14.648  19.946  1.00  0.00     0.112 A 
HETATM   10  C18 UNL     1      16.987 -15.549  20.507  1.00  0.00     0.061 C 
HETATM   11  C19 UNL     1      17.010 -16.360  21.727  1.00  0.00     0.036 C 
HETATM   12  C21 UNL     1      18.290 -17.236  21.620  1.00  0.00     0.066 C 
HETATM   13  C23 UNL     1      17.908 -18.620  21.999  1.00  0.00     0.045 C 
HETATM   14  C24 UNL     1      16.519 -18.690  21.340  1.00  0.00     0.128 C 
HETATM   15  C25 UNL     1      15.919 -17.430  21.915  1.00  0.00     0.005 C 
HETATM   16  C26 UNL     1      15.574 -17.739  23.315  1.00  0.00     0.020 C 
HETATM   17  C27 UNL     1      15.023 -13.870  20.489  1.00  0.00     0.058 A 
HETATM   18  C28 UNL     1      15.409 -12.388  20.534  1.00  0.00     0.025 C 
ENDROOT
BRANCH   1  19
HETATM   19  O2  UNL     1      12.692 -14.100  21.194  1.00  0.00    -0.312 OA
BRANCH  19  20
HETATM   20  C6  UNL     1      12.063 -12.907  21.136  1.00  0.00     0.259 C 
HETATM   21  O1  UNL     1      12.230 -12.380  20.031  1.00  0.00    -0.265 OA
BRANCH  20  22
HETATM   22  C5  UNL     1      11.265 -12.220  22.161  1.00  0.00     0.115 C 
BRANCH  22  23
HETATM   23  C3  UNL     1      12.157 -11.477  23.131  1.00  0.00    -0.010 C 
HETATM   24  C4  UNL     1      13.029 -10.457  22.483  1.00  0.00     0.010 C 
BRANCH  23  25
HETATM   25  C2  UNL     1      11.239 -10.759  24.118  1.00  0.00     0.000 C 
HETATM   26  C1  UNL     1      11.747  -9.398  24.476  1.00  0.00     0.005 C 
ENDBRANCH  23  25
ENDBRANCH  22  23
ENDBRANCH  20  22
ENDBRANCH  19  20
ENDBRANCH   1  19
BRANCH   2  27
HETATM   27  O3  UNL     1      12.890 -16.177  22.407  1.00  0.00    -0.392 OA
ATOM     28  H3  UNL     1      12.956 -17.109  22.574  1.00  0.00     0.210 HD
ENDBRANCH   2  27
BRANCH   4  29
HETATM   29  O4  UNL     1      13.914 -18.837  19.989  1.00  0.00    -0.311 OA
BRANCH  29  30
HETATM   30  C11 UNL     1      13.265 -19.996  20.354  1.00  0.00     0.255 C 
HETATM   31  C12 UNL     1      13.604 -20.825  21.523  1.00  0.00     0.126 C 
HETATM   32  O5  UNL     1      12.316 -20.343  19.611  1.00  0.00    -0.266 OA
ENDBRANCH  29  30
ENDBRANCH   4  29
BRANCH   5  33
HETATM   33  C14 UNL     1      11.959 -16.921  18.796  1.00  0.00     0.200 C 
BRANCH  33  34
HETATM   34  O6  UNL     1      11.035 -17.582  19.592  1.00  0.00    -0.397 OA
ATOM     35  H6  UNL     1      11.263 -18.482  19.791  1.00  0.00     0.209 HD
ENDBRANCH  33  34
ENDBRANCH   5  33
BRANCH  11  36
HETATM   36  C20 UNL     1      17.292 -15.573  22.952  1.00  0.00     0.242 C 
HETATM   37  O8  UNL     1      17.278 -14.367  22.888  1.00  0.00    -0.306 OA
ENDBRANCH  11  36
BRANCH  14  38
HETATM   38  O10 UNL     1      16.776 -18.648  19.986  1.00  0.00    -0.395 OA
ATOM     39  H10 UNL     1      16.374 -19.437  19.642  1.00  0.00     0.210 HD
ENDBRANCH  14  38
BRANCH  12  40
HETATM   40  C22 UNL     1      19.420 -16.708  22.371  1.00  0.00     0.236 C 
HETATM   41  O9  UNL     1      20.494 -16.548  21.830  1.00  0.00    -0.306 OA
ENDBRANCH  12  40
TORSDOF 13
ENDMDL
