MODEL 1
REMARK VINA RESULT: -7.414741079      0.000      0.000
REMARK  13 active torsions:
REMARK  status: ('A' for Active; 'I' for Inactive)
REMARK    1  A    between atoms: C3_3  and  C4_4 
REMARK    2  A    between atoms: C4_4  and  C5_5 
REMARK    3  A    between atoms: C9_9  and  O1_10 
REMARK    4  A    between atoms: O1_10  and  C10_11 
REMARK    5  A    between atoms: C12_14  and  C13_15 
REMARK    6  A    between atoms: C14_19  and  C15_20 
REMARK    7  A    between atoms: C18_23  and  O6_24 
REMARK    8  A    between atoms: C18_23  and  C21_28 
REMARK    9  A    between atoms: O6_24  and  C19_25 
REMARK   10  A    between atoms: C21_28  and  O8_29 
REMARK   11  A    between atoms: C21_28  and  O9_31 
REMARK   12  A    between atoms: C24_34  and  O10_35 
REMARK   13  A    between atoms: C25_37  and  O11_39 
ROOT
HETATM    1  C5  UNL     1      12.849 -12.890  21.299  1.00  0.00     0.006 C 
HETATM    2  C6  UNL     1      14.312 -12.529  21.578  1.00  0.00     0.032 C 
HETATM    3  C7  UNL     1      15.047 -13.744  21.677  1.00  0.00     0.013 C 
HETATM    4  C8  UNL     1      16.413 -14.022  21.179  1.00  0.00     0.058 C 
HETATM    5  C9  UNL     1      17.466 -14.090  22.305  1.00  0.00     0.178 C 
HETATM    6  C12 UNL     1      17.055 -15.351  22.965  1.00  0.00     0.253 C 
HETATM    7  O5  UNL     1      16.147 -16.011  22.244  1.00  0.00    -0.360 OA
HETATM    8  C14 UNL     1      15.947 -15.412  20.964  1.00  0.00     0.075 C 
HETATM    9  C17 UNL     1      14.579 -14.950  20.836  1.00  0.00     0.067 C 
HETATM   10  C18 UNL     1      13.792 -14.614  19.646  1.00  0.00     0.133 C 
HETATM   11  C23 UNL     1      13.010 -13.378  19.904  1.00  0.00     0.063 C 
HETATM   12  C24 UNL     1      13.613 -12.074  19.391  1.00  0.00     0.160 C 
HETATM   13  C25 UNL     1      14.496 -11.527  20.495  1.00  0.00     0.085 C 
HETATM   14  C26 UNL     1      14.011 -10.167  21.012  1.00  0.00     0.049 C 
ENDROOT
BRANCH  10  15
HETATM   15  O6  UNL     1      13.097 -15.753  19.279  1.00  0.00    -0.304 OA
BRANCH  15  16
HETATM   16  C19 UNL     1      12.572 -16.859  19.635  1.00  0.00     0.255 C 
HETATM   17  C20 UNL     1      11.613 -17.105  20.742  1.00  0.00     0.126 C 
HETATM   18  O7  UNL     1      12.941 -17.809  18.941  1.00  0.00    -0.266 OA
ENDBRANCH  15  16
ENDBRANCH  10  15
BRANCH  10  19
HETATM   19  C21 UNL     1      14.505 -14.398  18.367  1.00  0.00     0.292 C 
BRANCH  19  20
HETATM   20  O8  UNL     1      14.415 -15.377  17.510  1.00  0.00    -0.368 OA
ATOM     21  H8  UNL     1      15.107 -15.409  16.859  1.00  0.00     0.212 HD
ENDBRANCH  19  20
BRANCH  19  22
HETATM   22  O9  UNL     1      15.247 -13.444  17.830  1.00  0.00    -0.363 OA
HETATM   23  C22 UNL     1      16.610 -13.412  17.547  1.00  0.00     0.204 C 
ENDBRANCH  19  22
ENDBRANCH  10  19
BRANCH   8  24
HETATM   24  C15 UNL     1      16.638 -16.287  20.003  1.00  0.00     0.034 C 
HETATM   25  C16 UNL     1      16.277 -17.754  20.151  1.00  0.00     0.008 C 
ENDBRANCH   8  24
BRANCH   1  26
HETATM   26  C4  UNL     1      12.090 -13.474  22.349  1.00  0.00     0.032 C 
BRANCH  26  27
HETATM   27  C3  UNL     1      11.759 -12.456  23.402  1.00  0.00    -0.031 C 
HETATM   28  C2  UNL     1      11.295 -11.266  23.127  1.00  0.00    -0.035 C 
HETATM   29  C1  UNL     1      10.996 -10.321  24.231  1.00  0.00     0.036 C 
ENDBRANCH  26  27
ENDBRANCH   1  26
BRANCH  12  30
HETATM   30  O10 UNL     1      12.518 -11.128  19.329  1.00  0.00    -0.392 OA
ATOM     31  H10 UNL     1      11.912 -11.472  18.685  1.00  0.00     0.210 HD
ENDBRANCH  12  30
BRANCH  13  32
HETATM   32  O11 UNL     1      15.788 -11.260  20.142  1.00  0.00    -0.387 OA
ATOM     33  H11 UNL     1      15.904 -10.751  19.349  1.00  0.00     0.210 HD
ENDBRANCH  13  32
BRANCH   5  34
HETATM   34  O1  UNL     1      18.765 -14.095  21.777  1.00  0.00    -0.313 OA
BRANCH  34  35
HETATM   35  C10 UNL     1      19.101 -13.134  20.818  1.00  0.00     0.255 C 
HETATM   36  C11 UNL     1      20.178 -13.326  19.837  1.00  0.00     0.126 C 
HETATM   37  O2  UNL     1      18.448 -12.057  20.798  1.00  0.00    -0.266 OA
ENDBRANCH  34  35
ENDBRANCH   5  34
BRANCH   6  38
HETATM   38  C13 UNL     1      18.228 -16.196  23.389  1.00  0.00     0.205 C 
HETATM   39  O3  UNL     1      18.559 -17.226  22.749  1.00  0.00    -0.646 OA
HETATM   40  O4  UNL     1      19.002 -15.890  24.499  1.00  0.00    -0.646 OA
ENDBRANCH   6  38
TORSDOF 13
ENDMDL
MODEL 2
REMARK VINA RESULT: -7.138426932      1.848      5.091
REMARK  13 active torsions:
REMARK  status: ('A' for Active; 'I' for Inactive)
REMARK    1  A    between atoms: C3_3  and  C4_4 
REMARK    2  A    between atoms: C4_4  and  C5_5 
REMARK    3  A    between atoms: C9_9  and  O1_10 
REMARK    4  A    between atoms: O1_10  and  C10_11 
REMARK    5  A    between atoms: C12_14  and  C13_15 
REMARK    6  A    between atoms: C14_19  and  C15_20 
REMARK    7  A    between atoms: C18_23  and  O6_24 
REMARK    8  A    between atoms: C18_23  and  C21_28 
REMARK    9  A    between atoms: O6_24  and  C19_25 
REMARK   10  A    between atoms: C21_28  and  O8_29 
REMARK   11  A    between atoms: C21_28  and  O9_31 
REMARK   12  A    between atoms: C24_34  and  O10_35 
REMARK   13  A    between atoms: C25_37  and  O11_39 
ROOT
HETATM    1  C5  UNL     1      13.833 -16.089  18.883  1.00  0.00     0.006 C 
HETATM    2  C6  UNL     1      14.207 -16.475  20.319  1.00  0.00     0.032 C 
HETATM    3  C7  UNL     1      15.513 -15.969  20.577  1.00  0.00     0.013 C 
HETATM    4  C8  UNL     1      16.023 -15.370  21.830  1.00  0.00     0.058 C 
HETATM    5  C9  UNL     1      16.972 -16.307  22.606  1.00  0.00     0.178 C 
HETATM    6  C12 UNL     1      18.141 -16.298  21.696  1.00  0.00     0.253 C 
HETATM    7  O5  UNL     1      18.018 -15.369  20.746  1.00  0.00    -0.360 OA
HETATM    8  C14 UNL     1      16.884 -14.531  20.964  1.00  0.00     0.075 C 
HETATM    9  C17 UNL     1      15.944 -14.667  19.870  1.00  0.00     0.067 C 
HETATM   10  C18 UNL     1      14.845 -13.796  19.441  1.00  0.00     0.133 C 
HETATM   11  C23 UNL     1      13.665 -14.627  19.090  1.00  0.00     0.063 C 
HETATM   12  C24 UNL     1      12.598 -14.781  20.169  1.00  0.00     0.160 C 
HETATM   13  C25 UNL     1      12.975 -15.994  20.998  1.00  0.00     0.085 C 
HETATM   14  C26 UNL     1      11.920 -17.104  20.922  1.00  0.00     0.049 C 
ENDROOT
BRANCH  10  15
HETATM   15  O6  UNL     1      15.349 -12.947  18.472  1.00  0.00    -0.304 OA
BRANCH  15  16
HETATM   16  C19 UNL     1      16.016 -12.816  17.393  1.00  0.00     0.255 C 
HETATM   17  C20 UNL     1      16.102 -13.757  16.247  1.00  0.00     0.126 C 
HETATM   18  O7  UNL     1      16.650 -11.760  17.348  1.00  0.00    -0.266 OA
ENDBRANCH  15  16
ENDBRANCH  10  15
BRANCH  10  19
HETATM   19  C21 UNL     1      14.362 -12.758  20.379  1.00  0.00     0.292 C 
BRANCH  19  20
HETATM   20  O8  UNL     1      14.229 -11.567  19.867  1.00  0.00    -0.368 OA
ATOM     21  H8  UNL     1      13.339 -11.233  19.845  1.00  0.00     0.212 HD
ENDBRANCH  19  20
BRANCH  19  22
HETATM   22  O9  UNL     1      14.015 -12.702  21.655  1.00  0.00    -0.363 OA
HETATM   23  C22 UNL     1      13.064 -11.915  22.298  1.00  0.00     0.204 C 
ENDBRANCH  19  22
ENDBRANCH  10  19
BRANCH   8  24
HETATM   24  C15 UNL     1      17.422 -13.256  21.465  1.00  0.00     0.034 C 
HETATM   25  C16 UNL     1      18.519 -12.676  20.590  1.00  0.00     0.008 C 
ENDBRANCH   8  24
BRANCH   1  26
HETATM   26  C4  UNL     1      14.497 -16.752  17.815  1.00  0.00     0.032 C 
BRANCH  26  27
HETATM   27  C3  UNL     1      13.725 -17.963  17.374  1.00  0.00    -0.031 C 
HETATM   28  C2  UNL     1      12.421 -18.030  17.399  1.00  0.00    -0.035 C 
HETATM   29  C1  UNL     1      11.741 -19.268  16.945  1.00  0.00     0.036 C 
ENDBRANCH  26  27
ENDBRANCH   1  26
BRANCH  12  30
HETATM   30  O10 UNL     1      11.395 -15.199  19.481  1.00  0.00    -0.392 OA
ATOM     31  H10 UNL     1      10.770 -14.494  19.596  1.00  0.00     0.210 HD
ENDBRANCH  12  30
BRANCH  13  32
HETATM   32  O11 UNL     1      13.079 -15.782  22.343  1.00  0.00    -0.387 OA
ATOM     33  H11 UNL     1      13.022 -14.878  22.626  1.00  0.00     0.210 HD
ENDBRANCH  13  32
BRANCH   5  34
HETATM   34  O1  UNL     1      17.223 -15.812  23.894  1.00  0.00    -0.313 OA
BRANCH  34  35
HETATM   35  C10 UNL     1      17.175 -16.702  24.973  1.00  0.00     0.255 C 
HETATM   36  C11 UNL     1      18.026 -16.561  26.162  1.00  0.00     0.126 C 
HETATM   37  O2  UNL     1      16.365 -17.664  24.916  1.00  0.00    -0.266 OA
ENDBRANCH  34  35
ENDBRANCH   5  34
BRANCH   6  38
HETATM   38  C13 UNL     1      19.455 -16.245  22.434  1.00  0.00     0.205 C 
HETATM   39  O3  UNL     1      19.992 -17.286  22.889  1.00  0.00    -0.646 OA
HETATM   40  O4  UNL     1      20.138 -15.057  22.651  1.00  0.00    -0.646 OA
ENDBRANCH   6  38
TORSDOF 13
ENDMDL
MODEL 3
REMARK VINA RESULT: -6.953326605      1.840      5.227
REMARK  13 active torsions:
REMARK  status: ('A' for Active; 'I' for Inactive)
REMARK    1  A    between atoms: C3_3  and  C4_4 
REMARK    2  A    between atoms: C4_4  and  C5_5 
REMARK    3  A    between atoms: C9_9  and  O1_10 
REMARK    4  A    between atoms: O1_10  and  C10_11 
REMARK    5  A    between atoms: C12_14  and  C13_15 
REMARK    6  A    between atoms: C14_19  and  C15_20 
REMARK    7  A    between atoms: C18_23  and  O6_24 
REMARK    8  A    between atoms: C18_23  and  C21_28 
REMARK    9  A    between atoms: O6_24  and  C19_25 
REMARK   10  A    between atoms: C21_28  and  O8_29 
REMARK   11  A    between atoms: C21_28  and  O9_31 
REMARK   12  A    between atoms: C24_34  and  O10_35 
REMARK   13  A    between atoms: C25_37  and  O11_39 
ROOT
HETATM    1  C5  UNL     1      14.473 -15.612  18.814  1.00  0.00     0.006 C 
HETATM    2  C6  UNL     1      14.743 -16.078  20.249  1.00  0.00     0.032 C 
HETATM    3  C7  UNL     1      16.061 -15.668  20.598  1.00  0.00     0.013 C 
HETATM    4  C8  UNL     1      16.537 -15.154  21.901  1.00  0.00     0.058 C 
HETATM    5  C9  UNL     1      17.382 -16.179  22.685  1.00  0.00     0.178 C 
HETATM    6  C12 UNL     1      18.598 -16.209  21.839  1.00  0.00     0.253 C 
HETATM    7  O5  UNL     1      18.586 -15.237  20.925  1.00  0.00    -0.360 OA
HETATM    8  C14 UNL     1      17.495 -14.337  21.120  1.00  0.00     0.075 C 
HETATM    9  C17 UNL     1      16.610 -14.369  19.973  1.00  0.00     0.067 C 
HETATM   10  C18 UNL     1      15.593 -13.413  19.524  1.00  0.00     0.133 C 
HETATM   11  C23 UNL     1      14.386 -14.151  19.075  1.00  0.00     0.063 C 
HETATM   12  C24 UNL     1      13.252 -14.280  20.089  1.00  0.00     0.160 C 
HETATM   13  C25 UNL     1      13.507 -15.547  20.883  1.00  0.00     0.085 C 
HETATM   14  C26 UNL     1      12.392 -16.583  20.703  1.00  0.00     0.049 C 
ENDROOT
BRANCH  10  15
HETATM   15  O6  UNL     1      16.202 -12.559  18.621  1.00  0.00    -0.304 OA
BRANCH  15  16
HETATM   16  C19 UNL     1      16.701 -12.395  17.459  1.00  0.00     0.255 C 
HETATM   17  C20 UNL     1      18.063 -12.750  16.987  1.00  0.00     0.126 C 
HETATM   18  O7  UNL     1      15.911 -11.873  16.669  1.00  0.00    -0.266 OA
ENDBRANCH  15  16
ENDBRANCH  10  15
BRANCH  10  19
HETATM   19  C21 UNL     1      15.123 -12.384  20.480  1.00  0.00     0.292 C 
BRANCH  19  20
HETATM   20  O8  UNL     1      15.535 -11.171  20.236  1.00  0.00    -0.368 OA
ATOM     21  H8  UNL     1      15.176 -10.501  20.805  1.00  0.00     0.212 HD
ENDBRANCH  19  20
BRANCH  19  22
HETATM   22  O9  UNL     1      14.369 -12.355  21.566  1.00  0.00    -0.363 OA
HETATM   23  C22 UNL     1      13.496 -11.377  22.034  1.00  0.00     0.204 C 
ENDBRANCH  19  22
ENDBRANCH  10  19
BRANCH   8  24
HETATM   24  C15 UNL     1      18.082 -13.121  21.703  1.00  0.00     0.034 C 
HETATM   25  C16 UNL     1      19.069 -12.424  20.784  1.00  0.00     0.008 C 
ENDBRANCH   8  24
BRANCH   1  26
HETATM   26  C4  UNL     1      15.154 -16.272  17.754  1.00  0.00     0.032 C 
BRANCH  26  27
HETATM   27  C3  UNL     1      15.344 -15.351  16.584  1.00  0.00    -0.031 C 
HETATM   28  C2  UNL     1      16.132 -15.622  15.578  1.00  0.00    -0.035 C 
HETATM   29  C1  UNL     1      16.261 -14.653  14.463  1.00  0.00     0.036 C 
ENDBRANCH  26  27
ENDBRANCH   1  26
BRANCH  12  30
HETATM   30  O10 UNL     1      12.066 -14.593  19.320  1.00  0.00    -0.392 OA
ATOM     31  H10 UNL     1      11.393 -14.805  19.956  1.00  0.00     0.210 HD
ENDBRANCH  12  30
BRANCH  13  32
HETATM   32  O11 UNL     1      13.549 -15.396  22.239  1.00  0.00    -0.387 OA
ATOM     33  H11 UNL     1      14.413 -15.424  22.633  1.00  0.00     0.210 HD
ENDBRANCH  13  32
BRANCH   5  34
HETATM   34  O1  UNL     1      17.591 -15.753  24.005  1.00  0.00    -0.313 OA
BRANCH  34  35
HETATM   35  C10 UNL     1      17.325 -16.650  25.046  1.00  0.00     0.255 C 
HETATM   36  C11 UNL     1      17.987 -16.572  26.355  1.00  0.00     0.126 C 
HETATM   37  O2  UNL     1      16.481 -17.562  24.846  1.00  0.00    -0.266 OA
ENDBRANCH  34  35
ENDBRANCH   5  34
BRANCH   6  38
HETATM   38  C13 UNL     1      19.869 -16.270  22.647  1.00  0.00     0.205 C 
HETATM   39  O3  UNL     1      20.277 -17.349  23.146  1.00  0.00    -0.646 OA
HETATM   40  O4  UNL     1      20.654 -15.150  22.884  1.00  0.00    -0.646 OA
ENDBRANCH   6  38
TORSDOF 13
ENDMDL
MODEL 4
REMARK VINA RESULT: -6.894849972      2.016      5.426
REMARK  13 active torsions:
REMARK  status: ('A' for Active; 'I' for Inactive)
REMARK    1  A    between atoms: C3_3  and  C4_4 
REMARK    2  A    between atoms: C4_4  and  C5_5 
REMARK    3  A    between atoms: C9_9  and  O1_10 
REMARK    4  A    between atoms: O1_10  and  C10_11 
REMARK    5  A    between atoms: C12_14  and  C13_15 
REMARK    6  A    between atoms: C14_19  and  C15_20 
REMARK    7  A    between atoms: C18_23  and  O6_24 
REMARK    8  A    between atoms: C18_23  and  C21_28 
REMARK    9  A    between atoms: O6_24  and  C19_25 
REMARK   10  A    between atoms: C21_28  and  O8_29 
REMARK   11  A    between atoms: C21_28  and  O9_31 
REMARK   12  A    between atoms: C24_34  and  O10_35 
REMARK   13  A    between atoms: C25_37  and  O11_39 
ROOT
HETATM    1  C5  UNL     1      17.152 -13.975  21.885  1.00  0.00     0.006 C 
HETATM    2  C6  UNL     1      17.260 -14.635  20.506  1.00  0.00     0.032 C 
HETATM    3  C7  UNL     1      16.057 -15.361  20.277  1.00  0.00     0.013 C 
HETATM    4  C8  UNL     1      15.307 -15.499  19.009  1.00  0.00     0.058 C 
HETATM    5  C9  UNL     1      15.466 -16.890  18.360  1.00  0.00     0.178 C 
HETATM    6  C12 UNL     1      14.702 -17.713  19.327  1.00  0.00     0.253 C 
HETATM    7  O5  UNL     1      14.027 -16.955  20.193  1.00  0.00    -0.360 OA
HETATM    8  C14 UNL     1      14.089 -15.571  19.850  1.00  0.00     0.075 C 
HETATM    9  C17 UNL     1      14.752 -14.825  20.901  1.00  0.00     0.067 C 
HETATM   10  C18 UNL     1      14.747 -13.390  21.202  1.00  0.00     0.133 C 
HETATM   11  C23 UNL     1      16.122 -12.955  21.555  1.00  0.00     0.063 C 
HETATM   12  C24 UNL     1      16.941 -12.317  20.437  1.00  0.00     0.160 C 
HETATM   13  C25 UNL     1      17.675 -13.438  19.728  1.00  0.00     0.085 C 
HETATM   14  C26 UNL     1      19.198 -13.299  19.835  1.00  0.00     0.049 C 
ENDROOT
BRANCH  10  15
HETATM   15  O6  UNL     1      13.741 -13.168  22.126  1.00  0.00    -0.304 OA
BRANCH  15  16
HETATM   16  C19 UNL     1      12.652 -12.570  22.413  1.00  0.00     0.255 C 
HETATM   17  C20 UNL     1      11.266 -12.974  22.069  1.00  0.00     0.126 C 
HETATM   18  O7  UNL     1      12.831 -11.535  23.058  1.00  0.00    -0.266 OA
ENDBRANCH  15  16
ENDBRANCH  10  15
BRANCH  10  19
HETATM   19  C21 UNL     1      14.266 -12.453  20.161  1.00  0.00     0.292 C 
BRANCH  19  20
HETATM   20  O8  UNL     1      14.385 -11.189  20.455  1.00  0.00    -0.368 OA
ATOM     21  H8  UNL     1      14.022 -10.589  19.814  1.00  0.00     0.212 HD
ENDBRANCH  19  20
BRANCH  19  22
HETATM   22  O9  UNL     1      13.720 -12.550  18.960  1.00  0.00    -0.363 OA
HETATM   23  C22 UNL     1      14.279 -12.380  17.697  1.00  0.00     0.204 C 
ENDBRANCH  19  22
ENDBRANCH  10  19
BRANCH   8  24
HETATM   24  C15 UNL     1      12.773 -15.244  19.279  1.00  0.00     0.034 C 
HETATM   25  C16 UNL     1      11.617 -15.911  20.002  1.00  0.00     0.008 C 
ENDBRANCH   8  24
BRANCH   1  26
HETATM   26  C4  UNL     1      17.223 -14.807  23.036  1.00  0.00     0.032 C 
BRANCH  26  27
HETATM   27  C3  UNL     1      18.651 -15.057  23.429  1.00  0.00    -0.031 C 
HETATM   28  C2  UNL     1      19.587 -14.150  23.345  1.00  0.00    -0.035 C 
HETATM   29  C1  UNL     1      20.972 -14.484  23.754  1.00  0.00     0.036 C 
ENDBRANCH  26  27
ENDBRANCH   1  26
BRANCH  12  30
HETATM   30  O10 UNL     1      17.999 -11.577  21.092  1.00  0.00    -0.392 OA
ATOM     31  H10 UNL     1      18.441 -11.092  20.406  1.00  0.00     0.210 HD
ENDBRANCH  12  30
BRANCH  13  32
HETATM   32  O11 UNL     1      17.483 -13.509  18.377  1.00  0.00    -0.387 OA
ATOM     33  H11 UNL     1      16.631 -13.230  18.064  1.00  0.00     0.210 HD
ENDBRANCH  13  32
BRANCH   5  34
HETATM   34  O1  UNL     1      14.961 -16.894  17.052  1.00  0.00    -0.313 OA
BRANCH  34  35
HETATM   35  C10 UNL     1      15.845 -16.656  15.994  1.00  0.00     0.255 C 
HETATM   36  C11 UNL     1      16.702 -17.703  15.419  1.00  0.00     0.126 C 
HETATM   37  O2  UNL     1      15.906 -15.493  15.517  1.00  0.00    -0.266 OA
ENDBRANCH  34  35
ENDBRANCH   5  34
BRANCH   6  38
HETATM   38  C13 UNL     1      13.861 -18.769  18.657  1.00  0.00     0.205 C 
HETATM   39  O3  UNL     1      12.611 -18.659  18.580  1.00  0.00    -0.646 OA
HETATM   40  O4  UNL     1      14.412 -19.911  18.093  1.00  0.00    -0.646 OA
ENDBRANCH   6  38
TORSDOF 13
ENDMDL
MODEL 5
REMARK VINA RESULT: -6.619309861      1.979      5.305
REMARK  13 active torsions:
REMARK  status: ('A' for Active; 'I' for Inactive)
REMARK    1  A    between atoms: C3_3  and  C4_4 
REMARK    2  A    between atoms: C4_4  and  C5_5 
REMARK    3  A    between atoms: C9_9  and  O1_10 
REMARK    4  A    between atoms: O1_10  and  C10_11 
REMARK    5  A    between atoms: C12_14  and  C13_15 
REMARK    6  A    between atoms: C14_19  and  C15_20 
REMARK    7  A    between atoms: C18_23  and  O6_24 
REMARK    8  A    between atoms: C18_23  and  C21_28 
REMARK    9  A    between atoms: O6_24  and  C19_25 
REMARK   10  A    between atoms: C21_28  and  O8_29 
REMARK   11  A    between atoms: C21_28  and  O9_31 
REMARK   12  A    between atoms: C24_34  and  O10_35 
REMARK   13  A    between atoms: C25_37  and  O11_39 
ROOT
HETATM    1  C5  UNL     1      13.565 -17.105  19.049  1.00  0.00     0.006 C 
HETATM    2  C6  UNL     1      14.243 -17.284  20.412  1.00  0.00     0.032 C 
HETATM    3  C7  UNL     1      15.290 -16.323  20.505  1.00  0.00     0.013 C 
HETATM    4  C8  UNL     1      15.702 -15.542  21.693  1.00  0.00     0.058 C 
HETATM    5  C9  UNL     1      17.026 -16.037  22.312  1.00  0.00     0.178 C 
HETATM    6  C12 UNL     1      17.976 -15.621  21.254  1.00  0.00     0.253 C 
HETATM    7  O5  UNL     1      17.392 -14.831  20.352  1.00  0.00    -0.360 OA
HETATM    8  C14 UNL     1      16.068 -14.468  20.739  1.00  0.00     0.075 C 
HETATM    9  C17 UNL     1      15.109 -14.974  19.778  1.00  0.00     0.067 C 
HETATM   10  C18 UNL     1      13.719 -14.585  19.520  1.00  0.00     0.133 C 
HETATM   11  C23 UNL     1      12.896 -15.804  19.310  1.00  0.00     0.063 C 
HETATM   12  C24 UNL     1      12.116 -16.312  20.519  1.00  0.00     0.160 C 
HETATM   13  C25 UNL     1      13.023 -17.275  21.261  1.00  0.00     0.085 C 
HETATM   14  C26 UNL     1      12.456 -18.698  21.301  1.00  0.00     0.049 C 
ENDROOT
BRANCH  10  15
HETATM   15  O6  UNL     1      13.738 -13.638  18.512  1.00  0.00    -0.304 OA
BRANCH  15  16
HETATM   16  C19 UNL     1      14.432 -12.926  17.712  1.00  0.00     0.255 C 
HETATM   17  C20 UNL     1      15.545 -13.359  16.830  1.00  0.00     0.126 C 
HETATM   18  O7  UNL     1      14.094 -11.741  17.711  1.00  0.00    -0.266 OA
ENDBRANCH  15  16
ENDBRANCH  10  15
BRANCH  10  19
HETATM   19  C21 UNL     1      13.014 -13.774  20.538  1.00  0.00     0.292 C 
BRANCH  19  20
HETATM   20  O8  UNL     1      12.330 -12.768  20.069  1.00  0.00    -0.368 OA
ATOM     21  H8  UNL     1      12.470 -11.941  20.516  1.00  0.00     0.212 HD
ENDBRANCH  19  20
BRANCH  19  22
HETATM   22  O9  UNL     1      12.883 -13.787  21.854  1.00  0.00    -0.363 OA
HETATM   23  C22 UNL     1      12.151 -12.955  22.697  1.00  0.00     0.204 C 
ENDBRANCH  19  22
ENDBRANCH  10  19
BRANCH   8  24
HETATM   24  C15 UNL     1      16.155 -13.071  21.193  1.00  0.00     0.034 C 
HETATM   25  C16 UNL     1      16.974 -12.185  20.271  1.00  0.00     0.008 C 
ENDBRANCH   8  24
BRANCH   1  26
HETATM   26  C4  UNL     1      14.280 -17.504  17.886  1.00  0.00     0.032 C 
BRANCH  26  27
HETATM   27  C3  UNL     1      13.336 -17.901  16.788  1.00  0.00    -0.031 C 
HETATM   28  C2  UNL     1      12.198 -18.505  17.004  1.00  0.00    -0.035 C 
HETATM   29  C1  UNL     1      11.327 -18.861  15.857  1.00  0.00     0.036 C 
ENDBRANCH  26  27
ENDBRANCH   1  26
BRANCH  12  30
HETATM   30  O10 UNL     1      11.074 -17.166  19.988  1.00  0.00    -0.392 OA
ATOM     31  H10 UNL     1      11.068 -17.017  19.050  1.00  0.00     0.210 HD
ENDBRANCH  12  30
BRANCH  13  32
HETATM   32  O11 UNL     1      13.218 -17.001  22.585  1.00  0.00    -0.387 OA
ATOM     33  H11 UNL     1      13.231 -16.082  22.821  1.00  0.00     0.210 HD
ENDBRANCH  13  32
BRANCH   5  34
HETATM   34  O1  UNL     1      17.243 -15.448  23.567  1.00  0.00    -0.313 OA
BRANCH  34  35
HETATM   35  C10 UNL     1      17.620 -16.270  24.634  1.00  0.00     0.255 C 
HETATM   36  C11 UNL     1      18.721 -15.937  25.549  1.00  0.00     0.126 C 
HETATM   37  O2  UNL     1      16.986 -17.343  24.814  1.00  0.00    -0.266 OA
ENDBRANCH  34  35
ENDBRANCH   5  34
BRANCH   6  38
HETATM   38  C13 UNL     1      19.261 -15.064  21.811  1.00  0.00     0.205 C 
HETATM   39  O3  UNL     1      20.266 -15.796  21.998  1.00  0.00    -0.646 OA
HETATM   40  O4  UNL     1      19.408 -13.725  22.145  1.00  0.00    -0.646 OA
ENDBRANCH   6  38
TORSDOF 13
ENDMDL
