MODEL 1
REMARK VINA RESULT: -3.844120517      0.000      0.000
REMARK  1 active torsions:
REMARK  status: ('A' for Active; 'I' for Inactive)
REMARK    1  A    between atoms: C2_2  and  N1_3 
ROOT
HETATM    1  N1  UNL     1      60.446  -4.133  -1.389  1.00  0.00    -0.387 N 
HETATM    2  C3  UNL     1      59.474  -3.531  -2.250  1.00  0.00     0.148 C 
HETATM    3  C4  UNL     1      58.501  -2.781  -1.353  1.00  0.00     0.187 C 
HETATM    4  O1  UNL     1      59.261  -1.778  -0.724  1.00  0.00    -0.388 OA
HETATM    5  C5  UNL     1      60.034  -2.436   0.238  1.00  0.00     0.187 C 
HETATM    6  C6  UNL     1      61.090  -3.324  -0.405  1.00  0.00     0.148 C 
ENDROOT
BRANCH   1   7
HETATM    7  C2  UNL     1      60.750  -5.505  -1.528  1.00  0.00     0.075 C 
HETATM    8  C1  UNL     1      61.122  -6.219  -0.487  1.00  0.00     0.029 C 
ENDBRANCH   1   7
TORSDOF 1
ENDMDL
MODEL 2
REMARK VINA RESULT: -3.699639968      0.947      1.041
REMARK  1 active torsions:
REMARK  status: ('A' for Active; 'I' for Inactive)
REMARK    1  A    between atoms: C2_2  and  N1_3 
ROOT
HETATM    1  N1  UNL     1      60.735  -4.209  -0.436  1.00  0.00    -0.387 N 
HETATM    2  C3  UNL     1      60.674  -3.488  -1.671  1.00  0.00     0.148 C 
HETATM    3  C4  UNL     1      59.330  -2.777  -1.697  1.00  0.00     0.187 C 
HETATM    4  O1  UNL     1      59.360  -1.870  -0.620  1.00  0.00    -0.388 OA
HETATM    5  C5  UNL     1      59.213  -2.647   0.533  1.00  0.00     0.187 C 
HETATM    6  C6  UNL     1      60.434  -3.522   0.778  1.00  0.00     0.148 C 
ENDROOT
BRANCH   1   7
HETATM    7  C2  UNL     1      61.089  -5.576  -0.441  1.00  0.00     0.075 C 
HETATM    8  C1  UNL     1      60.789  -6.344  -1.467  1.00  0.00     0.029 C 
ENDBRANCH   1   7
TORSDOF 1
ENDMDL
MODEL 3
REMARK VINA RESULT: -3.691838812      1.593      2.140
REMARK  1 active torsions:
REMARK  status: ('A' for Active; 'I' for Inactive)
REMARK    1  A    between atoms: C2_2  and  N1_3 
ROOT
HETATM    1  N1  UNL     1      60.559  -4.963   0.322  1.00  0.00    -0.387 N 
HETATM    2  C3  UNL     1      61.257  -3.728   0.134  1.00  0.00     0.148 C 
HETATM    3  C4  UNL     1      60.201  -2.664  -0.123  1.00  0.00     0.187 C 
HETATM    4  O1  UNL     1      59.434  -2.599   1.056  1.00  0.00    -0.388 OA
HETATM    5  C5  UNL     1      58.639  -3.750   1.053  1.00  0.00     0.187 C 
HETATM    6  C6  UNL     1      59.473  -5.007   1.248  1.00  0.00     0.148 C 
ENDROOT
BRANCH   1   7
HETATM    7  C2  UNL     1      60.955  -6.107  -0.405  1.00  0.00     0.075 C 
HETATM    8  C1  UNL     1      60.693  -6.210  -1.691  1.00  0.00     0.029 C 
ENDBRANCH   1   7
TORSDOF 1
ENDMDL
MODEL 4
REMARK VINA RESULT: -3.662757554      1.168      1.964
REMARK  1 active torsions:
REMARK  status: ('A' for Active; 'I' for Inactive)
REMARK    1  A    between atoms: C2_2  and  N1_3 
ROOT
HETATM    1  N1  UNL     1      60.009  -4.555  -0.061  1.00  0.00    -0.387 N 
HETATM    2  C3  UNL     1      61.147  -3.755   0.276  1.00  0.00     0.148 C 
HETATM    3  C4  UNL     1      61.076  -2.507  -0.591  1.00  0.00     0.187 C 
HETATM    4  O1  UNL     1      59.898  -1.842  -0.203  1.00  0.00    -0.388 OA
HETATM    5  C5  UNL     1      58.847  -2.587  -0.747  1.00  0.00     0.187 C 
HETATM    6  C6  UNL     1      58.718  -3.946  -0.075  1.00  0.00     0.148 C 
ENDROOT
BRANCH   1   7
HETATM    7  C2  UNL     1      60.183  -5.922  -0.371  1.00  0.00     0.075 C 
HETATM    8  C1  UNL     1      60.755  -6.288  -1.498  1.00  0.00     0.029 C 
ENDBRANCH   1   7
TORSDOF 1
ENDMDL
MODEL 5
REMARK VINA RESULT: -3.601209208      1.652      3.047
REMARK  1 active torsions:
REMARK  status: ('A' for Active; 'I' for Inactive)
REMARK    1  A    between atoms: C2_2  and  N1_3 
ROOT
HETATM    1  N1  UNL     1      59.975  -4.361  -2.089  1.00  0.00    -0.387 N 
HETATM    2  C3  UNL     1      60.684  -3.263  -1.505  1.00  0.00     0.148 C 
HETATM    3  C4  UNL     1      60.782  -3.549  -0.015  1.00  0.00     0.187 C 
HETATM    4  O1  UNL     1      61.553  -4.722   0.096  1.00  0.00    -0.388 OA
HETATM    5  C5  UNL     1      60.713  -5.765  -0.307  1.00  0.00     0.187 C 
HETATM    6  C6  UNL     1      60.402  -5.690  -1.795  1.00  0.00     0.148 C 
ENDROOT
BRANCH   1   7
HETATM    7  C2  UNL     1      58.876  -4.110  -2.940  1.00  0.00     0.075 C 
HETATM    8  C1  UNL     1      57.748  -3.634  -2.458  1.00  0.00     0.029 C 
ENDBRANCH   1   7
TORSDOF 1
ENDMDL
