MODEL 1
REMARK VINA RESULT: -5.110233628      0.000      0.000
REMARK  1 active torsions:
REMARK  status: ('A' for Active; 'I' for Inactive)
REMARK    1  A    between atoms: C2_2  and  C3_3 
ROOT
HETATM    1  C3  UNL     1      60.561  -4.095  -1.811  1.00  0.00     0.075 A 
HETATM    2  C4  UNL     1      59.577  -3.559  -2.864  1.00  0.00     0.083 A 
HETATM    3  C5  UNL     1      59.352  -3.372  -1.406  1.00  0.00     0.171 A 
HETATM    4  O1  UNL     1      59.532  -2.110  -0.849  1.00  0.00    -0.352 OA
HETATM    5  C6  UNL     1      59.159  -2.260   0.476  1.00  0.00     0.197 C 
HETATM    6  C7  UNL     1      58.018  -3.247   0.384  1.00  0.00     0.197 C 
HETATM    7  O2  UNL     1      58.308  -3.969  -0.742  1.00  0.00    -0.352 OA
ENDROOT
BRANCH   1   8
HETATM    8  C2  UNL     1      60.673  -5.573  -1.692  1.00  0.00    -0.027 C 
HETATM    9  C1  UNL     1      61.056  -6.084  -0.528  1.00  0.00     0.007 C 
ENDBRANCH   1   8
TORSDOF 1
ENDMDL
MODEL 2
REMARK VINA RESULT: -5.089296873      1.425      2.278
REMARK  1 active torsions:
REMARK  status: ('A' for Active; 'I' for Inactive)
REMARK    1  A    between atoms: C2_2  and  C3_3 
ROOT
HETATM    1  C3  UNL     1      60.394  -3.816   0.002  1.00  0.00     0.075 A 
HETATM    2  C4  UNL     1      60.902  -2.407  -0.348  1.00  0.00     0.083 A 
HETATM    3  C5  UNL     1      59.867  -3.098  -1.161  1.00  0.00     0.171 A 
HETATM    4  O1  UNL     1      58.546  -2.666  -1.088  1.00  0.00    -0.352 OA
HETATM    5  C6  UNL     1      57.875  -3.442  -2.017  1.00  0.00     0.197 C 
HETATM    6  C7  UNL     1      58.901  -3.594  -3.117  1.00  0.00     0.197 C 
HETATM    7  O2  UNL     1      60.096  -3.495  -2.457  1.00  0.00    -0.352 OA
ENDROOT
BRANCH   1   8
HETATM    8  C2  UNL     1      61.370  -4.931  -0.135  1.00  0.00    -0.027 C 
HETATM    9  C1  UNL     1      60.903  -6.149  -0.381  1.00  0.00     0.007 C 
ENDBRANCH   1   8
TORSDOF 1
ENDMDL
MODEL 3
REMARK VINA RESULT: -4.904304373      1.818      3.018
REMARK  1 active torsions:
REMARK  status: ('A' for Active; 'I' for Inactive)
REMARK    1  A    between atoms: C2_2  and  C3_3 
ROOT
HETATM    1  C3  UNL     1      60.134  -5.363  -1.214  1.00  0.00     0.075 A 
HETATM    2  C4  UNL     1      61.184  -6.195  -0.457  1.00  0.00     0.083 A 
HETATM    3  C5  UNL     1      60.130  -5.419   0.250  1.00  0.00     0.171 A 
HETATM    4  O1  UNL     1      59.076  -6.099   0.851  1.00  0.00    -0.352 OA
HETATM    5  C6  UNL     1      58.343  -5.111   1.486  1.00  0.00     0.197 C 
HETATM    6  C7  UNL     1      59.419  -4.158   1.955  1.00  0.00     0.197 C 
HETATM    7  O2  UNL     1      60.425  -4.336   1.044  1.00  0.00    -0.352 OA
ENDROOT
BRANCH   1   8
HETATM    8  C2  UNL     1      60.632  -4.175  -1.957  1.00  0.00    -0.027 C 
HETATM    9  C1  UNL     1      59.744  -3.300  -2.413  1.00  0.00     0.007 C 
ENDBRANCH   1   8
TORSDOF 1
ENDMDL
MODEL 4
REMARK VINA RESULT: -4.872892009      1.729      2.996
REMARK  1 active torsions:
REMARK  status: ('A' for Active; 'I' for Inactive)
REMARK    1  A    between atoms: C2_2  and  C3_3 
ROOT
HETATM    1  C3  UNL     1      60.584  -3.440  -1.792  1.00  0.00     0.075 A 
HETATM    2  C4  UNL     1      60.981  -2.624  -0.550  1.00  0.00     0.083 A 
HETATM    3  C5  UNL     1      60.596  -4.059  -0.464  1.00  0.00     0.171 A 
HETATM    4  O1  UNL     1      61.580  -5.012  -0.223  1.00  0.00    -0.352 OA
HETATM    5  C6  UNL     1      60.888  -6.205  -0.111  1.00  0.00     0.197 C 
HETATM    6  C7  UNL     1      59.610  -5.778   0.573  1.00  0.00     0.197 C 
HETATM    7  O2  UNL     1      59.456  -4.475   0.181  1.00  0.00    -0.352 OA
ENDROOT
BRANCH   1   8
HETATM    8  C2  UNL     1      59.318  -3.052  -2.470  1.00  0.00    -0.027 C 
HETATM    9  C1  UNL     1      58.676  -3.972  -3.179  1.00  0.00     0.007 C 
ENDBRANCH   1   8
TORSDOF 1
ENDMDL
MODEL 5
REMARK VINA RESULT: -4.827226527      1.722      1.989
REMARK  1 active torsions:
REMARK  status: ('A' for Active; 'I' for Inactive)
REMARK    1  A    between atoms: C2_2  and  C3_3 
ROOT
HETATM    1  C3  UNL     1      61.060  -4.245  -0.393  1.00  0.00     0.075 A 
HETATM    2  C4  UNL     1      60.921  -2.713  -0.391  1.00  0.00     0.083 A 
HETATM    3  C5  UNL     1      59.990  -3.591   0.366  1.00  0.00     0.171 A 
HETATM    4  O1  UNL     1      60.081  -3.642   1.753  1.00  0.00    -0.352 OA
HETATM    5  C6  UNL     1      59.035  -4.461   2.140  1.00  0.00     0.197 C 
HETATM    6  C7  UNL     1      57.957  -4.107   1.142  1.00  0.00     0.197 C 
HETATM    7  O2  UNL     1      58.660  -3.706   0.038  1.00  0.00    -0.352 OA
ENDROOT
BRANCH   1   8
HETATM    8  C2  UNL     1      60.803  -4.938  -1.684  1.00  0.00    -0.027 C 
HETATM    9  C1  UNL     1      60.659  -6.257  -1.672  1.00  0.00     0.007 C 
ENDBRANCH   1   8
TORSDOF 1
ENDMDL
