MODEL 1
REMARK VINA RESULT: -4.388293365      0.000      0.000
REMARK  2 active torsions:
REMARK  status: ('A' for Active; 'I' for Inactive)
REMARK    1  A    between atoms: C3_3  and  O1_4 
REMARK    2  A    between atoms: O1_4  and  C4_5 
ROOT
HETATM    1  C1  UNL     1      57.057  -3.616  -2.897  1.00  0.00     0.170 C 
HETATM    2  C2  UNL     1      58.471  -3.999  -3.246  1.00  0.00     0.060 C 
HETATM    3  C3  UNL     1      59.264  -3.220  -2.212  1.00  0.00     0.147 C 
HETATM    4  C7  UNL     1      58.274  -3.250  -1.055  1.00  0.00     0.199 C 
HETATM    5  O2  UNL     1      57.017  -3.221  -1.594  1.00  0.00    -0.389 OA
ENDROOT
BRANCH   3   6
HETATM    6  O1  UNL     1      60.421  -3.844  -1.827  1.00  0.00    -0.378 OA
BRANCH   6   7
HETATM    7  C4  UNL     1      60.114  -5.023  -1.186  1.00  0.00     0.122 A 
HETATM    8  C5  UNL     1      61.230  -5.549  -0.263  1.00  0.00     0.034 A 
HETATM    9  C6  UNL     1      60.836  -6.283  -1.470  1.00  0.00     0.034 A 
ENDBRANCH   6   7
ENDBRANCH   3   6
TORSDOF 2
ENDMDL
MODEL 2
REMARK VINA RESULT: -4.342181424      1.797      2.776
REMARK  2 active torsions:
REMARK  status: ('A' for Active; 'I' for Inactive)
REMARK    1  A    between atoms: C3_3  and  O1_4 
REMARK    2  A    between atoms: O1_4  and  C4_5 
ROOT
HETATM    1  C1  UNL     1      59.185  -1.315   0.572  1.00  0.00     0.170 C 
HETATM    2  C2  UNL     1      58.450  -2.611   0.351  1.00  0.00     0.060 C 
HETATM    3  C3  UNL     1      59.173  -3.171  -0.861  1.00  0.00     0.147 C 
HETATM    4  C7  UNL     1      60.572  -2.625  -0.600  1.00  0.00     0.199 C 
HETATM    5  O2  UNL     1      60.426  -1.412   0.018  1.00  0.00    -0.389 OA
ENDROOT
BRANCH   3   6
HETATM    6  O1  UNL     1      59.225  -4.539  -0.883  1.00  0.00    -0.378 OA
BRANCH   6   7
HETATM    7  C4  UNL     1      60.529  -4.945  -1.059  1.00  0.00     0.122 A 
HETATM    8  C5  UNL     1      60.677  -6.283  -1.808  1.00  0.00     0.034 A 
HETATM    9  C6  UNL     1      61.070  -6.156  -0.401  1.00  0.00     0.034 A 
ENDBRANCH   6   7
ENDBRANCH   3   6
TORSDOF 2
ENDMDL
MODEL 3
REMARK VINA RESULT: -4.308626719      1.795      2.691
REMARK  2 active torsions:
REMARK  status: ('A' for Active; 'I' for Inactive)
REMARK    1  A    between atoms: C3_3  and  O1_4 
REMARK    2  A    between atoms: O1_4  and  C4_5 
ROOT
HETATM    1  C1  UNL     1      59.688  -1.615   0.440  1.00  0.00     0.170 C 
HETATM    2  C2  UNL     1      59.925  -3.058   0.804  1.00  0.00     0.060 C 
HETATM    3  C3  UNL     1      58.746  -3.741   0.133  1.00  0.00     0.147 C 
HETATM    4  C7  UNL     1      58.578  -2.831  -1.077  1.00  0.00     0.199 C 
HETATM    5  O2  UNL     1      58.922  -1.565  -0.685  1.00  0.00    -0.389 OA
ENDROOT
BRANCH   3   6
HETATM    6  O1  UNL     1      59.023  -5.010  -0.298  1.00  0.00    -0.378 OA
BRANCH   6   7
HETATM    7  C4  UNL     1      60.329  -5.074  -0.728  1.00  0.00     0.122 A 
HETATM    8  C5  UNL     1      60.602  -6.193  -1.751  1.00  0.00     0.034 A 
HETATM    9  C6  UNL     1      61.206  -6.225  -0.414  1.00  0.00     0.034 A 
ENDBRANCH   6   7
ENDBRANCH   3   6
TORSDOF 2
ENDMDL
MODEL 4
REMARK VINA RESULT: -4.073706292      1.778      2.097
REMARK  2 active torsions:
REMARK  status: ('A' for Active; 'I' for Inactive)
REMARK    1  A    between atoms: C3_3  and  O1_4 
REMARK    2  A    between atoms: O1_4  and  C4_5 
ROOT
HETATM    1  C1  UNL     1      58.197  -1.936  -0.366  1.00  0.00     0.170 C 
HETATM    2  C2  UNL     1      58.737  -3.214  -0.954  1.00  0.00     0.060 C 
HETATM    3  C3  UNL     1      60.188  -2.846  -1.208  1.00  0.00     0.147 C 
HETATM    4  C7  UNL     1      60.413  -1.879  -0.053  1.00  0.00     0.199 C 
HETATM    5  O2  UNL     1      59.230  -1.227   0.168  1.00  0.00    -0.389 OA
ENDROOT
BRANCH   3   6
HETATM    6  O1  UNL     1      61.050  -3.902  -1.081  1.00  0.00    -0.378 OA
BRANCH   6   7
HETATM    7  C4  UNL     1      60.330  -5.070  -0.972  1.00  0.00     0.122 A 
HETATM    8  C5  UNL     1      61.124  -6.247  -0.373  1.00  0.00     0.034 A 
HETATM    9  C6  UNL     1      60.662  -6.276  -1.764  1.00  0.00     0.034 A 
ENDBRANCH   6   7
ENDBRANCH   3   6
TORSDOF 2
ENDMDL
MODEL 5
REMARK VINA RESULT: -4.066727796      2.104      3.551
REMARK  2 active torsions:
REMARK  status: ('A' for Active; 'I' for Inactive)
REMARK    1  A    between atoms: C3_3  and  O1_4 
REMARK    2  A    between atoms: O1_4  and  C4_5 
ROOT
HETATM    1  C1  UNL     1      60.495  -6.319  -1.597  1.00  0.00     0.170 C 
HETATM    2  C2  UNL     1      61.127  -5.650  -0.404  1.00  0.00     0.060 C 
HETATM    3  C3  UNL     1      60.935  -4.181  -0.739  1.00  0.00     0.147 C 
HETATM    4  C7  UNL     1      59.617  -4.263  -1.499  1.00  0.00     0.199 C 
HETATM    5  O2  UNL     1      59.603  -5.459  -2.163  1.00  0.00    -0.389 OA
ENDROOT
BRANCH   3   6
HETATM    6  O1  UNL     1      60.766  -3.387   0.363  1.00  0.00    -0.378 OA
BRANCH   6   7
HETATM    7  C4  UNL     1      59.558  -3.677   0.956  1.00  0.00     0.122 A 
HETATM    8  C5  UNL     1      58.971  -2.521   1.789  1.00  0.00     0.034 A 
HETATM    9  C6  UNL     1      59.406  -3.768   2.427  1.00  0.00     0.034 A 
ENDBRANCH   6   7
ENDBRANCH   3   6
TORSDOF 2
ENDMDL
