MODEL 1
REMARK VINA RESULT: -4.567621846      0.000      0.000
REMARK  1 active torsions:
REMARK  status: ('A' for Active; 'I' for Inactive)
REMARK    1  A    between atoms: C2_2  and  C3_3 
ROOT
HETATM    1  C3  UNL     1      59.796  -4.616  -2.086  1.00  0.00     0.065 A 
HETATM    2  C4  UNL     1      60.134  -3.313  -1.814  1.00  0.00     0.139 A 
HETATM    3  N1  UNL     1      59.159  -2.541  -2.303  1.00  0.00    -0.295 N 
ATOM      4  H1  UNL     1      59.118  -1.523  -2.261  1.00  0.00     0.187 HD
HETATM    5  N2  UNL     1      58.270  -3.329  -2.846  1.00  0.00    -0.243 N 
ATOM      6  H2  UNL     1      57.414  -3.008  -3.299  1.00  0.00     0.208 HD
HETATM    7  N3  UNL     1      58.624  -4.590  -2.732  1.00  0.00    -0.285 N 
ATOM      8  H3  UNL     1      58.102  -5.397  -3.073  1.00  0.00     0.188 HD
ENDROOT
BRANCH   1   9
HETATM    9  C2  UNL     1      60.559  -5.825  -1.741  1.00  0.00     0.022 C 
HETATM   10  C1  UNL     1      61.020  -5.978  -0.528  1.00  0.00     0.013 C 
ENDBRANCH   1   9
TORSDOF 1
ENDMDL
MODEL 2
REMARK VINA RESULT: -4.420246906      0.772      1.353
REMARK  1 active torsions:
REMARK  status: ('A' for Active; 'I' for Inactive)
REMARK    1  A    between atoms: C2_2  and  C3_3 
ROOT
HETATM    1  C3  UNL     1      59.843  -4.502  -2.066  1.00  0.00     0.065 A 
HETATM    2  C4  UNL     1      58.819  -4.347  -2.968  1.00  0.00     0.139 A 
HETATM    3  N1  UNL     1      58.455  -3.061  -2.938  1.00  0.00    -0.295 N 
ATOM      4  H1  UNL     1      57.718  -2.630  -3.494  1.00  0.00     0.187 HD
HETATM    5  N2  UNL     1      59.217  -2.459  -2.064  1.00  0.00    -0.243 N 
ATOM      6  H2  UNL     1      59.159  -1.467  -1.835  1.00  0.00     0.208 HD
HETATM    7  N3  UNL     1      60.068  -3.300  -1.519  1.00  0.00    -0.285 N 
ATOM      8  H3  UNL     1      60.767  -3.079  -0.811  1.00  0.00     0.188 HD
ENDROOT
BRANCH   1   9
HETATM    9  C2  UNL     1      60.570  -5.739  -1.747  1.00  0.00     0.022 C 
HETATM   10  C1  UNL     1      61.023  -5.933  -0.537  1.00  0.00     0.013 C 
ENDBRANCH   1   9
TORSDOF 1
ENDMDL
MODEL 3
REMARK VINA RESULT: -4.403557253      1.115      1.974
REMARK  1 active torsions:
REMARK  status: ('A' for Active; 'I' for Inactive)
REMARK    1  A    between atoms: C2_2  and  C3_3 
ROOT
HETATM    1  C3  UNL     1      59.777  -3.353  -1.865  1.00  0.00     0.065 A 
HETATM    2  C4  UNL     1      59.393  -4.609  -2.267  1.00  0.00     0.139 A 
HETATM    3  N1  UNL     1      58.345  -4.461  -3.083  1.00  0.00    -0.295 N 
ATOM      4  H1  UNL     1      57.831  -5.209  -3.547  1.00  0.00     0.187 HD
HETATM    5  N2  UNL     1      58.100  -3.181  -3.177  1.00  0.00    -0.243 N 
ATOM      6  H2  UNL     1      57.350  -2.777  -3.738  1.00  0.00     0.208 HD
HETATM    7  N3  UNL     1      58.947  -2.483  -2.454  1.00  0.00    -0.285 N 
ATOM      8  H3  UNL     1      58.968  -1.468  -2.359  1.00  0.00     0.188 HD
ENDROOT
BRANCH   1   9
HETATM    9  C2  UNL     1      60.886  -3.007  -0.964  1.00  0.00     0.022 C 
HETATM   10  C1  UNL     1      61.262  -3.853  -0.042  1.00  0.00     0.013 C 
ENDBRANCH   1   9
TORSDOF 1
ENDMDL
MODEL 4
REMARK VINA RESULT: -4.322839515      1.184      1.476
REMARK  1 active torsions:
REMARK  status: ('A' for Active; 'I' for Inactive)
REMARK    1  A    between atoms: C2_2  and  C3_3 
ROOT
HETATM    1  C3  UNL     1      60.355  -3.615  -0.967  1.00  0.00     0.065 A 
HETATM    2  C4  UNL     1      59.717  -2.547  -0.384  1.00  0.00     0.139 A 
HETATM    3  N1  UNL     1      58.985  -1.957  -1.333  1.00  0.00    -0.295 N 
ATOM      4  H1  UNL     1      58.396  -1.133  -1.214  1.00  0.00     0.187 HD
HETATM    5  N2  UNL     1      59.162  -2.627  -2.439  1.00  0.00    -0.243 N 
ATOM      6  H2  UNL     1      58.722  -2.397  -3.330  1.00  0.00     0.208 HD
HETATM    7  N3  UNL     1      59.985  -3.636  -2.254  1.00  0.00    -0.285 N 
ATOM      8  H3  UNL     1      60.285  -4.309  -2.959  1.00  0.00     0.188 HD
ENDROOT
BRANCH   1   9
HETATM    9  C2  UNL     1      61.270  -4.568  -0.322  1.00  0.00     0.022 C 
HETATM   10  C1  UNL     1      61.081  -5.852  -0.469  1.00  0.00     0.013 C 
ENDBRANCH   1   9
TORSDOF 1
ENDMDL
MODEL 5
REMARK VINA RESULT: -4.277827377      1.063      1.748
REMARK  1 active torsions:
REMARK  status: ('A' for Active; 'I' for Inactive)
REMARK    1  A    between atoms: C2_2  and  C3_3 
ROOT
HETATM    1  C3  UNL     1      60.276  -3.541  -1.146  1.00  0.00     0.065 A 
HETATM    2  C4  UNL     1      59.806  -3.848  -2.400  1.00  0.00     0.139 A 
HETATM    3  N1  UNL     1      58.972  -2.869  -2.761  1.00  0.00    -0.295 N 
ATOM      4  H1  UNL     1      58.459  -2.807  -3.641  1.00  0.00     0.187 HD
HETATM    5  N2  UNL     1      58.932  -2.006  -1.782  1.00  0.00    -0.243 N 
ATOM      6  H2  UNL     1      58.373  -1.153  -1.786  1.00  0.00     0.208 HD
HETATM    7  N3  UNL     1      59.709  -2.380  -0.790  1.00  0.00    -0.285 N 
ATOM      8  H3  UNL     1      59.854  -1.881   0.088  1.00  0.00     0.188 HD
ENDROOT
BRANCH   1   9
HETATM    9  C2  UNL     1      61.222  -4.319  -0.334  1.00  0.00     0.022 C 
HETATM   10  C1  UNL     1      61.161  -5.624  -0.338  1.00  0.00     0.013 C 
ENDBRANCH   1   9
TORSDOF 1
ENDMDL
