MODEL 1
REMARK VINA RESULT: -3.904096371      0.000      0.000
REMARK  2 active torsions:
REMARK  status: ('A' for Active; 'I' for Inactive)
REMARK    1  A    between atoms: C3_3  and  O1_4 
REMARK    2  A    between atoms: O1_4  and  C4_5 
ROOT
HETATM    1  C4  UNL     1      58.791  -4.713  -2.929  1.00  0.00     0.347 A 
HETATM    2  C5  UNL     1      58.677  -3.372  -3.388  1.00  0.00     0.296 A 
HETATM    3  N1  UNL     1      57.435  -4.066  -2.929  1.00  0.00    -0.043 N 
ATOM      4  H11 UNL     1      56.692  -3.894  -2.252  1.00  0.00     0.280 HD
ATOM      5  H12 UNL     1      56.512  -4.270  -3.310  1.00  0.00     0.280 HD
ENDROOT
BRANCH   1   6
HETATM    6  O1  UNL     1      59.203  -5.105  -1.689  1.00  0.00    -0.352 OA
BRANCH   6   7
HETATM    7  C3  UNL     1      60.545  -5.360  -1.563  1.00  0.00     0.124 A 
HETATM    8  C1  UNL     1      61.194  -4.602  -0.385  1.00  0.00     0.034 A 
HETATM    9  C2  UNL     1      61.138  -6.094  -0.436  1.00  0.00     0.034 A 
ENDBRANCH   6   7
ENDBRANCH   1   6
TORSDOF 2
ENDMDL
MODEL 2
REMARK VINA RESULT: -3.791409938      1.085      1.343
REMARK  2 active torsions:
REMARK  status: ('A' for Active; 'I' for Inactive)
REMARK    1  A    between atoms: C3_3  and  O1_4 
REMARK    2  A    between atoms: O1_4  and  C4_5 
ROOT
HETATM    1  C4  UNL     1      58.780  -3.582  -2.229  1.00  0.00     0.347 A 
HETATM    2  C5  UNL     1      57.554  -3.536  -2.948  1.00  0.00     0.296 A 
HETATM    3  N1  UNL     1      58.799  -3.103  -3.653  1.00  0.00    -0.043 N 
ATOM      4  H11 UNL     1      59.290  -3.344  -4.513  1.00  0.00     0.280 HD
ATOM      5  H12 UNL     1      59.121  -2.277  -4.157  1.00  0.00     0.280 HD
ENDROOT
BRANCH   1   6
HETATM    6  O1  UNL     1      59.549  -4.690  -2.021  1.00  0.00    -0.352 OA
BRANCH   6   7
HETATM    7  C3  UNL     1      59.945  -4.903  -0.725  1.00  0.00     0.124 A 
HETATM    8  C1  UNL     1      61.019  -6.005  -0.597  1.00  0.00     0.034 A 
HETATM    9  C2  UNL     1      61.286  -4.585  -0.215  1.00  0.00     0.034 A 
ENDBRANCH   6   7
ENDBRANCH   1   6
TORSDOF 2
ENDMDL
MODEL 3
REMARK VINA RESULT: -3.757660793      2.191      2.631
REMARK  2 active torsions:
REMARK  status: ('A' for Active; 'I' for Inactive)
REMARK    1  A    between atoms: C3_3  and  O1_4 
REMARK    2  A    between atoms: O1_4  and  C4_5 
ROOT
HETATM    1  C4  UNL     1      60.085  -2.518  -0.487  1.00  0.00     0.347 A 
HETATM    2  C5  UNL     1      59.350  -1.536   0.234  1.00  0.00     0.296 A 
HETATM    3  N1  UNL     1      58.937  -1.832  -1.172  1.00  0.00    -0.043 N 
ATOM      4  H11 UNL     1      58.083  -2.110  -1.655  1.00  0.00     0.280 HD
ATOM      5  H12 UNL     1      58.790  -1.303  -2.032  1.00  0.00     0.280 HD
ENDROOT
BRANCH   1   6
HETATM    6  O1  UNL     1      59.928  -3.869  -0.392  1.00  0.00    -0.352 OA
BRANCH   6   7
HETATM    7  C3  UNL     1      60.903  -4.623  -0.994  1.00  0.00     0.124 A 
HETATM    8  C1  UNL     1      61.089  -6.006  -0.332  1.00  0.00     0.034 A 
HETATM    9  C2  UNL     1      60.637  -5.857  -1.748  1.00  0.00     0.034 A 
ENDBRANCH   6   7
ENDBRANCH   1   6
TORSDOF 2
ENDMDL
MODEL 4
REMARK VINA RESULT: -3.740335016      2.847      3.776
REMARK  2 active torsions:
REMARK  status: ('A' for Active; 'I' for Inactive)
REMARK    1  A    between atoms: C3_3  and  O1_4 
REMARK    2  A    between atoms: O1_4  and  C4_5 
ROOT
HETATM    1  C4  UNL     1      58.582  -6.017   1.389  1.00  0.00     0.347 A 
HETATM    2  C5  UNL     1      57.879  -6.980   2.165  1.00  0.00     0.296 A 
HETATM    3  N1  UNL     1      57.088  -5.903   1.496  1.00  0.00    -0.043 N 
ATOM      4  H11 UNL     1      56.297  -5.847   0.854  1.00  0.00     0.280 HD
ATOM      5  H12 UNL     1      56.412  -5.191   1.775  1.00  0.00     0.280 HD
ENDROOT
BRANCH   1   6
HETATM    6  O1  UNL     1      59.021  -6.182   0.108  1.00  0.00    -0.352 OA
BRANCH   6   7
HETATM    7  C3  UNL     1      60.382  -6.144  -0.062  1.00  0.00     0.124 A 
HETATM    8  C1  UNL     1      60.799  -5.908  -1.529  1.00  0.00     0.034 A 
HETATM    9  C2  UNL     1      61.126  -4.935  -0.443  1.00  0.00     0.034 A 
ENDBRANCH   6   7
ENDBRANCH   1   6
TORSDOF 2
ENDMDL
MODEL 5
REMARK VINA RESULT: -3.644566752      1.478      1.907
REMARK  2 active torsions:
REMARK  status: ('A' for Active; 'I' for Inactive)
REMARK    1  A    between atoms: C3_3  and  O1_4 
REMARK    2  A    between atoms: O1_4  and  C4_5 
ROOT
HETATM    1  C4  UNL     1      59.023  -3.584  -3.191  1.00  0.00     0.347 A 
HETATM    2  C5  UNL     1      57.690  -3.560  -2.694  1.00  0.00     0.296 A 
HETATM    3  N1  UNL     1      58.183  -4.823  -3.321  1.00  0.00    -0.043 N 
ATOM      4  H11 UNL     1      58.260  -5.806  -3.059  1.00  0.00     0.280 HD
ATOM      5  H12 UNL     1      57.887  -5.448  -4.071  1.00  0.00     0.280 HD
ENDROOT
BRANCH   1   6
HETATM    6  O1  UNL     1      60.153  -3.772  -2.451  1.00  0.00    -0.352 OA
BRANCH   6   7
HETATM    7  C3  UNL     1      60.103  -3.304  -1.162  1.00  0.00     0.124 A 
HETATM    8  C1  UNL     1      61.160  -3.954  -0.245  1.00  0.00     0.034 A 
HETATM    9  C2  UNL     1      61.159  -2.490  -0.544  1.00  0.00     0.034 A 
ENDBRANCH   6   7
ENDBRANCH   1   6
TORSDOF 2
ENDMDL
