MODEL 1
REMARK VINA RESULT: -7.473572365      0.000      0.000
REMARK  9 active torsions:
REMARK  status: ('A' for Active; 'I' for Inactive)
REMARK       I    between atoms: N2_5  and  C3_6 
REMARK       I    between atoms: C3_6  and  N3_8 
REMARK    1  A    between atoms: N3_8  and  C4_9 
REMARK    2  A    between atoms: N3_8  and  C6_11 
REMARK    3  A    between atoms: C9_15  and  C10_16 
REMARK    4  A    between atoms: C10_16  and  C11_17 
REMARK    5  A    between atoms: C13_19  and  O3_20 
REMARK    6  A    between atoms: C15_22  and  O4_23 
REMARK    7  A    between atoms: C16_25  and  O5_26 
REMARK    8  A    between atoms: C18_28  and  S1_29 
REMARK    9  A    between atoms: S1_29  and  N4_32 
ROOT
HETATM    1  C11 UNL     1      16.354 -14.437  20.340  1.00  0.00    -0.007 A 
HETATM    2  C12 UNL     1      16.753 -15.745  20.456  1.00  0.00     0.052 A 
HETATM    3  C13 UNL     1      15.804 -16.717  20.234  1.00  0.00     0.105 A 
HETATM    4  C15 UNL     1      14.508 -16.394  19.908  1.00  0.00     0.134 A 
HETATM    5  C16 UNL     1      14.113 -15.045  19.793  1.00  0.00     0.128 A 
HETATM    6  C18 UNL     1      15.040 -14.060  20.010  1.00  0.00     0.121 A 
ENDROOT
BRANCH   1   7
HETATM    7  C10 UNL     1      17.324 -13.375  20.572  1.00  0.00     0.032 C 
BRANCH   7   8
HETATM    8  C9  UNL     1      18.399 -13.538  21.345  1.00  0.00     0.062 A 
HETATM    9  C2  UNL     1      19.709 -13.370  20.986  1.00  0.00     0.055 A 
HETATM   10  C1  UNL     1      20.179 -13.017  19.803  1.00  0.00     0.045 C 
HETATM   11  N1  UNL     1      20.465 -13.637  22.086  1.00  0.00    -0.287 N 
HETATM   12  N2  UNL     1      19.718 -13.963  23.121  1.00  0.00    -0.167 N 
ATOM     13  H1  UNL     1      21.483 -13.591  22.107  1.00  0.00     0.188 HD
HETATM   14  C3  UNL     1      20.058 -14.311  24.459  1.00  0.00     0.346 C 
HETATM   15  C8  UNL     1      18.426 -13.904  22.668  1.00  0.00     0.283 A 
HETATM   16  O1  UNL     1      19.076 -14.596  25.262  1.00  0.00    -0.245 OA
HETATM   17  N3  UNL     1      21.318 -14.391  25.047  1.00  0.00    -0.333 N 
HETATM   18  O2  UNL     1      17.411 -14.157  23.387  1.00  0.00    -0.265 OA
BRANCH  17  19
HETATM   19  C4  UNL     1      21.339 -14.803  26.475  1.00  0.00     0.123 C 
HETATM   20  C5  UNL     1      21.059 -13.638  27.385  1.00  0.00     0.026 C 
ENDBRANCH  17  19
BRANCH  17  21
HETATM   21  C6  UNL     1      22.614 -14.129  24.492  1.00  0.00     0.123 C 
HETATM   22  C7  UNL     1      23.619 -15.039  25.161  1.00  0.00     0.026 C 
ENDBRANCH  17  21
ENDBRANCH   7   8
ENDBRANCH   1   7
BRANCH   6  23
HETATM   23  S1  UNL     1      14.682 -12.385  19.849  1.00  0.00     0.246 S 
HETATM   24  O6  UNL     1      13.999 -12.069  18.538  1.00  0.00    -0.206 OA
HETATM   25  O7  UNL     1      15.930 -11.574  19.860  1.00  0.00    -0.206 OA
BRANCH  23  26
HETATM   26  N4  UNL     1      13.674 -11.798  21.131  1.00  0.00    -0.215 NA
HETATM   27  C19 UNL     1      13.917 -12.532  22.361  1.00  0.00     0.129 C 
HETATM   28  C20 UNL     1      14.022 -10.413  21.386  1.00  0.00     0.129 C 
ENDBRANCH  23  26
ENDBRANCH   6  23
BRANCH   3  29
HETATM   29  O3  UNL     1      16.129 -18.075  20.332  1.00  0.00    -0.353 OA
HETATM   30  C14 UNL     1      16.944 -18.478  21.412  1.00  0.00     0.210 C 
ENDBRANCH   3  29
BRANCH   5  31
HETATM   31  O5  UNL     1      12.798 -14.765  19.462  1.00  0.00    -0.352 OA
HETATM   32  C17 UNL     1      11.718 -14.743  20.376  1.00  0.00     0.210 C 
ENDBRANCH   5  31
BRANCH   4  33
HETATM   33  O4  UNL     1      13.554 -17.375  19.685  1.00  0.00    -0.356 OA
ATOM     34  H4  UNL     1      13.531 -17.867  18.873  1.00  0.00     0.218 HD
ENDBRANCH   4  33
TORSDOF 9
ENDMDL
MODEL 2
REMARK VINA RESULT: -7.430132217      1.087      1.430
REMARK  9 active torsions:
REMARK  status: ('A' for Active; 'I' for Inactive)
REMARK       I    between atoms: N2_5  and  C3_6 
REMARK       I    between atoms: C3_6  and  N3_8 
REMARK    1  A    between atoms: N3_8  and  C4_9 
REMARK    2  A    between atoms: N3_8  and  C6_11 
REMARK    3  A    between atoms: C9_15  and  C10_16 
REMARK    4  A    between atoms: C10_16  and  C11_17 
REMARK    5  A    between atoms: C13_19  and  O3_20 
REMARK    6  A    between atoms: C15_22  and  O4_23 
REMARK    7  A    between atoms: C16_25  and  O5_26 
REMARK    8  A    between atoms: C18_28  and  S1_29 
REMARK    9  A    between atoms: S1_29  and  N4_32 
ROOT
HETATM    1  C11 UNL     1      16.683 -14.599  21.295  1.00  0.00    -0.007 A 
HETATM    2  C12 UNL     1      17.012 -15.929  21.384  1.00  0.00     0.052 A 
HETATM    3  C13 UNL     1      16.137 -16.834  20.828  1.00  0.00     0.105 A 
HETATM    4  C15 UNL     1      14.980 -16.427  20.208  1.00  0.00     0.134 A 
HETATM    5  C16 UNL     1      14.655 -15.056  20.126  1.00  0.00     0.128 A 
HETATM    6  C18 UNL     1      15.512 -14.137  20.671  1.00  0.00     0.121 A 
ENDROOT
BRANCH   1   7
HETATM    7  C10 UNL     1      17.578 -13.606  21.874  1.00  0.00     0.032 C 
BRANCH   7   8
HETATM    8  C9  UNL     1      18.785 -13.916  22.353  1.00  0.00     0.062 A 
HETATM    9  C2  UNL     1      19.991 -13.740  21.732  1.00  0.00     0.055 A 
HETATM   10  C1  UNL     1      20.211 -13.232  20.532  1.00  0.00     0.045 C 
HETATM   11  N1  UNL     1      20.951 -14.190  22.585  1.00  0.00    -0.287 N 
HETATM   12  N2  UNL     1      20.432 -14.640  23.708  1.00  0.00    -0.167 N 
ATOM     13  H1  UNL     1      21.950 -14.180  22.379  1.00  0.00     0.188 HD
HETATM   14  C3  UNL     1      21.035 -15.192  24.874  1.00  0.00     0.346 C 
HETATM   15  C8  UNL     1      19.078 -14.473  23.573  1.00  0.00     0.283 A 
HETATM   16  O1  UNL     1      20.238 -15.559  25.833  1.00  0.00    -0.245 OA
HETATM   17  N3  UNL     1      22.386 -15.399  25.143  1.00  0.00    -0.333 N 
HETATM   18  O2  UNL     1      18.232 -14.795  24.463  1.00  0.00    -0.265 OA
BRANCH  17  19
HETATM   19  C4  UNL     1      22.694 -16.017  26.460  1.00  0.00     0.123 C 
HETATM   20  C5  UNL     1      23.301 -17.383  26.294  1.00  0.00     0.026 C 
ENDBRANCH  17  19
BRANCH  17  21
HETATM   21  C6  UNL     1      23.541 -15.100  24.349  1.00  0.00     0.123 C 
HETATM   22  C7  UNL     1      24.059 -13.735  24.742  1.00  0.00     0.026 C 
ENDBRANCH  17  21
ENDBRANCH   7   8
ENDBRANCH   1   7
BRANCH   6  23
HETATM   23  S1  UNL     1      15.241 -12.439  20.586  1.00  0.00     0.246 S 
HETATM   24  O6  UNL     1      14.299 -12.065  19.465  1.00  0.00    -0.206 OA
HETATM   25  O7  UNL     1      16.510 -11.715  20.306  1.00  0.00    -0.206 OA
BRANCH  23  26
HETATM   26  N4  UNL     1      14.596 -11.798  22.061  1.00  0.00    -0.215 NA
HETATM   27  C19 UNL     1      13.966 -10.507  21.836  1.00  0.00     0.129 C 
HETATM   28  C20 UNL     1      13.562 -12.698  22.536  1.00  0.00     0.129 C 
ENDBRANCH  23  26
ENDBRANCH   6  23
BRANCH   3  29
HETATM   29  O3  UNL     1      16.398 -18.208  20.875  1.00  0.00    -0.353 OA
HETATM   30  C14 UNL     1      17.436 -18.650  21.724  1.00  0.00     0.210 C 
ENDBRANCH   3  29
BRANCH   5  31
HETATM   31  O5  UNL     1      13.480 -14.690  19.491  1.00  0.00    -0.352 OA
HETATM   32  C17 UNL     1      12.187 -14.798  20.054  1.00  0.00     0.210 C 
ENDBRANCH   5  31
BRANCH   4  33
HETATM   33  O4  UNL     1      14.099 -17.340  19.648  1.00  0.00    -0.356 OA
ATOM     34  H4  UNL     1      13.730 -18.050  20.161  1.00  0.00     0.218 HD
ENDBRANCH   4  33
TORSDOF 9
ENDMDL
MODEL 3
REMARK VINA RESULT: -7.245065416      4.355      6.922
REMARK  9 active torsions:
REMARK  status: ('A' for Active; 'I' for Inactive)
REMARK       I    between atoms: N2_5  and  C3_6 
REMARK       I    between atoms: C3_6  and  N3_8 
REMARK    1  A    between atoms: N3_8  and  C4_9 
REMARK    2  A    between atoms: N3_8  and  C6_11 
REMARK    3  A    between atoms: C9_15  and  C10_16 
REMARK    4  A    between atoms: C10_16  and  C11_17 
REMARK    5  A    between atoms: C13_19  and  O3_20 
REMARK    6  A    between atoms: C15_22  and  O4_23 
REMARK    7  A    between atoms: C16_25  and  O5_26 
REMARK    8  A    between atoms: C18_28  and  S1_29 
REMARK    9  A    between atoms: S1_29  and  N4_32 
ROOT
HETATM    1  C11 UNL     1      12.564 -13.718  20.692  1.00  0.00    -0.007 A 
HETATM    2  C12 UNL     1      11.671 -13.742  21.734  1.00  0.00     0.052 A 
HETATM    3  C13 UNL     1      11.375 -12.541  22.339  1.00  0.00     0.105 A 
HETATM    4  C15 UNL     1      11.949 -11.365  21.919  1.00  0.00     0.134 A 
HETATM    5  C16 UNL     1      12.866 -11.357  20.847  1.00  0.00     0.128 A 
HETATM    6  C18 UNL     1      13.175 -12.540  20.229  1.00  0.00     0.121 A 
ENDROOT
BRANCH   1   7
HETATM    7  C10 UNL     1      12.910 -14.967  20.026  1.00  0.00     0.032 C 
BRANCH   7   8
HETATM    8  C9  UNL     1      12.901 -16.145  20.653  1.00  0.00     0.062 A 
HETATM    9  C2  UNL     1      11.985 -17.151  20.508  1.00  0.00     0.055 A 
HETATM   10  C1  UNL     1      10.922 -17.164  19.723  1.00  0.00     0.045 C 
HETATM   11  N1  UNL     1      12.367 -18.164  21.333  1.00  0.00    -0.287 N 
HETATM   12  N2  UNL     1      13.467 -17.864  21.992  1.00  0.00    -0.167 N 
ATOM     13  H1  UNL     1      11.864 -19.045  21.430  1.00  0.00     0.188 HD
HETATM   14  C3  UNL     1      14.229 -18.601  22.944  1.00  0.00     0.346 C 
HETATM   15  C8  UNL     1      13.808 -16.604  21.574  1.00  0.00     0.283 A 
HETATM   16  O1  UNL     1      15.283 -18.020  23.433  1.00  0.00    -0.245 OA
HETATM   17  N3  UNL     1      14.003 -19.883  23.438  1.00  0.00    -0.333 N 
HETATM   18  O2  UNL     1      14.825 -15.970  21.993  1.00  0.00    -0.265 OA
BRANCH  17  19
HETATM   19  C4  UNL     1      14.982 -20.368  24.447  1.00  0.00     0.123 C 
HETATM   20  C5  UNL     1      14.383 -20.384  25.827  1.00  0.00     0.026 C 
ENDBRANCH  17  19
BRANCH  17  21
HETATM   21  C6  UNL     1      12.971 -20.826  23.120  1.00  0.00     0.123 C 
HETATM   22  C7  UNL     1      13.420 -21.654  21.937  1.00  0.00     0.026 C 
ENDBRANCH  17  21
ENDBRANCH   7   8
ENDBRANCH   1   7
BRANCH   6  23
HETATM   23  S1  UNL     1      14.241 -12.642  18.882  1.00  0.00     0.246 S 
HETATM   24  O6  UNL     1      13.799 -11.764  17.734  1.00  0.00    -0.206 OA
HETATM   25  O7  UNL     1      14.277 -14.027  18.340  1.00  0.00    -0.206 OA
BRANCH  23  26
HETATM   26  N4  UNL     1      15.868 -12.206  19.291  1.00  0.00    -0.215 NA
HETATM   27  C19 UNL     1      16.239 -12.740  20.591  1.00  0.00     0.129 C 
HETATM   28  C20 UNL     1      16.759 -12.803  18.315  1.00  0.00     0.129 C 
ENDBRANCH  23  26
ENDBRANCH   6  23
BRANCH   3  29
HETATM   29  O3  UNL     1      10.475 -12.477  23.408  1.00  0.00    -0.353 OA
HETATM   30  C14 UNL     1      11.008 -12.460  24.716  1.00  0.00     0.210 C 
ENDBRANCH   3  29
BRANCH   5  31
HETATM   31  O5  UNL     1      13.419 -10.150  20.455  1.00  0.00    -0.352 OA
HETATM   32  C17 UNL     1      14.441  -9.462  21.152  1.00  0.00     0.210 C 
ENDBRANCH   5  31
BRANCH   4  33
HETATM   33  O4  UNL     1      11.650 -10.156  22.530  1.00  0.00    -0.356 OA
ATOM     34  H4  UNL     1      12.247  -9.419  22.487  1.00  0.00     0.218 HD
ENDBRANCH   4  33
TORSDOF 9
ENDMDL
MODEL 4
REMARK VINA RESULT: -7.219915348      2.242      3.903
REMARK  9 active torsions:
REMARK  status: ('A' for Active; 'I' for Inactive)
REMARK       I    between atoms: N2_5  and  C3_6 
REMARK       I    between atoms: C3_6  and  N3_8 
REMARK    1  A    between atoms: N3_8  and  C4_9 
REMARK    2  A    between atoms: N3_8  and  C6_11 
REMARK    3  A    between atoms: C9_15  and  C10_16 
REMARK    4  A    between atoms: C10_16  and  C11_17 
REMARK    5  A    between atoms: C13_19  and  O3_20 
REMARK    6  A    between atoms: C15_22  and  O4_23 
REMARK    7  A    between atoms: C16_25  and  O5_26 
REMARK    8  A    between atoms: C18_28  and  S1_29 
REMARK    9  A    between atoms: S1_29  and  N4_32 
ROOT
HETATM    1  C11 UNL     1      15.356 -14.329  20.936  1.00  0.00    -0.007 A 
HETATM    2  C12 UNL     1      15.022 -13.346  21.834  1.00  0.00     0.052 A 
HETATM    3  C13 UNL     1      13.685 -13.180  22.119  1.00  0.00     0.105 A 
HETATM    4  C15 UNL     1      12.722 -13.965  21.531  1.00  0.00     0.134 A 
HETATM    5  C16 UNL     1      13.082 -14.971  20.609  1.00  0.00     0.128 A 
HETATM    6  C18 UNL     1      14.406 -15.156  20.311  1.00  0.00     0.121 A 
ENDROOT
BRANCH   1   7
HETATM    7  C10 UNL     1      16.759 -14.537  20.601  1.00  0.00     0.032 C 
BRANCH   7   8
HETATM    8  C9  UNL     1      17.732 -14.492  21.514  1.00  0.00     0.062 A 
HETATM    9  C2  UNL     1      18.594 -13.456  21.752  1.00  0.00     0.055 A 
HETATM   10  C1  UNL     1      18.644 -12.292  21.127  1.00  0.00     0.045 C 
HETATM   11  N1  UNL     1      19.413 -13.841  22.768  1.00  0.00    -0.287 N 
HETATM   12  N2  UNL     1      19.125 -15.054  23.191  1.00  0.00    -0.167 N 
ATOM     13  H1  UNL     1      20.157 -13.261  23.155  1.00  0.00     0.188 HD
HETATM   14  C3  UNL     1      19.697 -15.857  24.219  1.00  0.00     0.346 C 
HETATM   15  C8  UNL     1      18.076 -15.469  22.413  1.00  0.00     0.283 A 
HETATM   16  O1  UNL     1      19.189 -17.040  24.395  1.00  0.00    -0.245 OA
HETATM   17  N3  UNL     1      20.744 -15.551  25.084  1.00  0.00    -0.333 N 
HETATM   18  O2  UNL     1      17.516 -16.603  22.525  1.00  0.00    -0.265 OA
BRANCH  17  19
HETATM   19  C4  UNL     1      21.121 -16.621  26.045  1.00  0.00     0.123 C 
HETATM   20  C5  UNL     1      22.587 -16.947  25.954  1.00  0.00     0.026 C 
ENDBRANCH  17  19
BRANCH  17  21
HETATM   21  C6  UNL     1      21.522 -14.353  25.205  1.00  0.00     0.123 C 
HETATM   22  C7  UNL     1      20.989 -13.545  26.366  1.00  0.00     0.026 C 
ENDBRANCH  17  21
ENDBRANCH   7   8
ENDBRANCH   1   7
BRANCH   6  23
HETATM   23  S1  UNL     1      14.963 -16.383  19.241  1.00  0.00     0.246 S 
HETATM   24  O6  UNL     1      15.924 -15.847  18.205  1.00  0.00    -0.206 OA
HETATM   25  O7  UNL     1      13.830 -16.970  18.475  1.00  0.00    -0.206 OA
BRANCH  23  26
HETATM   26  N4  UNL     1      15.749 -17.682  20.076  1.00  0.00    -0.215 NA
HETATM   27  C19 UNL     1      14.837 -18.334  21.001  1.00  0.00     0.129 C 
HETATM   28  C20 UNL     1      16.147 -18.677  19.099  1.00  0.00     0.129 C 
ENDBRANCH  23  26
ENDBRANCH   6  23
BRANCH   3  29
HETATM   29  O3  UNL     1      13.259 -12.201  23.023  1.00  0.00    -0.353 OA
HETATM   30  C14 UNL     1      13.383 -10.849  22.632  1.00  0.00     0.210 C 
ENDBRANCH   3  29
BRANCH   5  31
HETATM   31  O5  UNL     1      12.080 -15.740  20.042  1.00  0.00    -0.352 OA
HETATM   32  C17 UNL     1      11.486 -16.873  20.647  1.00  0.00     0.210 C 
ENDBRANCH   5  31
BRANCH   4  33
HETATM   33  O4  UNL     1      11.376 -13.796  21.819  1.00  0.00    -0.356 OA
ATOM     34  H4  UNL     1      10.851 -14.508  22.164  1.00  0.00     0.218 HD
ENDBRANCH   4  33
TORSDOF 9
ENDMDL
MODEL 5
REMARK VINA RESULT: -7.174354623      3.212      4.165
REMARK  9 active torsions:
REMARK  status: ('A' for Active; 'I' for Inactive)
REMARK       I    between atoms: N2_5  and  C3_6 
REMARK       I    between atoms: C3_6  and  N3_8 
REMARK    1  A    between atoms: N3_8  and  C4_9 
REMARK    2  A    between atoms: N3_8  and  C6_11 
REMARK    3  A    between atoms: C9_15  and  C10_16 
REMARK    4  A    between atoms: C10_16  and  C11_17 
REMARK    5  A    between atoms: C13_19  and  O3_20 
REMARK    6  A    between atoms: C15_22  and  O4_23 
REMARK    7  A    between atoms: C16_25  and  O5_26 
REMARK    8  A    between atoms: C18_28  and  S1_29 
REMARK    9  A    between atoms: S1_29  and  N4_32 
ROOT
HETATM    1  C11 UNL     1      15.539 -14.643  18.493  1.00  0.00    -0.007 A 
HETATM    2  C12 UNL     1      15.002 -15.871  18.792  1.00  0.00     0.052 A 
HETATM    3  C13 UNL     1      14.918 -16.789  17.769  1.00  0.00     0.105 A 
HETATM    4  C15 UNL     1      15.353 -16.491  16.500  1.00  0.00     0.134 A 
HETATM    5  C16 UNL     1      15.901 -15.224  16.208  1.00  0.00     0.128 A 
HETATM    6  C18 UNL     1      15.996 -14.295  17.210  1.00  0.00     0.121 A 
ENDROOT
BRANCH   1   7
HETATM    7  C10 UNL     1      15.643 -13.639  19.544  1.00  0.00     0.032 C 
BRANCH   7   8
HETATM    8  C9  UNL     1      16.194 -13.894  20.732  1.00  0.00     0.062 A 
HETATM    9  C2  UNL     1      15.564 -14.359  21.854  1.00  0.00     0.055 A 
HETATM   10  C1  UNL     1      14.282 -14.648  21.993  1.00  0.00     0.045 C 
HETATM   11  N1  UNL     1      16.508 -14.476  22.826  1.00  0.00    -0.287 N 
HETATM   12  N2  UNL     1      17.698 -14.116  22.393  1.00  0.00    -0.167 N 
ATOM     13  H1  UNL     1      16.318 -14.803  23.773  1.00  0.00     0.188 HD
HETATM   14  C3  UNL     1      18.967 -14.078  23.039  1.00  0.00     0.346 C 
HETATM   15  C8  UNL     1      17.513 -13.750  21.086  1.00  0.00     0.283 A 
HETATM   16  O1  UNL     1      19.975 -13.658  22.335  1.00  0.00    -0.245 OA
HETATM   17  N3  UNL     1      19.292 -14.434  24.346  1.00  0.00    -0.333 N 
HETATM   18  O2  UNL     1      18.443 -13.339  20.326  1.00  0.00    -0.265 OA
BRANCH  17  19
HETATM   19  C4  UNL     1      20.719 -14.260  24.725  1.00  0.00     0.123 C 
HETATM   20  C5  UNL     1      20.851 -13.587  26.064  1.00  0.00     0.026 C 
ENDBRANCH  17  19
BRANCH  17  21
HETATM   21  C6  UNL     1      18.465 -14.956  25.394  1.00  0.00     0.123 C 
HETATM   22  C7  UNL     1      18.426 -16.462  25.275  1.00  0.00     0.026 C 
ENDBRANCH  17  21
ENDBRANCH   7   8
ENDBRANCH   1   7
BRANCH   6  23
HETATM   23  S1  UNL     1      16.692 -12.738  16.980  1.00  0.00     0.246 S 
HETATM   24  O6  UNL     1      18.202 -12.784  16.955  1.00  0.00    -0.206 OA
HETATM   25  O7  UNL     1      16.334 -11.828  18.102  1.00  0.00    -0.206 OA
BRANCH  23  26
HETATM   26  N4  UNL     1      16.157 -11.984  15.514  1.00  0.00    -0.215 NA
HETATM   27  C19 UNL     1      14.735 -11.686  15.571  1.00  0.00     0.129 C 
HETATM   28  C20 UNL     1      16.851 -10.719  15.373  1.00  0.00     0.129 C 
ENDBRANCH  23  26
ENDBRANCH   6  23
BRANCH   3  29
HETATM   29  O3  UNL     1      14.384 -18.063  17.989  1.00  0.00    -0.353 OA
HETATM   30  C14 UNL     1      13.040 -18.147  18.417  1.00  0.00     0.210 C 
ENDBRANCH   3  29
BRANCH   5  31
HETATM   31  O5  UNL     1      16.329 -14.968  14.916  1.00  0.00    -0.352 OA
HETATM   32  C17 UNL     1      17.629 -15.232  14.425  1.00  0.00     0.210 C 
ENDBRANCH   5  31
BRANCH   4  33
HETATM   33  O4  UNL     1      15.267 -17.417  15.471  1.00  0.00    -0.356 OA
ATOM     34  H4  UNL     1      16.012 -17.952  15.223  1.00  0.00     0.218 HD
ENDBRANCH   4  33
TORSDOF 9
ENDMDL
