MODEL 1
REMARK VINA RESULT: -7.735631189      0.000      0.000
REMARK  12 active torsions:
REMARK  status: ('A' for Active; 'I' for Inactive)
REMARK    1  A    between atoms: O1_2  and  C2_3 
REMARK    2  A    between atoms: C2_3  and  C3_5 
REMARK    3  A    between atoms: C3_5  and  O4_7 
REMARK    4  A    between atoms: O4_7  and  C4_8 
REMARK    5  A    between atoms: C4_8  and  C5_9 
REMARK    6  A    between atoms: C4_8  and  C10_16 
REMARK    7  A    between atoms: C5_9  and  O6_11 
REMARK    8  A    between atoms: O6_11  and  C6_12 
REMARK    9  A    between atoms: C19_27  and  S1_28 
REMARK   10  A    between atoms: S1_28  and  C20_30 
REMARK   11  A    between atoms: C20_30  and  C21_31 
REMARK   12  A    between atoms: C21_31  and  C22_32 
ROOT
HETATM    1  C10 UNL     1      14.855 -14.417  21.541  1.00  0.00     0.021 A 
HETATM    2  C11 UNL     1      14.211 -15.543  21.285  1.00  0.00     0.003 A 
HETATM    3  C12 UNL     1      13.000 -15.791  20.629  1.00  0.00     0.021 A 
HETATM    4  C13 UNL     1      12.496 -17.054  20.464  1.00  0.00    -0.061 A 
HETATM    5  C14 UNL     1      11.203 -17.238  19.755  1.00  0.00     0.048 C 
HETATM    6  C15 UNL     1      13.227 -18.117  20.973  1.00  0.00     0.009 A 
HETATM    7  C16 UNL     1      14.424 -17.903  21.624  1.00  0.00     0.031 A 
HETATM    8  C17 UNL     1      14.913 -16.622  21.779  1.00  0.00     0.043 A 
HETATM    9  N1  UNL     1      16.002 -16.239  22.353  1.00  0.00    -0.355 N 
ATOM     10  H1  UNL     1      16.694 -16.841  22.797  1.00  0.00     0.166 HD
HETATM   11  C18 UNL     1      16.060 -14.826  22.255  1.00  0.00     0.051 A 
HETATM   12  C19 UNL     1      16.989 -14.039  22.703  1.00  0.00     0.108 C 
ENDROOT
BRANCH   1  13
HETATM   13  C4  UNL     1      14.397 -13.079  21.158  1.00  0.00     0.268 C 
BRANCH  13  14
HETATM   14  O4  UNL     1      14.089 -12.263  22.274  1.00  0.00    -0.293 OA
BRANCH  14  15
HETATM   15  C3  UNL     1      12.859 -12.171  22.873  1.00  0.00     0.360 C 
HETATM   16  O3  UNL     1      12.344 -13.201  23.336  1.00  0.00    -0.253 OA
BRANCH  15  17
HETATM   17  C2  UNL     1      12.192 -10.897  22.956  1.00  0.00     0.358 C 
HETATM   18  O2  UNL     1      11.353 -10.541  22.060  1.00  0.00    -0.253 OA
BRANCH  17  19
HETATM   19  O1  UNL     1      12.459 -10.047  24.019  1.00  0.00    -0.318 OA
HETATM   20  C1  UNL     1      11.444  -9.893  25.011  1.00  0.00     0.213 C 
ENDBRANCH  17  19
ENDBRANCH  15  17
ENDBRANCH  14  15
ENDBRANCH  13  14
BRANCH  13  21
HETATM   21  C5  UNL     1      15.347 -12.360  20.281  1.00  0.00     0.294 C 
HETATM   22  O5  UNL     1      15.459 -11.118  20.408  1.00  0.00    -0.262 OA
BRANCH  21  23
HETATM   23  O6  UNL     1      16.132 -12.975  19.318  1.00  0.00    -0.309 OA
BRANCH  23  24
HETATM   24  C6  UNL     1      15.667 -13.395  18.056  1.00  0.00     0.060 C 
HETATM   25  C7  UNL     1      16.686 -12.860  17.040  1.00  0.00     0.045 C 
HETATM   26  C8  UNL     1      15.644 -14.880  17.897  1.00  0.00     0.045 C 
HETATM   27  C9  UNL     1      14.338 -12.828  17.688  1.00  0.00     0.045 C 
ENDBRANCH  23  24
ENDBRANCH  21  23
ENDBRANCH  13  21
ENDBRANCH   1  13
BRANCH  12  28
HETATM   28  S1  UNL     1      18.373 -14.661  23.537  1.00  0.00     0.041 S 
HETATM   29  O7  UNL     1      18.046 -14.934  25.113  1.00  0.00    -0.253 OA
BRANCH  28  30
HETATM   30  C20 UNL     1      19.865 -13.836  23.254  1.00  0.00     0.122 C 
BRANCH  30  31
HETATM   31  C21 UNL     1      20.612 -14.190  21.999  1.00  0.00     0.112 C 
BRANCH  31  32
HETATM   32  C22 UNL     1      20.553 -13.187  20.959  1.00  0.00     0.232 C 
HETATM   33  N2  UNL     1      19.309 -12.948  20.296  1.00  0.00    -0.062 NA
HETATM   34  O8  UNL     1      21.529 -12.510  20.594  1.00  0.00    -0.277 OA
ENDBRANCH  31  32
ENDBRANCH  30  31
ENDBRANCH  28  30
ENDBRANCH  12  28
TORSDOF 12
ENDMDL
MODEL 2
REMARK VINA RESULT: -7.494836278      2.651      6.398
REMARK  12 active torsions:
REMARK  status: ('A' for Active; 'I' for Inactive)
REMARK    1  A    between atoms: O1_2  and  C2_3 
REMARK    2  A    between atoms: C2_3  and  C3_5 
REMARK    3  A    between atoms: C3_5  and  O4_7 
REMARK    4  A    between atoms: O4_7  and  C4_8 
REMARK    5  A    between atoms: C4_8  and  C5_9 
REMARK    6  A    between atoms: C4_8  and  C10_16 
REMARK    7  A    between atoms: C5_9  and  O6_11 
REMARK    8  A    between atoms: O6_11  and  C6_12 
REMARK    9  A    between atoms: C19_27  and  S1_28 
REMARK   10  A    between atoms: S1_28  and  C20_30 
REMARK   11  A    between atoms: C20_30  and  C21_31 
REMARK   12  A    between atoms: C21_31  and  C22_32 
ROOT
HETATM    1  C10 UNL     1      16.002 -13.948  20.648  1.00  0.00     0.021 A 
HETATM    2  C11 UNL     1      15.677 -15.180  20.999  1.00  0.00     0.003 A 
HETATM    3  C12 UNL     1      16.392 -16.383  20.932  1.00  0.00     0.021 A 
HETATM    4  C13 UNL     1      15.867 -17.575  21.354  1.00  0.00    -0.061 A 
HETATM    5  C14 UNL     1      16.687 -18.811  21.252  1.00  0.00     0.048 C 
HETATM    6  C15 UNL     1      14.578 -17.574  21.866  1.00  0.00     0.009 A 
HETATM    7  C16 UNL     1      13.851 -16.405  21.945  1.00  0.00     0.031 A 
HETATM    8  C17 UNL     1      14.399 -15.215  21.513  1.00  0.00     0.043 A 
HETATM    9  N1  UNL     1      13.871 -14.038  21.511  1.00  0.00    -0.355 N 
ATOM     10  H1  UNL     1      12.937 -13.796  21.839  1.00  0.00     0.166 HD
HETATM   11  C18 UNL     1      14.828 -13.143  20.970  1.00  0.00     0.051 A 
HETATM   12  C19 UNL     1      14.703 -11.865  20.789  1.00  0.00     0.108 C 
ENDROOT
BRANCH   1  13
HETATM   13  C4  UNL     1      17.286 -13.547  20.068  1.00  0.00     0.268 C 
BRANCH  13  14
HETATM   14  O4  UNL     1      17.155 -12.527  19.094  1.00  0.00    -0.293 OA
BRANCH  14  15
HETATM   15  C3  UNL     1      16.934 -12.733  17.757  1.00  0.00     0.360 C 
HETATM   16  O3  UNL     1      17.907 -12.742  16.987  1.00  0.00    -0.253 OA
BRANCH  15  17
HETATM   17  C2  UNL     1      15.592 -12.933  17.271  1.00  0.00     0.358 C 
HETATM   18  O2  UNL     1      15.075 -14.102  17.249  1.00  0.00    -0.253 OA
BRANCH  17  19
HETATM   19  O1  UNL     1      14.853 -11.849  16.822  1.00  0.00    -0.318 OA
HETATM   20  C1  UNL     1      14.962 -11.503  15.442  1.00  0.00     0.213 C 
ENDBRANCH  17  19
ENDBRANCH  15  17
ENDBRANCH  14  15
ENDBRANCH  13  14
BRANCH  13  21
HETATM   21  C5  UNL     1      18.283 -13.126  21.077  1.00  0.00     0.294 C 
HETATM   22  O5  UNL     1      19.293 -12.491  20.695  1.00  0.00    -0.262 OA
BRANCH  21  23
HETATM   23  O6  UNL     1      18.173 -13.389  22.434  1.00  0.00    -0.309 OA
BRANCH  23  24
HETATM   24  C6  UNL     1      18.852 -14.426  23.105  1.00  0.00     0.060 C 
HETATM   25  C7  UNL     1      19.949 -13.738  23.929  1.00  0.00     0.045 C 
HETATM   26  C8  UNL     1      17.990 -15.168  24.074  1.00  0.00     0.045 C 
HETATM   27  C9  UNL     1      19.527 -15.391  22.191  1.00  0.00     0.045 C 
ENDBRANCH  23  24
ENDBRANCH  21  23
ENDBRANCH  13  21
ENDBRANCH   1  13
BRANCH  12  28
HETATM   28  S1  UNL     1      13.247 -11.032  21.217  1.00  0.00     0.041 S 
HETATM   29  O7  UNL     1      12.987  -9.746  20.244  1.00  0.00    -0.253 OA
BRANCH  28  30
HETATM   30  C20 UNL     1      13.024 -10.705  22.900  1.00  0.00     0.122 C 
BRANCH  30  31
HETATM   31  C21 UNL     1      11.662 -10.978  23.473  1.00  0.00     0.112 C 
BRANCH  31  32
HETATM   32  C22 UNL     1      11.479 -10.527  24.835  1.00  0.00     0.232 C 
HETATM   33  N2  UNL     1      11.688  -9.146  25.140  1.00  0.00    -0.062 NA
HETATM   34  O8  UNL     1      11.152 -11.273  25.772  1.00  0.00    -0.277 OA
ENDBRANCH  31  32
ENDBRANCH  30  31
ENDBRANCH  28  30
ENDBRANCH  12  28
TORSDOF 12
ENDMDL
MODEL 3
REMARK VINA RESULT: -7.490059316      2.968      5.531
REMARK  12 active torsions:
REMARK  status: ('A' for Active; 'I' for Inactive)
REMARK    1  A    between atoms: O1_2  and  C2_3 
REMARK    2  A    between atoms: C2_3  and  C3_5 
REMARK    3  A    between atoms: C3_5  and  O4_7 
REMARK    4  A    between atoms: O4_7  and  C4_8 
REMARK    5  A    between atoms: C4_8  and  C5_9 
REMARK    6  A    between atoms: C4_8  and  C10_16 
REMARK    7  A    between atoms: C5_9  and  O6_11 
REMARK    8  A    between atoms: O6_11  and  C6_12 
REMARK    9  A    between atoms: C19_27  and  S1_28 
REMARK   10  A    between atoms: S1_28  and  C20_30 
REMARK   11  A    between atoms: C20_30  and  C21_31 
REMARK   12  A    between atoms: C21_31  and  C22_32 
ROOT
HETATM    1  C10 UNL     1      15.038 -13.258  19.933  1.00  0.00     0.021 A 
HETATM    2  C11 UNL     1      16.139 -13.454  20.637  1.00  0.00     0.003 A 
HETATM    3  C12 UNL     1      16.334 -13.887  21.954  1.00  0.00     0.021 A 
HETATM    4  C13 UNL     1      17.579 -14.027  22.507  1.00  0.00    -0.061 A 
HETATM    5  C14 UNL     1      17.706 -14.492  23.913  1.00  0.00     0.048 C 
HETATM    6  C15 UNL     1      18.680 -13.726  21.717  1.00  0.00     0.009 A 
HETATM    7  C16 UNL     1      18.518 -13.299  20.416  1.00  0.00     0.031 A 
HETATM    8  C17 UNL     1      17.254 -13.164  19.879  1.00  0.00     0.043 A 
HETATM    9  N1  UNL     1      16.917 -12.782  18.695  1.00  0.00    -0.355 N 
ATOM     10  H1  UNL     1      17.553 -12.510  17.946  1.00  0.00     0.166 HD
HETATM   11  C18 UNL     1      15.502 -12.807  18.625  1.00  0.00     0.051 A 
HETATM   12  C19 UNL     1      14.754 -12.495  17.612  1.00  0.00     0.108 C 
ENDROOT
BRANCH   1  13
HETATM   13  C4  UNL     1      13.674 -13.471  20.425  1.00  0.00     0.268 C 
BRANCH  13  14
HETATM   14  O4  UNL     1      12.815 -12.379  20.151  1.00  0.00    -0.293 OA
BRANCH  14  15
HETATM   15  C3  UNL     1      12.887 -11.146  20.745  1.00  0.00     0.360 C 
HETATM   16  O3  UNL     1      13.252 -10.176  20.060  1.00  0.00    -0.253 OA
BRANCH  15  17
HETATM   17  C2  UNL     1      12.543 -10.994  22.135  1.00  0.00     0.358 C 
HETATM   18  O2  UNL     1      13.452 -10.977  23.034  1.00  0.00    -0.253 OA
BRANCH  17  19
HETATM   19  O1  UNL     1      11.212 -10.863  22.505  1.00  0.00    -0.318 OA
HETATM   20  C1  UNL     1      10.889 -11.060  23.882  1.00  0.00     0.213 C 
ENDBRANCH  17  19
ENDBRANCH  15  17
ENDBRANCH  14  15
ENDBRANCH  13  14
BRANCH  13  21
HETATM   21  C5  UNL     1      13.053 -14.715  19.918  1.00  0.00     0.294 C 
HETATM   22  O5  UNL     1      11.804 -14.811  19.936  1.00  0.00    -0.262 OA
BRANCH  21  23
HETATM   23  O6  UNL     1      13.767 -15.792  19.418  1.00  0.00    -0.309 OA
BRANCH  23  24
HETATM   24  C6  UNL     1      14.265 -16.854  20.200  1.00  0.00     0.060 C 
HETATM   25  C7  UNL     1      13.574 -18.118  19.669  1.00  0.00     0.045 C 
HETATM   26  C8  UNL     1      15.735 -17.069  20.039  1.00  0.00     0.045 C 
HETATM   27  C9  UNL     1      13.928 -16.741  21.648  1.00  0.00     0.045 C 
ENDBRANCH  23  24
ENDBRANCH  21  23
ENDBRANCH  13  21
ENDBRANCH   1  13
BRANCH  12  28
HETATM   28  S1  UNL     1      15.440 -11.972  16.112  1.00  0.00     0.041 S 
HETATM   29  O7  UNL     1      14.597 -10.727  15.473  1.00  0.00    -0.253 OA
BRANCH  28  30
HETATM   30  C20 UNL     1      15.833 -13.217  14.980  1.00  0.00     0.122 C 
BRANCH  30  31
HETATM   31  C21 UNL     1      17.035 -14.065  15.290  1.00  0.00     0.112 C 
BRANCH  31  32
HETATM   32  C22 UNL     1      16.740 -15.457  15.548  1.00  0.00     0.232 C 
HETATM   33  N2  UNL     1      15.664 -15.785  16.430  1.00  0.00    -0.062 NA
HETATM   34  O8  UNL     1      17.374 -16.402  15.051  1.00  0.00    -0.277 OA
ENDBRANCH  31  32
ENDBRANCH  30  31
ENDBRANCH  28  30
ENDBRANCH  12  28
TORSDOF 12
ENDMDL
MODEL 4
REMARK VINA RESULT: -7.483727074      1.362      1.530
REMARK  12 active torsions:
REMARK  status: ('A' for Active; 'I' for Inactive)
REMARK    1  A    between atoms: O1_2  and  C2_3 
REMARK    2  A    between atoms: C2_3  and  C3_5 
REMARK    3  A    between atoms: C3_5  and  O4_7 
REMARK    4  A    between atoms: O4_7  and  C4_8 
REMARK    5  A    between atoms: C4_8  and  C5_9 
REMARK    6  A    between atoms: C4_8  and  C10_16 
REMARK    7  A    between atoms: C5_9  and  O6_11 
REMARK    8  A    between atoms: O6_11  and  C6_12 
REMARK    9  A    between atoms: C19_27  and  S1_28 
REMARK   10  A    between atoms: S1_28  and  C20_30 
REMARK   11  A    between atoms: C20_30  and  C21_31 
REMARK   12  A    between atoms: C21_31  and  C22_32 
ROOT
HETATM    1  C10 UNL     1      14.860 -14.422  21.505  1.00  0.00     0.021 A 
HETATM    2  C11 UNL     1      14.195 -15.535  21.249  1.00  0.00     0.003 A 
HETATM    3  C12 UNL     1      12.964 -15.755  20.619  1.00  0.00     0.021 A 
HETATM    4  C13 UNL     1      12.437 -17.008  20.449  1.00  0.00    -0.061 A 
HETATM    5  C14 UNL     1      11.124 -17.163  19.769  1.00  0.00     0.048 C 
HETATM    6  C15 UNL     1      13.165 -18.090  20.923  1.00  0.00     0.009 A 
HETATM    7  C16 UNL     1      14.381 -17.902  21.547  1.00  0.00     0.031 A 
HETATM    8  C17 UNL     1      14.892 -16.631  21.709  1.00  0.00     0.043 A 
HETATM    9  N1  UNL     1      16.000 -16.272  22.261  1.00  0.00    -0.355 N 
ATOM     10  H1  UNL     1      16.694 -16.891  22.679  1.00  0.00     0.166 HD
HETATM   11  C18 UNL     1      16.077 -14.859  22.182  1.00  0.00     0.051 A 
HETATM   12  C19 UNL     1      17.028 -14.092  22.618  1.00  0.00     0.108 C 
ENDROOT
BRANCH   1  13
HETATM   13  C4  UNL     1      14.413 -13.072  21.153  1.00  0.00     0.268 C 
BRANCH  13  14
HETATM   14  O4  UNL     1      14.104 -12.282  22.287  1.00  0.00    -0.293 OA
BRANCH  14  15
HETATM   15  C3  UNL     1      12.868 -12.188  22.874  1.00  0.00     0.360 C 
HETATM   16  O3  UNL     1      12.359 -13.211  23.358  1.00  0.00    -0.253 OA
BRANCH  15  17
HETATM   17  C2  UNL     1      12.187 -10.919  22.920  1.00  0.00     0.358 C 
HETATM   18  O2  UNL     1      11.387 -10.574  21.984  1.00  0.00    -0.253 OA
BRANCH  17  19
HETATM   19  O1  UNL     1      12.400 -10.062  23.990  1.00  0.00    -0.318 OA
HETATM   20  C1  UNL     1      11.445 -10.084  25.051  1.00  0.00     0.213 C 
ENDBRANCH  17  19
ENDBRANCH  15  17
ENDBRANCH  14  15
ENDBRANCH  13  14
BRANCH  13  21
HETATM   21  C5  UNL     1      15.373 -12.337  20.299  1.00  0.00     0.294 C 
HETATM   22  O5  UNL     1      15.474 -11.096  20.442  1.00  0.00    -0.262 OA
BRANCH  21  23
HETATM   23  O6  UNL     1      16.178 -12.935  19.344  1.00  0.00    -0.309 OA
BRANCH  23  24
HETATM   24  C6  UNL     1      15.729 -13.374  18.081  1.00  0.00     0.060 C 
HETATM   25  C7  UNL     1      16.729 -12.805  17.065  1.00  0.00     0.045 C 
HETATM   26  C8  UNL     1      15.759 -14.860  17.925  1.00  0.00     0.045 C 
HETATM   27  C9  UNL     1      14.381 -12.856  17.711  1.00  0.00     0.045 C 
ENDBRANCH  23  24
ENDBRANCH  21  23
ENDBRANCH  13  21
ENDBRANCH   1  13
BRANCH  12  28
HETATM   28  S1  UNL     1      18.423 -14.746  23.408  1.00  0.00     0.041 S 
HETATM   29  O7  UNL     1      18.022 -15.491  24.805  1.00  0.00    -0.253 OA
BRANCH  28  30
HETATM   30  C20 UNL     1      19.790 -13.695  23.530  1.00  0.00     0.122 C 
BRANCH  30  31
HETATM   31  C21 UNL     1      20.770 -13.976  24.633  1.00  0.00     0.112 C 
BRANCH  31  32
HETATM   32  C22 UNL     1      21.920 -14.758  24.235  1.00  0.00     0.232 C 
HETATM   33  N2  UNL     1      23.177 -14.100  24.062  1.00  0.00    -0.062 NA
HETATM   34  O8  UNL     1      21.886 -15.981  24.026  1.00  0.00    -0.277 OA
ENDBRANCH  31  32
ENDBRANCH  30  31
ENDBRANCH  28  30
ENDBRANCH  12  28
TORSDOF 12
ENDMDL
MODEL 5
REMARK VINA RESULT: -7.423026651      2.844      5.150
REMARK  12 active torsions:
REMARK  status: ('A' for Active; 'I' for Inactive)
REMARK    1  A    between atoms: O1_2  and  C2_3 
REMARK    2  A    between atoms: C2_3  and  C3_5 
REMARK    3  A    between atoms: C3_5  and  O4_7 
REMARK    4  A    between atoms: O4_7  and  C4_8 
REMARK    5  A    between atoms: C4_8  and  C5_9 
REMARK    6  A    between atoms: C4_8  and  C10_16 
REMARK    7  A    between atoms: C5_9  and  O6_11 
REMARK    8  A    between atoms: O6_11  and  C6_12 
REMARK    9  A    between atoms: C19_27  and  S1_28 
REMARK   10  A    between atoms: S1_28  and  C20_30 
REMARK   11  A    between atoms: C20_30  and  C21_31 
REMARK   12  A    between atoms: C21_31  and  C22_32 
ROOT
HETATM    1  C10 UNL     1      14.375 -13.938  20.213  1.00  0.00     0.021 A 
HETATM    2  C11 UNL     1      15.607 -14.082  20.670  1.00  0.00     0.003 A 
HETATM    3  C12 UNL     1      16.708 -13.217  20.662  1.00  0.00     0.021 A 
HETATM    4  C13 UNL     1      17.920 -13.562  21.196  1.00  0.00    -0.061 A 
HETATM    5  C14 UNL     1      19.043 -12.589  21.150  1.00  0.00     0.048 C 
HETATM    6  C15 UNL     1      18.046 -14.821  21.766  1.00  0.00     0.009 A 
HETATM    7  C16 UNL     1      16.979 -15.694  21.790  1.00  0.00     0.031 A 
HETATM    8  C17 UNL     1      15.766 -15.326  21.245  1.00  0.00     0.043 A 
HETATM    9  N1  UNL     1      14.672 -16.005  21.178  1.00  0.00    -0.355 N 
ATOM     10  H1  UNL     1      14.528 -16.951  21.530  1.00  0.00     0.166 HD
HETATM   11  C18 UNL     1      13.707 -15.197  20.527  1.00  0.00     0.051 A 
HETATM   12  C19 UNL     1      12.475 -15.498  20.256  1.00  0.00     0.108 C 
ENDROOT
BRANCH   1  13
HETATM   13  C4  UNL     1      13.859 -12.740  19.546  1.00  0.00     0.268 C 
BRANCH  13  14
HETATM   14  O4  UNL     1      14.334 -11.539  20.128  1.00  0.00    -0.293 OA
BRANCH  14  15
HETATM   15  C3  UNL     1      13.580 -10.668  20.872  1.00  0.00     0.360 C 
HETATM   16  O3  UNL     1      12.960  -9.767  20.286  1.00  0.00    -0.253 OA
BRANCH  15  17
HETATM   17  C2  UNL     1      13.518 -10.811  22.305  1.00  0.00     0.358 C 
HETATM   18  O2  UNL     1      13.790  -9.824  23.070  1.00  0.00    -0.253 OA
BRANCH  17  19
HETATM   19  O1  UNL     1      13.159 -12.030  22.861  1.00  0.00    -0.318 OA
HETATM   20  C1  UNL     1      11.838 -12.507  22.605  1.00  0.00     0.213 C 
ENDBRANCH  17  19
ENDBRANCH  15  17
ENDBRANCH  14  15
ENDBRANCH  13  14
BRANCH  13  21
HETATM   21  C5  UNL     1      14.132 -12.712  18.091  1.00  0.00     0.294 C 
HETATM   22  O5  UNL     1      13.909 -11.654  17.459  1.00  0.00    -0.262 OA
BRANCH  21  23
HETATM   23  O6  UNL     1      14.626 -13.790  17.374  1.00  0.00    -0.309 OA
BRANCH  23  24
HETATM   24  C6  UNL     1      15.848 -13.789  16.669  1.00  0.00     0.060 C 
HETATM   25  C7  UNL     1      16.295 -15.257  16.615  1.00  0.00     0.045 C 
HETATM   26  C8  UNL     1      15.715 -13.329  15.254  1.00  0.00     0.045 C 
HETATM   27  C9  UNL     1      16.931 -13.022  17.348  1.00  0.00     0.045 C 
ENDBRANCH  23  24
ENDBRANCH  21  23
ENDBRANCH  13  21
ENDBRANCH   1  13
BRANCH  12  28
HETATM   28  S1  UNL     1      11.806 -17.035  20.687  1.00  0.00     0.041 S 
HETATM   29  O7  UNL     1      12.436 -17.588  22.089  1.00  0.00    -0.253 OA
BRANCH  28  30
HETATM   30  C20 UNL     1      11.738 -18.215  19.426  1.00  0.00     0.122 C 
BRANCH  30  31
HETATM   31  C21 UNL     1      12.904 -18.272  18.481  1.00  0.00     0.112 C 
BRANCH  31  32
HETATM   32  C22 UNL     1      14.141 -18.729  19.076  1.00  0.00     0.232 C 
HETATM   33  N2  UNL     1      14.151 -19.972  19.782  1.00  0.00    -0.062 NA
HETATM   34  O8  UNL     1      15.211 -18.102  19.017  1.00  0.00    -0.277 OA
ENDBRANCH  31  32
ENDBRANCH  30  31
ENDBRANCH  28  30
ENDBRANCH  12  28
TORSDOF 12
ENDMDL
