MODEL 1
REMARK VINA RESULT: -8.020354089      0.000      0.000
REMARK  12 active torsions:
REMARK  status: ('A' for Active; 'I' for Inactive)
REMARK    1  A    between atoms: C2_2  and  C3_3 
REMARK       I    between atoms: C3_3  and  N1_5 
REMARK    2  A    between atoms: N1_5  and  C4_6 
REMARK    3  A    between atoms: N1_5  and  C18_30 
REMARK    4  A    between atoms: C4_6  and  O2_7 
REMARK    5  A    between atoms: C4_6  and  C5_9 
REMARK    6  A    between atoms: C5_9  and  S1_11 
REMARK    7  A    between atoms: S1_11  and  C6_12 
REMARK    8  A    between atoms: C7_13  and  C8_14 
REMARK    9  A    between atoms: C10_20  and  C11_21 
REMARK   10  A    between atoms: C11_21  and  O8_23 
REMARK   11  A    between atoms: O8_23  and  C12_24 
REMARK   12  A    between atoms: C18_30  and  C20_32 
ROOT
HETATM    1  C6  UNL     1      16.403 -14.758  20.547  1.00  0.00     0.022 C 
HETATM    2  C7  UNL     1      17.101 -13.833  19.887  1.00  0.00     0.128 C 
HETATM    3  N2  UNL     1      18.319 -13.571  20.545  1.00  0.00    -0.304 N 
HETATM    4  C9  UNL     1      19.621 -13.212  20.907  1.00  0.00     0.240 C 
HETATM    5  O6  UNL     1      20.493 -12.365  20.641  1.00  0.00    -0.272 OA
HETATM    6  C10 UNL     1      19.580 -14.364  21.850  1.00  0.00     0.201 C 
HETATM    7  C16 UNL     1      18.131 -13.967  21.953  1.00  0.00     0.121 C 
HETATM    8  C17 UNL     1      17.104 -15.061  21.861  1.00  0.00     0.076 C 
ENDROOT
BRANCH   1   9
HETATM    9  S1  UNL     1      14.829 -15.496  20.216  1.00  0.00    -0.046 SA
BRANCH   9  10
HETATM   10  C5  UNL     1      13.535 -15.023  21.373  1.00  0.00     0.264 C 
HETATM   11  O3  UNL     1      13.593 -15.608  22.455  1.00  0.00    -0.276 OA
BRANCH  10  12
HETATM   12  C4  UNL     1      12.561 -14.046  21.006  1.00  0.00     0.205 C 
BRANCH  12  13
HETATM   13  N1  UNL     1      12.387 -12.690  21.305  1.00  0.00    -0.278 N 
HETATM   14  C3  UNL     1      11.635 -12.179  22.360  1.00  0.00     0.249 C 
HETATM   15  O1  UNL     1      11.034 -12.963  23.151  1.00  0.00    -0.268 OA
BRANCH  14  16
HETATM   16  C2  UNL     1      11.442 -10.753  22.687  1.00  0.00     0.064 C 
HETATM   17  C1  UNL     1      11.746 -10.292  23.884  1.00  0.00     0.017 C 
ENDBRANCH  14  16
BRANCH  13  18
HETATM   18  C18 UNL     1      13.067 -11.709  20.427  1.00  0.00     0.180 C 
HETATM   19  C19 UNL     1      13.322 -12.218  19.052  1.00  0.00     0.042 C 
BRANCH  18  20
HETATM   20  C20 UNL     1      14.230 -11.180  21.152  1.00  0.00     0.254 C 
HETATM   21  N3  UNL     1      14.574  -9.807  21.073  1.00  0.00    -0.060 NA
HETATM   22  O9  UNL     1      14.942 -11.943  21.854  1.00  0.00    -0.275 OA
ENDBRANCH  18  20
ENDBRANCH  13  18
ENDBRANCH  12  13
BRANCH  12  23
HETATM   23  O2  UNL     1      11.586 -14.492  20.199  1.00  0.00    -0.343 OA
ATOM     24  H2  UNL     1      11.868 -14.496  19.291  1.00  0.00     0.219 HD
ENDBRANCH  12  23
ENDBRANCH  10  12
ENDBRANCH   9  10
ENDBRANCH   1   9
BRANCH   2  25
HETATM   25  C8  UNL     1      16.685 -13.171  18.661  1.00  0.00     0.228 C 
HETATM   26  O4  UNL     1      16.511 -11.942  18.578  1.00  0.00    -0.643 OA
HETATM   27  O5  UNL     1      16.471 -13.944  17.529  1.00  0.00    -0.643 OA
ENDBRANCH   2  25
BRANCH   6  28
HETATM   28  C11 UNL     1      20.380 -14.227  23.059  1.00  0.00     0.275 C 
HETATM   29  O7  UNL     1      21.630 -14.311  22.986  1.00  0.00    -0.264 OA
BRANCH  28  30
HETATM   30  O8  UNL     1      19.798 -14.008  24.281  1.00  0.00    -0.311 OA
BRANCH  30  31
HETATM   31  C12 UNL     1      19.638 -14.965  25.284  1.00  0.00     0.060 C 
HETATM   32  C13 UNL     1      20.148 -16.329  24.916  1.00  0.00     0.045 C 
HETATM   33  C14 UNL     1      20.224 -14.478  26.595  1.00  0.00     0.045 C 
HETATM   34  C15 UNL     1      18.131 -15.114  25.524  1.00  0.00     0.045 C 
ENDBRANCH  30  31
ENDBRANCH  28  30
ENDBRANCH   6  28
TORSDOF 12
ENDMDL
MODEL 2
REMARK VINA RESULT: -7.739545786      1.878      3.322
REMARK  12 active torsions:
REMARK  status: ('A' for Active; 'I' for Inactive)
REMARK    1  A    between atoms: C2_2  and  C3_3 
REMARK       I    between atoms: C3_3  and  N1_5 
REMARK    2  A    between atoms: N1_5  and  C4_6 
REMARK    3  A    between atoms: N1_5  and  C18_30 
REMARK    4  A    between atoms: C4_6  and  O2_7 
REMARK    5  A    between atoms: C4_6  and  C5_9 
REMARK    6  A    between atoms: C5_9  and  S1_11 
REMARK    7  A    between atoms: S1_11  and  C6_12 
REMARK    8  A    between atoms: C7_13  and  C8_14 
REMARK    9  A    between atoms: C10_20  and  C11_21 
REMARK   10  A    between atoms: C11_21  and  O8_23 
REMARK   11  A    between atoms: O8_23  and  C12_24 
REMARK   12  A    between atoms: C18_30  and  C20_32 
ROOT
HETATM    1  C6  UNL     1      18.536 -14.221  21.615  1.00  0.00     0.022 C 
HETATM    2  C7  UNL     1      19.787 -13.766  21.551  1.00  0.00     0.128 C 
HETATM    3  N2  UNL     1      20.507 -14.138  22.704  1.00  0.00    -0.304 N 
HETATM    4  C9  UNL     1      21.476 -14.468  23.657  1.00  0.00     0.240 C 
HETATM    5  O6  UNL     1      22.635 -14.164  23.992  1.00  0.00    -0.272 OA
HETATM    6  C10 UNL     1      20.487 -15.444  24.192  1.00  0.00     0.201 C 
HETATM    7  C16 UNL     1      19.510 -14.382  23.762  1.00  0.00     0.121 C 
HETATM    8  C17 UNL     1      18.299 -14.825  22.989  1.00  0.00     0.076 C 
ENDROOT
BRANCH   1   9
HETATM    9  S1  UNL     1      17.181 -14.085  20.484  1.00  0.00    -0.046 SA
BRANCH   9  10
HETATM   10  C5  UNL     1      16.114 -12.667  20.779  1.00  0.00     0.264 C 
HETATM   11  O3  UNL     1      16.456 -11.649  20.175  1.00  0.00    -0.276 OA
BRANCH  10  12
HETATM   12  C4  UNL     1      14.984 -12.782  21.643  1.00  0.00     0.205 C 
BRANCH  12  13
HETATM   13  N1  UNL     1      13.662 -12.325  21.577  1.00  0.00    -0.278 N 
HETATM   14  C3  UNL     1      13.127 -11.270  22.312  1.00  0.00     0.249 C 
HETATM   15  O1  UNL     1      13.854 -10.630  23.127  1.00  0.00    -0.268 OA
BRANCH  14  16
HETATM   16  C2  UNL     1      11.737 -10.779  22.254  1.00  0.00     0.064 C 
HETATM   17  C1  UNL     1      10.932 -10.917  23.288  1.00  0.00     0.017 C 
ENDBRANCH  14  16
BRANCH  13  18
HETATM   18  C18 UNL     1      12.751 -13.020  20.637  1.00  0.00     0.180 C 
HETATM   19  C19 UNL     1      12.420 -14.412  21.050  1.00  0.00     0.042 C 
BRANCH  18  20
HETATM   20  C20 UNL     1      13.283 -12.853  19.279  1.00  0.00     0.254 C 
HETATM   21  N3  UNL     1      13.368 -11.569  18.683  1.00  0.00    -0.060 NA
HETATM   22  O9  UNL     1      13.670 -13.853  18.621  1.00  0.00    -0.275 OA
ENDBRANCH  18  20
ENDBRANCH  13  18
ENDBRANCH  12  13
BRANCH  12  23
HETATM   23  O2  UNL     1      15.201 -13.471  22.773  1.00  0.00    -0.343 OA
ATOM     24  H2  UNL     1      15.728 -12.970  23.385  1.00  0.00     0.219 HD
ENDBRANCH  12  23
ENDBRANCH  10  12
ENDBRANCH   9  10
ENDBRANCH   1   9
BRANCH   2  25
HETATM   25  C8  UNL     1      20.354 -12.990  20.458  1.00  0.00     0.228 C 
HETATM   26  O4  UNL     1      19.771 -12.818  19.374  1.00  0.00    -0.643 OA
HETATM   27  O5  UNL     1      21.604 -12.414  20.633  1.00  0.00    -0.643 OA
ENDBRANCH   2  25
BRANCH   6  28
HETATM   28  C11 UNL     1      20.568 -15.715  25.620  1.00  0.00     0.275 C 
HETATM   29  O7  UNL     1      21.024 -14.837  26.391  1.00  0.00    -0.264 OA
BRANCH  28  30
HETATM   30  O8  UNL     1      20.155 -16.912  26.146  1.00  0.00    -0.311 OA
BRANCH  30  31
HETATM   31  C12 UNL     1      18.827 -17.322  26.278  1.00  0.00     0.060 C 
HETATM   32  C13 UNL     1      17.882 -16.221  26.669  1.00  0.00     0.045 C 
HETATM   33  C14 UNL     1      18.361 -18.052  25.034  1.00  0.00     0.045 C 
HETATM   34  C15 UNL     1      18.787 -18.353  27.412  1.00  0.00     0.045 C 
ENDBRANCH  30  31
ENDBRANCH  28  30
ENDBRANCH   6  28
TORSDOF 12
ENDMDL
MODEL 3
REMARK VINA RESULT: -7.619178779      1.974      3.177
REMARK  12 active torsions:
REMARK  status: ('A' for Active; 'I' for Inactive)
REMARK    1  A    between atoms: C2_2  and  C3_3 
REMARK       I    between atoms: C3_3  and  N1_5 
REMARK    2  A    between atoms: N1_5  and  C4_6 
REMARK    3  A    between atoms: N1_5  and  C18_30 
REMARK    4  A    between atoms: C4_6  and  O2_7 
REMARK    5  A    between atoms: C4_6  and  C5_9 
REMARK    6  A    between atoms: C5_9  and  S1_11 
REMARK    7  A    between atoms: S1_11  and  C6_12 
REMARK    8  A    between atoms: C7_13  and  C8_14 
REMARK    9  A    between atoms: C10_20  and  C11_21 
REMARK   10  A    between atoms: C11_21  and  O8_23 
REMARK   11  A    between atoms: O8_23  and  C12_24 
REMARK   12  A    between atoms: C18_30  and  C20_32 
ROOT
HETATM    1  C6  UNL     1      15.408 -15.865  21.059  1.00  0.00     0.022 C 
HETATM    2  C7  UNL     1      15.458 -16.781  22.026  1.00  0.00     0.128 C 
HETATM    3  N2  UNL     1      16.657 -16.660  22.757  1.00  0.00    -0.304 N 
HETATM    4  C9  UNL     1      17.677 -16.688  23.714  1.00  0.00     0.240 C 
HETATM    5  O6  UNL     1      18.115 -17.406  24.631  1.00  0.00    -0.272 OA
HETATM    6  C10 UNL     1      18.105 -15.371  23.164  1.00  0.00     0.201 C 
HETATM    7  C16 UNL     1      17.623 -15.982  21.874  1.00  0.00     0.121 C 
HETATM    8  C17 UNL     1      16.742 -15.141  20.993  1.00  0.00     0.076 C 
ENDROOT
BRANCH   1   9
HETATM    9  S1  UNL     1      14.174 -15.517  19.839  1.00  0.00    -0.046 SA
BRANCH   9  10
HETATM   10  C5  UNL     1      12.655 -14.817  20.504  1.00  0.00     0.264 C 
HETATM   11  O3  UNL     1      11.643 -15.134  19.879  1.00  0.00    -0.276 OA
BRANCH  10  12
HETATM   12  C4  UNL     1      12.692 -13.981  21.660  1.00  0.00     0.205 C 
BRANCH  12  13
HETATM   13  N1  UNL     1      12.594 -12.599  21.861  1.00  0.00    -0.278 N 
HETATM   14  C3  UNL     1      11.760 -11.967  22.781  1.00  0.00     0.249 C 
HETATM   15  O1  UNL     1      11.005 -12.652  23.530  1.00  0.00    -0.268 OA
BRANCH  14  16
HETATM   16  C2  UNL     1      11.644 -10.513  23.002  1.00  0.00     0.064 C 
HETATM   17  C1  UNL     1      11.599 -10.021  24.224  1.00  0.00     0.017 C 
ENDBRANCH  14  16
BRANCH  13  18
HETATM   18  C18 UNL     1      13.455 -11.728  21.025  1.00  0.00     0.180 C 
HETATM   19  C19 UNL     1      13.121 -11.778  19.575  1.00  0.00     0.042 C 
BRANCH  18  20
HETATM   20  C20 UNL     1      14.854 -11.996  21.382  1.00  0.00     0.254 C 
HETATM   21  N3  UNL     1      15.908 -11.663  20.494  1.00  0.00    -0.060 NA
HETATM   22  O9  UNL     1      15.137 -12.531  22.485  1.00  0.00    -0.275 OA
ENDBRANCH  18  20
ENDBRANCH  13  18
ENDBRANCH  12  13
BRANCH  12  23
HETATM   23  O2  UNL     1      12.856 -14.627  22.824  1.00  0.00    -0.343 OA
ATOM     24  H2  UNL     1      13.574 -14.256  23.325  1.00  0.00     0.219 HD
ENDBRANCH  12  23
ENDBRANCH  10  12
ENDBRANCH   9  10
ENDBRANCH   1   9
BRANCH   2  25
HETATM   25  C8  UNL     1      14.436 -17.778  22.306  1.00  0.00     0.228 C 
HETATM   26  O4  UNL     1      14.563 -18.980  22.016  1.00  0.00    -0.643 OA
HETATM   27  O5  UNL     1      13.265 -17.369  22.926  1.00  0.00    -0.643 OA
ENDBRANCH   2  25
BRANCH   6  28
HETATM   28  C11 UNL     1      19.527 -15.075  23.253  1.00  0.00     0.275 C 
HETATM   29  O7  UNL     1      20.326 -15.635  22.464  1.00  0.00    -0.264 OA
BRANCH  28  30
HETATM   30  O8  UNL     1      20.018 -14.194  24.181  1.00  0.00    -0.311 OA
BRANCH  30  31
HETATM   31  C12 UNL     1      21.031 -14.470  25.101  1.00  0.00     0.060 C 
HETATM   32  C13 UNL     1      20.920 -15.821  25.748  1.00  0.00     0.045 C 
HETATM   33  C14 UNL     1      22.397 -14.251  24.482  1.00  0.00     0.045 C 
HETATM   34  C15 UNL     1      20.907 -13.436  26.227  1.00  0.00     0.045 C 
ENDBRANCH  30  31
ENDBRANCH  28  30
ENDBRANCH   6  28
TORSDOF 12
ENDMDL
MODEL 4
REMARK VINA RESULT: -7.485013326      2.480      4.153
REMARK  12 active torsions:
REMARK  status: ('A' for Active; 'I' for Inactive)
REMARK    1  A    between atoms: C2_2  and  C3_3 
REMARK       I    between atoms: C3_3  and  N1_5 
REMARK    2  A    between atoms: N1_5  and  C4_6 
REMARK    3  A    between atoms: N1_5  and  C18_30 
REMARK    4  A    between atoms: C4_6  and  O2_7 
REMARK    5  A    between atoms: C4_6  and  C5_9 
REMARK    6  A    between atoms: C5_9  and  S1_11 
REMARK    7  A    between atoms: S1_11  and  C6_12 
REMARK    8  A    between atoms: C7_13  and  C8_14 
REMARK    9  A    between atoms: C10_20  and  C11_21 
REMARK   10  A    between atoms: C11_21  and  O8_23 
REMARK   11  A    between atoms: O8_23  and  C12_24 
REMARK   12  A    between atoms: C18_30  and  C20_32 
ROOT
HETATM    1  C6  UNL     1      15.862 -13.544  21.976  1.00  0.00     0.022 C 
HETATM    2  C7  UNL     1      16.571 -12.874  21.069  1.00  0.00     0.128 C 
HETATM    3  N2  UNL     1      17.939 -13.190  21.180  1.00  0.00    -0.304 N 
HETATM    4  C9  UNL     1      19.307 -13.408  20.984  1.00  0.00     0.240 C 
HETATM    5  O6  UNL     1      20.277 -12.928  20.370  1.00  0.00    -0.272 OA
HETATM    6  C10 UNL     1      19.159 -14.577  21.895  1.00  0.00     0.201 C 
HETATM    7  C16 UNL     1      18.149 -13.676  22.556  1.00  0.00     0.121 C 
HETATM    8  C17 UNL     1      16.815 -14.272  22.910  1.00  0.00     0.076 C 
ENDROOT
BRANCH   1   9
HETATM    9  S1  UNL     1      14.126 -13.573  22.319  1.00  0.00    -0.046 SA
BRANCH   9  10
HETATM   10  C5  UNL     1      13.199 -14.763  21.338  1.00  0.00     0.264 C 
HETATM   11  O3  UNL     1      12.627 -14.272  20.365  1.00  0.00    -0.276 OA
BRANCH  10  12
HETATM   12  C4  UNL     1      13.177 -16.142  21.709  1.00  0.00     0.205 C 
BRANCH  12  13
HETATM   13  N1  UNL     1      13.306 -17.339  20.996  1.00  0.00    -0.278 N 
HETATM   14  C3  UNL     1      12.310 -18.299  20.829  1.00  0.00     0.249 C 
HETATM   15  O1  UNL     1      11.167 -18.126  21.344  1.00  0.00    -0.268 OA
BRANCH  14  16
HETATM   16  C2  UNL     1      12.432 -19.566  20.082  1.00  0.00     0.064 C 
HETATM   17  C1  UNL     1      11.780 -19.743  18.951  1.00  0.00     0.017 C 
ENDBRANCH  14  16
BRANCH  13  18
HETATM   18  C18 UNL     1      14.615 -17.611  20.356  1.00  0.00     0.180 C 
HETATM   19  C19 UNL     1      15.765 -17.527  21.297  1.00  0.00     0.042 C 
BRANCH  18  20
HETATM   20  C20 UNL     1      14.706 -16.791  19.141  1.00  0.00     0.254 C 
HETATM   21  N3  UNL     1      15.665 -15.753  19.033  1.00  0.00    -0.060 NA
HETATM   22  O9  UNL     1      13.926 -16.999  18.175  1.00  0.00    -0.275 OA
ENDBRANCH  18  20
ENDBRANCH  13  18
ENDBRANCH  12  13
BRANCH  12  23
HETATM   23  O2  UNL     1      12.995 -16.375  23.017  1.00  0.00    -0.343 OA
ATOM     24  H2  UNL     1      12.070 -16.421  23.232  1.00  0.00     0.219 HD
ENDBRANCH  12  23
ENDBRANCH  10  12
ENDBRANCH   9  10
ENDBRANCH   1   9
BRANCH   2  25
HETATM   25  C8  UNL     1      16.033 -11.938  20.093  1.00  0.00     0.228 C 
HETATM   26  O4  UNL     1      15.317 -10.971  20.403  1.00  0.00    -0.643 OA
HETATM   27  O5  UNL     1      16.332 -12.134  18.753  1.00  0.00    -0.643 OA
ENDBRANCH   2  25
BRANCH   6  28
HETATM   28  C11 UNL     1      20.334 -14.925  22.681  1.00  0.00     0.275 C 
HETATM   29  O7  UNL     1      21.006 -15.939  22.374  1.00  0.00    -0.264 OA
BRANCH  28  30
HETATM   30  O8  UNL     1      20.727 -14.167  23.754  1.00  0.00    -0.311 OA
BRANCH  30  31
HETATM   31  C12 UNL     1      20.767 -14.602  25.080  1.00  0.00     0.060 C 
HETATM   32  C13 UNL     1      19.525 -15.320  25.526  1.00  0.00     0.045 C 
HETATM   33  C14 UNL     1      22.017 -15.417  25.344  1.00  0.00     0.045 C 
HETATM   34  C15 UNL     1      20.885 -13.350  25.958  1.00  0.00     0.045 C 
ENDBRANCH  30  31
ENDBRANCH  28  30
ENDBRANCH   6  28
TORSDOF 12
ENDMDL
MODEL 5
REMARK VINA RESULT: -7.480057841      2.160      3.658
REMARK  12 active torsions:
REMARK  status: ('A' for Active; 'I' for Inactive)
REMARK    1  A    between atoms: C2_2  and  C3_3 
REMARK       I    between atoms: C3_3  and  N1_5 
REMARK    2  A    between atoms: N1_5  and  C4_6 
REMARK    3  A    between atoms: N1_5  and  C18_30 
REMARK    4  A    between atoms: C4_6  and  O2_7 
REMARK    5  A    between atoms: C4_6  and  C5_9 
REMARK    6  A    between atoms: C5_9  and  S1_11 
REMARK    7  A    between atoms: S1_11  and  C6_12 
REMARK    8  A    between atoms: C7_13  and  C8_14 
REMARK    9  A    between atoms: C10_20  and  C11_21 
REMARK   10  A    between atoms: C11_21  and  O8_23 
REMARK   11  A    between atoms: O8_23  and  C12_24 
REMARK   12  A    between atoms: C18_30  and  C20_32 
ROOT
HETATM    1  C6  UNL     1      15.099 -16.085  20.993  1.00  0.00     0.022 C 
HETATM    2  C7  UNL     1      14.992 -17.135  21.806  1.00  0.00     0.128 C 
HETATM    3  N2  UNL     1      16.182 -17.317  22.538  1.00  0.00    -0.304 N 
HETATM    4  C9  UNL     1      17.171 -17.650  23.470  1.00  0.00     0.240 C 
HETATM    5  O6  UNL     1      17.476 -18.560  24.261  1.00  0.00    -0.272 OA
HETATM    6  C10 UNL     1      17.807 -16.348  23.125  1.00  0.00     0.201 C 
HETATM    7  C16 UNL     1      17.256 -16.671  21.761  1.00  0.00     0.121 C 
HETATM    8  C17 UNL     1      16.531 -15.577  21.028  1.00  0.00     0.076 C 
ENDROOT
BRANCH   1   9
HETATM    9  S1  UNL     1      13.954 -15.365  19.851  1.00  0.00    -0.046 SA
BRANCH   9  10
HETATM   10  C5  UNL     1      12.528 -14.590  20.627  1.00  0.00     0.264 C 
HETATM   11  O3  UNL     1      11.479 -14.729  19.998  1.00  0.00    -0.276 OA
BRANCH  10  12
HETATM   12  C4  UNL     1      12.670 -13.895  21.867  1.00  0.00     0.205 C 
BRANCH  12  13
HETATM   13  N1  UNL     1      12.722 -12.541  22.218  1.00  0.00    -0.278 N 
HETATM   14  C3  UNL     1      11.975 -11.932  23.224  1.00  0.00     0.249 C 
HETATM   15  O1  UNL     1      11.163 -12.614  23.915  1.00  0.00    -0.268 OA
BRANCH  14  16
HETATM   16  C2  UNL     1      12.018 -10.507  23.605  1.00  0.00     0.064 C 
HETATM   17  C1  UNL     1      11.656 -10.124  24.813  1.00  0.00     0.017 C 
ENDBRANCH  14  16
BRANCH  13  18
HETATM   18  C18 UNL     1      13.657 -11.678  21.459  1.00  0.00     0.180 C 
HETATM   19  C19 UNL     1      13.215 -11.405  20.064  1.00  0.00     0.042 C 
BRANCH  18  20
HETATM   20  C20 UNL     1      15.011 -12.224  21.618  1.00  0.00     0.254 C 
HETATM   21  N3  UNL     1      16.008 -11.995  20.637  1.00  0.00    -0.060 NA
HETATM   22  O9  UNL     1      15.304 -12.909  22.632  1.00  0.00    -0.275 OA
ENDBRANCH  18  20
ENDBRANCH  13  18
ENDBRANCH  12  13
BRANCH  12  23
HETATM   23  O2  UNL     1      12.779 -14.680  22.948  1.00  0.00    -0.343 OA
ATOM     24  H2  UNL     1      12.860 -15.595  22.702  1.00  0.00     0.219 HD
ENDBRANCH  12  23
ENDBRANCH  10  12
ENDBRANCH   9  10
ENDBRANCH   1   9
BRANCH   2  25
HETATM   25  C8  UNL     1      13.822 -17.990  21.938  1.00  0.00     0.228 C 
HETATM   26  O4  UNL     1      12.796 -17.648  22.550  1.00  0.00    -0.643 OA
HETATM   27  O5  UNL     1      13.852 -19.248  21.355  1.00  0.00    -0.643 OA
ENDBRANCH   2  25
BRANCH   6  28
HETATM   28  C11 UNL     1      19.257 -16.295  23.246  1.00  0.00     0.275 C 
HETATM   29  O7  UNL     1      19.819 -16.883  24.201  1.00  0.00    -0.264 OA
BRANCH  28  30
HETATM   30  O8  UNL     1      20.026 -15.615  22.338  1.00  0.00    -0.311 OA
BRANCH  30  31
HETATM   31  C12 UNL     1      20.309 -14.249  22.379  1.00  0.00     0.060 C 
HETATM   32  C13 UNL     1      19.150 -13.397  22.815  1.00  0.00     0.045 C 
HETATM   33  C14 UNL     1      21.552 -13.978  23.203  1.00  0.00     0.045 C 
HETATM   34  C15 UNL     1      20.649 -13.820  20.947  1.00  0.00     0.045 C 
ENDBRANCH  30  31
ENDBRANCH  28  30
ENDBRANCH   6  28
TORSDOF 12
ENDMDL
