MODEL 1
REMARK VINA RESULT: -8.321749812      0.000      0.000
REMARK  8 active torsions:
REMARK  status: ('A' for Active; 'I' for Inactive)
REMARK    1  A    between atoms: N1_2  and  C3_4 
REMARK    2  A    between atoms: C3_4  and  C4_5 
REMARK    3  A    between atoms: C4_5  and  C5_6 
REMARK    4  A    between atoms: C5_6  and  N2_7 
REMARK       I    between atoms: N2_7  and  C6_9 
REMARK    5  A    between atoms: C6_9  and  C7_11 
REMARK    6  A    between atoms: C11_15  and  C12_16 
REMARK    7  A    between atoms: C13_20  and  C15_22 
REMARK    8  A    between atoms: C15_22  and  C16_23 
REMARK       I    between atoms: C16_23  and  N4_25 
ROOT
HETATM    1  C7  UNL     1      14.664 -13.834  20.511  1.00  0.00     0.162 A 
HETATM    2  C8  UNL     1      14.316 -15.207  20.025  1.00  0.00     0.044 A 
HETATM    3  C9  UNL     1      14.721 -14.969  21.463  1.00  0.00     0.024 A 
HETATM    4  C10 UNL     1      16.099 -15.436  21.787  1.00  0.00     0.030 C 
HETATM    5  C11 UNL     1      16.906 -14.342  22.507  1.00  0.00     0.115 C 
HETATM    6  N6  UNL     1      17.334 -13.384  21.584  1.00  0.00    -0.206 NA
HETATM    7  C17 UNL     1      18.641 -13.480  21.056  1.00  0.00     0.130 C 
HETATM    8  S3  UNL     1      16.243 -13.133  20.267  1.00  0.00     0.229 S 
HETATM    9  O3  UNL     1      16.869 -13.802  19.051  1.00  0.00    -0.210 OA
HETATM   10  O4  UNL     1      16.193 -11.647  19.945  1.00  0.00    -0.210 OA
ENDROOT
BRANCH   5  11
HETATM   11  C12 UNL     1      17.874 -14.993  23.379  1.00  0.00     0.278 C 
HETATM   12  N3  UNL     1      19.067 -14.273  23.684  1.00  0.00    -0.041 N 
HETATM   13  C13 UNL     1      19.779 -14.955  24.734  1.00  0.00     0.189 C 
ATOM     14  H32 UNL     1      19.648 -14.119  22.860  1.00  0.00     0.280 HD
ATOM     15  H31 UNL     1      18.882 -13.297  23.915  1.00  0.00     0.280 HD
HETATM   16  C14 UNL     1      18.946 -15.116  25.980  1.00  0.00     0.060 C 
HETATM   17  S1  UNL     1      20.206 -16.606  24.026  1.00  0.00    -0.056 SA
HETATM   18  S2  UNL     1      18.428 -16.638  22.773  1.00  0.00    -0.060 SA
BRANCH  13  19
HETATM   19  C15 UNL     1      21.030 -14.201  25.077  1.00  0.00     0.155 C 
BRANCH  19  20
HETATM   20  C16 UNL     1      22.048 -14.240  24.030  1.00  0.00     0.238 C 
HETATM   21  O2  UNL     1      21.789 -13.819  22.884  1.00  0.00    -0.272 OA
HETATM   22  N4  UNL     1      23.334 -14.754  24.302  1.00  0.00    -0.277 N 
HETATM   23  N5  UNL     1      23.713 -14.903  25.505  1.00  0.00    -0.343 N 
ATOM     24  H4  UNL     1      23.958 -15.005  23.535  1.00  0.00     0.189 HD
ATOM     25  H52 UNL     1      23.077 -14.647  26.261  1.00  0.00     0.176 HD
ATOM     26  H51 UNL     1      24.643 -15.274  25.701  1.00  0.00     0.176 HD
ENDBRANCH  19  20
ENDBRANCH  13  19
ENDBRANCH   5  11
BRANCH   1  27
HETATM   27  C6  UNL     1      13.508 -12.898  20.538  1.00  0.00     0.243 C 
HETATM   28  N2  UNL     1      13.635 -11.597  21.094  1.00  0.00    -0.359 N 
ATOM     29  H2  UNL     1      14.548 -11.343  21.472  1.00  0.00     0.162 HD
HETATM   30  O1  UNL     1      12.387 -13.235  20.068  1.00  0.00    -0.272 OA
BRANCH  28  31
HETATM   31  C5  UNL     1      12.607 -10.614  21.175  1.00  0.00     0.124 C 
BRANCH  31  32
HETATM   32  C4  UNL     1      11.634 -10.815  22.309  1.00  0.00     0.050 C 
BRANCH  32  33
HETATM   33  C3  UNL     1      12.324 -10.591  23.634  1.00  0.00     0.273 C 
BRANCH  33  34
HETATM   34  N1  UNL     1      11.426 -10.226  24.683  1.00  0.00     0.080 N 
HETATM   35  C1  UNL     1      11.704  -8.946  25.267  1.00  0.00     0.309 C 
HETATM   36  C2  UNL     1      11.193 -11.257  25.652  1.00  0.00     0.309 C 
ENDBRANCH  33  34
ENDBRANCH  32  33
ENDBRANCH  31  32
ENDBRANCH  28  31
ENDBRANCH   1  27
TORSDOF 8
ENDMDL
MODEL 2
REMARK VINA RESULT: -8.063915848      2.263      8.501
REMARK  8 active torsions:
REMARK  status: ('A' for Active; 'I' for Inactive)
REMARK    1  A    between atoms: N1_2  and  C3_4 
REMARK    2  A    between atoms: C3_4  and  C4_5 
REMARK    3  A    between atoms: C4_5  and  C5_6 
REMARK    4  A    between atoms: C5_6  and  N2_7 
REMARK       I    between atoms: N2_7  and  C6_9 
REMARK    5  A    between atoms: C6_9  and  C7_11 
REMARK    6  A    between atoms: C11_15  and  C12_16 
REMARK    7  A    between atoms: C13_20  and  C15_22 
REMARK    8  A    between atoms: C15_22  and  C16_23 
REMARK       I    between atoms: C16_23  and  N4_25 
ROOT
HETATM    1  C7  UNL     1      19.666 -14.121  22.387  1.00  0.00     0.162 A 
HETATM    2  C8  UNL     1      20.315 -14.210  21.041  1.00  0.00     0.044 A 
HETATM    3  C9  UNL     1      19.407 -13.053  21.393  1.00  0.00     0.024 A 
HETATM    4  C10 UNL     1      18.064 -13.121  20.749  1.00  0.00     0.030 C 
HETATM    5  C11 UNL     1      16.939 -12.916  21.777  1.00  0.00     0.115 C 
HETATM    6  N6  UNL     1      16.757 -14.084  22.522  1.00  0.00    -0.206 NA
HETATM    7  C17 UNL     1      15.738 -14.986  22.140  1.00  0.00     0.130 C 
HETATM    8  S3  UNL     1      18.205 -14.992  22.777  1.00  0.00     0.229 S 
HETATM    9  O3  UNL     1      18.126 -16.205  21.860  1.00  0.00    -0.210 OA
HETATM   10  O4  UNL     1      18.199 -15.542  24.196  1.00  0.00    -0.210 OA
ENDROOT
BRANCH   5  11
HETATM   11  C12 UNL     1      15.806 -12.308  21.093  1.00  0.00     0.278 C 
HETATM   12  N3  UNL     1      14.526 -12.427  21.714  1.00  0.00    -0.041 N 
HETATM   13  C13 UNL     1      13.586 -11.573  21.035  1.00  0.00     0.189 C 
ATOM     14  H32 UNL     1      14.207 -13.395  21.758  1.00  0.00     0.280 HD
ATOM     15  H31 UNL     1      14.563 -12.241  22.716  1.00  0.00     0.280 HD
HETATM   16  C14 UNL     1      14.022 -10.130  21.033  1.00  0.00     0.060 C 
HETATM   17  S1  UNL     1      13.511 -12.225  19.308  1.00  0.00    -0.056 SA
HETATM   18  S2  UNL     1      15.578 -12.900  19.367  1.00  0.00    -0.060 SA
BRANCH  13  19
HETATM   19  C15 UNL     1      12.239 -11.677  21.686  1.00  0.00     0.155 C 
BRANCH  19  20
HETATM   20  C16 UNL     1      12.267 -11.483  23.134  1.00  0.00     0.238 C 
HETATM   21  O2  UNL     1      13.087 -10.694  23.647  1.00  0.00    -0.272 OA
HETATM   22  N4  UNL     1      11.369 -12.184  23.967  1.00  0.00    -0.277 N 
HETATM   23  N5  UNL     1      10.348 -12.746  23.463  1.00  0.00    -0.343 N 
ATOM     24  H4  UNL     1      11.539 -12.239  24.971  1.00  0.00     0.189 HD
ATOM     25  H52 UNL     1      10.192 -12.683  22.456  1.00  0.00     0.176 HD
ATOM     26  H51 UNL     1       9.699 -13.253  24.065  1.00  0.00     0.176 HD
ENDBRANCH  19  20
ENDBRANCH  13  19
ENDBRANCH   5  11
BRANCH   1  27
HETATM   27  C6  UNL     1      20.626 -13.885  23.499  1.00  0.00     0.243 C 
HETATM   28  N2  UNL     1      20.169 -13.537  24.798  1.00  0.00    -0.359 N 
ATOM     29  H2  UNL     1      19.160 -13.456  24.926  1.00  0.00     0.162 HD
HETATM   30  O1  UNL     1      21.871 -13.988  23.317  1.00  0.00    -0.272 OA
BRANCH  28  31
HETATM   31  C5  UNL     1      20.985 -13.290  25.938  1.00  0.00     0.124 C 
BRANCH  31  32
HETATM   32  C4  UNL     1      21.211 -14.492  26.821  1.00  0.00     0.050 C 
BRANCH  32  33
HETATM   33  C3  UNL     1      22.481 -15.205  26.416  1.00  0.00     0.273 C 
BRANCH  33  34
HETATM   34  N1  UNL     1      22.267 -16.561  26.027  1.00  0.00     0.080 N 
HETATM   35  C1  UNL     1      23.053 -16.975  24.901  1.00  0.00     0.309 C 
HETATM   36  C2  UNL     1      20.887 -16.943  25.932  1.00  0.00     0.309 C 
ENDBRANCH  33  34
ENDBRANCH  32  33
ENDBRANCH  31  32
ENDBRANCH  28  31
ENDBRANCH   1  27
TORSDOF 8
ENDMDL
MODEL 3
REMARK VINA RESULT: -7.958146598      1.966      2.359
REMARK  8 active torsions:
REMARK  status: ('A' for Active; 'I' for Inactive)
REMARK    1  A    between atoms: N1_2  and  C3_4 
REMARK    2  A    between atoms: C3_4  and  C4_5 
REMARK    3  A    between atoms: C4_5  and  C5_6 
REMARK    4  A    between atoms: C5_6  and  N2_7 
REMARK       I    between atoms: N2_7  and  C6_9 
REMARK    5  A    between atoms: C6_9  and  C7_11 
REMARK    6  A    between atoms: C11_15  and  C12_16 
REMARK    7  A    between atoms: C13_20  and  C15_22 
REMARK    8  A    between atoms: C15_22  and  C16_23 
REMARK       I    between atoms: C16_23  and  N4_25 
ROOT
HETATM    1  C7  UNL     1      16.706 -13.843  21.489  1.00  0.00     0.162 A 
HETATM    2  C8  UNL     1      16.316 -14.964  20.576  1.00  0.00     0.044 A 
HETATM    3  C9  UNL     1      16.728 -15.231  22.007  1.00  0.00     0.024 A 
HETATM    4  C10 UNL     1      18.091 -15.820  22.143  1.00  0.00     0.030 C 
HETATM    5  C11 UNL     1      18.931 -15.052  23.178  1.00  0.00     0.115 C 
HETATM    6  N6  UNL     1      19.388 -13.853  22.624  1.00  0.00    -0.206 NA
HETATM    7  C17 UNL     1      20.692 -13.806  22.080  1.00  0.00     0.130 C 
HETATM    8  S3  UNL     1      18.305 -13.146  21.477  1.00  0.00     0.229 S 
HETATM    9  O3  UNL     1      18.910 -13.388  20.101  1.00  0.00    -0.210 OA
HETATM   10  O4  UNL     1      18.300 -11.637  21.670  1.00  0.00    -0.210 OA
ENDROOT
BRANCH   5  11
HETATM   11  C12 UNL     1      19.879 -15.984  23.773  1.00  0.00     0.278 C 
HETATM   12  N3  UNL     1      21.047 -15.432  24.378  1.00  0.00    -0.041 N 
HETATM   13  C13 UNL     1      21.733 -16.462  25.115  1.00  0.00     0.189 C 
ATOM     14  H32 UNL     1      21.654 -14.973  23.699  1.00  0.00     0.280 HD
ATOM     15  H31 UNL     1      20.836 -14.619  24.956  1.00  0.00     0.280 HD
HETATM   16  C14 UNL     1      20.859 -17.090  26.169  1.00  0.00     0.060 C 
HETATM   17  S1  UNL     1      22.215 -17.715  23.846  1.00  0.00    -0.056 SA
HETATM   18  S2  UNL     1      20.484 -17.270  22.606  1.00  0.00    -0.060 SA
BRANCH  13  19
HETATM   19  C15 UNL     1      22.957 -15.892  25.769  1.00  0.00     0.155 C 
BRANCH  19  20
HETATM   20  C16 UNL     1      23.447 -14.668  25.140  1.00  0.00     0.238 C 
HETATM   21  O2  UNL     1      22.887 -13.576  25.368  1.00  0.00    -0.272 OA
HETATM   22  N4  UNL     1      24.558 -14.706  24.270  1.00  0.00    -0.277 N 
HETATM   23  N5  UNL     1      25.316 -15.724  24.259  1.00  0.00    -0.343 N 
ATOM     24  H4  UNL     1      24.751 -13.918  23.652  1.00  0.00     0.189 HD
ATOM     25  H52 UNL     1      25.110 -16.504  24.883  1.00  0.00     0.176 HD
ATOM     26  H51 UNL     1      26.119 -15.751  23.630  1.00  0.00     0.176 HD
ENDBRANCH  19  20
ENDBRANCH  13  19
ENDBRANCH   5  11
BRANCH   1  27
HETATM   27  C6  UNL     1      15.579 -12.936  21.839  1.00  0.00     0.243 C 
HETATM   28  N2  UNL     1      15.413 -11.690  21.179  1.00  0.00    -0.359 N 
ATOM     29  H2  UNL     1      16.099 -11.451  20.463  1.00  0.00     0.162 HD
HETATM   30  O1  UNL     1      14.743 -13.251  22.730  1.00  0.00    -0.272 OA
BRANCH  28  31
HETATM   31  C5  UNL     1      14.378 -10.742  21.422  1.00  0.00     0.124 C 
BRANCH  31  32
HETATM   32  C4  UNL     1      13.015 -11.161  20.932  1.00  0.00     0.050 C 
BRANCH  32  33
HETATM   33  C3  UNL     1      11.945 -10.655  21.872  1.00  0.00     0.273 C 
BRANCH  33  34
HETATM   34  N1  UNL     1      11.988 -11.270  23.159  1.00  0.00     0.080 N 
HETATM   35  C1  UNL     1      11.160 -12.436  23.274  1.00  0.00     0.309 C 
HETATM   36  C2  UNL     1      11.848 -10.360  24.259  1.00  0.00     0.309 C 
ENDBRANCH  33  34
ENDBRANCH  32  33
ENDBRANCH  31  32
ENDBRANCH  28  31
ENDBRANCH   1  27
TORSDOF 8
ENDMDL
MODEL 4
REMARK VINA RESULT: -7.837591463      3.199      8.353
REMARK  8 active torsions:
REMARK  status: ('A' for Active; 'I' for Inactive)
REMARK    1  A    between atoms: N1_2  and  C3_4 
REMARK    2  A    between atoms: C3_4  and  C4_5 
REMARK    3  A    between atoms: C4_5  and  C5_6 
REMARK    4  A    between atoms: C5_6  and  N2_7 
REMARK       I    between atoms: N2_7  and  C6_9 
REMARK    5  A    between atoms: C6_9  and  C7_11 
REMARK    6  A    between atoms: C11_15  and  C12_16 
REMARK    7  A    between atoms: C13_20  and  C15_22 
REMARK    8  A    between atoms: C15_22  and  C16_23 
REMARK       I    between atoms: C16_23  and  N4_25 
ROOT
HETATM    1  C7  UNL     1      19.667 -14.449  22.381  1.00  0.00     0.162 A 
HETATM    2  C8  UNL     1      20.302 -14.399  21.026  1.00  0.00     0.044 A 
HETATM    3  C9  UNL     1      19.183 -13.451  21.399  1.00  0.00     0.024 A 
HETATM    4  C10 UNL     1      17.873 -13.787  20.770  1.00  0.00     0.030 C 
HETATM    5  C11 UNL     1      16.744 -13.820  21.814  1.00  0.00     0.115 C 
HETATM    6  N6  UNL     1      16.813 -15.005  22.552  1.00  0.00    -0.206 NA
HETATM    7  C17 UNL     1      15.994 -16.093  22.176  1.00  0.00     0.130 C 
HETATM    8  S3  UNL     1      18.419 -15.601  22.783  1.00  0.00     0.229 S 
HETATM    9  O3  UNL     1      18.575 -16.800  21.857  1.00  0.00    -0.210 OA
HETATM   10  O4  UNL     1      18.544 -16.147  24.197  1.00  0.00    -0.210 OA
ENDROOT
BRANCH   5  11
HETATM   11  C12 UNL     1      15.502 -13.451  21.149  1.00  0.00     0.278 C 
HETATM   12  N3  UNL     1      15.573 -13.143  19.757  1.00  0.00    -0.041 N 
HETATM   13  C13 UNL     1      14.238 -13.043  19.224  1.00  0.00     0.189 C 
ATOM     14  H32 UNL     1      16.126 -12.306  19.574  1.00  0.00     0.280 HD
ATOM     15  H31 UNL     1      16.145 -13.811  19.241  1.00  0.00     0.280 HD
HETATM   16  C14 UNL     1      13.444 -14.307  19.428  1.00  0.00     0.060 C 
HETATM   17  S1  UNL     1      13.463 -11.639  20.140  1.00  0.00    -0.056 SA
HETATM   18  S2  UNL     1      14.637 -12.028  21.929  1.00  0.00    -0.060 SA
BRANCH  13  19
HETATM   19  C15 UNL     1      14.297 -12.734  17.757  1.00  0.00     0.155 C 
BRANCH  19  20
HETATM   20  C16 UNL     1      15.650 -12.734  17.207  1.00  0.00     0.238 C 
HETATM   21  O2  UNL     1      16.431 -11.792  17.455  1.00  0.00    -0.272 OA
HETATM   22  N4  UNL     1      16.090 -13.798  16.390  1.00  0.00    -0.277 N 
HETATM   23  N5  UNL     1      15.441 -14.888  16.371  1.00  0.00    -0.343 N 
ATOM     24  H4  UNL     1      16.927 -13.691  15.817  1.00  0.00     0.189 HD
ATOM     25  H52 UNL     1      14.606 -14.980  16.949  1.00  0.00     0.176 HD
ATOM     26  H51 UNL     1      15.760 -15.658  15.780  1.00  0.00     0.176 HD
ENDBRANCH  19  20
ENDBRANCH  13  19
ENDBRANCH   5  11
BRANCH   1  27
HETATM   27  C6  UNL     1      20.575 -14.029  23.483  1.00  0.00     0.243 C 
HETATM   28  N2  UNL     1      20.060 -13.673  24.758  1.00  0.00    -0.359 N 
ATOM     29  H2  UNL     1      19.047 -13.718  24.877  1.00  0.00     0.162 HD
HETATM   30  O1  UNL     1      21.824 -13.978  23.313  1.00  0.00    -0.272 OA
BRANCH  28  31
HETATM   31  C5  UNL     1      20.823 -13.259  25.887  1.00  0.00     0.124 C 
BRANCH  31  32
HETATM   32  C4  UNL     1      21.211 -14.374  26.825  1.00  0.00     0.050 C 
BRANCH  32  33
HETATM   33  C3  UNL     1      22.624 -14.827  26.540  1.00  0.00     0.273 C 
BRANCH  33  34
HETATM   34  N1  UNL     1      22.711 -16.199  26.157  1.00  0.00     0.080 N 
HETATM   35  C1  UNL     1      23.679 -16.456  25.130  1.00  0.00     0.309 C 
HETATM   36  C2  UNL     1      21.446 -16.832  25.921  1.00  0.00     0.309 C 
ENDBRANCH  33  34
ENDBRANCH  32  33
ENDBRANCH  31  32
ENDBRANCH  28  31
ENDBRANCH   1  27
TORSDOF 8
ENDMDL
MODEL 5
REMARK VINA RESULT: -7.824561689      2.095      2.272
REMARK  8 active torsions:
REMARK  status: ('A' for Active; 'I' for Inactive)
REMARK    1  A    between atoms: N1_2  and  C3_4 
REMARK    2  A    between atoms: C3_4  and  C4_5 
REMARK    3  A    between atoms: C4_5  and  C5_6 
REMARK    4  A    between atoms: C5_6  and  N2_7 
REMARK       I    between atoms: N2_7  and  C6_9 
REMARK    5  A    between atoms: C6_9  and  C7_11 
REMARK    6  A    between atoms: C11_15  and  C12_16 
REMARK    7  A    between atoms: C13_20  and  C15_22 
REMARK    8  A    between atoms: C15_22  and  C16_23 
REMARK       I    between atoms: C16_23  and  N4_25 
ROOT
HETATM    1  C7  UNL     1      14.956 -13.968  20.431  1.00  0.00     0.162 A 
HETATM    2  C8  UNL     1      15.071 -15.249  19.665  1.00  0.00     0.044 A 
HETATM    3  C9  UNL     1      15.386 -15.193  21.143  1.00  0.00     0.024 A 
HETATM    4  C10 UNL     1      16.844 -15.249  21.453  1.00  0.00     0.030 C 
HETATM    5  C11 UNL     1      17.254 -14.125  22.420  1.00  0.00     0.115 C 
HETATM    6  N6  UNL     1      17.339 -12.913  21.731  1.00  0.00    -0.206 NA
HETATM    7  C17 UNL     1      18.602 -12.474  21.274  1.00  0.00     0.130 C 
HETATM    8  S3  UNL     1      16.217 -12.762  20.425  1.00  0.00     0.229 S 
HETATM    9  O3  UNL     1      17.018 -12.930  19.142  1.00  0.00    -0.210 OA
HETATM   10  O4  UNL     1      15.681 -11.338  20.398  1.00  0.00    -0.210 OA
ENDROOT
BRANCH   5  11
HETATM   11  C12 UNL     1      18.387 -14.595  23.205  1.00  0.00     0.278 C 
HETATM   12  N3  UNL     1      19.097 -15.731  22.713  1.00  0.00    -0.041 N 
HETATM   13  C13 UNL     1      20.310 -15.899  23.471  1.00  0.00     0.189 C 
ATOM     14  H32 UNL     1      18.524 -16.574  22.710  1.00  0.00     0.280 HD
ATOM     15  H31 UNL     1      19.274 -15.672  21.710  1.00  0.00     0.280 HD
HETATM   16  C14 UNL     1      21.194 -14.679  23.415  1.00  0.00     0.060 C 
HETATM   17  S1  UNL     1      19.750 -16.210  25.203  1.00  0.00    -0.056 SA
HETATM   18  S2  UNL     1      17.967 -14.991  24.951  1.00  0.00    -0.060 SA
BRANCH  13  19
HETATM   19  C15 UNL     1      21.075 -17.081  22.955  1.00  0.00     0.155 C 
BRANCH  19  20
HETATM   20  C16 UNL     1      20.333 -18.338  23.018  1.00  0.00     0.238 C 
HETATM   21  O2  UNL     1      19.292 -18.488  22.346  1.00  0.00    -0.272 OA
HETATM   22  N4  UNL     1      20.783 -19.395  23.838  1.00  0.00    -0.277 N 
HETATM   23  N5  UNL     1      21.971 -19.384  24.286  1.00  0.00    -0.343 N 
ATOM     24  H4  UNL     1      20.156 -20.165  24.071  1.00  0.00     0.189 HD
ATOM     25  H52 UNL     1      22.586 -18.607  24.044  1.00  0.00     0.176 HD
ATOM     26  H51 UNL     1      22.296 -20.149  24.879  1.00  0.00     0.176 HD
ENDBRANCH  19  20
ENDBRANCH  13  19
ENDBRANCH   5  11
BRANCH   1  27
HETATM   27  C6  UNL     1      13.557 -13.479  20.571  1.00  0.00     0.243 C 
HETATM   28  N2  UNL     1      13.122 -12.840  21.762  1.00  0.00    -0.359 N 
ATOM     29  H2  UNL     1      13.810 -12.737  22.509  1.00  0.00     0.162 HD
HETATM   30  O1  UNL     1      12.723 -13.619  19.635  1.00  0.00    -0.272 OA
BRANCH  28  31
HETATM   31  C5  UNL     1      11.817 -12.330  22.014  1.00  0.00     0.124 C 
BRANCH  31  32
HETATM   32  C4  UNL     1      11.759 -10.840  22.244  1.00  0.00     0.050 C 
BRANCH  32  33
HETATM   33  C3  UNL     1      12.408 -10.491  23.563  1.00  0.00     0.273 C 
BRANCH  33  34
HETATM   34  N1  UNL     1      11.467 -10.184  24.592  1.00  0.00     0.080 N 
HETATM   35  C1  UNL     1      11.708  -8.930  25.245  1.00  0.00     0.309 C 
HETATM   36  C2  UNL     1      11.207 -11.262  25.501  1.00  0.00     0.309 C 
ENDBRANCH  33  34
ENDBRANCH  32  33
ENDBRANCH  31  32
ENDBRANCH  28  31
ENDBRANCH   1  27
TORSDOF 8
ENDMDL
