MODEL 1
REMARK VINA RESULT: -5.616536085      0.000      0.000
REMARK  15 active torsions:
REMARK  status: ('A' for Active; 'I' for Inactive)
REMARK    1  A    between atoms: C2_2  and  O1_3 
REMARK    2  A    between atoms: C2_2  and  C3_5 
REMARK    3  A    between atoms: C3_5  and  C4_6 
REMARK    4  A    between atoms: C3_5  and  N3_18 
REMARK    5  A    between atoms: C4_6  and  O2_7 
REMARK    6  A    between atoms: C4_6  and  C5_9 
REMARK    7  A    between atoms: C5_9  and  O3_10 
REMARK    8  A    between atoms: C5_9  and  O4_12 
REMARK    9  A    between atoms: O4_12  and  C6_13 
REMARK   10  A    between atoms: C8_21  and  N4_22 
REMARK   11  A    between atoms: N4_22  and  O6_24 
REMARK   12  A    between atoms: C10_28  and  O7_29 
REMARK   13  A    between atoms: C10_28  and  C11_31 
REMARK   14  A    between atoms: C13_35  and  O10_37 
REMARK   15  A    between atoms: N6_40  and  O11_42 
ROOT
HETATM    1  N3  UNL     1      36.909  29.831 -21.217  1.00  0.00    -0.215 N 
HETATM    2  C7  UNL     1      36.170  30.654 -20.402  1.00  0.00     0.297 A 
HETATM    3  O5  UNL     1      35.364  30.308 -19.491  1.00  0.00    -0.264 OA
HETATM    4  C8  UNL     1      36.412  31.953 -20.695  1.00  0.00     0.154 A 
HETATM    5  C9  UNL     1      37.333  31.931 -21.730  1.00  0.00     0.117 A 
HETATM    6  N5  UNL     1      37.624  30.618 -22.034  1.00  0.00    -0.233 N 
HETATM    7  C10 UNL     1      38.560  30.347 -23.054  1.00  0.00     0.246 C 
HETATM    8  C12 UNL     1      39.049  31.564 -23.820  1.00  0.00     0.119 C 
HETATM    9  C13 UNL     1      39.338  32.750 -22.925  1.00  0.00     0.105 C 
HETATM   10  C14 UNL     1      40.220  32.431 -21.767  1.00  0.00     0.053 C 
HETATM   11  C15 UNL     1      37.922  33.066 -22.429  1.00  0.00     0.097 C 
HETATM   12  N6  UNL     1      37.427  34.183 -22.687  1.00  0.00    -0.268 N 
ATOM     13  H6  UNL     1      38.032  34.831 -23.191  1.00  0.00     0.194 HD
ENDROOT
BRANCH   1  14
HETATM   14  C3  UNL     1      36.836  28.413 -21.123  1.00  0.00     0.077 C 
BRANCH  14  15
HETATM   15  C2  UNL     1      37.549  27.779 -19.999  1.00  0.00     0.164 C 
HETATM   16  C1  UNL     1      37.566  26.254 -20.250  1.00  0.00     0.046 C 
BRANCH  15  17
HETATM   17  O1  UNL     1      36.702  27.852 -18.852  1.00  0.00    -0.390 OA
ATOM     18  H1  UNL     1      35.982  27.298 -19.127  1.00  0.00     0.210 HD
ENDBRANCH  15  17
ENDBRANCH  14  15
BRANCH  14  19
HETATM   19  C4  UNL     1      35.512  27.788 -21.518  1.00  0.00     0.224 C 
BRANCH  19  20
HETATM   20  O2  UNL     1      34.596  27.902 -20.436  1.00  0.00    -0.385 OA
ATOM     21  H2  UNL     1      34.119  28.720 -20.514  1.00  0.00     0.210 HD
ENDBRANCH  19  20
BRANCH  19  22
HETATM   22  C5  UNL     1      34.793  28.584 -22.619  1.00  0.00     0.300 C 
BRANCH  22  23
HETATM   23  O3  UNL     1      33.835  29.434 -22.147  1.00  0.00    -0.368 OA
ATOM     24  H3  UNL     1      34.133  29.991 -21.437  1.00  0.00     0.212 HD
ENDBRANCH  22  23
BRANCH  22  25
HETATM   25  O4  UNL     1      34.251  27.669 -23.578  1.00  0.00    -0.290 OA
BRANCH  25  26
HETATM   26  C6  UNL     1      35.073  27.151 -24.538  1.00  0.00     0.227 C 
HETATM   27  N1  UNL     1      35.365  27.832 -25.576  1.00  0.00    -0.368 N 
ATOM     28  H12 UNL     1      34.954  28.763 -25.639  1.00  0.00     0.159 HD
ATOM     29  H11 UNL     1      35.979  27.446 -26.293  1.00  0.00     0.159 HD
HETATM   30  N2  UNL     1      35.652  25.840 -24.448  1.00  0.00    -0.057 NA
ENDBRANCH  25  26
ENDBRANCH  22  25
ENDBRANCH  19  22
ENDBRANCH  14  19
ENDBRANCH   1  14
BRANCH   4  31
HETATM   31  N4  UNL     1      35.853  33.113 -20.061  1.00  0.00    -0.262 N 
ATOM     32  H4  UNL     1      35.785  33.989 -20.579  1.00  0.00     0.194 HD
BRANCH  31  33
HETATM   33  O6  UNL     1      35.451  33.058 -18.886  1.00  0.00    -0.289 OA
ATOM     34  H6  UNL     1      35.919  32.543 -18.241  1.00  0.00     0.244 HD
ENDBRANCH  31  33
ENDBRANCH   4  31
BRANCH   7  35
HETATM   35  O7  UNL     1      39.784  29.794 -22.637  1.00  0.00    -0.361 OA
ATOM     36  H7  UNL     1      40.565  30.272 -22.890  1.00  0.00     0.213 HD
ENDBRANCH   7  35
BRANCH   7  37
HETATM   37  C11 UNL     1      38.034  29.520 -24.207  1.00  0.00     0.233 C 
HETATM   38  O8  UNL     1      37.332  30.059 -25.069  1.00  0.00    -0.644 OA
HETATM   39  O9  UNL     1      38.342  28.171 -24.287  1.00  0.00    -0.644 OA
ENDBRANCH   7  37
BRANCH   9  40
HETATM   40  O10 UNL     1      39.789  33.786 -23.692  1.00  0.00    -0.384 OA
ATOM     41  H10 UNL     1      39.927  34.544 -23.138  1.00  0.00     0.211 HD
ENDBRANCH   9  40
BRANCH  12  42
HETATM   42  O11 UNL     1      36.212  34.636 -22.389  1.00  0.00    -0.290 OA
ATOM     43  H11 UNL     1      35.536  34.945 -22.981  1.00  0.00     0.244 HD
ENDBRANCH  12  42
TORSDOF 15
ENDMDL
MODEL 2
REMARK VINA RESULT: -5.486895618      2.043      2.740
REMARK  15 active torsions:
REMARK  status: ('A' for Active; 'I' for Inactive)
REMARK    1  A    between atoms: C2_2  and  O1_3 
REMARK    2  A    between atoms: C2_2  and  C3_5 
REMARK    3  A    between atoms: C3_5  and  C4_6 
REMARK    4  A    between atoms: C3_5  and  N3_18 
REMARK    5  A    between atoms: C4_6  and  O2_7 
REMARK    6  A    between atoms: C4_6  and  C5_9 
REMARK    7  A    between atoms: C5_9  and  O3_10 
REMARK    8  A    between atoms: C5_9  and  O4_12 
REMARK    9  A    between atoms: O4_12  and  C6_13 
REMARK   10  A    between atoms: C8_21  and  N4_22 
REMARK   11  A    between atoms: N4_22  and  O6_24 
REMARK   12  A    between atoms: C10_28  and  O7_29 
REMARK   13  A    between atoms: C10_28  and  C11_31 
REMARK   14  A    between atoms: C13_35  and  O10_37 
REMARK   15  A    between atoms: N6_40  and  O11_42 
ROOT
HETATM    1  N3  UNL     1      36.985  30.996 -21.725  1.00  0.00    -0.215 N 
HETATM    2  C7  UNL     1      36.297  31.549 -20.672  1.00  0.00     0.297 A 
HETATM    3  O5  UNL     1      35.486  30.967 -19.895  1.00  0.00    -0.264 OA
HETATM    4  C8  UNL     1      36.598  32.862 -20.546  1.00  0.00     0.154 A 
HETATM    5  C9  UNL     1      37.504  33.130 -21.560  1.00  0.00     0.117 A 
HETATM    6  N5  UNL     1      37.727  31.970 -22.270  1.00  0.00    -0.233 N 
HETATM    7  C10 UNL     1      38.635  31.996 -23.349  1.00  0.00     0.246 C 
HETATM    8  C12 UNL     1      39.174  33.371 -23.705  1.00  0.00     0.119 C 
HETATM    9  C13 UNL     1      39.531  34.200 -22.490  1.00  0.00     0.105 C 
HETATM   10  C14 UNL     1      40.411  33.494 -21.516  1.00  0.00     0.053 C 
HETATM   11  C15 UNL     1      38.138  34.402 -21.881  1.00  0.00     0.097 C 
HETATM   12  N6  UNL     1      37.696  35.563 -21.760  1.00  0.00    -0.268 N 
ATOM     13  H6  UNL     1      38.326  36.311 -22.049  1.00  0.00     0.194 HD
ENDROOT
BRANCH   1  14
HETATM   14  C3  UNL     1      36.843  29.625 -22.080  1.00  0.00     0.077 C 
BRANCH  14  15
HETATM   15  C2  UNL     1      37.851  28.689 -21.550  1.00  0.00     0.164 C 
HETATM   16  C1  UNL     1      38.638  29.422 -20.440  1.00  0.00     0.046 C 
BRANCH  15  17
HETATM   17  O1  UNL     1      38.866  28.537 -22.542  1.00  0.00    -0.390 OA
ATOM     18  H1  UNL     1      38.336  28.438 -23.325  1.00  0.00     0.210 HD
ENDBRANCH  15  17
ENDBRANCH  14  15
BRANCH  14  19
HETATM   19  C4  UNL     1      35.422  29.105 -22.170  1.00  0.00     0.224 C 
BRANCH  19  20
HETATM   20  O2  UNL     1      35.155  28.695 -23.506  1.00  0.00    -0.385 OA
ATOM     21  H2  UNL     1      34.215  28.653 -23.640  1.00  0.00     0.210 HD
ENDBRANCH  19  20
BRANCH  19  22
HETATM   22  C5  UNL     1      35.228  27.790 -21.397  1.00  0.00     0.300 C 
BRANCH  22  23
HETATM   23  O3  UNL     1      34.914  26.725 -22.192  1.00  0.00    -0.368 OA
ATOM     24  H3  UNL     1      35.360  25.922 -21.950  1.00  0.00     0.212 HD
ENDBRANCH  22  23
BRANCH  22  25
HETATM   25  O4  UNL     1      34.242  27.989 -20.378  1.00  0.00    -0.290 OA
BRANCH  25  26
HETATM   26  C6  UNL     1      34.560  27.696 -19.083  1.00  0.00     0.227 C 
HETATM   27  N1  UNL     1      35.671  28.076 -18.586  1.00  0.00    -0.368 N 
ATOM     28  H12 UNL     1      36.289  28.601 -19.205  1.00  0.00     0.159 HD
ATOM     29  H11 UNL     1      35.908  27.857 -17.619  1.00  0.00     0.159 HD
HETATM   30  N2  UNL     1      33.688  26.957 -18.211  1.00  0.00    -0.057 NA
ENDBRANCH  25  26
ENDBRANCH  22  25
ENDBRANCH  19  22
ENDBRANCH  14  19
ENDBRANCH   1  14
BRANCH   4  31
HETATM   31  N4  UNL     1      36.104  33.785 -19.563  1.00  0.00    -0.262 N 
ATOM     32  H4  UNL     1      36.397  34.762 -19.594  1.00  0.00     0.194 HD
BRANCH  31  33
HETATM   33  O6  UNL     1      35.323  33.403 -18.676  1.00  0.00    -0.289 OA
ATOM     34  H6  UNL     1      35.025  34.005 -18.004  1.00  0.00     0.244 HD
ENDBRANCH  31  33
ENDBRANCH   4  31
BRANCH   7  35
HETATM   35  O7  UNL     1      39.836  31.288 -23.161  1.00  0.00    -0.361 OA
ATOM     36  H7  UNL     1      40.625  31.716 -23.473  1.00  0.00     0.213 HD
ENDBRANCH   7  35
BRANCH   7  37
HETATM   37  C11 UNL     1      38.055  31.600 -24.689  1.00  0.00     0.233 C 
HETATM   38  O8  UNL     1      37.678  32.479 -25.471  1.00  0.00    -0.644 OA
HETATM   39  O9  UNL     1      37.951  30.260 -25.028  1.00  0.00    -0.644 OA
ENDBRANCH   7  37
BRANCH   9  40
HETATM   40  O10 UNL     1      40.023  35.405 -22.903  1.00  0.00    -0.384 OA
ATOM     41  H10 UNL     1      40.698  35.687 -22.298  1.00  0.00     0.211 HD
ENDBRANCH   9  40
BRANCH  12  42
HETATM   42  O11 UNL     1      36.507  35.949 -21.300  1.00  0.00    -0.290 OA
ATOM     43  H11 UNL     1      35.868  36.513 -21.721  1.00  0.00     0.244 HD
ENDBRANCH  12  42
TORSDOF 15
ENDMDL
MODEL 3
REMARK VINA RESULT: -5.321167438      6.253      9.781
REMARK  15 active torsions:
REMARK  status: ('A' for Active; 'I' for Inactive)
REMARK    1  A    between atoms: C2_2  and  O1_3 
REMARK    2  A    between atoms: C2_2  and  C3_5 
REMARK    3  A    between atoms: C3_5  and  C4_6 
REMARK    4  A    between atoms: C3_5  and  N3_18 
REMARK    5  A    between atoms: C4_6  and  O2_7 
REMARK    6  A    between atoms: C4_6  and  C5_9 
REMARK    7  A    between atoms: C5_9  and  O3_10 
REMARK    8  A    between atoms: C5_9  and  O4_12 
REMARK    9  A    between atoms: O4_12  and  C6_13 
REMARK   10  A    between atoms: C8_21  and  N4_22 
REMARK   11  A    between atoms: N4_22  and  O6_24 
REMARK   12  A    between atoms: C10_28  and  O7_29 
REMARK   13  A    between atoms: C10_28  and  C11_31 
REMARK   14  A    between atoms: C13_35  and  O10_37 
REMARK   15  A    between atoms: N6_40  and  O11_42 
ROOT
HETATM    1  N3  UNL     1      33.648  24.819 -17.273  1.00  0.00    -0.215 N 
HETATM    2  C7  UNL     1      32.315  25.152 -17.267  1.00  0.00     0.297 A 
HETATM    3  O5  UNL     1      31.725  25.971 -18.029  1.00  0.00    -0.264 OA
HETATM    4  C8  UNL     1      31.659  24.468 -16.300  1.00  0.00     0.154 A 
HETATM    5  C9  UNL     1      32.624  23.686 -15.685  1.00  0.00     0.117 A 
HETATM    6  N5  UNL     1      33.837  23.917 -16.300  1.00  0.00    -0.233 N 
HETATM    7  C10 UNL     1      34.972  23.211 -15.851  1.00  0.00     0.246 C 
HETATM    8  C12 UNL     1      34.754  22.357 -14.614  1.00  0.00     0.119 C 
HETATM    9  C13 UNL     1      33.445  21.598 -14.642  1.00  0.00     0.105 C 
HETATM   10  C14 UNL     1      33.223  20.825 -15.897  1.00  0.00     0.053 C 
HETATM   11  C15 UNL     1      32.453  22.766 -14.569  1.00  0.00     0.097 C 
HETATM   12  N6  UNL     1      31.668  22.830 -13.600  1.00  0.00    -0.268 N 
ATOM     13  H6  UNL     1      31.723  22.061 -12.932  1.00  0.00     0.194 HD
ENDROOT
BRANCH   1  14
HETATM   14  C3  UNL     1      34.566  25.402 -18.191  1.00  0.00     0.077 C 
BRANCH  14  15
HETATM   15  C2  UNL     1      34.880  24.629 -19.406  1.00  0.00     0.164 C 
HETATM   16  C1  UNL     1      33.798  23.537 -19.564  1.00  0.00     0.046 C 
BRANCH  15  17
HETATM   17  O1  UNL     1      36.028  23.828 -19.124  1.00  0.00    -0.390 OA
ATOM     18  H1  UNL     1      36.655  24.193 -19.737  1.00  0.00     0.210 HD
ENDBRANCH  15  17
ENDBRANCH  14  15
BRANCH  14  19
HETATM   19  C4  UNL     1      34.476  26.907 -18.355  1.00  0.00     0.224 C 
BRANCH  19  20
HETATM   20  O2  UNL     1      35.443  27.530 -17.519  1.00  0.00    -0.385 OA
ATOM     21  H2  UNL     1      35.135  27.519 -16.620  1.00  0.00     0.210 HD
ENDBRANCH  19  20
BRANCH  19  22
HETATM   22  C5  UNL     1      34.926  27.373 -19.751  1.00  0.00     0.300 C 
BRANCH  22  23
HETATM   23  O3  UNL     1      36.194  27.876 -19.780  1.00  0.00    -0.368 OA
ATOM     24  H3  UNL     1      36.808  27.340 -20.267  1.00  0.00     0.212 HD
ENDBRANCH  22  23
BRANCH  22  25
HETATM   25  O4  UNL     1      33.976  28.319 -20.254  1.00  0.00    -0.290 OA
BRANCH  25  26
HETATM   26  C6  UNL     1      34.365  29.192 -21.229  1.00  0.00     0.227 C 
HETATM   27  N1  UNL     1      34.446  28.813 -22.444  1.00  0.00    -0.368 N 
ATOM     28  H12 UNL     1      34.205  27.840 -22.633  1.00  0.00     0.159 HD
ATOM     29  H11 UNL     1      34.736  29.465 -23.172  1.00  0.00     0.159 HD
HETATM   30  N2  UNL     1      34.704  30.563 -20.963  1.00  0.00    -0.057 NA
ENDBRANCH  25  26
ENDBRANCH  22  25
ENDBRANCH  19  22
ENDBRANCH  14  19
ENDBRANCH   1  14
BRANCH   4  31
HETATM   31  N4  UNL     1      30.261  24.522 -15.983  1.00  0.00    -0.262 N 
ATOM     32  H4  UNL     1      29.794  23.694 -15.611  1.00  0.00     0.194 HD
BRANCH  31  33
HETATM   33  O6  UNL     1      29.614  25.568 -16.157  1.00  0.00    -0.289 OA
ATOM     34  H6  UNL     1      28.884  25.588 -16.763  1.00  0.00     0.244 HD
ENDBRANCH  31  33
ENDBRANCH   4  31
BRANCH   7  35
HETATM   35  O7  UNL     1      35.494  22.253 -16.739  1.00  0.00    -0.361 OA
ATOM     36  H7  UNL     1      36.392  21.985 -16.582  1.00  0.00     0.213 HD
ENDBRANCH   7  35
BRANCH   7  37
HETATM   37  C11 UNL     1      36.115  24.074 -15.360  1.00  0.00     0.233 C 
HETATM   38  O8  UNL     1      36.074  24.543 -14.218  1.00  0.00    -0.644 OA
HETATM   39  O9  UNL     1      37.193  24.332 -16.192  1.00  0.00    -0.644 OA
ENDBRANCH   7  37
BRANCH   9  40
HETATM   40  O10 UNL     1      33.342  20.846 -13.507  1.00  0.00    -0.384 OA
ATOM     41  H10 UNL     1      32.584  21.134 -13.013  1.00  0.00     0.211 HD
ENDBRANCH   9  40
BRANCH  12  42
HETATM   42  O11 UNL     1      30.769  23.773 -13.328  1.00  0.00    -0.290 OA
ATOM     43  H11 UNL     1      30.870  24.543 -12.779  1.00  0.00     0.244 HD
ENDBRANCH  12  42
TORSDOF 15
ENDMDL
MODEL 4
REMARK VINA RESULT: -5.262685252      1.927      3.061
REMARK  15 active torsions:
REMARK  status: ('A' for Active; 'I' for Inactive)
REMARK    1  A    between atoms: C2_2  and  O1_3 
REMARK    2  A    between atoms: C2_2  and  C3_5 
REMARK    3  A    between atoms: C3_5  and  C4_6 
REMARK    4  A    between atoms: C3_5  and  N3_18 
REMARK    5  A    between atoms: C4_6  and  O2_7 
REMARK    6  A    between atoms: C4_6  and  C5_9 
REMARK    7  A    between atoms: C5_9  and  O3_10 
REMARK    8  A    between atoms: C5_9  and  O4_12 
REMARK    9  A    between atoms: O4_12  and  C6_13 
REMARK   10  A    between atoms: C8_21  and  N4_22 
REMARK   11  A    between atoms: N4_22  and  O6_24 
REMARK   12  A    between atoms: C10_28  and  O7_29 
REMARK   13  A    between atoms: C10_28  and  C11_31 
REMARK   14  A    between atoms: C13_35  and  O10_37 
REMARK   15  A    between atoms: N6_40  and  O11_42 
ROOT
HETATM    1  N3  UNL     1      37.076  30.705 -21.520  1.00  0.00    -0.215 N 
HETATM    2  C7  UNL     1      36.306  31.391 -20.611  1.00  0.00     0.297 A 
HETATM    3  O5  UNL     1      35.433  30.914 -19.830  1.00  0.00    -0.264 OA
HETATM    4  C8  UNL     1      36.601  32.712 -20.640  1.00  0.00     0.154 A 
HETATM    5  C9  UNL     1      37.588  32.847 -21.604  1.00  0.00     0.117 A 
HETATM    6  N5  UNL     1      37.863  31.602 -22.130  1.00  0.00    -0.233 N 
HETATM    7  C10 UNL     1      38.857  31.489 -23.125  1.00  0.00     0.246 C 
HETATM    8  C12 UNL     1      39.428  32.807 -23.620  1.00  0.00     0.119 C 
HETATM    9  C13 UNL     1      39.688  33.795 -22.503  1.00  0.00     0.105 C 
HETATM   10  C14 UNL     1      40.483  33.234 -21.374  1.00  0.00     0.053 C 
HETATM   11  C15 UNL     1      38.251  34.067 -22.042  1.00  0.00     0.097 C 
HETATM   12  N6  UNL     1      37.804  35.231 -22.116  1.00  0.00    -0.268 N 
ATOM     13  H6  UNL     1      38.459  35.938 -22.452  1.00  0.00     0.194 HD
ENDROOT
BRANCH   1  14
HETATM   14  C3  UNL     1      36.958  29.298 -21.696  1.00  0.00     0.077 C 
BRANCH  14  15
HETATM   15  C2  UNL     1      36.332  28.831 -22.946  1.00  0.00     0.164 C 
HETATM   16  C1  UNL     1      34.941  28.257 -22.590  1.00  0.00     0.046 C 
BRANCH  15  17
HETATM   17  O1  UNL     1      37.014  27.645 -23.355  1.00  0.00    -0.390 OA
ATOM     18  H1  UNL     1      37.761  28.017 -23.809  1.00  0.00     0.210 HD
ENDBRANCH  15  17
ENDBRANCH  14  15
BRANCH  14  19
HETATM   19  C4  UNL     1      38.108  28.464 -21.166  1.00  0.00     0.224 C 
BRANCH  19  20
HETATM   20  O2  UNL     1      38.998  29.299 -20.437  1.00  0.00    -0.385 OA
ATOM     21  H2  UNL     1      39.560  28.759 -19.892  1.00  0.00     0.210 HD
ENDBRANCH  19  20
BRANCH  19  22
HETATM   22  C5  UNL     1      37.659  27.468 -20.083  1.00  0.00     0.300 C 
BRANCH  22  23
HETATM   23  O3  UNL     1      36.931  26.420 -20.567  1.00  0.00    -0.368 OA
ATOM     24  H3  UNL     1      37.288  25.569 -20.342  1.00  0.00     0.212 HD
ENDBRANCH  22  23
BRANCH  22  25
HETATM   25  O4  UNL     1      36.941  28.178 -19.066  1.00  0.00    -0.290 OA
BRANCH  25  26
HETATM   26  C6  UNL     1      35.845  27.593 -18.499  1.00  0.00     0.227 C 
HETATM   27  N1  UNL     1      34.671  27.990 -18.799  1.00  0.00    -0.368 N 
ATOM     28  H12 UNL     1      34.608  28.752 -19.474  1.00  0.00     0.159 HD
ATOM     29  H11 UNL     1      33.853  27.553 -18.376  1.00  0.00     0.159 HD
HETATM   30  N2  UNL     1      35.935  26.519 -17.549  1.00  0.00    -0.057 NA
ENDBRANCH  25  26
ENDBRANCH  22  25
ENDBRANCH  19  22
ENDBRANCH  14  19
ENDBRANCH   1  14
BRANCH   4  31
HETATM   31  N4  UNL     1      36.033  33.755 -19.835  1.00  0.00    -0.262 N 
ATOM     32  H4  UNL     1      36.128  34.728 -20.127  1.00  0.00     0.194 HD
BRANCH  31  33
HETATM   33  O6  UNL     1      35.425  33.483 -18.786  1.00  0.00    -0.289 OA
ATOM     34  H6  UNL     1      34.926  34.151 -18.331  1.00  0.00     0.244 HD
ENDBRANCH  31  33
ENDBRANCH   4  31
BRANCH   7  35
HETATM   35  O7  UNL     1      40.035  30.822 -22.746  1.00  0.00    -0.361 OA
ATOM     36  H7  UNL     1      40.810  31.020 -23.260  1.00  0.00     0.213 HD
ENDBRANCH   7  35
BRANCH   7  37
HETATM   37  C11 UNL     1      38.386  30.910 -24.442  1.00  0.00     0.233 C 
HETATM   38  O8  UNL     1      37.656  31.585 -25.175  1.00  0.00    -0.644 OA
HETATM   39  O9  UNL     1      38.776  29.633 -24.815  1.00  0.00    -0.644 OA
ENDBRANCH   7  37
BRANCH   9  40
HETATM   40  O10 UNL     1      40.216  34.937 -23.034  1.00  0.00    -0.384 OA
ATOM     41  H10 UNL     1      40.439  35.532 -22.329  1.00  0.00     0.211 HD
ENDBRANCH   9  40
BRANCH  12  42
HETATM   42  O11 UNL     1      36.584  35.667 -21.811  1.00  0.00    -0.290 OA
ATOM     43  H11 UNL     1      36.299  36.561 -21.659  1.00  0.00     0.244 HD
ENDBRANCH  12  42
TORSDOF 15
ENDMDL
MODEL 5
REMARK VINA RESULT: -5.258773827      1.024      1.222
REMARK  15 active torsions:
REMARK  status: ('A' for Active; 'I' for Inactive)
REMARK    1  A    between atoms: C2_2  and  O1_3 
REMARK    2  A    between atoms: C2_2  and  C3_5 
REMARK    3  A    between atoms: C3_5  and  C4_6 
REMARK    4  A    between atoms: C3_5  and  N3_18 
REMARK    5  A    between atoms: C4_6  and  O2_7 
REMARK    6  A    between atoms: C4_6  and  C5_9 
REMARK    7  A    between atoms: C5_9  and  O3_10 
REMARK    8  A    between atoms: C5_9  and  O4_12 
REMARK    9  A    between atoms: O4_12  and  C6_13 
REMARK   10  A    between atoms: C8_21  and  N4_22 
REMARK   11  A    between atoms: N4_22  and  O6_24 
REMARK   12  A    between atoms: C10_28  and  O7_29 
REMARK   13  A    between atoms: C10_28  and  C11_31 
REMARK   14  A    between atoms: C13_35  and  O10_37 
REMARK   15  A    between atoms: N6_40  and  O11_42 
ROOT
HETATM    1  N3  UNL     1      36.745  29.812 -21.652  1.00  0.00    -0.215 N 
HETATM    2  C7  UNL     1      36.039  30.580 -20.757  1.00  0.00     0.297 A 
HETATM    3  O5  UNL     1      35.172  30.186 -19.925  1.00  0.00    -0.264 OA
HETATM    4  C8  UNL     1      36.393  31.882 -20.867  1.00  0.00     0.154 A 
HETATM    5  C9  UNL     1      37.352  31.919 -21.867  1.00  0.00     0.117 A 
HETATM    6  N5  UNL     1      37.552  30.637 -22.334  1.00  0.00    -0.233 N 
HETATM    7  C10 UNL     1      38.504  30.425 -23.352  1.00  0.00     0.246 C 
HETATM    8  C12 UNL     1      39.118  31.686 -23.935  1.00  0.00     0.119 C 
HETATM    9  C13 UNL     1      39.461  32.717 -22.882  1.00  0.00     0.105 C 
HETATM   10  C14 UNL     1      40.267  32.179 -21.749  1.00  0.00     0.053 C 
HETATM   11  C15 UNL     1      38.055  33.082 -22.391  1.00  0.00     0.097 C 
HETATM   12  N6  UNL     1      37.660  34.260 -22.513  1.00  0.00    -0.268 N 
ATOM     13  H6  UNL     1      38.334  34.917 -22.907  1.00  0.00     0.194 HD
ENDROOT
BRANCH   1  14
HETATM   14  C3  UNL     1      36.557  28.404 -21.749  1.00  0.00     0.077 C 
BRANCH  14  15
HETATM   15  C2  UNL     1      37.216  27.570 -20.729  1.00  0.00     0.164 C 
HETATM   16  C1  UNL     1      36.113  26.818 -19.949  1.00  0.00     0.046 C 
BRANCH  15  17
HETATM   17  O1  UNL     1      37.715  28.440 -19.713  1.00  0.00    -0.390 OA
ATOM     18  H1  UNL     1      38.104  29.127 -20.242  1.00  0.00     0.210 HD
ENDBRANCH  15  17
ENDBRANCH  14  15
BRANCH  14  19
HETATM   19  C4  UNL     1      35.187  27.947 -22.211  1.00  0.00     0.224 C 
BRANCH  19  20
HETATM   20  O2  UNL     1      34.365  29.084 -22.442  1.00  0.00    -0.385 OA
ATOM     21  H2  UNL     1      33.458  28.807 -22.508  1.00  0.00     0.210 HD
ENDBRANCH  19  20
BRANCH  19  22
HETATM   22  C5  UNL     1      35.224  27.302 -23.607  1.00  0.00     0.300 C 
BRANCH  22  23
HETATM   23  O3  UNL     1      35.335  28.203 -24.626  1.00  0.00    -0.368 OA
ATOM     24  H3  UNL     1      35.404  27.803 -25.485  1.00  0.00     0.212 HD
ENDBRANCH  22  23
BRANCH  22  25
HETATM   25  O4  UNL     1      34.069  26.471 -23.767  1.00  0.00    -0.290 OA
BRANCH  25  26
HETATM   26  C6  UNL     1      33.409  26.478 -24.963  1.00  0.00     0.227 C 
HETATM   27  N1  UNL     1      32.363  27.191 -25.121  1.00  0.00    -0.368 N 
ATOM     28  H12 UNL     1      32.062  27.741 -24.317  1.00  0.00     0.159 HD
ATOM     29  H11 UNL     1      31.871  27.196 -26.014  1.00  0.00     0.159 HD
HETATM   30  N2  UNL     1      33.834  25.704 -26.096  1.00  0.00    -0.057 NA
ENDBRANCH  25  26
ENDBRANCH  22  25
ENDBRANCH  19  22
ENDBRANCH  14  19
ENDBRANCH   1  14
BRANCH   4  31
HETATM   31  N4  UNL     1      35.901  32.991 -20.101  1.00  0.00    -0.262 N 
ATOM     32  H4  UNL     1      36.021  33.942 -20.453  1.00  0.00     0.194 HD
BRANCH  31  33
HETATM   33  O6  UNL     1      35.329  32.804 -19.014  1.00  0.00    -0.289 OA
ATOM     34  H6  UNL     1      35.618  33.260 -18.233  1.00  0.00     0.244 HD
ENDBRANCH  31  33
ENDBRANCH   4  31
BRANCH   7  35
HETATM   35  O7  UNL     1      39.663  29.722 -22.976  1.00  0.00    -0.361 OA
ATOM     36  H7  UNL     1      39.887  28.970 -23.512  1.00  0.00     0.213 HD
ENDBRANCH   7  35
BRANCH   7  37
HETATM   37  C11 UNL     1      37.963  29.801 -24.621  1.00  0.00     0.233 C 
HETATM   38  O8  UNL     1      37.251  30.476 -25.373  1.00  0.00    -0.644 OA
HETATM   39  O9  UNL     1      38.268  28.484 -24.929  1.00  0.00    -0.644 OA
ENDBRANCH   7  37
BRANCH   9  40
HETATM   40  O10 UNL     1      40.023  33.803 -23.490  1.00  0.00    -0.384 OA
ATOM     41  H10 UNL     1      40.391  34.374 -22.825  1.00  0.00     0.211 HD
ENDBRANCH   9  40
BRANCH  12  42
HETATM   42  O11 UNL     1      36.472  34.769 -22.193  1.00  0.00    -0.290 OA
ATOM     43  H11 UNL     1      36.283  35.540 -21.671  1.00  0.00     0.244 HD
ENDBRANCH  12  42
TORSDOF 15
ENDMDL
