MODEL 1
REMARK VINA RESULT: -6.753609930      0.000      0.000
REMARK  10 active torsions:
REMARK  status: ('A' for Active; 'I' for Inactive)
REMARK    1  A    between atoms: N1_1  and  C1_4 
REMARK    2  A    between atoms: C4_11  and  N4_12 
REMARK    3  A    between atoms: N5_15  and  C5_16 
REMARK    4  A    between atoms: C7_19  and  O4_20 
REMARK    5  A    between atoms: C7_19  and  C9_26 
REMARK    6  A    between atoms: O4_20  and  C8_21 
REMARK    7  A    between atoms: C8_21  and  N6_22 
REMARK    8  A    between atoms: C10_32  and  C11_33 
REMARK    9  A    between atoms: C12_36  and  N9_37 
REMARK   10  A    between atoms: C13_42  and  N11_43 
ROOT
HETATM    1  C1  UNL     1      37.433  28.865 -23.085  1.00  0.00     0.678 A 
HETATM    2  N2  UNL     1      37.505  30.201 -22.953  1.00  0.00    -0.174 N 
ATOM      3  H2  UNL     1      37.974  30.743 -23.678  1.00  0.00     0.186 HD
HETATM    4  C2  UNL     1      36.977  30.847 -21.896  1.00  0.00     0.157 A 
HETATM    5  C3  UNL     1      36.347  30.082 -20.932  1.00  0.00     0.112 A 
HETATM    6  N3  UNL     1      35.939  30.981 -20.035  1.00  0.00    -0.318 N 
ATOM      7  H3  UNL     1      35.431  30.750 -19.181  1.00  0.00     0.169 HD
HETATM    8  C4  UNL     1      36.288  32.252 -20.406  1.00  0.00     0.256 A 
HETATM    9  N5  UNL     1      36.931  32.180 -21.557  1.00  0.00    -0.265 N 
HETATM   10  C10 UNL     1      36.257  28.720 -21.036  1.00  0.00     0.124 A 
HETATM   11  N13 UNL     1      36.819  28.145 -22.137  1.00  0.00    -0.186 N 
ATOM     12  H13 UNL     1      36.770  27.132 -22.243  1.00  0.00     0.184 HD
ENDROOT
BRANCH   9  13
HETATM   13  C5  UNL     1      37.496  33.182 -22.367  1.00  0.00     0.326 C 
HETATM   14  C6  UNL     1      38.925  33.551 -22.153  1.00  0.00     0.229 C 
HETATM   15  O3  UNL     1      39.034  34.463 -23.238  1.00  0.00    -0.321 OA
HETATM   16  C7  UNL     1      37.932  35.294 -23.052  1.00  0.00     0.433 C 
HETATM   17  N7  UNL     1      36.867  34.455 -22.444  1.00  0.00     0.017 N 
ATOM     18  H72 UNL     1      35.975  34.466 -22.939  1.00  0.00     0.287 HD
ATOM     19  H71 UNL     1      36.493  34.806 -21.562  1.00  0.00     0.287 HD
BRANCH  16  20
HETATM   20  O4  UNL     1      38.196  36.289 -22.165  1.00  0.00    -0.297 OA
BRANCH  20  21
HETATM   21  C8  UNL     1      37.173  37.016 -21.651  1.00  0.00     0.402 C 
BRANCH  21  22
HETATM   22  N6  UNL     1      37.533  37.556 -20.318  1.00  0.00    -0.058 N 
ATOM     23  H63 UNL     1      37.189  36.962 -19.564  1.00  0.00     0.276 HD
ATOM     24  H62 UNL     1      38.533  37.473 -20.134  1.00  0.00     0.276 HD
ATOM     25  H61 UNL     1      37.209  38.518 -20.221  1.00  0.00     0.276 HD
ENDBRANCH  21  22
ENDBRANCH  20  21
ENDBRANCH  16  20
BRANCH  16  26
HETATM   26  C9  UNL     1      37.475  35.728 -24.388  1.00  0.00     0.271 C 
HETATM   27  O5  UNL     1      38.281  36.177 -25.261  1.00  0.00    -0.642 OA
HETATM   28  O6  UNL     1      36.154  35.669 -24.753  1.00  0.00    -0.642 OA
ENDBRANCH  16  26
ENDBRANCH   9  13
BRANCH   8  29
HETATM   29  N4  UNL     1      35.942  33.338 -19.581  1.00  0.00    -0.079 N 
HETATM   30  O1  UNL     1      35.042  33.242 -18.713  1.00  0.00    -0.529 OA
HETATM   31  O2  UNL     1      36.547  34.544 -19.663  1.00  0.00    -0.529 OA
ENDBRANCH   8  29
BRANCH   1  32
HETATM   32  N1  UNL     1      37.932  28.229 -24.089  1.00  0.00    -0.234 N 
ATOM     33  H12 UNL     1      37.531  28.409 -25.009  1.00  0.00     0.174 HD
ATOM     34  H11 UNL     1      38.700  27.563 -24.000  1.00  0.00     0.174 HD
ENDBRANCH   1  32
BRANCH  10  35
HETATM   35  C11 UNL     1      35.603  27.890 -20.044  1.00  0.00     0.166 A 
HETATM   36  N8  UNL     1      36.381  27.397 -19.024  1.00  0.00    -0.173 N 
HETATM   37  C12 UNL     1      35.892  26.624 -18.056  1.00  0.00     0.692 A 
ATOM     38  H8  UNL     1      37.373  27.633 -19.007  1.00  0.00     0.186 HD
HETATM   39  N10 UNL     1      34.576  26.297 -18.054  1.00  0.00    -0.023 N 
HETATM   40  C13 UNL     1      33.790  26.760 -19.034  1.00  0.00     0.692 A 
ATOM     41  H10 UNL     1      34.191  25.706 -17.317  1.00  0.00     0.203 HD
HETATM   42  N12 UNL     1      34.322  27.546 -20.006  1.00  0.00    -0.173 N 
ATOM     43  H12 UNL     1      33.706  27.889 -20.743  1.00  0.00     0.186 HD
BRANCH  37  44
HETATM   44  N9  UNL     1      36.675  26.198 -17.131  1.00  0.00    -0.234 N 
ATOM     45  H92 UNL     1      37.498  26.734 -16.856  1.00  0.00     0.174 HD
ATOM     46  H91 UNL     1      36.471  25.311 -16.670  1.00  0.00     0.174 HD
ENDBRANCH  37  44
BRANCH  40  47
HETATM   47  N11 UNL     1      32.543  26.450 -19.034  1.00  0.00    -0.234 N 
ATOM     48 2H11 UNL     1      32.219  25.556 -18.666  1.00  0.00     0.174 HD
ATOM     49 1H11 UNL     1      31.866  27.114 -19.411  1.00  0.00     0.174 HD
ENDBRANCH  40  47
ENDBRANCH  10  35
TORSDOF 10
ENDMDL
MODEL 2
REMARK VINA RESULT: -6.385633459      6.255     10.262
REMARK  10 active torsions:
REMARK  status: ('A' for Active; 'I' for Inactive)
REMARK    1  A    between atoms: N1_1  and  C1_4 
REMARK    2  A    between atoms: C4_11  and  N4_12 
REMARK    3  A    between atoms: N5_15  and  C5_16 
REMARK    4  A    between atoms: C7_19  and  O4_20 
REMARK    5  A    between atoms: C7_19  and  C9_26 
REMARK    6  A    between atoms: O4_20  and  C8_21 
REMARK    7  A    between atoms: C8_21  and  N6_22 
REMARK    8  A    between atoms: C10_32  and  C11_33 
REMARK    9  A    between atoms: C12_36  and  N9_37 
REMARK   10  A    between atoms: C13_42  and  N11_43 
ROOT
HETATM    1  C1  UNL     1      30.570  24.187 -15.414  1.00  0.00     0.678 A 
HETATM    2  N2  UNL     1      31.509  24.572 -16.296  1.00  0.00    -0.174 N 
ATOM      3  H2  UNL     1      31.260  25.250 -17.016  1.00  0.00     0.186 HD
HETATM    4  C2  UNL     1      32.767  24.093 -16.260  1.00  0.00     0.157 A 
HETATM    5  C3  UNL     1      33.071  23.177 -15.270  1.00  0.00     0.112 A 
HETATM    6  N3  UNL     1      34.356  22.895 -15.488  1.00  0.00    -0.318 N 
ATOM      7  H3  UNL     1      34.904  22.241 -14.928  1.00  0.00     0.169 HD
HETATM    8  C4  UNL     1      34.848  23.594 -16.558  1.00  0.00     0.256 A 
HETATM    9  N5  UNL     1      33.871  24.339 -17.043  1.00  0.00    -0.265 N 
HETATM   10  C10 UNL     1      32.139  22.765 -14.357  1.00  0.00     0.124 A 
HETATM   11  N13 UNL     1      30.889  23.297 -14.465  1.00  0.00    -0.186 N 
ATOM     12  H13 UNL     1      30.171  23.009 -13.801  1.00  0.00     0.184 HD
ENDROOT
BRANCH   9  13
HETATM   13  C5  UNL     1      33.842  25.237 -18.126  1.00  0.00     0.326 C 
HETATM   14  C6  UNL     1      33.276  24.771 -19.424  1.00  0.00     0.229 C 
HETATM   15  O3  UNL     1      33.360  26.014 -20.107  1.00  0.00    -0.321 OA
HETATM   16  C7  UNL     1      34.676  26.405 -19.875  1.00  0.00     0.433 C 
HETATM   17  N7  UNL     1      35.044  25.877 -18.535  1.00  0.00     0.017 N 
ATOM     18  H72 UNL     1      35.406  26.572 -17.883  1.00  0.00     0.287 HD
ATOM     19  H71 UNL     1      35.875  25.286 -18.518  1.00  0.00     0.287 HD
BRANCH  16  20
HETATM   20  O4  UNL     1      35.533  25.838 -20.764  1.00  0.00    -0.297 OA
BRANCH  20  21
HETATM   21  C8  UNL     1      35.559  26.283 -22.045  1.00  0.00     0.402 C 
BRANCH  21  22
HETATM   22  N6  UNL     1      34.428  25.718 -22.818  1.00  0.00    -0.058 N 
ATOM     23  H63 UNL     1      33.703  25.342 -22.206  1.00  0.00     0.276 HD
ATOM     24  H62 UNL     1      33.880  26.447 -23.273  1.00  0.00     0.276 HD
ATOM     25  H61 UNL     1      34.760  25.022 -23.484  1.00  0.00     0.276 HD
ENDBRANCH  21  22
ENDBRANCH  20  21
ENDBRANCH  16  20
BRANCH  16  26
HETATM   26  C9  UNL     1      34.695  27.881 -19.813  1.00  0.00     0.271 C 
HETATM   27  O5  UNL     1      35.517  28.512 -19.077  1.00  0.00    -0.642 OA
HETATM   28  O6  UNL     1      33.825  28.645 -20.546  1.00  0.00    -0.642 OA
ENDBRANCH  16  26
ENDBRANCH   9  13
BRANCH   8  29
HETATM   29  N4  UNL     1      36.191  23.425 -16.943  1.00  0.00    -0.079 N 
HETATM   30  O1  UNL     1      36.611  22.335 -17.400  1.00  0.00    -0.529 OA
HETATM   31  O2  UNL     1      37.110  24.411 -16.849  1.00  0.00    -0.529 OA
ENDBRANCH   8  29
BRANCH   1  32
HETATM   32  N1  UNL     1      29.361  24.633 -15.433  1.00  0.00    -0.234 N 
ATOM     33  H12 UNL     1      28.834  24.534 -16.301  1.00  0.00     0.174 HD
ATOM     34  H11 UNL     1      28.918  25.076 -14.628  1.00  0.00     0.174 HD
ENDBRANCH   1  32
BRANCH  10  35
HETATM   35  C11 UNL     1      32.426  21.807 -13.307  1.00  0.00     0.166 A 
HETATM   36  N8  UNL     1      31.405  20.973 -12.920  1.00  0.00    -0.173 N 
HETATM   37  C12 UNL     1      31.549  20.054 -11.967  1.00  0.00     0.692 A 
ATOM     38  H8  UNL     1      30.499  21.061 -13.381  1.00  0.00     0.186 HD
HETATM   39  N10 UNL     1      32.743  19.916 -11.339  1.00  0.00    -0.023 N 
HETATM   40  C13 UNL     1      33.759  20.713 -11.692  1.00  0.00     0.692 A 
ATOM     41  H10 UNL     1      32.865  19.215 -10.608  1.00  0.00     0.203 HD
HETATM   42  N12 UNL     1      33.577  21.640 -12.668  1.00  0.00    -0.173 N 
ATOM     43  H12 UNL     1      34.364  22.237 -12.922  1.00  0.00     0.186 HD
BRANCH  37  44
HETATM   44  N9  UNL     1      30.552  19.306 -11.654  1.00  0.00    -0.234 N 
ATOM     45  H92 UNL     1      29.597  19.657 -11.717  1.00  0.00     0.174 HD
ATOM     46  H91 UNL     1      30.721  18.352 -11.336  1.00  0.00     0.174 HD
ENDBRANCH  37  44
BRANCH  40  47
HETATM   47  N11 UNL     1      34.891  20.584 -11.097  1.00  0.00    -0.234 N 
ATOM     48 2H11 UNL     1      35.254  19.665 -10.843  1.00  0.00     0.174 HD
ATOM     49 1H11 UNL     1      35.433  21.419 -10.876  1.00  0.00     0.174 HD
ENDBRANCH  40  47
ENDBRANCH  10  35
TORSDOF 10
ENDMDL
MODEL 3
REMARK VINA RESULT: -6.204160542      3.820      6.777
REMARK  10 active torsions:
REMARK  status: ('A' for Active; 'I' for Inactive)
REMARK    1  A    between atoms: N1_1  and  C1_4 
REMARK    2  A    between atoms: C4_11  and  N4_12 
REMARK    3  A    between atoms: N5_15  and  C5_16 
REMARK    4  A    between atoms: C7_19  and  O4_20 
REMARK    5  A    between atoms: C7_19  and  C9_26 
REMARK    6  A    between atoms: O4_20  and  C8_21 
REMARK    7  A    between atoms: C8_21  and  N6_22 
REMARK    8  A    between atoms: C10_32  and  C11_33 
REMARK    9  A    between atoms: C12_36  and  N9_37 
REMARK   10  A    between atoms: C13_42  and  N11_43 
ROOT
HETATM    1  C1  UNL     1      31.381  26.569 -18.191  1.00  0.00     0.678 A 
HETATM    2  N2  UNL     1      32.430  27.179 -18.769  1.00  0.00    -0.174 N 
ATOM      3  H2  UNL     1      32.271  28.032 -19.304  1.00  0.00     0.186 HD
HETATM    4  C2  UNL     1      33.685  26.700 -18.666  1.00  0.00     0.157 A 
HETATM    5  C3  UNL     1      33.865  25.542 -17.933  1.00  0.00     0.112 A 
HETATM    6  N3  UNL     1      35.178  25.322 -18.010  1.00  0.00    -0.318 N 
ATOM      7  H3  UNL     1      35.656  24.534 -17.573  1.00  0.00     0.169 HD
HETATM    8  C4  UNL     1      35.804  26.289 -18.752  1.00  0.00     0.256 A 
HETATM    9  N5  UNL     1      34.888  27.147 -19.161  1.00  0.00    -0.265 N 
HETATM   10  C10 UNL     1      32.818  24.896 -17.332  1.00  0.00     0.124 A 
HETATM   11  N13 UNL     1      31.580  25.447 -17.488  1.00  0.00    -0.186 N 
ATOM     12  H13 UNL     1      30.779  24.990 -17.054  1.00  0.00     0.184 HD
ENDROOT
BRANCH   9  13
HETATM   13  C5  UNL     1      34.993  28.312 -19.943  1.00  0.00     0.326 C 
HETATM   14  C6  UNL     1      35.196  28.169 -21.414  1.00  0.00     0.229 C 
HETATM   15  O3  UNL     1      35.119  29.551 -21.735  1.00  0.00    -0.321 OA
HETATM   16  C7  UNL     1      36.010  30.127 -20.833  1.00  0.00     0.433 C 
HETATM   17  N7  UNL     1      35.961  29.297 -19.602  1.00  0.00     0.017 N 
ATOM     18  H72 UNL     1      35.768  29.811 -18.742  1.00  0.00     0.287 HD
ATOM     19  H71 UNL     1      36.861  28.928 -19.295  1.00  0.00     0.287 HD
BRANCH  16  20
HETATM   20  O4  UNL     1      37.289  30.074 -21.286  1.00  0.00    -0.297 OA
BRANCH  20  21
HETATM   21  C8  UNL     1      38.298  30.522 -20.498  1.00  0.00     0.402 C 
BRANCH  21  22
HETATM   22  N6  UNL     1      39.400  29.533 -20.446  1.00  0.00    -0.058 N 
ATOM     23  H63 UNL     1      39.048  28.575 -20.427  1.00  0.00     0.276 HD
ATOM     24  H62 UNL     1      39.911  29.489 -21.327  1.00  0.00     0.276 HD
ATOM     25  H61 UNL     1      40.019  29.725 -19.659  1.00  0.00     0.276 HD
ENDBRANCH  21  22
ENDBRANCH  20  21
ENDBRANCH  16  20
BRANCH  16  26
HETATM   26  C9  UNL     1      35.498  31.474 -20.504  1.00  0.00     0.271 C 
HETATM   27  O5  UNL     1      35.076  32.269 -21.401  1.00  0.00    -0.642 OA
HETATM   28  O6  UNL     1      35.456  31.934 -19.213  1.00  0.00    -0.642 OA
ENDBRANCH  16  26
ENDBRANCH   9  13
BRANCH   8  29
HETATM   29  N4  UNL     1      37.196  26.225 -18.947  1.00  0.00    -0.079 N 
HETATM   30  O1  UNL     1      37.901  25.365 -18.366  1.00  0.00    -0.529 OA
HETATM   31  O2  UNL     1      37.862  27.071 -19.762  1.00  0.00    -0.529 OA
ENDBRANCH   8  29
BRANCH   1  32
HETATM   32  N1  UNL     1      30.173  27.012 -18.280  1.00  0.00    -0.234 N 
ATOM     33  H12 UNL     1      29.595  26.657 -19.041  1.00  0.00     0.174 HD
ATOM     34  H11 UNL     1      29.781  27.693 -17.630  1.00  0.00     0.174 HD
ENDBRANCH   1  32
BRANCH  10  35
HETATM   35  C11 UNL     1      32.973  23.681 -16.557  1.00  0.00     0.166 A 
HETATM   36  N8  UNL     1      32.267  23.590 -15.382  1.00  0.00    -0.173 N 
HETATM   37  C12 UNL     1      32.329  22.524 -14.586  1.00  0.00     0.692 A 
ATOM     38  H8  UNL     1      31.670  24.370 -15.108  1.00  0.00     0.186 HD
HETATM   39  N10 UNL     1      33.115  21.473 -14.929  1.00  0.00    -0.023 N 
HETATM   40  C13 UNL     1      33.817  21.529 -16.067  1.00  0.00     0.692 A 
ATOM     41  H10 UNL     1      33.170  20.651 -14.327  1.00  0.00     0.203 HD
HETATM   42  N12 UNL     1      33.730  22.632 -16.855  1.00  0.00    -0.173 N 
ATOM     43  H12 UNL     1      34.272  22.656 -17.718  1.00  0.00     0.186 HD
BRANCH  37  44
HETATM   44  N9  UNL     1      31.642  22.503 -13.501  1.00  0.00    -0.234 N 
ATOM     45  H92 UNL     1      31.799  23.198 -12.772  1.00  0.00     0.174 HD
ATOM     46  H91 UNL     1      30.933  21.782 -13.370  1.00  0.00     0.174 HD
ENDBRANCH  37  44
BRANCH  40  47
HETATM   47  N11 UNL     1      34.563  20.534 -16.392  1.00  0.00    -0.234 N 
ATOM     48 2H11 UNL     1      34.336  19.584 -16.099  1.00  0.00     0.174 HD
ATOM     49 1H11 UNL     1      35.397  20.702 -16.954  1.00  0.00     0.174 HD
ENDBRANCH  40  47
ENDBRANCH  10  35
TORSDOF 10
ENDMDL
MODEL 4
REMARK VINA RESULT: -6.186797414      4.790      8.177
REMARK  10 active torsions:
REMARK  status: ('A' for Active; 'I' for Inactive)
REMARK    1  A    between atoms: N1_1  and  C1_4 
REMARK    2  A    between atoms: C4_11  and  N4_12 
REMARK    3  A    between atoms: N5_15  and  C5_16 
REMARK    4  A    between atoms: C7_19  and  O4_20 
REMARK    5  A    between atoms: C7_19  and  C9_26 
REMARK    6  A    between atoms: O4_20  and  C8_21 
REMARK    7  A    between atoms: C8_21  and  N6_22 
REMARK    8  A    between atoms: C10_32  and  C11_33 
REMARK    9  A    between atoms: C12_36  and  N9_37 
REMARK   10  A    between atoms: C13_42  and  N11_43 
ROOT
HETATM    1  C1  UNL     1      31.308  25.583 -17.015  1.00  0.00     0.678 A 
HETATM    2  N2  UNL     1      32.275  25.969 -17.865  1.00  0.00    -0.174 N 
ATOM      3  H2  UNL     1      32.064  26.688 -18.558  1.00  0.00     0.186 HD
HETATM    4  C2  UNL     1      33.513  25.440 -17.833  1.00  0.00     0.157 A 
HETATM    5  C3  UNL     1      33.765  24.470 -16.881  1.00  0.00     0.112 A 
HETATM    6  N3  UNL     1      35.042  24.147 -17.093  1.00  0.00    -0.318 N 
ATOM      7  H3  UNL     1      35.555  23.448 -16.556  1.00  0.00     0.169 HD
HETATM    8  C4  UNL     1      35.577  24.873 -18.124  1.00  0.00     0.256 A 
HETATM    9  N5  UNL     1      34.638  25.677 -18.588  1.00  0.00    -0.265 N 
HETATM   10  C10 UNL     1      32.803  24.054 -16.001  1.00  0.00     0.124 A 
HETATM   11  N13 UNL     1      31.576  24.640 -16.103  1.00  0.00    -0.186 N 
ATOM     12  H13 UNL     1      30.837  24.351 -15.462  1.00  0.00     0.184 HD
ENDROOT
BRANCH   9  13
HETATM   13  C5  UNL     1      34.661  26.622 -19.630  1.00  0.00     0.326 C 
HETATM   14  C6  UNL     1      35.083  26.177 -20.989  1.00  0.00     0.229 C 
HETATM   15  O3  UNL     1      34.829  27.404 -21.661  1.00  0.00    -0.321 OA
HETATM   16  C7  UNL     1      35.483  28.335 -20.859  1.00  0.00     0.433 C 
HETATM   17  N7  UNL     1      35.401  27.825 -19.466  1.00  0.00     0.017 N 
ATOM     18  H72 UNL     1      35.012  28.482 -18.789  1.00  0.00     0.287 HD
ATOM     19  H71 UNL     1      36.298  27.718 -18.993  1.00  0.00     0.287 HD
BRANCH  16  20
HETATM   20  O4  UNL     1      36.805  28.421 -21.164  1.00  0.00    -0.297 OA
BRANCH  20  21
HETATM   21  C8  UNL     1      37.709  28.614 -20.171  1.00  0.00     0.402 C 
BRANCH  21  22
HETATM   22  N6  UNL     1      38.225  30.004 -20.199  1.00  0.00    -0.058 N 
ATOM     23  H63 UNL     1      37.647  30.633 -19.643  1.00  0.00     0.276 HD
ATOM     24  H62 UNL     1      39.096  30.094 -19.676  1.00  0.00     0.276 HD
ATOM     25  H61 UNL     1      38.325  30.331 -21.160  1.00  0.00     0.276 HD
ENDBRANCH  21  22
ENDBRANCH  20  21
ENDBRANCH  16  20
BRANCH  16  26
HETATM   26  C9  UNL     1      34.721  29.599 -20.936  1.00  0.00     0.271 C 
HETATM   27  O5  UNL     1      33.682  29.713 -21.659  1.00  0.00    -0.642 OA
HETATM   28  O6  UNL     1      35.099  30.713 -20.233  1.00  0.00    -0.642 OA
ENDBRANCH  16  26
ENDBRANCH   9  13
BRANCH   8  29
HETATM   29  N4  UNL     1      36.919  24.669 -18.496  1.00  0.00    -0.079 N 
HETATM   30  O1  UNL     1      37.738  25.617 -18.543  1.00  0.00    -0.529 OA
HETATM   31  O2  UNL     1      37.412  23.454 -18.825  1.00  0.00    -0.529 OA
ENDBRANCH   8  29
BRANCH   1  32
HETATM   32  N1  UNL     1      30.117  26.077 -17.032  1.00  0.00    -0.234 N 
ATOM     33  H12 UNL     1      29.335  25.423 -17.042  1.00  0.00     0.174 HD
ATOM     34  H11 UNL     1      29.931  27.079 -17.036  1.00  0.00     0.174 HD
ENDBRANCH   1  32
BRANCH  10  35
HETATM   35  C11 UNL     1      33.036  23.040 -14.991  1.00  0.00     0.166 A 
HETATM   36  N8  UNL     1      32.128  22.012 -14.911  1.00  0.00    -0.173 N 
HETATM   37  C12 UNL     1      32.237  21.024 -14.024  1.00  0.00     0.692 A 
ATOM     38  H8  UNL     1      31.338  22.005 -15.556  1.00  0.00     0.186 HD
HETATM   39  N10 UNL     1      33.278  21.010 -13.156  1.00  0.00    -0.023 N 
HETATM   40  C13 UNL     1      34.181  21.997 -13.207  1.00  0.00     0.692 A 
ATOM     41  H10 UNL     1      33.372  20.258 -12.473  1.00  0.00     0.203 HD
HETATM   42  N12 UNL     1      34.039  22.989 -14.124  1.00  0.00    -0.173 N 
ATOM     43  H12 UNL     1      34.738  23.731 -14.147  1.00  0.00     0.186 HD
BRANCH  37  44
HETATM   44  N9  UNL     1      31.352  20.093 -14.003  1.00  0.00    -0.234 N 
ATOM     45  H92 UNL     1      30.992  19.736 -13.119  1.00  0.00     0.174 HD
ATOM     46  H91 UNL     1      31.008  19.708 -14.883  1.00  0.00     0.174 HD
ENDBRANCH  37  44
BRANCH  40  47
HETATM   47  N11 UNL     1      35.168  21.985 -12.384  1.00  0.00    -0.234 N 
ATOM     48 2H11 UNL     1      36.038  22.474 -12.593  1.00  0.00     0.174 HD
ATOM     49 1H11 UNL     1      35.075  21.475 -11.505  1.00  0.00     0.174 HD
ENDBRANCH  40  47
ENDBRANCH  10  35
TORSDOF 10
ENDMDL
MODEL 5
REMARK VINA RESULT: -6.166416245      4.716      7.998
REMARK  10 active torsions:
REMARK  status: ('A' for Active; 'I' for Inactive)
REMARK    1  A    between atoms: N1_1  and  C1_4 
REMARK    2  A    between atoms: C4_11  and  N4_12 
REMARK    3  A    between atoms: N5_15  and  C5_16 
REMARK    4  A    between atoms: C7_19  and  O4_20 
REMARK    5  A    between atoms: C7_19  and  C9_26 
REMARK    6  A    between atoms: O4_20  and  C8_21 
REMARK    7  A    between atoms: C8_21  and  N6_22 
REMARK    8  A    between atoms: C10_32  and  C11_33 
REMARK    9  A    between atoms: C12_36  and  N9_37 
REMARK   10  A    between atoms: C13_42  and  N11_43 
ROOT
HETATM    1  C1  UNL     1      31.208  25.705 -17.140  1.00  0.00     0.678 A 
HETATM    2  N2  UNL     1      32.196  26.066 -17.977  1.00  0.00    -0.174 N 
ATOM      3  H2  UNL     1      32.008  26.778 -18.683  1.00  0.00     0.186 HD
HETATM    4  C2  UNL     1      33.425  25.520 -17.915  1.00  0.00     0.157 A 
HETATM    5  C3  UNL     1      33.645  24.559 -16.946  1.00  0.00     0.112 A 
HETATM    6  N3  UNL     1      34.921  24.214 -17.129  1.00  0.00    -0.318 N 
ATOM      7  H3  UNL     1      35.413  23.515 -16.573  1.00  0.00     0.169 HD
HETATM    8  C4  UNL     1      35.486  24.918 -18.160  1.00  0.00     0.256 A 
HETATM    9  N5  UNL     1      34.567  25.729 -18.652  1.00  0.00    -0.265 N 
HETATM   10  C10 UNL     1      32.661  24.169 -16.078  1.00  0.00     0.124 A 
HETATM   11  N13 UNL     1      31.446  24.771 -16.210  1.00  0.00    -0.186 N 
ATOM     12  H13 UNL     1      30.691  24.501 -15.580  1.00  0.00     0.184 HD
ENDROOT
BRANCH   9  13
HETATM   13  C5  UNL     1      34.623  26.660 -19.706  1.00  0.00     0.326 C 
HETATM   14  C6  UNL     1      35.103  26.200 -21.041  1.00  0.00     0.229 C 
HETATM   15  O3  UNL     1      34.865  27.414 -21.740  1.00  0.00    -0.321 OA
HETATM   16  C7  UNL     1      35.478  28.363 -20.925  1.00  0.00     0.433 C 
HETATM   17  N7  UNL     1      35.345  27.872 -19.529  1.00  0.00     0.017 N 
ATOM     18  H72 UNL     1      34.924  28.535 -18.878  1.00  0.00     0.287 HD
ATOM     19  H71 UNL     1      36.224  27.780 -19.020  1.00  0.00     0.287 HD
BRANCH  16  20
HETATM   20  O4  UNL     1      36.810  28.457 -21.179  1.00  0.00    -0.297 OA
BRANCH  20  21
HETATM   21  C8  UNL     1      37.672  28.675 -20.154  1.00  0.00     0.402 C 
BRANCH  21  22
HETATM   22  N6  UNL     1      38.212  30.055 -20.210  1.00  0.00    -0.058 N 
ATOM     23  H63 UNL     1      37.493  30.750 -20.011  1.00  0.00     0.276 HD
ATOM     24  H62 UNL     1      38.834  30.250 -19.426  1.00  0.00     0.276 HD
ATOM     25  H61 UNL     1      38.667  30.226 -21.106  1.00  0.00     0.276 HD
ENDBRANCH  21  22
ENDBRANCH  20  21
ENDBRANCH  16  20
BRANCH  16  26
HETATM   26  C9  UNL     1      34.709  29.618 -21.051  1.00  0.00     0.271 C 
HETATM   27  O5  UNL     1      33.687  29.707 -21.802  1.00  0.00    -0.642 OA
HETATM   28  O6  UNL     1      35.061  30.752 -20.366  1.00  0.00    -0.642 OA
ENDBRANCH  16  26
ENDBRANCH   9  13
BRANCH   8  29
HETATM   29  N4  UNL     1      36.831  24.689 -18.505  1.00  0.00    -0.079 N 
HETATM   30  O1  UNL     1      37.647  25.634 -18.626  1.00  0.00    -0.529 OA
HETATM   31  O2  UNL     1      37.331  23.454 -18.725  1.00  0.00    -0.529 OA
ENDBRANCH   8  29
BRANCH   1  32
HETATM   32  N1  UNL     1      30.025  26.216 -17.185  1.00  0.00    -0.234 N 
ATOM     33  H12 UNL     1      29.241  25.613 -16.938  1.00  0.00     0.174 HD
ATOM     34  H11 UNL     1      29.847  27.184 -17.454  1.00  0.00     0.174 HD
ENDBRANCH   1  32
BRANCH  10  35
HETATM   35  C11 UNL     1      32.861  23.165 -15.050  1.00  0.00     0.166 A 
HETATM   36  N8  UNL     1      34.018  23.241 -14.313  1.00  0.00    -0.173 N 
HETATM   37  C12 UNL     1      34.312  22.376 -13.344  1.00  0.00     0.692 A 
ATOM     38  H8  UNL     1      34.680  23.990 -14.517  1.00  0.00     0.186 HD
HETATM   39  N10 UNL     1      33.448  21.372 -13.054  1.00  0.00    -0.023 N 
HETATM   40  C13 UNL     1      32.311  21.269 -13.753  1.00  0.00     0.692 A 
ATOM     41  H10 UNL     1      33.662  20.704 -12.313  1.00  0.00     0.203 HD
HETATM   42  N12 UNL     1      32.044  22.169 -14.735  1.00  0.00    -0.173 N 
ATOM     43  H12 UNL     1      31.172  22.073 -15.255  1.00  0.00     0.186 HD
BRANCH  37  44
HETATM   44  N9  UNL     1      35.412  22.505 -12.694  1.00  0.00    -0.234 N 
ATOM     45  H92 UNL     1      35.677  21.827 -11.980  1.00  0.00     0.174 HD
ATOM     46  H91 UNL     1      36.024  23.295 -12.894  1.00  0.00     0.174 HD
ENDBRANCH  37  44
BRANCH  40  47
HETATM   47  N11 UNL     1      31.492  20.317 -13.479  1.00  0.00    -0.234 N 
ATOM     48 2H11 UNL     1      30.494  20.406 -13.668  1.00  0.00     0.174 HD
ATOM     49 1H11 UNL     1      31.851  19.458 -13.063  1.00  0.00     0.174 HD
ENDBRANCH  40  47
ENDBRANCH  10  35
TORSDOF 10
ENDMDL
