MODEL 1
REMARK VINA RESULT: -7.181953301      0.000      0.000
REMARK  15 active torsions:
REMARK  status: ('A' for Active; 'I' for Inactive)
REMARK    1  A    between atoms: C1_2  and  C2_4 
REMARK    2  A    between atoms: C4_8  and  C5_9 
REMARK    3  A    between atoms: N1_10  and  N2_12 
REMARK    4  A    between atoms: N2_12  and  C6_14 
REMARK    5  A    between atoms: C7_16  and  C8_17 
REMARK    6  A    between atoms: C8_17  and  O6_18 
REMARK    7  A    between atoms: C9_20  and  C10_21 
REMARK    8  A    between atoms: C10_21  and  O7_22 
REMARK    9  A    between atoms: C10_21  and  O8_24 
REMARK   10  A    between atoms: C11_26  and  C12_27 
REMARK   11  A    between atoms: C12_27  and  O9_28 
REMARK   12  A    between atoms: C12_27  and  O10_30 
REMARK   13  A    between atoms: C13_32  and  O11_33 
REMARK   14  A    between atoms: C14_35  and  O12_36 
REMARK   15  A    between atoms: C16_40  and  O14_41 
ROOT
HETATM    1  C6  UNL     1      32.310  25.490 -18.078  1.00  0.00     0.197 A 
HETATM    2  O5  UNL     1      31.141  25.548 -17.490  1.00  0.00    -0.292 OA
HETATM    3  C7  UNL     1      30.884  24.960 -16.324  1.00  0.00     0.090 A 
HETATM    4  C9  UNL     1      31.859  24.253 -15.680  1.00  0.00     0.042 A 
HETATM    5  C11 UNL     1      33.093  24.175 -16.273  1.00  0.00     0.047 A 
HETATM    6  C13 UNL     1      33.375  24.791 -17.500  1.00  0.00     0.130 A 
ENDROOT
BRANCH   1   7
HETATM    7  N2  UNL     1      32.423  26.090 -19.180  1.00  0.00    -0.278 N 
ATOM      8  H2  UNL     1      31.549  26.149 -19.700  1.00  0.00     0.189 HD
BRANCH   7   9
HETATM    9  N1  UNL     1      33.466  26.673 -19.814  1.00  0.00    -0.309 N 
HETATM   10  C5  UNL     1      33.972  27.773 -19.468  1.00  0.00     0.127 C 
ATOM     11  H1  UNL     1      33.867  26.193 -20.619  1.00  0.00     0.186 HD
BRANCH  10  12
HETATM   12  C4  UNL     1      35.073  28.497 -20.054  1.00  0.00     0.093 C 
HETATM   13  C3  UNL     1      36.357  27.994 -19.831  1.00  0.00     0.303 C 
HETATM   14  O3  UNL     1      37.519  28.644 -19.815  1.00  0.00    -0.265 OA
HETATM   15  O4  UNL     1      36.389  26.760 -19.619  1.00  0.00    -0.259 OA
HETATM   16  C2  UNL     1      37.829  29.845 -20.307  1.00  0.00     0.192 C 
HETATM   17  C16 UNL     1      36.937  30.893 -20.402  1.00  0.00     0.160 C 
HETATM   18  C15 UNL     1      35.611  30.790 -20.771  1.00  0.00     0.241 C 
HETATM   19  C14 UNL     1      34.797  29.640 -20.792  1.00  0.00     0.137 C 
HETATM   20  O13 UNL     1      35.022  31.821 -21.138  1.00  0.00    -0.282 OA
BRANCH  16  21
HETATM   21  C1  UNL     1      39.188  30.059 -20.769  1.00  0.00     0.237 C 
HETATM   22  O1  UNL     1      39.982  29.087 -20.606  1.00  0.00    -0.642 OA
HETATM   23  O2  UNL     1      39.697  31.178 -21.354  1.00  0.00    -0.642 OA
ENDBRANCH  16  21
BRANCH  17  24
HETATM   24  O14 UNL     1      37.397  32.143 -20.108  1.00  0.00    -0.355 OA
ATOM     25  H14 UNL     1      37.116  32.857 -20.667  1.00  0.00     0.218 HD
ENDBRANCH  17  24
BRANCH  19  26
HETATM   26  O12 UNL     1      33.702  29.656 -21.567  1.00  0.00    -0.356 OA
ATOM     27  H12 UNL     1      33.274  30.487 -21.733  1.00  0.00     0.218 HD
ENDBRANCH  19  26
ENDBRANCH  10  12
ENDBRANCH   7   9
ENDBRANCH   1   7
BRANCH   6  28
HETATM   28  O11 UNL     1      34.562  24.761 -18.139  1.00  0.00    -0.356 OA
ATOM     29  H11 UNL     1      35.324  24.426 -17.681  1.00  0.00     0.218 HD
ENDBRANCH   6  28
BRANCH   3  30
HETATM   30  C8  UNL     1      29.530  25.092 -15.758  1.00  0.00     0.230 C 
BRANCH  30  31
HETATM   31  O6  UNL     1      28.799  26.099 -16.449  1.00  0.00    -0.394 OA
ATOM     32  H6  UNL     1      27.921  26.174 -16.094  1.00  0.00     0.209 HD
ENDBRANCH  30  31
ENDBRANCH   3  30
BRANCH   5  33
HETATM   33  C12 UNL     1      34.193  23.442 -15.655  1.00  0.00     0.292 C 
BRANCH  33  34
HETATM   34  O9  UNL     1      34.708  22.535 -16.622  1.00  0.00    -0.367 OA
ATOM     35  H9  UNL     1      35.375  22.007 -16.198  1.00  0.00     0.213 HD
ENDBRANCH  33  34
BRANCH  33  36
HETATM   36  O10 UNL     1      35.285  24.278 -15.366  1.00  0.00    -0.367 OA
ATOM     37  H10 UNL     1      36.056  24.041 -15.867  1.00  0.00     0.213 HD
ENDBRANCH  33  36
ENDBRANCH   5  33
BRANCH   4  38
HETATM   38  C10 UNL     1      31.576  23.635 -14.398  1.00  0.00     0.291 C 
BRANCH  38  39
HETATM   39  O7  UNL     1      32.588  23.793 -13.430  1.00  0.00    -0.367 OA
ATOM     40  H7  UNL     1      32.276  23.869 -12.535  1.00  0.00     0.213 HD
ENDBRANCH  38  39
BRANCH  38  41
HETATM   41  O8  UNL     1      31.410  22.219 -14.534  1.00  0.00    -0.367 OA
ATOM     42  H8  UNL     1      30.533  22.006 -14.831  1.00  0.00     0.213 HD
ENDBRANCH  38  41
ENDBRANCH   4  38
TORSDOF 15
ENDMDL
MODEL 2
REMARK VINA RESULT: -6.938089553      2.904      4.546
REMARK  15 active torsions:
REMARK  status: ('A' for Active; 'I' for Inactive)
REMARK    1  A    between atoms: C1_2  and  C2_4 
REMARK    2  A    between atoms: C4_8  and  C5_9 
REMARK    3  A    between atoms: N1_10  and  N2_12 
REMARK    4  A    between atoms: N2_12  and  C6_14 
REMARK    5  A    between atoms: C7_16  and  C8_17 
REMARK    6  A    between atoms: C8_17  and  O6_18 
REMARK    7  A    between atoms: C9_20  and  C10_21 
REMARK    8  A    between atoms: C10_21  and  O7_22 
REMARK    9  A    between atoms: C10_21  and  O8_24 
REMARK   10  A    between atoms: C11_26  and  C12_27 
REMARK   11  A    between atoms: C12_27  and  O9_28 
REMARK   12  A    between atoms: C12_27  and  O10_30 
REMARK   13  A    between atoms: C13_32  and  O11_33 
REMARK   14  A    between atoms: C14_35  and  O12_36 
REMARK   15  A    between atoms: C16_40  and  O14_41 
ROOT
HETATM    1  C6  UNL     1      34.664  27.936 -19.458  1.00  0.00     0.197 A 
HETATM    2  O5  UNL     1      33.432  27.500 -19.367  1.00  0.00    -0.292 OA
HETATM    3  C7  UNL     1      33.086  26.447 -18.631  1.00  0.00     0.090 A 
HETATM    4  C9  UNL     1      34.032  25.761 -17.922  1.00  0.00     0.042 A 
HETATM    5  C11 UNL     1      35.330  26.196 -17.999  1.00  0.00     0.047 A 
HETATM    6  C13 UNL     1      35.705  27.304 -18.770  1.00  0.00     0.130 A 
ENDROOT
BRANCH   1   7
HETATM    7  N2  UNL     1      34.859  28.944 -20.188  1.00  0.00    -0.278 N 
ATOM      8  H2  UNL     1      34.263  28.965 -21.015  1.00  0.00     0.189 HD
BRANCH   7   9
HETATM    9  N1  UNL     1      35.695  30.003 -20.100  1.00  0.00    -0.309 N 
HETATM   10  C5  UNL     1      35.551  31.066 -20.760  1.00  0.00     0.127 C 
ATOM     11  H1  UNL     1      36.487  29.938 -19.462  1.00  0.00     0.186 HD
BRANCH  10  12
HETATM   12  C4  UNL     1      36.365  32.258 -20.761  1.00  0.00     0.093 C 
HETATM   13  C3  UNL     1      35.947  33.314 -19.949  1.00  0.00     0.303 C 
HETATM   14  O3  UNL     1      36.177  34.619 -20.089  1.00  0.00    -0.265 OA
HETATM   15  O4  UNL     1      35.263  32.957 -18.962  1.00  0.00    -0.259 OA
HETATM   16  C2  UNL     1      37.100  35.246 -20.820  1.00  0.00     0.192 C 
HETATM   17  C16 UNL     1      37.612  34.755 -22.002  1.00  0.00     0.160 C 
HETATM   18  C15 UNL     1      37.925  33.435 -22.258  1.00  0.00     0.241 C 
HETATM   19  C14 UNL     1      37.497  32.287 -21.563  1.00  0.00     0.137 C 
HETATM   20  O13 UNL     1      38.676  33.185 -23.216  1.00  0.00    -0.282 OA
BRANCH  16  21
HETATM   21  C1  UNL     1      37.595  36.522 -20.337  1.00  0.00     0.237 C 
HETATM   22  O1  UNL     1      37.146  37.545 -20.932  1.00  0.00    -0.642 OA
HETATM   23  O2  UNL     1      38.479  36.738 -19.324  1.00  0.00    -0.642 OA
ENDBRANCH  16  21
BRANCH  17  24
HETATM   24  O14 UNL     1      37.832  35.644 -23.013  1.00  0.00    -0.355 OA
ATOM     25  H14 UNL     1      37.073  35.982 -23.474  1.00  0.00     0.218 HD
ENDBRANCH  17  24
BRANCH  19  26
HETATM   26  O12 UNL     1      38.227  31.167 -21.685  1.00  0.00    -0.356 OA
ATOM     27  H12 UNL     1      38.142  30.653 -22.478  1.00  0.00     0.218 HD
ENDBRANCH  19  26
ENDBRANCH  10  12
ENDBRANCH   7   9
ENDBRANCH   1   7
BRANCH   6  28
HETATM   28  O11 UNL     1      36.958  27.790 -18.889  1.00  0.00    -0.356 OA
ATOM     29  H11 UNL     1      37.645  27.219 -19.210  1.00  0.00     0.218 HD
ENDBRANCH   6  28
BRANCH   3  30
HETATM   30  C8  UNL     1      31.668  26.046 -18.607  1.00  0.00     0.230 C 
BRANCH  30  31
HETATM   31  O6  UNL     1      30.844  27.157 -18.272  1.00  0.00    -0.394 OA
ATOM     32  H6  UNL     1      29.932  26.894 -18.238  1.00  0.00     0.209 HD
ENDBRANCH  30  31
ENDBRANCH   3  30
BRANCH   5  33
HETATM   33  C12 UNL     1      36.404  25.525 -17.274  1.00  0.00     0.292 C 
BRANCH  33  34
HETATM   34  O9  UNL     1      37.438  25.229 -18.205  1.00  0.00    -0.367 OA
ATOM     35  H9  UNL     1      38.185  24.904 -17.716  1.00  0.00     0.213 HD
ENDBRANCH  33  34
BRANCH  33  36
HETATM   36  O10 UNL     1      37.025  26.378 -16.346  1.00  0.00    -0.367 OA
ATOM     37  H10 UNL     1      37.877  26.053 -16.080  1.00  0.00     0.213 HD
ENDBRANCH  33  36
ENDBRANCH   5  33
BRANCH   4  38
HETATM   38  C10 UNL     1      33.642  24.628 -17.104  1.00  0.00     0.291 C 
BRANCH  38  39
HETATM   39  O7  UNL     1      34.337  24.513 -15.884  1.00  0.00    -0.367 OA
ATOM     40  H7  UNL     1      34.547  23.623 -15.626  1.00  0.00     0.213 HD
ENDBRANCH  38  39
BRANCH  38  41
HETATM   41  O8  UNL     1      33.882  23.393 -17.787  1.00  0.00    -0.367 OA
ATOM     42  H8  UNL     1      33.893  22.663 -17.178  1.00  0.00     0.213 HD
ENDBRANCH  38  41
ENDBRANCH   4  38
TORSDOF 15
ENDMDL
MODEL 3
REMARK VINA RESULT: -6.740008325      0.805      2.734
REMARK  15 active torsions:
REMARK  status: ('A' for Active; 'I' for Inactive)
REMARK    1  A    between atoms: C1_2  and  C2_4 
REMARK    2  A    between atoms: C4_8  and  C5_9 
REMARK    3  A    between atoms: N1_10  and  N2_12 
REMARK    4  A    between atoms: N2_12  and  C6_14 
REMARK    5  A    between atoms: C7_16  and  C8_17 
REMARK    6  A    between atoms: C8_17  and  O6_18 
REMARK    7  A    between atoms: C9_20  and  C10_21 
REMARK    8  A    between atoms: C10_21  and  O7_22 
REMARK    9  A    between atoms: C10_21  and  O8_24 
REMARK   10  A    between atoms: C11_26  and  C12_27 
REMARK   11  A    between atoms: C12_27  and  O9_28 
REMARK   12  A    between atoms: C12_27  and  O10_30 
REMARK   13  A    between atoms: C13_32  and  O11_33 
REMARK   14  A    between atoms: C14_35  and  O12_36 
REMARK   15  A    between atoms: C16_40  and  O14_41 
ROOT
HETATM    1  C6  UNL     1      32.255  25.711 -18.138  1.00  0.00     0.197 A 
HETATM    2  O5  UNL     1      33.139  24.947 -17.544  1.00  0.00    -0.292 OA
HETATM    3  C7  UNL     1      32.899  24.314 -16.400  1.00  0.00     0.090 A 
HETATM    4  C9  UNL     1      31.687  24.440 -15.782  1.00  0.00     0.042 A 
HETATM    5  C11 UNL     1      30.743  25.234 -16.381  1.00  0.00     0.047 A 
HETATM    6  C13 UNL     1      30.984  25.905 -17.588  1.00  0.00     0.130 A 
ENDROOT
BRANCH   1   7
HETATM    7  N2  UNL     1      32.606  26.254 -19.218  1.00  0.00    -0.278 N 
ATOM      8  H2  UNL     1      32.182  25.829 -20.042  1.00  0.00     0.189 HD
BRANCH   7   9
HETATM    9  N1  UNL     1      33.430  27.287 -19.511  1.00  0.00    -0.309 N 
HETATM   10  C5  UNL     1      34.394  27.208 -20.317  1.00  0.00     0.127 C 
ATOM     11  H1  UNL     1      33.259  28.182 -19.053  1.00  0.00     0.186 HD
BRANCH  10  12
HETATM   12  C4  UNL     1      35.340  28.223 -20.712  1.00  0.00     0.093 C 
HETATM   13  C3  UNL     1      36.695  27.926 -20.552  1.00  0.00     0.303 C 
HETATM   14  O3  UNL     1      37.718  28.759 -20.369  1.00  0.00    -0.265 OA
HETATM   15  O4  UNL     1      36.955  26.701 -20.589  1.00  0.00    -0.259 OA
HETATM   16  C2  UNL     1      37.800  30.071 -20.602  1.00  0.00     0.192 C 
HETATM   17  C16 UNL     1      36.730  30.937 -20.515  1.00  0.00     0.160 C 
HETATM   18  C15 UNL     1      35.443  30.672 -20.940  1.00  0.00     0.241 C 
HETATM   19  C14 UNL     1      34.855  29.422 -21.215  1.00  0.00     0.137 C 
HETATM   20  O13 UNL     1      34.673  31.632 -21.113  1.00  0.00    -0.282 OA
BRANCH  16  21
HETATM   21  C1  UNL     1      39.094  30.616 -20.968  1.00  0.00     0.237 C 
HETATM   22  O1  UNL     1      40.097  29.920 -20.634  1.00  0.00    -0.642 OA
HETATM   23  O2  UNL     1      39.345  31.781 -21.626  1.00  0.00    -0.642 OA
ENDBRANCH  16  21
BRANCH  17  24
HETATM   24  O14 UNL     1      36.953  32.164 -19.963  1.00  0.00    -0.355 OA
ATOM     25  H14 UNL     1      37.531  32.757 -20.429  1.00  0.00     0.218 HD
ENDBRANCH  17  24
BRANCH  19  26
HETATM   26  O12 UNL     1      33.772  29.395 -22.007  1.00  0.00    -0.356 OA
ATOM     27  H12 UNL     1      32.923  29.237 -21.611  1.00  0.00     0.218 HD
ENDBRANCH  19  26
ENDBRANCH  10  12
ENDBRANCH   7   9
ENDBRANCH   1   7
BRANCH   6  28
HETATM   28  O11 UNL     1      30.104  26.696 -18.235  1.00  0.00    -0.356 OA
ATOM     29  H11 UNL     1      30.094  26.695 -19.184  1.00  0.00     0.218 HD
ENDBRANCH   6  28
BRANCH   3  30
HETATM   30  C8  UNL     1      33.971  23.482 -15.823  1.00  0.00     0.230 C 
BRANCH  30  31
HETATM   31  O6  UNL     1      34.924  24.299 -15.151  1.00  0.00    -0.394 OA
ATOM     32  H6  UNL     1      35.400  23.789 -14.506  1.00  0.00     0.209 HD
ENDBRANCH  30  31
ENDBRANCH   3  30
BRANCH   5  33
HETATM   33  C12 UNL     1      29.421  25.425 -15.793  1.00  0.00     0.292 C 
BRANCH  33  34
HETATM   34  O9  UNL     1      28.663  26.238 -16.681  1.00  0.00    -0.367 OA
ATOM     35  H9  UNL     1      29.209  26.433 -17.433  1.00  0.00     0.213 HD
ENDBRANCH  33  34
BRANCH  33  36
HETATM   36  O10 UNL     1      28.693  24.224 -15.736  1.00  0.00    -0.367 OA
ATOM     37  H10 UNL     1      28.027  24.245 -15.059  1.00  0.00     0.213 HD
ENDBRANCH  33  36
ENDBRANCH   5  33
BRANCH   4  38
HETATM   38  C10 UNL     1      31.427  23.727 -14.546  1.00  0.00     0.291 C 
BRANCH  38  39
HETATM   39  O7  UNL     1      32.496  23.724 -13.629  1.00  0.00    -0.367 OA
ATOM     40  H7  UNL     1      33.292  23.312 -13.945  1.00  0.00     0.213 HD
ENDBRANCH  38  39
BRANCH  38  41
HETATM   41  O8  UNL     1      31.149  22.345 -14.798  1.00  0.00    -0.367 OA
ATOM     42  H8  UNL     1      31.492  21.796 -14.103  1.00  0.00     0.213 HD
ENDBRANCH  38  41
ENDBRANCH   4  38
TORSDOF 15
ENDMDL
MODEL 4
REMARK VINA RESULT: -6.716769633      3.354      9.978
REMARK  15 active torsions:
REMARK  status: ('A' for Active; 'I' for Inactive)
REMARK    1  A    between atoms: C1_2  and  C2_4 
REMARK    2  A    between atoms: C4_8  and  C5_9 
REMARK    3  A    between atoms: N1_10  and  N2_12 
REMARK    4  A    between atoms: N2_12  and  C6_14 
REMARK    5  A    between atoms: C7_16  and  C8_17 
REMARK    6  A    between atoms: C8_17  and  O6_18 
REMARK    7  A    between atoms: C9_20  and  C10_21 
REMARK    8  A    between atoms: C10_21  and  O7_22 
REMARK    9  A    between atoms: C10_21  and  O8_24 
REMARK   10  A    between atoms: C11_26  and  C12_27 
REMARK   11  A    between atoms: C12_27  and  O9_28 
REMARK   12  A    between atoms: C12_27  and  O10_30 
REMARK   13  A    between atoms: C13_32  and  O11_33 
REMARK   14  A    between atoms: C14_35  and  O12_36 
REMARK   15  A    between atoms: C16_40  and  O14_41 
ROOT
HETATM    1  C6  UNL     1      38.268  32.367 -20.906  1.00  0.00     0.197 A 
HETATM    2  O5  UNL     1      37.240  32.776 -20.203  1.00  0.00    -0.292 OA
HETATM    3  C7  UNL     1      36.891  34.056 -20.104  1.00  0.00     0.090 A 
HETATM    4  C9  UNL     1      37.614  35.020 -20.750  1.00  0.00     0.042 A 
HETATM    5  C11 UNL     1      38.695  34.620 -21.493  1.00  0.00     0.047 A 
HETATM    6  C13 UNL     1      39.071  33.274 -21.605  1.00  0.00     0.130 A 
ENDROOT
BRANCH   1   7
HETATM    7  N2  UNL     1      38.491  31.128 -20.919  1.00  0.00    -0.278 N 
ATOM      8  H2  UNL     1      39.335  30.874 -21.431  1.00  0.00     0.189 HD
BRANCH   7   9
HETATM    9  N1  UNL     1      37.843  30.064 -20.392  1.00  0.00    -0.309 N 
HETATM   10  C5  UNL     1      36.863  29.497 -20.943  1.00  0.00     0.127 C 
ATOM     11  H1  UNL     1      38.167  29.700 -19.497  1.00  0.00     0.186 HD
BRANCH  10  12
HETATM   12  C4  UNL     1      36.089  28.367 -20.490  1.00  0.00     0.093 C 
HETATM   13  C3  UNL     1      34.698  28.495 -20.522  1.00  0.00     0.303 C 
HETATM   14  O3  UNL     1      33.784  27.879 -19.774  1.00  0.00    -0.265 OA
HETATM   15  O4  UNL     1      34.282  29.306 -21.381  1.00  0.00    -0.259 OA
HETATM   16  C2  UNL     1      33.893  26.773 -19.036  1.00  0.00     0.192 C 
HETATM   17  C16 UNL     1      35.060  26.367 -18.422  1.00  0.00     0.160 C 
HETATM   18  C15 UNL     1      36.326  26.449 -18.966  1.00  0.00     0.241 C 
HETATM   19  C14 UNL     1      36.761  27.236 -20.050  1.00  0.00     0.137 C 
HETATM   20  O13 UNL     1      37.226  25.756 -18.463  1.00  0.00    -0.282 OA
BRANCH  16  21
HETATM   21  C1  UNL     1      32.711  25.948 -18.872  1.00  0.00     0.237 C 
HETATM   22  O1  UNL     1      32.385  25.250 -19.876  1.00  0.00    -0.642 OA
HETATM   23  O2  UNL     1      31.922  25.842 -17.767  1.00  0.00    -0.642 OA
ENDBRANCH  16  21
BRANCH  17  24
HETATM   24  O14 UNL     1      34.963  25.839 -17.168  1.00  0.00    -0.355 OA
ATOM     25  H14 UNL     1      35.643  26.062 -16.544  1.00  0.00     0.218 HD
ENDBRANCH  17  24
BRANCH  19  26
HETATM   26  O12 UNL     1      37.883  26.866 -20.688  1.00  0.00    -0.356 OA
ATOM     27  H12 UNL     1      38.705  26.891 -20.213  1.00  0.00     0.218 HD
ENDBRANCH  19  26
ENDBRANCH  10  12
ENDBRANCH   7   9
ENDBRANCH   1   7
BRANCH   6  28
HETATM   28  O11 UNL     1      40.116  32.809 -22.318  1.00  0.00    -0.356 OA
ATOM     29  H11 UNL     1      39.996  32.043 -22.867  1.00  0.00     0.218 HD
ENDBRANCH   6  28
BRANCH   3  30
HETATM   30  C8  UNL     1      35.716  34.399 -19.284  1.00  0.00     0.230 C 
BRANCH  30  31
HETATM   31  O6  UNL     1      35.228  33.244 -18.610  1.00  0.00    -0.394 OA
ATOM     32  H6  UNL     1      35.951  32.730 -18.268  1.00  0.00     0.209 HD
ENDBRANCH  30  31
ENDBRANCH   3  30
BRANCH   5  33
HETATM   33  C12 UNL     1      39.522  35.580 -22.216  1.00  0.00     0.292 C 
BRANCH  33  34
HETATM   34  O9  UNL     1      40.873  35.377 -21.820  1.00  0.00    -0.367 OA
ATOM     35  H9  UNL     1      40.961  35.680 -20.924  1.00  0.00     0.213 HD
ENDBRANCH  33  34
BRANCH  33  36
HETATM   36  O10 UNL     1      39.537  35.325 -23.598  1.00  0.00    -0.367 OA
ATOM     37  H10 UNL     1      38.935  35.889 -24.070  1.00  0.00     0.213 HD
ENDBRANCH  33  36
ENDBRANCH   5  33
BRANCH   4  38
HETATM   38  C10 UNL     1      37.211  36.410 -20.655  1.00  0.00     0.291 C 
BRANCH  38  39
HETATM   39  O7  UNL     1      37.058  37.067 -21.892  1.00  0.00    -0.367 OA
ATOM     40  H7  UNL     1      36.962  38.011 -21.834  1.00  0.00     0.213 HD
ENDBRANCH  38  39
BRANCH  38  41
HETATM   41  O8  UNL     1      38.186  37.181 -19.943  1.00  0.00    -0.367 OA
ATOM     42  H8  UNL     1      38.044  38.111 -20.070  1.00  0.00     0.213 HD
ENDBRANCH  38  41
ENDBRANCH   4  38
TORSDOF 15
ENDMDL
MODEL 5
REMARK VINA RESULT: -6.328349868      1.683      9.329
REMARK  15 active torsions:
REMARK  status: ('A' for Active; 'I' for Inactive)
REMARK    1  A    between atoms: C1_2  and  C2_4 
REMARK    2  A    between atoms: C4_8  and  C5_9 
REMARK    3  A    between atoms: N1_10  and  N2_12 
REMARK    4  A    between atoms: N2_12  and  C6_14 
REMARK    5  A    between atoms: C7_16  and  C8_17 
REMARK    6  A    between atoms: C8_17  and  O6_18 
REMARK    7  A    between atoms: C9_20  and  C10_21 
REMARK    8  A    between atoms: C10_21  and  O7_22 
REMARK    9  A    between atoms: C10_21  and  O8_24 
REMARK   10  A    between atoms: C11_26  and  C12_27 
REMARK   11  A    between atoms: C12_27  and  O9_28 
REMARK   12  A    between atoms: C12_27  and  O10_30 
REMARK   13  A    between atoms: C13_32  and  O11_33 
REMARK   14  A    between atoms: C14_35  and  O12_36 
REMARK   15  A    between atoms: C16_40  and  O14_41 
ROOT
HETATM    1  C6  UNL     1      37.159  28.679 -19.800  1.00  0.00     0.197 A 
HETATM    2  O5  UNL     1      38.385  28.765 -20.255  1.00  0.00    -0.292 OA
HETATM    3  C7  UNL     1      38.883  29.874 -20.793  1.00  0.00     0.090 A 
HETATM    4  C9  UNL     1      38.113  30.998 -20.895  1.00  0.00     0.042 A 
HETATM    5  C11 UNL     1      36.825  30.936 -20.427  1.00  0.00     0.047 A 
HETATM    6  C13 UNL     1      36.289  29.773 -19.858  1.00  0.00     0.130 A 
ENDROOT
BRANCH   1   7
HETATM    7  N2  UNL     1      36.808  27.571 -19.314  1.00  0.00    -0.278 N 
ATOM      8  H2  UNL     1      37.513  26.842 -19.419  1.00  0.00     0.189 HD
BRANCH   7   9
HETATM    9  N1  UNL     1      35.690  27.150 -18.680  1.00  0.00    -0.309 N 
HETATM   10  C5  UNL     1      34.934  26.244 -19.119  1.00  0.00     0.127 C 
ATOM     11  H1  UNL     1      35.446  27.592 -17.794  1.00  0.00     0.186 HD
BRANCH  10  12
HETATM   12  C4  UNL     1      33.722  25.709 -18.548  1.00  0.00     0.093 C 
HETATM   13  C3  UNL     1      32.653  26.592 -18.380  1.00  0.00     0.303 C 
HETATM   14  O3  UNL     1      31.654  26.539 -17.501  1.00  0.00    -0.265 OA
HETATM   15  O4  UNL     1      32.662  27.557 -19.179  1.00  0.00    -0.259 OA
HETATM   16  C2  UNL     1      31.213  25.510 -16.775  1.00  0.00     0.192 C 
HETATM   17  C16 UNL     1      32.016  24.479 -16.332  1.00  0.00     0.160 C 
HETATM   18  C15 UNL     1      33.029  23.880 -17.053  1.00  0.00     0.241 C 
HETATM   19  C14 UNL     1      33.691  24.367 -18.197  1.00  0.00     0.137 C 
HETATM   20  O13 UNL     1      33.438  22.768 -16.678  1.00  0.00    -0.282 OA
BRANCH  16  21
HETATM   21  C1  UNL     1      29.803  25.475 -16.434  1.00  0.00     0.237 C 
HETATM   22  O1  UNL     1      29.069  26.300 -17.051  1.00  0.00    -0.642 OA
HETATM   23  O2  UNL     1      29.190  24.659 -15.533  1.00  0.00    -0.642 OA
ENDBRANCH  16  21
BRANCH  17  24
HETATM   24  O14 UNL     1      31.796  24.006 -15.072  1.00  0.00    -0.355 OA
ATOM     25  H14 UNL     1      30.931  24.128 -14.701  1.00  0.00     0.218 HD
ENDBRANCH  17  24
BRANCH  19  26
HETATM   26  O12 UNL     1      34.321  23.482 -18.986  1.00  0.00    -0.356 OA
ATOM     27  H12 UNL     1      34.731  22.726 -18.584  1.00  0.00     0.218 HD
ENDBRANCH  19  26
ENDBRANCH  10  12
ENDBRANCH   7   9
ENDBRANCH   1   7
BRANCH   6  28
HETATM   28  O11 UNL     1      35.038  29.641 -19.375  1.00  0.00    -0.356 OA
ATOM     29  H11 UNL     1      34.894  29.717 -18.439  1.00  0.00     0.218 HD
ENDBRANCH   6  28
BRANCH   3  30
HETATM   30  C8  UNL     1      40.277  29.854 -21.272  1.00  0.00     0.230 C 
BRANCH  30  31
HETATM   31  O6  UNL     1      41.179  29.824 -20.172  1.00  0.00    -0.394 OA
ATOM     32  H6  UNL     1      40.717  29.608 -19.370  1.00  0.00     0.209 HD
ENDBRANCH  30  31
ENDBRANCH   3  30
BRANCH   5  33
HETATM   33  C12 UNL     1      35.932  32.088 -20.495  1.00  0.00     0.292 C 
BRANCH  33  34
HETATM   34  O9  UNL     1      34.734  31.673 -21.141  1.00  0.00    -0.367 OA
ATOM     35  H9  UNL     1      34.800  31.914 -22.057  1.00  0.00     0.213 HD
ENDBRANCH  33  34
BRANCH  33  36
HETATM   36  O10 UNL     1      35.501  32.495 -19.221  1.00  0.00    -0.367 OA
ATOM     37  H10 UNL     1      35.631  31.816 -18.569  1.00  0.00     0.213 HD
ENDBRANCH  33  36
ENDBRANCH   5  33
BRANCH   4  38
HETATM   38  C10 UNL     1      38.673  32.210 -21.462  1.00  0.00     0.291 C 
BRANCH  38  39
HETATM   39  O7  UNL     1      38.296  33.399 -20.806  1.00  0.00    -0.367 OA
ATOM     40  H7  UNL     1      38.616  33.482 -19.916  1.00  0.00     0.213 HD
ENDBRANCH  38  39
BRANCH  38  41
HETATM   41  O8  UNL     1      38.254  32.385 -22.820  1.00  0.00    -0.367 OA
ATOM     42  H8  UNL     1      37.397  32.002 -22.964  1.00  0.00     0.213 HD
ENDBRANCH  38  41
ENDBRANCH   4  38
TORSDOF 15
ENDMDL
