MODEL 1
REMARK VINA RESULT: -10.920586784      0.000      0.000
REMARK  7 active torsions:
REMARK  status: ('A' for Active; 'I' for Inactive)
REMARK    1  A    between atoms: N1_1  and  C1_4 
REMARK    2  A    between atoms: C4_9  and  C5_10 
REMARK       I    between atoms: C5_10  and  N3_12 
REMARK    3  A    between atoms: N3_12  and  C6_14 
REMARK    4  A    between atoms: C9_17  and  N4_18 
REMARK    5  A    between atoms: N4_18  and  C10_20 
REMARK    6  A    between atoms: N5_31  and  C21_32 
REMARK    7  A    between atoms: C21_32  and  C22_33 
ROOT
HETATM    1  C1  UNL     1      10.005  26.205  36.165  1.00  0.00     0.679 A 
HETATM    2  N2  UNL     1      10.988  25.370  36.540  1.00  0.00    -0.190 N 
ATOM      3  H2  UNL     1      11.490  25.421  37.426  1.00  0.00     0.184 HD
HETATM    4  C2  UNL     1      11.213  24.461  35.584  1.00  0.00     0.077 A 
HETATM    5  C3  UNL     1      12.086  23.395  35.433  1.00  0.00     0.049 A 
HETATM    6  C4  UNL     1      12.126  22.591  34.314  1.00  0.00     0.034 A 
HETATM    7  C18 UNL     1      11.235  22.893  33.310  1.00  0.00     0.019 A 
HETATM    8  C19 UNL     1      10.343  23.936  33.401  1.00  0.00     0.034 A 
HETATM    9  C20 UNL     1      10.331  24.720  34.536  1.00  0.00     0.079 A 
HETATM   10  N5  UNL     1       9.613  25.801  34.946  1.00  0.00    -0.177 N 
ENDROOT
BRANCH   6  11
HETATM   11  C5  UNL     1      13.083  21.453  34.209  1.00  0.00     0.256 C 
HETATM   12  O1  UNL     1      14.227  21.814  33.830  1.00  0.00    -0.267 OA
HETATM   13  N3  UNL     1      12.688  20.147  34.514  1.00  0.00    -0.323 N 
ATOM     14  H3  UNL     1      11.721  19.999  34.804  1.00  0.00     0.169 HD
BRANCH  13  15
HETATM   15  C6  UNL     1      13.525  19.031  34.450  1.00  0.00     0.035 A 
HETATM   16  C7  UNL     1      14.293  18.649  33.375  1.00  0.00     0.032 A 
HETATM   17  C8  UNL     1      15.093  17.505  33.365  1.00  0.00     0.031 A 
HETATM   18  C9  UNL     1      15.120  16.721  34.479  1.00  0.00     0.032 A 
HETATM   19  C16 UNL     1      14.344  17.093  35.590  1.00  0.00     0.031 A 
HETATM   20  C17 UNL     1      13.574  18.207  35.577  1.00  0.00     0.032 A 
BRANCH  18  21
HETATM   21  N4  UNL     1      15.883  15.548  34.544  1.00  0.00    -0.356 N 
ATOM     22  H4  UNL     1      16.897  15.628  34.625  1.00  0.00     0.166 HD
BRANCH  21  23
HETATM   23  C10 UNL     1      15.304  14.255  34.499  1.00  0.00     0.032 A 
HETATM   24  C11 UNL     1      15.321  13.429  33.406  1.00  0.00     0.029 A 
HETATM   25  C12 UNL     1      14.775  12.175  33.385  1.00  0.00     0.002 A 
HETATM   26  C13 UNL     1      14.162  11.692  34.530  1.00  0.00     0.000 A 
HETATM   27  C14 UNL     1      14.129  12.503  35.645  1.00  0.00     0.002 A 
HETATM   28  C15 UNL     1      14.679  13.756  35.653  1.00  0.00     0.029 A 
ENDBRANCH  21  23
ENDBRANCH  18  21
ENDBRANCH  13  15
ENDBRANCH   6  11
BRANCH   1  29
HETATM   29  N1  UNL     1       9.546  27.217  36.871  1.00  0.00    -0.234 N 
ATOM     30  H12 UNL     1      10.043  27.778  37.564  1.00  0.00     0.174 HD
ATOM     31  H11 UNL     1       8.598  27.590  36.830  1.00  0.00     0.174 HD
ENDBRANCH   1  29
BRANCH  10  32
HETATM   32  C21 UNL     1       8.578  26.423  34.155  1.00  0.00     0.186 C 
BRANCH  32  33
HETATM   33  C22 UNL     1       7.329  25.658  34.030  1.00  0.00    -0.039 A 
HETATM   34  C23 UNL     1       6.859  25.350  32.745  1.00  0.00     0.009 A 
HETATM   35  C24 UNL     1       5.693  24.636  32.565  1.00  0.00     0.001 A 
HETATM   36  C25 UNL     1       4.994  24.230  33.683  1.00  0.00     0.000 A 
HETATM   37  C26 UNL     1       5.442  24.526  34.949  1.00  0.00     0.001 A 
HETATM   38  C27 UNL     1       6.608  25.239  35.128  1.00  0.00     0.009 A 
ENDBRANCH  32  33
ENDBRANCH  10  32
TORSDOF 7
ENDMDL
MODEL 2
REMARK VINA RESULT: -10.855874373      0.199      1.189
REMARK  7 active torsions:
REMARK  status: ('A' for Active; 'I' for Inactive)
REMARK    1  A    between atoms: N1_1  and  C1_4 
REMARK    2  A    between atoms: C4_9  and  C5_10 
REMARK       I    between atoms: C5_10  and  N3_12 
REMARK    3  A    between atoms: N3_12  and  C6_14 
REMARK    4  A    between atoms: C9_17  and  N4_18 
REMARK    5  A    between atoms: N4_18  and  C10_20 
REMARK    6  A    between atoms: N5_31  and  C21_32 
REMARK    7  A    between atoms: C21_32  and  C22_33 
ROOT
HETATM    1  C1  UNL     1      10.262  26.222  36.161  1.00  0.00     0.679 A 
HETATM    2  N2  UNL     1      11.225  25.363  36.535  1.00  0.00    -0.190 N 
ATOM      3  H2  UNL     1      11.725  25.398  37.423  1.00  0.00     0.184 HD
HETATM    4  C2  UNL     1      11.433  24.455  35.574  1.00  0.00     0.077 A 
HETATM    5  C3  UNL     1      12.283  23.371  35.420  1.00  0.00     0.049 A 
HETATM    6  C4  UNL     1      12.309  22.572  34.296  1.00  0.00     0.034 A 
HETATM    7  C18 UNL     1      11.428  22.901  33.291  1.00  0.00     0.019 A 
HETATM    8  C19 UNL     1      10.560  23.962  33.385  1.00  0.00     0.034 A 
HETATM    9  C20 UNL     1      10.561  24.740  34.524  1.00  0.00     0.079 A 
HETATM   10  N5  UNL     1       9.866  25.834  34.939  1.00  0.00    -0.177 N 
ENDROOT
BRANCH   6  11
HETATM   11  C5  UNL     1      13.241  21.414  34.189  1.00  0.00     0.256 C 
HETATM   12  O1  UNL     1      14.391  21.751  33.807  1.00  0.00    -0.267 OA
HETATM   13  N3  UNL     1      12.818  20.117  34.493  1.00  0.00    -0.323 N 
ATOM     14  H3  UNL     1      11.849  19.990  34.785  1.00  0.00     0.169 HD
BRANCH  13  15
HETATM   15  C6  UNL     1      13.631  18.983  34.426  1.00  0.00     0.035 A 
HETATM   16  C7  UNL     1      14.366  18.571  33.340  1.00  0.00     0.032 A 
HETATM   17  C8  UNL     1      15.142  17.411  33.329  1.00  0.00     0.031 A 
HETATM   18  C9  UNL     1      15.178  16.641  34.453  1.00  0.00     0.032 A 
HETATM   19  C16 UNL     1      14.435  17.044  35.575  1.00  0.00     0.031 A 
HETATM   20  C17 UNL     1      13.688  18.174  35.563  1.00  0.00     0.032 A 
BRANCH  18  21
HETATM   21  N4  UNL     1      15.918  15.454  34.516  1.00  0.00    -0.356 N 
ATOM     22  H4  UNL     1      16.937  15.512  34.529  1.00  0.00     0.166 HD
BRANCH  21  23
HETATM   23  C10 UNL     1      15.310  14.174  34.564  1.00  0.00     0.032 A 
HETATM   24  C11 UNL     1      14.656  13.660  35.652  1.00  0.00     0.029 A 
HETATM   25  C12 UNL     1      14.056  12.431  35.676  1.00  0.00     0.002 A 
HETATM   26  C13 UNL     1      14.102  11.641  34.538  1.00  0.00     0.000 A 
HETATM   27  C14 UNL     1      14.756  12.133  33.428  1.00  0.00     0.002 A 
HETATM   28  C15 UNL     1      15.352  13.365  33.417  1.00  0.00     0.029 A 
ENDBRANCH  21  23
ENDBRANCH  18  21
ENDBRANCH  13  15
ENDBRANCH   6  11
BRANCH   1  29
HETATM   29  N1  UNL     1       9.824  27.241  36.871  1.00  0.00    -0.234 N 
ATOM     30  H12 UNL     1       8.921  27.343  37.335  1.00  0.00     0.174 HD
ATOM     31  H11 UNL     1      10.338  28.102  37.056  1.00  0.00     0.174 HD
ENDBRANCH   1  29
BRANCH  10  32
HETATM   32  C21 UNL     1       8.849  26.484  34.147  1.00  0.00     0.186 C 
BRANCH  32  33
HETATM   33  C22 UNL     1       7.588  25.742  34.001  1.00  0.00    -0.039 A 
HETATM   34  C23 UNL     1       6.870  25.408  35.159  1.00  0.00     0.009 A 
HETATM   35  C24 UNL     1       5.681  24.712  35.083  1.00  0.00     0.001 A 
HETATM   36  C25 UNL     1       5.212  24.348  33.839  1.00  0.00     0.000 A 
HETATM   37  C26 UNL     1       5.905  24.669  32.695  1.00  0.00     0.001 A 
HETATM   38  C27 UNL     1       7.093  25.365  32.771  1.00  0.00     0.009 A 
ENDBRANCH  32  33
ENDBRANCH  10  32
TORSDOF 7
ENDMDL
MODEL 3
REMARK VINA RESULT: -10.747369067      1.100      1.448
REMARK  7 active torsions:
REMARK  status: ('A' for Active; 'I' for Inactive)
REMARK    1  A    between atoms: N1_1  and  C1_4 
REMARK    2  A    between atoms: C4_9  and  C5_10 
REMARK       I    between atoms: C5_10  and  N3_12 
REMARK    3  A    between atoms: N3_12  and  C6_14 
REMARK    4  A    between atoms: C9_17  and  N4_18 
REMARK    5  A    between atoms: N4_18  and  C10_20 
REMARK    6  A    between atoms: N5_31  and  C21_32 
REMARK    7  A    between atoms: C21_32  and  C22_33 
ROOT
HETATM    1  C1  UNL     1      10.469  26.717  36.065  1.00  0.00     0.679 A 
HETATM    2  N2  UNL     1      11.198  25.675  36.497  1.00  0.00    -0.190 N 
ATOM      3  H2  UNL     1      11.699  25.642  37.385  1.00  0.00     0.184 HD
HETATM    4  C2  UNL     1      11.172  24.687  35.595  1.00  0.00     0.077 A 
HETATM    5  C3  UNL     1      11.733  23.422  35.513  1.00  0.00     0.049 A 
HETATM    6  C4  UNL     1      11.556  22.574  34.440  1.00  0.00     0.034 A 
HETATM    7  C18 UNL     1      10.773  23.044  33.411  1.00  0.00     0.019 A 
HETATM    8  C19 UNL     1      10.189  24.288  33.434  1.00  0.00     0.034 A 
HETATM    9  C20 UNL     1      10.387  25.110  34.524  1.00  0.00     0.079 A 
HETATM   10  N5  UNL     1       9.981  26.363  34.866  1.00  0.00    -0.177 N 
ENDROOT
BRANCH   6  11
HETATM   11  C5  UNL     1      12.178  21.220  34.410  1.00  0.00     0.256 C 
HETATM   12  O1  UNL     1      11.365  20.306  34.703  1.00  0.00    -0.267 OA
HETATM   13  N3  UNL     1      13.526  21.052  34.082  1.00  0.00    -0.323 N 
ATOM     14  H3  UNL     1      14.071  21.889  33.871  1.00  0.00     0.169 HD
BRANCH  13  15
HETATM   15  C6  UNL     1      14.180  19.819  34.023  1.00  0.00     0.035 A 
HETATM   16  C7  UNL     1      14.690  19.221  32.895  1.00  0.00     0.032 A 
HETATM   17  C8  UNL     1      15.313  17.972  32.898  1.00  0.00     0.031 A 
HETATM   18  C9  UNL     1      15.427  17.305  34.081  1.00  0.00     0.032 A 
HETATM   19  C16 UNL     1      14.914  17.898  35.247  1.00  0.00     0.031 A 
HETATM   20  C17 UNL     1      14.313  19.111  35.220  1.00  0.00     0.032 A 
BRANCH  18  21
HETATM   21  N4  UNL     1      16.023  16.040  34.166  1.00  0.00    -0.356 N 
ATOM     22  H4  UNL     1      17.032  15.965  34.031  1.00  0.00     0.166 HD
BRANCH  21  23
HETATM   23  C10 UNL     1      15.283  14.861  34.432  1.00  0.00     0.032 A 
HETATM   24  C11 UNL     1      15.824  13.608  34.546  1.00  0.00     0.029 A 
HETATM   25  C12 UNL     1      15.099  12.482  34.823  1.00  0.00     0.002 A 
HETATM   26  C13 UNL     1      13.729  12.595  35.002  1.00  0.00     0.000 A 
HETATM   27  C14 UNL     1      13.157  13.845  34.892  1.00  0.00     0.002 A 
HETATM   28  C15 UNL     1      13.894  14.964  34.615  1.00  0.00     0.029 A 
ENDBRANCH  21  23
ENDBRANCH  18  21
ENDBRANCH  13  15
ENDBRANCH   6  11
BRANCH   1  29
HETATM   29  N1  UNL     1      10.296  27.853  36.709  1.00  0.00    -0.234 N 
ATOM     30  H12 UNL     1      10.913  28.665  36.730  1.00  0.00     0.174 HD
ATOM     31  H11 UNL     1       9.500  28.084  37.304  1.00  0.00     0.174 HD
ENDBRANCH   1  29
BRANCH  10  32
HETATM   32  C21 UNL     1       9.145  27.191  34.030  1.00  0.00     0.186 C 
BRANCH  32  33
HETATM   33  C22 UNL     1       7.872  26.587  33.609  1.00  0.00    -0.039 A 
HETATM   34  C23 UNL     1       7.025  26.058  34.594  1.00  0.00     0.009 A 
HETATM   35  C24 UNL     1       5.819  25.479  34.259  1.00  0.00     0.001 A 
HETATM   36  C25 UNL     1       5.462  25.430  32.928  1.00  0.00     0.000 A 
HETATM   37  C26 UNL     1       6.282  25.944  31.951  1.00  0.00     0.001 A 
HETATM   38  C27 UNL     1       7.488  26.524  32.287  1.00  0.00     0.009 A 
ENDBRANCH  32  33
ENDBRANCH  10  32
TORSDOF 7
ENDMDL
MODEL 4
REMARK VINA RESULT: -10.697581627      0.563      1.297
REMARK  7 active torsions:
REMARK  status: ('A' for Active; 'I' for Inactive)
REMARK    1  A    between atoms: N1_1  and  C1_4 
REMARK    2  A    between atoms: C4_9  and  C5_10 
REMARK       I    between atoms: C5_10  and  N3_12 
REMARK    3  A    between atoms: N3_12  and  C6_14 
REMARK    4  A    between atoms: C9_17  and  N4_18 
REMARK    5  A    between atoms: N4_18  and  C10_20 
REMARK    6  A    between atoms: N5_31  and  C21_32 
REMARK    7  A    between atoms: C21_32  and  C22_33 
ROOT
HETATM    1  C1  UNL     1      10.653  26.724  35.797  1.00  0.00     0.679 A 
HETATM    2  N2  UNL     1      11.560  25.847  36.260  1.00  0.00    -0.190 N 
ATOM      3  H2  UNL     1      12.069  25.944  37.138  1.00  0.00     0.184 HD
HETATM    4  C2  UNL     1      11.698  24.829  35.403  1.00  0.00     0.077 A 
HETATM    5  C3  UNL     1      12.472  23.680  35.365  1.00  0.00     0.049 A 
HETATM    6  C4  UNL     1      12.435  22.764  34.335  1.00  0.00     0.034 A 
HETATM    7  C18 UNL     1      11.568  23.041  33.302  1.00  0.00     0.019 A 
HETATM    8  C19 UNL     1      10.774  24.162  33.282  1.00  0.00     0.034 A 
HETATM    9  C20 UNL     1      10.838  25.057  34.330  1.00  0.00     0.079 A 
HETATM   10  N5  UNL     1      10.221  26.234  34.625  1.00  0.00    -0.177 N 
ENDROOT
BRANCH   6  11
HETATM   11  C5  UNL     1      13.285  21.541  34.351  1.00  0.00     0.256 C 
HETATM   12  O1  UNL     1      14.493  21.787  34.099  1.00  0.00    -0.267 OA
HETATM   13  N3  UNL     1      12.738  20.284  34.624  1.00  0.00    -0.323 N 
ATOM     14  H3  UNL     1      11.735  20.233  34.805  1.00  0.00     0.169 HD
BRANCH  13  15
HETATM   15  C6  UNL     1      13.468  19.094  34.667  1.00  0.00     0.035 A 
HETATM   16  C7  UNL     1      13.691  18.315  35.777  1.00  0.00     0.032 A 
HETATM   17  C8  UNL     1      14.451  17.145  35.759  1.00  0.00     0.031 A 
HETATM   18  C9  UNL     1      15.005  16.747  34.579  1.00  0.00     0.032 A 
HETATM   19  C16 UNL     1      14.789  17.528  33.431  1.00  0.00     0.031 A 
HETATM   20  C17 UNL     1      14.048  18.660  33.472  1.00  0.00     0.032 A 
BRANCH  18  21
HETATM   21  N4  UNL     1      15.796  15.595  34.481  1.00  0.00    -0.356 N 
ATOM     22  H4  UNL     1      16.803  15.701  34.354  1.00  0.00     0.166 HD
BRANCH  21  23
HETATM   23  C10 UNL     1      15.254  14.287  34.549  1.00  0.00     0.032 A 
HETATM   24  C11 UNL     1      14.622  13.760  35.645  1.00  0.00     0.029 A 
HETATM   25  C12 UNL     1      14.086  12.503  35.689  1.00  0.00     0.002 A 
HETATM   26  C13 UNL     1      14.178  11.695  34.566  1.00  0.00     0.000 A 
HETATM   27  C14 UNL     1      14.810  12.200  33.449  1.00  0.00     0.002 A 
HETATM   28  C15 UNL     1      15.342  13.460  33.418  1.00  0.00     0.029 A 
ENDBRANCH  21  23
ENDBRANCH  18  21
ENDBRANCH  13  15
ENDBRANCH   6  11
BRANCH   1  29
HETATM   29  N1  UNL     1      10.291  27.840  36.394  1.00  0.00    -0.234 N 
ATOM     30  H12 UNL     1      10.410  28.798  36.064  1.00  0.00     0.174 HD
ATOM     31  H11 UNL     1       9.832  27.907  37.303  1.00  0.00     0.174 HD
ENDBRANCH   1  29
BRANCH  10  32
HETATM   32  C21 UNL     1       9.242  26.861  33.770  1.00  0.00     0.186 C 
BRANCH  32  33
HETATM   33  C22 UNL     1       7.923  26.212  33.732  1.00  0.00    -0.039 A 
HETATM   34  C23 UNL     1       7.309  26.016  32.487  1.00  0.00     0.009 A 
HETATM   35  C24 UNL     1       6.072  25.414  32.390  1.00  0.00     0.001 A 
HETATM   36  C25 UNL     1       5.448  25.007  33.550  1.00  0.00     0.000 A 
HETATM   37  C26 UNL     1       6.037  25.193  34.779  1.00  0.00     0.001 A 
HETATM   38  C27 UNL     1       7.274  25.795  34.875  1.00  0.00     0.009 A 
ENDBRANCH  32  33
ENDBRANCH  10  32
TORSDOF 7
ENDMDL
MODEL 5
REMARK VINA RESULT: -10.658763676      0.982      1.756
REMARK  7 active torsions:
REMARK  status: ('A' for Active; 'I' for Inactive)
REMARK    1  A    between atoms: N1_1  and  C1_4 
REMARK    2  A    between atoms: C4_9  and  C5_10 
REMARK       I    between atoms: C5_10  and  N3_12 
REMARK    3  A    between atoms: N3_12  and  C6_14 
REMARK    4  A    between atoms: C9_17  and  N4_18 
REMARK    5  A    between atoms: N4_18  and  C10_20 
REMARK    6  A    between atoms: N5_31  and  C21_32 
REMARK    7  A    between atoms: C21_32  and  C22_33 
ROOT
HETATM    1  C1  UNL     1      10.551  26.403  35.812  1.00  0.00     0.679 A 
HETATM    2  N2  UNL     1      11.185  25.352  36.357  1.00  0.00    -0.190 N 
ATOM      3  H2  UNL     1      11.610  25.342  37.284  1.00  0.00     0.184 HD
HETATM    4  C2  UNL     1      11.179  24.317  35.507  1.00  0.00     0.077 A 
HETATM    5  C3  UNL     1      11.676  23.024  35.537  1.00  0.00     0.049 A 
HETATM    6  C4  UNL     1      11.541  22.128  34.498  1.00  0.00     0.034 A 
HETATM    7  C18 UNL     1      10.870  22.579  33.384  1.00  0.00     0.019 A 
HETATM    8  C19 UNL     1      10.354  23.850  33.294  1.00  0.00     0.034 A 
HETATM    9  C20 UNL     1      10.508  24.720  34.354  1.00  0.00     0.079 A 
HETATM   10  N5  UNL     1      10.144  26.008  34.596  1.00  0.00    -0.177 N 
ENDROOT
BRANCH   6  11
HETATM   11  C5  UNL     1      12.089  20.745  34.588  1.00  0.00     0.256 C 
HETATM   12  O1  UNL     1      11.216  19.897  34.904  1.00  0.00    -0.267 OA
HETATM   13  N3  UNL     1      13.440  20.486  34.337  1.00  0.00    -0.323 N 
ATOM     14  H3  UNL     1      14.038  21.277  34.097  1.00  0.00     0.169 HD
BRANCH  13  15
HETATM   15  C6  UNL     1      14.027  19.220  34.393  1.00  0.00     0.035 A 
HETATM   16  C7  UNL     1      14.114  18.410  35.500  1.00  0.00     0.032 A 
HETATM   17  C8  UNL     1      14.737  17.161  35.496  1.00  0.00     0.031 A 
HETATM   18  C9  UNL     1      15.291  16.714  34.334  1.00  0.00     0.032 A 
HETATM   19  C16 UNL     1      15.213  17.525  33.189  1.00  0.00     0.031 A 
HETATM   20  C17 UNL     1      14.603  18.734  33.216  1.00  0.00     0.032 A 
BRANCH  18  21
HETATM   21  N4  UNL     1      15.949  15.480  34.251  1.00  0.00    -0.356 N 
ATOM     22  H4  UNL     1      16.944  15.470  34.029  1.00  0.00     0.166 HD
BRANCH  21  23
HETATM   23  C10 UNL     1      15.287  14.244  34.463  1.00  0.00     0.032 A 
HETATM   24  C11 UNL     1      14.548  13.935  35.574  1.00  0.00     0.029 A 
HETATM   25  C12 UNL     1      13.899  12.745  35.756  1.00  0.00     0.002 A 
HETATM   26  C13 UNL     1      13.982  11.779  34.765  1.00  0.00     0.000 A 
HETATM   27  C14 UNL     1      14.720  12.063  33.636  1.00  0.00     0.002 A 
HETATM   28  C15 UNL     1      15.365  13.258  33.466  1.00  0.00     0.029 A 
ENDBRANCH  21  23
ENDBRANCH  18  21
ENDBRANCH  13  15
ENDBRANCH   6  11
BRANCH   1  29
HETATM   29  N1  UNL     1      10.388  27.580  36.381  1.00  0.00    -0.234 N 
ATOM     30  H12 UNL     1      10.888  27.967  37.182  1.00  0.00     0.174 HD
ATOM     31  H11 UNL     1       9.712  28.289  36.097  1.00  0.00     0.174 HD
ENDBRANCH   1  29
BRANCH  10  32
HETATM   32  C21 UNL     1       9.424  26.829  33.652  1.00  0.00     0.186 C 
BRANCH  32  33
HETATM   33  C22 UNL     1       8.018  26.460  33.432  1.00  0.00    -0.039 A 
HETATM   34  C23 UNL     1       7.229  26.137  34.546  1.00  0.00     0.009 A 
HETATM   35  C24 UNL     1       5.904  25.783  34.402  1.00  0.00     0.001 A 
HETATM   36  C25 UNL     1       5.368  25.752  33.132  1.00  0.00     0.000 A 
HETATM   37  C26 UNL     1       6.130  26.066  32.030  1.00  0.00     0.001 A 
HETATM   38  C27 UNL     1       7.454  26.421  32.175  1.00  0.00     0.009 A 
ENDBRANCH  32  33
ENDBRANCH  10  32
TORSDOF 7
ENDMDL
