MODEL 1
REMARK VINA RESULT: -11.150359150      0.000      0.000
REMARK  6 active torsions:
REMARK  status: ('A' for Active; 'I' for Inactive)
REMARK       I    between atoms: C1_2  and  N1_3 
REMARK    1  A    between atoms: C1_2  and  C15_22 
REMARK    2  A    between atoms: N1_3  and  C2_5 
REMARK    3  A    between atoms: C5_8  and  C6_9 
REMARK    4  A    between atoms: C20_27  and  O2_28 
REMARK    5  A    between atoms: O2_28  and  C21_29 
REMARK    6  A    between atoms: C21_29  and  C22_30 
ROOT
HETATM    1  O1  UNL     1      11.414  22.679  33.509  1.00  0.00    -0.267 OA
HETATM    2  C1  UNL     1      12.311  23.445  33.999  1.00  0.00     0.259 C 
HETATM    3  N1  UNL     1      13.458  22.818  34.453  1.00  0.00    -0.323 N 
ATOM      4  H1  UNL     1      14.181  23.412  34.857  1.00  0.00     0.169 HD
ENDROOT
BRANCH   3   5
HETATM    5  C2  UNL     1      13.725  21.397  34.407  1.00  0.00     0.035 A 
HETATM    6  C3  UNL     1      14.530  20.796  33.499  1.00  0.00     0.030 A 
HETATM    7  C4  UNL     1      14.698  19.395  33.517  1.00  0.00     0.017 A 
HETATM    8  C5  UNL     1      14.071  18.590  34.434  1.00  0.00     0.008 A 
HETATM    9  C13 UNL     1      13.254  19.206  35.359  1.00  0.00     0.017 A 
HETATM   10  C14 UNL     1      13.083  20.573  35.348  1.00  0.00     0.030 A 
BRANCH   8  11
HETATM   11  C6  UNL     1      14.247  17.141  34.450  1.00  0.00     0.116 A 
HETATM   12  N2  UNL     1      13.284  16.235  34.699  1.00  0.00    -0.340 N 
HETATM   13  C7  UNL     1      13.790  14.989  34.634  1.00  0.00     0.060 A 
ATOM     14  H2  UNL     1      12.311  16.460  34.907  1.00  0.00     0.167 HD
HETATM   15  C8  UNL     1      13.258  13.734  34.801  1.00  0.00     0.032 A 
HETATM   16  C12 UNL     1      15.138  15.109  34.329  1.00  0.00     0.060 A 
HETATM   17  C9  UNL     1      14.029  12.605  34.673  1.00  0.00     0.002 A 
HETATM   18  C10 UNL     1      15.375  12.725  34.368  1.00  0.00     0.002 A 
HETATM   19  C11 UNL     1      15.924  13.972  34.199  1.00  0.00     0.032 A 
HETATM   20  N3  UNL     1      15.361  16.428  34.229  1.00  0.00    -0.340 N 
ATOM     21  H3  UNL     1      16.269  16.839  34.010  1.00  0.00     0.167 HD
ENDBRANCH   8  11
ENDBRANCH   3   5
BRANCH   2  22
HETATM   22  C15 UNL     1      12.035  24.858  34.024  1.00  0.00     0.065 A 
HETATM   23  C16 UNL     1      13.077  25.728  33.591  1.00  0.00     0.020 A 
HETATM   24  C17 UNL     1      12.938  27.084  33.569  1.00  0.00     0.001 A 
HETATM   25  C18 UNL     1      11.761  27.648  33.973  1.00  0.00     0.003 A 
HETATM   26  C19 UNL     1      10.749  26.823  34.391  1.00  0.00     0.038 A 
HETATM   27  C20 UNL     1      10.866  25.429  34.425  1.00  0.00     0.084 A 
BRANCH  27  28
HETATM   28  O2  UNL     1       9.809  24.662  34.857  1.00  0.00    -0.346 OA
BRANCH  28  29
HETATM   29  C21 UNL     1       8.702  25.285  35.445  1.00  0.00     0.214 C 
BRANCH  29  30
HETATM   30  C22 UNL     1       7.442  25.012  34.730  1.00  0.00    -0.034 A 
HETATM   31  C23 UNL     1       7.371  25.046  33.362  1.00  0.00     0.009 A 
HETATM   32  C24 UNL     1       6.189  24.790  32.683  1.00  0.00     0.001 A 
HETATM   33  C25 UNL     1       5.058  24.496  33.386  1.00  0.00     0.000 A 
HETATM   34  C26 UNL     1       5.109  24.456  34.769  1.00  0.00     0.001 A 
HETATM   35  C27 UNL     1       6.310  24.717  35.443  1.00  0.00     0.009 A 
ENDBRANCH  29  30
ENDBRANCH  28  29
ENDBRANCH  27  28
ENDBRANCH   2  22
TORSDOF 6
ENDMDL
MODEL 2
REMARK VINA RESULT: -11.050162207      1.111      1.656
REMARK  6 active torsions:
REMARK  status: ('A' for Active; 'I' for Inactive)
REMARK       I    between atoms: C1_2  and  N1_3 
REMARK    1  A    between atoms: C1_2  and  C15_22 
REMARK    2  A    between atoms: N1_3  and  C2_5 
REMARK    3  A    between atoms: C5_8  and  C6_9 
REMARK    4  A    between atoms: C20_27  and  O2_28 
REMARK    5  A    between atoms: O2_28  and  C21_29 
REMARK    6  A    between atoms: C21_29  and  C22_30 
ROOT
HETATM    1  O1  UNL     1      11.001  23.226  32.721  1.00  0.00    -0.267 OA
HETATM    2  C1  UNL     1      11.234  23.911  33.774  1.00  0.00     0.259 C 
HETATM    3  N1  UNL     1      11.971  23.274  34.756  1.00  0.00    -0.323 N 
ATOM      4  H1  UNL     1      12.159  23.801  35.609  1.00  0.00     0.169 HD
ENDROOT
BRANCH   3   5
HETATM    5  C2  UNL     1      12.500  21.930  34.685  1.00  0.00     0.035 A 
HETATM    6  C3  UNL     1      13.750  21.617  34.268  1.00  0.00     0.030 A 
HETATM    7  C4  UNL     1      14.160  20.269  34.201  1.00  0.00     0.017 A 
HETATM    8  C5  UNL     1      13.334  19.230  34.549  1.00  0.00     0.008 A 
HETATM    9  C13 UNL     1      12.063  19.552  34.976  1.00  0.00     0.017 A 
HETATM   10  C14 UNL     1      11.653  20.866  35.043  1.00  0.00     0.030 A 
BRANCH   8  11
HETATM   11  C6  UNL     1      13.761  17.837  34.479  1.00  0.00     0.116 A 
HETATM   12  N2  UNL     1      12.954  16.763  34.557  1.00  0.00    -0.340 N 
HETATM   13  C7  UNL     1      13.677  15.631  34.457  1.00  0.00     0.060 A 
ATOM     14  H2  UNL     1      11.942  16.801  34.676  1.00  0.00     0.167 HD
HETATM   15  C8  UNL     1      13.361  14.294  34.475  1.00  0.00     0.032 A 
HETATM   16  C12 UNL     1      15.005  16.003  34.308  1.00  0.00     0.060 A 
HETATM   17  C9  UNL     1      14.328  13.327  34.349  1.00  0.00     0.002 A 
HETATM   18  C10 UNL     1      15.654  13.699  34.200  1.00  0.00     0.002 A 
HETATM   19  C11 UNL     1      15.987  15.031  34.181  1.00  0.00     0.032 A 
HETATM   20  N3  UNL     1      14.999  17.344  34.327  1.00  0.00    -0.340 N 
ATOM     21  H3  UNL     1      15.837  17.920  34.238  1.00  0.00     0.167 HD
ENDBRANCH   8  11
ENDBRANCH   3   5
BRANCH   2  22
HETATM   22  C15 UNL     1      10.712  25.252  33.822  1.00  0.00     0.065 A 
HETATM   23  C16 UNL     1      11.618  26.285  34.199  1.00  0.00     0.020 A 
HETATM   24  C17 UNL     1      11.245  27.593  34.281  1.00  0.00     0.001 A 
HETATM   25  C18 UNL     1       9.956  27.946  33.994  1.00  0.00     0.003 A 
HETATM   26  C19 UNL     1       9.074  26.964  33.630  1.00  0.00     0.038 A 
HETATM   27  C20 UNL     1       9.431  25.613  33.538  1.00  0.00     0.084 A 
BRANCH  27  28
HETATM   28  O2  UNL     1       8.492  24.680  33.167  1.00  0.00    -0.346 OA
BRANCH  28  29
HETATM   29  C21 UNL     1       7.240  25.106  32.710  1.00  0.00     0.214 C 
BRANCH  29  30
HETATM   30  C22 UNL     1       6.129  24.643  33.560  1.00  0.00    -0.034 A 
HETATM   31  C23 UNL     1       6.124  24.855  34.914  1.00  0.00     0.009 A 
HETATM   32  C24 UNL     1       5.082  24.421  35.720  1.00  0.00     0.001 A 
HETATM   33  C25 UNL     1       4.026  23.763  35.161  1.00  0.00     0.000 A 
HETATM   34  C26 UNL     1       4.012  23.539  33.794  1.00  0.00     0.001 A 
HETATM   35  C27 UNL     1       5.072  23.982  32.991  1.00  0.00     0.009 A 
ENDBRANCH  29  30
ENDBRANCH  28  29
ENDBRANCH  27  28
ENDBRANCH   2  22
TORSDOF 6
ENDMDL
MODEL 3
REMARK VINA RESULT: -11.014567023      1.148      1.973
REMARK  6 active torsions:
REMARK  status: ('A' for Active; 'I' for Inactive)
REMARK       I    between atoms: C1_2  and  N1_3 
REMARK    1  A    between atoms: C1_2  and  C15_22 
REMARK    2  A    between atoms: N1_3  and  C2_5 
REMARK    3  A    between atoms: C5_8  and  C6_9 
REMARK    4  A    between atoms: C20_27  and  O2_28 
REMARK    5  A    between atoms: O2_28  and  C21_29 
REMARK    6  A    between atoms: C21_29  and  C22_30 
ROOT
HETATM    1  O1  UNL     1      10.931  23.257  32.770  1.00  0.00    -0.267 OA
HETATM    2  C1  UNL     1      11.155  23.932  33.831  1.00  0.00     0.259 C 
HETATM    3  N1  UNL     1      11.880  23.285  34.815  1.00  0.00    -0.323 N 
ATOM      4  H1  UNL     1      12.060  23.803  35.675  1.00  0.00     0.169 HD
ENDROOT
BRANCH   3   5
HETATM    5  C2  UNL     1      12.406  21.940  34.738  1.00  0.00     0.035 A 
HETATM    6  C3  UNL     1      13.668  21.629  34.357  1.00  0.00     0.030 A 
HETATM    7  C4  UNL     1      14.076  20.280  34.280  1.00  0.00     0.017 A 
HETATM    8  C5  UNL     1      13.234  19.239  34.581  1.00  0.00     0.008 A 
HETATM    9  C13 UNL     1      11.951  19.559  34.971  1.00  0.00     0.017 A 
HETATM   10  C14 UNL     1      11.544  20.873  35.048  1.00  0.00     0.030 A 
BRANCH   8  11
HETATM   11  C6  UNL     1      13.658  17.845  34.500  1.00  0.00     0.116 A 
HETATM   12  N2  UNL     1      14.926  17.416  34.369  1.00  0.00    -0.340 N 
HETATM   13  C7  UNL     1      14.958  16.070  34.326  1.00  0.00     0.060 A 
ATOM     14  H2  UNL     1      15.744  18.022  34.309  1.00  0.00     0.167 HD
HETATM   15  C8  UNL     1      15.966  15.144  34.204  1.00  0.00     0.032 A 
HETATM   16  C12 UNL     1      13.650  15.624  34.436  1.00  0.00     0.060 A 
HETATM   17  C9  UNL     1      15.704  13.797  34.188  1.00  0.00     0.002 A 
HETATM   18  C10 UNL     1      14.397  13.351  34.299  1.00  0.00     0.002 A 
HETATM   19  C11 UNL     1      13.377  14.263  34.421  1.00  0.00     0.032 A 
HETATM   20  N3  UNL     1      12.906  16.735  34.539  1.00  0.00    -0.340 N 
ATOM     21  H3  UNL     1      11.890  16.736  34.635  1.00  0.00     0.167 HD
ENDBRANCH   8  11
ENDBRANCH   3   5
BRANCH   2  22
HETATM   22  C15 UNL     1      10.636  25.274  33.886  1.00  0.00     0.065 A 
HETATM   23  C16 UNL     1      11.535  26.298  34.302  1.00  0.00     0.020 A 
HETATM   24  C17 UNL     1      11.164  27.606  34.394  1.00  0.00     0.001 A 
HETATM   25  C18 UNL     1       9.884  27.968  34.079  1.00  0.00     0.003 A 
HETATM   26  C19 UNL     1       9.009  26.994  33.677  1.00  0.00     0.038 A 
HETATM   27  C20 UNL     1       9.364  25.644  33.574  1.00  0.00     0.084 A 
BRANCH  27  28
HETATM   28  O2  UNL     1       8.432  24.719  33.164  1.00  0.00    -0.346 OA
BRANCH  28  29
HETATM   29  C21 UNL     1       7.181  25.155  32.713  1.00  0.00     0.214 C 
BRANCH  29  30
HETATM   30  C22 UNL     1       6.067  24.666  33.545  1.00  0.00    -0.034 A 
HETATM   31  C23 UNL     1       6.053  24.845  34.903  1.00  0.00     0.009 A 
HETATM   32  C24 UNL     1       5.007  24.387  35.692  1.00  0.00     0.001 A 
HETATM   33  C25 UNL     1       3.958  23.739  35.110  1.00  0.00     0.000 A 
HETATM   34  C26 UNL     1       3.953  23.549  33.738  1.00  0.00     0.001 A 
HETATM   35  C27 UNL     1       5.016  24.016  32.953  1.00  0.00     0.009 A 
ENDBRANCH  29  30
ENDBRANCH  28  29
ENDBRANCH  27  28
ENDBRANCH   2  22
TORSDOF 6
ENDMDL
MODEL 4
REMARK VINA RESULT: -10.920220670      1.443      2.067
REMARK  6 active torsions:
REMARK  status: ('A' for Active; 'I' for Inactive)
REMARK       I    between atoms: C1_2  and  N1_3 
REMARK    1  A    between atoms: C1_2  and  C15_22 
REMARK    2  A    between atoms: N1_3  and  C2_5 
REMARK    3  A    between atoms: C5_8  and  C6_9 
REMARK    4  A    between atoms: C20_27  and  O2_28 
REMARK    5  A    between atoms: O2_28  and  C21_29 
REMARK    6  A    between atoms: C21_29  and  C22_30 
ROOT
HETATM    1  O1  UNL     1      10.332  23.589  35.741  1.00  0.00    -0.267 OA
HETATM    2  C1  UNL     1      10.890  24.438  34.965  1.00  0.00     0.259 C 
HETATM    3  N1  UNL     1      11.958  23.967  34.224  1.00  0.00    -0.323 N 
ATOM      4  H1  UNL     1      12.424  24.632  33.607  1.00  0.00     0.169 HD
ENDROOT
BRANCH   3   5
HETATM    5  C2  UNL     1      12.477  22.617  34.243  1.00  0.00     0.035 A 
HETATM    6  C3  UNL     1      13.726  22.268  33.853  1.00  0.00     0.030 A 
HETATM    7  C4  UNL     1      14.126  20.915  33.877  1.00  0.00     0.017 A 
HETATM    8  C5  UNL     1      13.291  19.908  34.288  1.00  0.00     0.008 A 
HETATM    9  C13 UNL     1      12.020  20.266  34.687  1.00  0.00     0.017 A 
HETATM   10  C14 UNL     1      11.621  21.585  34.667  1.00  0.00     0.030 A 
BRANCH   8  11
HETATM   11  C6  UNL     1      13.707  18.510  34.312  1.00  0.00     0.116 A 
HETATM   12  N2  UNL     1      12.889  17.447  34.421  1.00  0.00    -0.340 N 
HETATM   13  C7  UNL     1      13.604  16.307  34.411  1.00  0.00     0.060 A 
ATOM     14  H2  UNL     1      11.873  17.499  34.501  1.00  0.00     0.167 HD
HETATM   15  C8  UNL     1      13.276  14.975  34.492  1.00  0.00     0.032 A 
HETATM   16  C12 UNL     1      14.940  16.660  34.288  1.00  0.00     0.060 A 
HETATM   17  C9  UNL     1      14.238  13.996  34.455  1.00  0.00     0.002 A 
HETATM   18  C10 UNL     1      15.572  14.350  34.332  1.00  0.00     0.002 A 
HETATM   19  C11 UNL     1      15.917  15.676  34.250  1.00  0.00     0.032 A 
HETATM   20  N3  UNL     1      14.946  18.000  34.232  1.00  0.00    -0.340 N 
ATOM     21  H3  UNL     1      15.791  18.565  34.140  1.00  0.00     0.167 HD
ENDBRANCH   8  11
ENDBRANCH   3   5
BRANCH   2  22
HETATM   22  C15 UNL     1      10.352  25.773  34.949  1.00  0.00     0.065 A 
HETATM   23  C16 UNL     1      10.994  26.739  35.778  1.00  0.00     0.020 A 
HETATM   24  C17 UNL     1      10.580  28.035  35.849  1.00  0.00     0.001 A 
HETATM   25  C18 UNL     1       9.510  28.443  35.104  1.00  0.00     0.003 A 
HETATM   26  C19 UNL     1       8.883  27.526  34.301  1.00  0.00     0.038 A 
HETATM   27  C20 UNL     1       9.288  26.189  34.210  1.00  0.00     0.084 A 
BRANCH  27  28
HETATM   28  O2  UNL     1       8.611  25.323  33.383  1.00  0.00    -0.346 OA
BRANCH  28  29
HETATM   29  C21 UNL     1       7.336  25.667  32.920  1.00  0.00     0.214 C 
BRANCH  29  30
HETATM   30  C22 UNL     1       6.256  24.955  33.626  1.00  0.00    -0.034 A 
HETATM   31  C23 UNL     1       6.113  25.035  34.987  1.00  0.00     0.009 A 
HETATM   32  C24 UNL     1       5.099  24.367  35.658  1.00  0.00     0.001 A 
HETATM   33  C25 UNL     1       4.213  23.606  34.954  1.00  0.00     0.000 A 
HETATM   34  C26 UNL     1       4.340  23.512  33.578  1.00  0.00     0.001 A 
HETATM   35  C27 UNL     1       5.370  24.192  32.913  1.00  0.00     0.009 A 
ENDBRANCH  29  30
ENDBRANCH  28  29
ENDBRANCH  27  28
ENDBRANCH   2  22
TORSDOF 6
ENDMDL
MODEL 5
REMARK VINA RESULT: -10.584161649      1.229      1.338
REMARK  6 active torsions:
REMARK  status: ('A' for Active; 'I' for Inactive)
REMARK       I    between atoms: C1_2  and  N1_3 
REMARK    1  A    between atoms: C1_2  and  C15_22 
REMARK    2  A    between atoms: N1_3  and  C2_5 
REMARK    3  A    between atoms: C5_8  and  C6_9 
REMARK    4  A    between atoms: C20_27  and  O2_28 
REMARK    5  A    between atoms: O2_28  and  C21_29 
REMARK    6  A    between atoms: C21_29  and  C22_30 
ROOT
HETATM    1  O1  UNL     1      13.744  23.255  35.796  1.00  0.00    -0.267 OA
HETATM    2  C1  UNL     1      13.166  23.631  34.720  1.00  0.00     0.259 C 
HETATM    3  N1  UNL     1      12.972  22.650  33.765  1.00  0.00    -0.323 N 
ATOM      4  H1  UNL     1      12.522  22.933  32.895  1.00  0.00     0.169 HD
ENDROOT
BRANCH   3   5
HETATM    5  C2  UNL     1      13.347  21.259  33.887  1.00  0.00     0.035 A 
HETATM    6  C3  UNL     1      14.439  20.704  33.308  1.00  0.00     0.030 A 
HETATM    7  C4  UNL     1      14.700  19.326  33.458  1.00  0.00     0.017 A 
HETATM    8  C5  UNL     1      13.882  18.497  34.183  1.00  0.00     0.008 A 
HETATM    9  C13 UNL     1      12.772  19.064  34.773  1.00  0.00     0.017 A 
HETATM   10  C14 UNL     1      12.509  20.409  34.631  1.00  0.00     0.030 A 
BRANCH   8  11
HETATM   11  C6  UNL     1      14.154  17.071  34.337  1.00  0.00     0.116 A 
HETATM   12  N2  UNL     1      13.266  16.139  34.724  1.00  0.00    -0.340 N 
HETATM   13  C7  UNL     1      13.851  14.926  34.761  1.00  0.00     0.060 A 
ATOM     14  H2  UNL     1      12.290  16.323  34.956  1.00  0.00     0.167 HD
HETATM   15  C8  UNL     1      13.411  13.665  35.080  1.00  0.00     0.032 A 
HETATM   16  C12 UNL     1      15.174  15.097  34.379  1.00  0.00     0.060 A 
HETATM   17  C9  UNL     1      14.249  12.579  35.029  1.00  0.00     0.002 A 
HETATM   18  C10 UNL     1      15.570  12.749  34.647  1.00  0.00     0.002 A 
HETATM   19  C11 UNL     1      16.027  14.003  34.325  1.00  0.00     0.032 A 
HETATM   20  N3  UNL     1      15.304  16.409  34.134  1.00  0.00    -0.340 N 
ATOM     21  H3  UNL     1      16.172  16.851  33.830  1.00  0.00     0.167 HD
ENDBRANCH   8  11
ENDBRANCH   3   5
BRANCH   2  22
HETATM   22  C15 UNL     1      12.787  25.017  34.621  1.00  0.00     0.065 A 
HETATM   23  C16 UNL     1      13.463  25.804  33.644  1.00  0.00     0.020 A 
HETATM   24  C17 UNL     1      13.194  27.126  33.453  1.00  0.00     0.001 A 
HETATM   25  C18 UNL     1      12.243  27.738  34.220  1.00  0.00     0.003 A 
HETATM   26  C19 UNL     1      11.584  26.994  35.163  1.00  0.00     0.038 A 
HETATM   27  C20 UNL     1      11.841  25.635  35.379  1.00  0.00     0.084 A 
BRANCH  27  28
HETATM   28  O2  UNL     1      11.142  24.950  36.345  1.00  0.00    -0.346 OA
BRANCH  28  29
HETATM   29  C21 UNL     1      10.084  24.115  35.967  1.00  0.00     0.214 C 
BRANCH  29  30
HETATM   30  C22 UNL     1       9.105  24.786  35.094  1.00  0.00    -0.034 A 
HETATM   31  C23 UNL     1       9.171  24.686  33.729  1.00  0.00     0.009 A 
HETATM   32  C24 UNL     1       8.253  25.316  32.902  1.00  0.00     0.001 A 
HETATM   33  C25 UNL     1       7.251  26.060  33.451  1.00  0.00     0.000 A 
HETATM   34  C26 UNL     1       7.166  26.174  34.829  1.00  0.00     0.001 A 
HETATM   35  C27 UNL     1       8.100  25.532  35.653  1.00  0.00     0.009 A 
ENDBRANCH  29  30
ENDBRANCH  28  29
ENDBRANCH  27  28
ENDBRANCH   2  22
TORSDOF 6
ENDMDL
