MODEL 1
REMARK VINA RESULT: -10.294167267      0.000      0.000
REMARK  5 active torsions:
REMARK  status: ('A' for Active; 'I' for Inactive)
REMARK       I    between atoms: C1_2  and  N2_4 
REMARK    1  A    between atoms: N2_4  and  C2_6 
REMARK    2  A    between atoms: C7_11  and  C8_12 
REMARK       I    between atoms: C8_12  and  N3_14 
REMARK    3  A    between atoms: N3_14  and  C9_16 
REMARK    4  A    between atoms: C19_26  and  O3_27 
REMARK    5  A    between atoms: O3_27  and  C20_28 
ROOT
HETATM    1  C9  UNL     1      10.275  23.732  35.560  1.00  0.00     0.035 A 
HETATM    2  C10 UNL     1      11.001  24.745  36.215  1.00  0.00     0.029 A 
HETATM    3  C11 UNL     1      12.363  24.665  36.387  1.00  0.00     0.003 A 
HETATM    4  C12 UNL     1      13.088  23.588  35.925  1.00  0.00     0.012 A 
HETATM    5  C13 UNL     1      12.400  22.586  35.282  1.00  0.00    -0.021 A 
HETATM    6  C14 UNL     1      13.128  21.451  34.789  1.00  0.00     0.008 A 
HETATM    7  C15 UNL     1      12.696  20.160  34.992  1.00  0.00     0.015 A 
HETATM    8  C16 UNL     1      13.404  19.078  34.515  1.00  0.00     0.001 A 
HETATM    9  C17 UNL     1      14.591  19.258  33.805  1.00  0.00     0.003 A 
HETATM   10  C18 UNL     1      15.028  20.538  33.597  1.00  0.00     0.038 A 
HETATM   11  C19 UNL     1      14.319  21.620  34.075  1.00  0.00     0.087 A 
HETATM   12  C26 UNL     1      11.004  22.679  35.112  1.00  0.00     0.042 A 
ENDROOT
BRANCH   1  13
HETATM   13  N3  UNL     1       8.868  23.910  35.408  1.00  0.00    -0.323 N 
HETATM   14  C8  UNL     1       8.138  25.073  35.743  1.00  0.00     0.258 C 
HETATM   15  O2  UNL     1       8.733  26.061  36.214  1.00  0.00    -0.267 OA
ATOM     16  H3  UNL     1       8.341  23.127  35.023  1.00  0.00     0.169 HD
BRANCH  14  17
HETATM   17  C7  UNL     1       6.696  25.107  35.536  1.00  0.00     0.059 A 
HETATM   18  C2  UNL     1       6.120  25.787  34.450  1.00  0.00     0.051 A 
HETATM   19  C3  UNL     1       4.734  25.690  34.235  1.00  0.00     0.030 A 
HETATM   20  C4  UNL     1       3.914  24.948  35.057  1.00  0.00     0.002 A 
HETATM   21  C5  UNL     1       4.465  24.285  36.117  1.00  0.00     0.001 A 
HETATM   22  C6  UNL     1       5.845  24.376  36.338  1.00  0.00     0.019 A 
BRANCH  18  23
HETATM   23  N2  UNL     1       6.915  26.654  33.690  1.00  0.00    -0.310 N 
HETATM   24  C1  UNL     1       7.853  26.223  32.736  1.00  0.00     0.333 C 
HETATM   25  N1  UNL     1       8.618  27.191  31.985  1.00  0.00    -0.040 NA
HETATM   26  O1  UNL     1       8.064  25.024  32.500  1.00  0.00    -0.251 OA
ATOM     27  H2  UNL     1       6.807  27.657  33.837  1.00  0.00     0.170 HD
ENDBRANCH  18  23
ENDBRANCH  14  17
ENDBRANCH   1  13
BRANCH  11  28
HETATM   28  O3  UNL     1      14.830  22.877  33.820  1.00  0.00    -0.310 OA
BRANCH  28  29
HETATM   29  C20 UNL     1      14.163  23.730  32.963  1.00  0.00     0.076 A 
HETATM   30  C21 UNL     1      14.033  25.086  33.193  1.00  0.00     0.037 A 
HETATM   31  C22 UNL     1      13.355  25.884  32.301  1.00  0.00     0.003 A 
HETATM   32  C23 UNL     1      12.792  25.373  31.163  1.00  0.00     0.000 A 
HETATM   33  C24 UNL     1      12.908  24.022  30.912  1.00  0.00     0.003 A 
HETATM   34  C25 UNL     1      13.586  23.239  31.809  1.00  0.00     0.037 A 
ENDBRANCH  28  29
ENDBRANCH  11  28
TORSDOF 5
ENDMDL
MODEL 2
REMARK VINA RESULT: -10.129506122      2.475      8.079
REMARK  5 active torsions:
REMARK  status: ('A' for Active; 'I' for Inactive)
REMARK       I    between atoms: C1_2  and  N2_4 
REMARK    1  A    between atoms: N2_4  and  C2_6 
REMARK    2  A    between atoms: C7_11  and  C8_12 
REMARK       I    between atoms: C8_12  and  N3_14 
REMARK    3  A    between atoms: N3_14  and  C9_16 
REMARK    4  A    between atoms: C19_26  and  O3_27 
REMARK    5  A    between atoms: O3_27  and  C20_28 
ROOT
HETATM    1  C9  UNL     1      11.704  23.476  35.632  1.00  0.00     0.035 A 
HETATM    2  C10 UNL     1      11.362  23.834  36.950  1.00  0.00     0.029 A 
HETATM    3  C11 UNL     1      10.450  24.827  37.218  1.00  0.00     0.003 A 
HETATM    4  C12 UNL     1       9.822  25.523  36.207  1.00  0.00     0.012 A 
HETATM    5  C13 UNL     1      10.140  25.191  34.911  1.00  0.00    -0.021 A 
HETATM    6  C14 UNL     1       9.501  25.897  33.838  1.00  0.00     0.008 A 
HETATM    7  C15 UNL     1      10.206  26.383  32.759  1.00  0.00     0.015 A 
HETATM    8  C16 UNL     1       9.582  27.061  31.734  1.00  0.00     0.001 A 
HETATM    9  C17 UNL     1       8.204  27.280  31.758  1.00  0.00     0.003 A 
HETATM   10  C18 UNL     1       7.495  26.801  32.825  1.00  0.00     0.038 A 
HETATM   11  C19 UNL     1       8.120  26.122  33.850  1.00  0.00     0.087 A 
HETATM   12  C26 UNL     1      11.076  24.171  34.650  1.00  0.00     0.042 A 
ENDROOT
BRANCH   1  13
HETATM   13  N3  UNL     1      12.644  22.419  35.449  1.00  0.00    -0.323 N 
HETATM   14  C8  UNL     1      12.360  21.138  34.922  1.00  0.00     0.258 C 
HETATM   15  O2  UNL     1      11.199  20.860  34.567  1.00  0.00    -0.267 OA
ATOM     16  H3  UNL     1      13.608  22.604  35.723  1.00  0.00     0.169 HD
BRANCH  14  17
HETATM   17  C7  UNL     1      13.428  20.155  34.799  1.00  0.00     0.059 A 
HETATM   18  C2  UNL     1      14.447  20.285  33.841  1.00  0.00     0.051 A 
HETATM   19  C3  UNL     1      15.514  19.368  33.843  1.00  0.00     0.030 A 
HETATM   20  C4  UNL     1      15.595  18.339  34.755  1.00  0.00     0.002 A 
HETATM   21  C5  UNL     1      14.606  18.202  35.688  1.00  0.00     0.001 A 
HETATM   22  C6  UNL     1      13.541  19.111  35.694  1.00  0.00     0.019 A 
BRANCH  18  23
HETATM   23  N2  UNL     1      14.309  21.238  32.824  1.00  0.00    -0.310 N 
HETATM   24  C1  UNL     1      14.595  22.604  32.987  1.00  0.00     0.333 C 
HETATM   25  N1  UNL     1      14.439  23.513  31.876  1.00  0.00    -0.040 NA
HETATM   26  O1  UNL     1      14.983  23.082  34.063  1.00  0.00    -0.251 OA
ATOM     27  H2  UNL     1      13.982  20.921  31.912  1.00  0.00     0.170 HD
ENDBRANCH  18  23
ENDBRANCH  14  17
ENDBRANCH   1  13
BRANCH  11  28
HETATM   28  O3  UNL     1       7.330  25.672  34.889  1.00  0.00    -0.310 OA
BRANCH  28  29
HETATM   29  C20 UNL     1       6.208  24.912  34.620  1.00  0.00     0.076 A 
HETATM   30  C21 UNL     1       5.911  24.420  33.364  1.00  0.00     0.037 A 
HETATM   31  C22 UNL     1       4.777  23.668  33.159  1.00  0.00     0.003 A 
HETATM   32  C23 UNL     1       3.910  23.381  34.179  1.00  0.00     0.000 A 
HETATM   33  C24 UNL     1       4.186  23.861  35.442  1.00  0.00     0.003 A 
HETATM   34  C25 UNL     1       5.319  24.608  35.631  1.00  0.00     0.037 A 
ENDBRANCH  28  29
ENDBRANCH  11  28
TORSDOF 5
ENDMDL
MODEL 3
REMARK VINA RESULT: -9.715046860      2.633      8.844
REMARK  5 active torsions:
REMARK  status: ('A' for Active; 'I' for Inactive)
REMARK       I    between atoms: C1_2  and  N2_4 
REMARK    1  A    between atoms: N2_4  and  C2_6 
REMARK    2  A    between atoms: C7_11  and  C8_12 
REMARK       I    between atoms: C8_12  and  N3_14 
REMARK    3  A    between atoms: N3_14  and  C9_16 
REMARK    4  A    between atoms: C19_26  and  O3_27 
REMARK    5  A    between atoms: O3_27  and  C20_28 
ROOT
HETATM    1  C9  UNL     1      11.495  23.914  34.907  1.00  0.00     0.035 A 
HETATM    2  C10 UNL     1      11.199  24.047  36.277  1.00  0.00     0.029 A 
HETATM    3  C11 UNL     1      10.112  24.766  36.717  1.00  0.00     0.003 A 
HETATM    4  C12 UNL     1       9.256  25.393  35.836  1.00  0.00     0.012 A 
HETATM    5  C13 UNL     1       9.526  25.276  34.493  1.00  0.00    -0.021 A 
HETATM    6  C14 UNL     1       8.652  25.917  33.552  1.00  0.00     0.008 A 
HETATM    7  C15 UNL     1       9.130  26.660  32.497  1.00  0.00     0.015 A 
HETATM    8  C16 UNL     1       8.282  27.272  31.601  1.00  0.00     0.001 A 
HETATM    9  C17 UNL     1       6.897  27.157  31.735  1.00  0.00     0.003 A 
HETATM   10  C18 UNL     1       6.412  26.420  32.781  1.00  0.00     0.038 A 
HETATM   11  C19 UNL     1       7.263  25.807  33.677  1.00  0.00     0.087 A 
HETATM   12  C26 UNL     1      10.643  24.537  34.055  1.00  0.00     0.042 A 
ENDROOT
BRANCH   1  13
HETATM   13  N3  UNL     1      12.631  23.132  34.542  1.00  0.00    -0.323 N 
HETATM   14  C8  UNL     1      12.633  21.741  34.289  1.00  0.00     0.258 C 
HETATM   15  O2  UNL     1      11.572  21.096  34.375  1.00  0.00    -0.267 OA
ATOM     16  H3  UNL     1      13.522  23.620  34.457  1.00  0.00     0.169 HD
BRANCH  14  17
HETATM   17  C7  UNL     1      13.878  21.074  33.929  1.00  0.00     0.059 A 
HETATM   18  C2  UNL     1      14.317  19.918  34.594  1.00  0.00     0.051 A 
HETATM   19  C3  UNL     1      15.466  19.251  34.130  1.00  0.00     0.030 A 
HETATM   20  C4  UNL     1      16.182  19.696  33.041  1.00  0.00     0.002 A 
HETATM   21  C5  UNL     1      15.764  20.822  32.389  1.00  0.00     0.001 A 
HETATM   22  C6  UNL     1      14.621  21.491  32.844  1.00  0.00     0.019 A 
BRANCH  18  23
HETATM   23  N2  UNL     1      13.684  19.532  35.782  1.00  0.00    -0.310 N 
HETATM   24  C1  UNL     1      13.194  18.237  36.025  1.00  0.00     0.333 C 
HETATM   25  N1  UNL     1      12.569  17.926  37.288  1.00  0.00    -0.040 NA
HETATM   26  O1  UNL     1      13.274  17.325  35.188  1.00  0.00    -0.251 OA
ATOM     27  H2  UNL     1      13.570  20.233  36.514  1.00  0.00     0.170 HD
ENDBRANCH  18  23
ENDBRANCH  14  17
ENDBRANCH   1  13
BRANCH  11  28
HETATM   28  O3  UNL     1       6.690  25.082  34.703  1.00  0.00    -0.310 OA
BRANCH  28  29
HETATM   29  C20 UNL     1       5.372  24.679  34.606  1.00  0.00     0.076 A 
HETATM   30  C21 UNL     1       4.927  23.763  33.673  1.00  0.00     0.037 A 
HETATM   31  C22 UNL     1       3.601  23.401  33.627  1.00  0.00     0.003 A 
HETATM   32  C23 UNL     1       2.681  23.927  34.494  1.00  0.00     0.000 A 
HETATM   33  C24 UNL     1       3.102  24.843  35.435  1.00  0.00     0.003 A 
HETATM   34  C25 UNL     1       4.426  25.194  35.469  1.00  0.00     0.037 A 
ENDBRANCH  28  29
ENDBRANCH  11  28
TORSDOF 5
ENDMDL
MODEL 4
REMARK VINA RESULT: -9.626896149      1.414      1.867
REMARK  5 active torsions:
REMARK  status: ('A' for Active; 'I' for Inactive)
REMARK       I    between atoms: C1_2  and  N2_4 
REMARK    1  A    between atoms: N2_4  and  C2_6 
REMARK    2  A    between atoms: C7_11  and  C8_12 
REMARK       I    between atoms: C8_12  and  N3_14 
REMARK    3  A    between atoms: N3_14  and  C9_16 
REMARK    4  A    between atoms: C19_26  and  O3_27 
REMARK    5  A    between atoms: O3_27  and  C20_28 
ROOT
HETATM    1  C9  UNL     1      10.713  23.927  34.990  1.00  0.00     0.035 A 
HETATM    2  C10 UNL     1      11.591  24.929  35.446  1.00  0.00     0.029 A 
HETATM    3  C11 UNL     1      12.941  24.705  35.578  1.00  0.00     0.003 A 
HETATM    4  C12 UNL     1      13.504  23.485  35.267  1.00  0.00     0.012 A 
HETATM    5  C13 UNL     1      12.666  22.492  34.819  1.00  0.00    -0.021 A 
HETATM    6  C14 UNL     1      13.224  21.212  34.487  1.00  0.00     0.008 A 
HETATM    7  C15 UNL     1      12.654  20.032  34.911  1.00  0.00     0.015 A 
HETATM    8  C16 UNL     1      13.199  18.809  34.587  1.00  0.00     0.001 A 
HETATM    9  C17 UNL     1      14.357  18.725  33.814  1.00  0.00     0.003 A 
HETATM   10  C18 UNL     1      14.931  19.892  33.387  1.00  0.00     0.038 A 
HETATM   11  C19 UNL     1      14.384  21.116  33.711  1.00  0.00     0.087 A 
HETATM   12  C26 UNL     1      11.284  22.734  34.689  1.00  0.00     0.042 A 
ENDROOT
BRANCH   1  13
HETATM   13  N3  UNL     1       9.331  24.257  34.864  1.00  0.00    -0.323 N 
HETATM   14  C8  UNL     1       8.680  24.665  33.677  1.00  0.00     0.258 C 
HETATM   15  O2  UNL     1       9.328  24.757  32.618  1.00  0.00    -0.267 OA
ATOM     16  H3  UNL     1       8.761  24.192  35.707  1.00  0.00     0.169 HD
BRANCH  14  17
HETATM   17  C7  UNL     1       7.256  24.974  33.704  1.00  0.00     0.059 A 
HETATM   18  C2  UNL     1       6.722  25.923  34.591  1.00  0.00     0.051 A 
HETATM   19  C3  UNL     1       5.361  26.265  34.495  1.00  0.00     0.030 A 
HETATM   20  C4  UNL     1       4.527  25.698  33.556  1.00  0.00     0.002 A 
HETATM   21  C5  UNL     1       5.037  24.772  32.691  1.00  0.00     0.001 A 
HETATM   22  C6  UNL     1       6.392  24.426  32.780  1.00  0.00     0.019 A 
BRANCH  18  23
HETATM   23  N2  UNL     1       7.520  26.404  35.637  1.00  0.00    -0.310 N 
HETATM   24  C1  UNL     1       8.485  27.414  35.484  1.00  0.00     0.333 C 
HETATM   25  N1  UNL     1       9.252  27.860  36.624  1.00  0.00    -0.040 NA
HETATM   26  O1  UNL     1       8.720  27.955  34.394  1.00  0.00    -0.251 OA
ATOM     27  H2  UNL     1       7.393  25.998  36.563  1.00  0.00     0.170 HD
ENDBRANCH  18  23
ENDBRANCH  14  17
ENDBRANCH   1  13
BRANCH  11  28
HETATM   28  O3  UNL     1      15.027  22.244  33.240  1.00  0.00    -0.310 OA
BRANCH  28  29
HETATM   29  C20 UNL     1      14.334  23.158  32.471  1.00  0.00     0.076 A 
HETATM   30  C21 UNL     1      14.540  24.522  32.548  1.00  0.00     0.037 A 
HETATM   31  C22 UNL     1      13.818  25.383  31.755  1.00  0.00     0.003 A 
HETATM   32  C23 UNL     1      12.879  24.928  30.869  1.00  0.00     0.000 A 
HETATM   33  C24 UNL     1      12.655  23.571  30.775  1.00  0.00     0.003 A 
HETATM   34  C25 UNL     1      13.382  22.725  31.570  1.00  0.00     0.037 A 
ENDBRANCH  28  29
ENDBRANCH  11  28
TORSDOF 5
ENDMDL
MODEL 5
REMARK VINA RESULT: -9.367779231      2.516      8.079
REMARK  5 active torsions:
REMARK  status: ('A' for Active; 'I' for Inactive)
REMARK       I    between atoms: C1_2  and  N2_4 
REMARK    1  A    between atoms: N2_4  and  C2_6 
REMARK    2  A    between atoms: C7_11  and  C8_12 
REMARK       I    between atoms: C8_12  and  N3_14 
REMARK    3  A    between atoms: N3_14  and  C9_16 
REMARK    4  A    between atoms: C19_26  and  O3_27 
REMARK    5  A    between atoms: O3_27  and  C20_28 
ROOT
HETATM    1  C9  UNL     1      11.719  24.264  32.894  1.00  0.00     0.035 A 
HETATM    2  C10 UNL     1      12.285  25.550  32.980  1.00  0.00     0.029 A 
HETATM    3  C11 UNL     1      11.512  26.670  33.181  1.00  0.00     0.003 A 
HETATM    4  C12 UNL     1      10.142  26.588  33.309  1.00  0.00     0.012 A 
HETATM    5  C13 UNL     1       9.568  25.341  33.229  1.00  0.00    -0.021 A 
HETATM    6  C14 UNL     1       8.143  25.225  33.360  1.00  0.00     0.008 A 
HETATM    7  C15 UNL     1       7.389  24.457  32.502  1.00  0.00     0.015 A 
HETATM    8  C16 UNL     1       6.022  24.353  32.637  1.00  0.00     0.001 A 
HETATM    9  C17 UNL     1       5.351  25.031  33.656  1.00  0.00     0.003 A 
HETATM   10  C18 UNL     1       6.092  25.797  34.515  1.00  0.00     0.038 A 
HETATM   11  C19 UNL     1       7.461  25.899  34.379  1.00  0.00     0.087 A 
HETATM   12  C26 UNL     1      10.370  24.202  33.023  1.00  0.00     0.042 A 
ENDROOT
BRANCH   1  13
HETATM   13  N3  UNL     1      12.600  23.158  32.706  1.00  0.00    -0.323 N 
HETATM   14  C8  UNL     1      13.150  22.352  33.730  1.00  0.00     0.258 C 
HETATM   15  O2  UNL     1      12.867  22.587  34.920  1.00  0.00    -0.267 OA
ATOM     16  H3  UNL     1      12.857  22.928  31.747  1.00  0.00     0.169 HD
BRANCH  14  17
HETATM   17  C7  UNL     1      14.044  21.254  33.383  1.00  0.00     0.059 A 
HETATM   18  C2  UNL     1      13.870  19.964  33.910  1.00  0.00     0.051 A 
HETATM   19  C3  UNL     1      14.692  18.918  33.454  1.00  0.00     0.030 A 
HETATM   20  C4  UNL     1      15.669  19.115  32.503  1.00  0.00     0.002 A 
HETATM   21  C5  UNL     1      15.848  20.367  31.986  1.00  0.00     0.001 A 
HETATM   22  C6  UNL     1      15.033  21.414  32.436  1.00  0.00     0.019 A 
BRANCH  18  23
HETATM   23  N2  UNL     1      12.978  19.776  34.974  1.00  0.00    -0.310 N 
HETATM   24  C1  UNL     1      13.235  18.939  36.073  1.00  0.00     0.333 C 
HETATM   25  N1  UNL     1      12.262  18.819  37.133  1.00  0.00    -0.040 NA
HETATM   26  O1  UNL     1      14.279  18.280  36.181  1.00  0.00    -0.251 OA
ATOM     27  H2  UNL     1      12.090  20.277  34.949  1.00  0.00     0.170 HD
ENDBRANCH  18  23
ENDBRANCH  14  17
ENDBRANCH   1  13
BRANCH  11  28
HETATM   28  O3  UNL     1       8.132  26.692  35.288  1.00  0.00    -0.310 OA
BRANCH  28  29
HETATM   29  C20 UNL     1       9.171  26.162  36.028  1.00  0.00     0.076 A 
HETATM   30  C21 UNL     1      10.198  26.926  36.547  1.00  0.00     0.037 A 
HETATM   31  C22 UNL     1      11.206  26.339  37.276  1.00  0.00     0.003 A 
HETATM   32  C23 UNL     1      11.230  24.992  37.514  1.00  0.00     0.000 A 
HETATM   33  C24 UNL     1      10.215  24.208  37.006  1.00  0.00     0.003 A 
HETATM   34  C25 UNL     1       9.218  24.806  36.282  1.00  0.00     0.037 A 
ENDBRANCH  28  29
ENDBRANCH  11  28
TORSDOF 5
ENDMDL
