MODEL 1
REMARK VINA RESULT: -6.883510729      0.000      0.000
REMARK  5 active torsions:
REMARK  status: ('A' for Active; 'I' for Inactive)
REMARK    1  A    between atoms: N1_2  and  C3_4 
REMARK    2  A    between atoms: C4_7  and  N3_8 
REMARK       I    between atoms: N3_8  and  C5_10 
REMARK       I    between atoms: C5_10  and  N4_11 
REMARK       I    between atoms: C5_10  and  N5_15 
REMARK    3  A    between atoms: C7_23  and  N7_24 
REMARK    4  A    between atoms: N7_24  and  C8_26 
REMARK    5  A    between atoms: C8_26  and  C9_27 
ROOT
HETATM    1  C3  UNL     1      64.201  59.814  31.897  1.00  0.00     0.695 C 
HETATM    2  N2  UNL     1      63.967  59.084  30.776  1.00  0.00    -0.171 N 
ATOM      3  H2  UNL     1      64.000  58.072  30.898  1.00  0.00     0.186 HD
HETATM    4  C4  UNL     1      63.695  59.510  29.518  1.00  0.00     0.189 C 
HETATM    5  C6  UNL     1      64.026  60.740  29.008  1.00  0.00     0.304 C 
HETATM    6  O1  UNL     1      64.263  60.831  27.777  1.00  0.00    -0.263 OA
HETATM    7  N6  UNL     1      64.123  61.898  29.735  1.00  0.00    -0.152 N 
ATOM      8  H6  UNL     1      64.332  62.733  29.186  1.00  0.00     0.187 HD
HETATM    9  C7  UNL     1      63.987  62.107  31.050  1.00  0.00     0.699 C 
HETATM   10  N8  UNL     1      64.252  61.150  31.997  1.00  0.00    -0.022 N 
ATOM     11  H8  UNL     1      64.529  61.507  32.912  1.00  0.00     0.203 HD
ENDROOT
BRANCH   4  12
HETATM   12  N3  UNL     1      63.094  58.685  28.797  1.00  0.00    -0.322 N 
HETATM   13  C5  UNL     1      61.752  58.490  28.428  1.00  0.00     0.481 C 
HETATM   14  N4  UNL     1      60.988  58.106  29.629  1.00  0.00    -0.033 N 
HETATM   15  N5  UNL     1      61.591  57.363  27.487  1.00  0.00    -0.033 N 
ATOM     16  H43 UNL     1      61.385  57.295  30.103  1.00  0.00     0.278 HD
ATOM     17  H42 UNL     1      61.091  58.777  30.389  1.00  0.00     0.278 HD
ATOM     18  H41 UNL     1      60.014  57.964  29.361  1.00  0.00     0.278 HD
ATOM     19  H53 UNL     1      62.187  57.479  26.667  1.00  0.00     0.278 HD
ATOM     20  H52 UNL     1      62.000  56.506  27.863  1.00  0.00     0.278 HD
ATOM     21  H51 UNL     1      60.617  57.221  27.219  1.00  0.00     0.278 HD
ATOM     22  H3  UNL     1      63.721  57.995  28.381  1.00  0.00     0.165 HD
ENDBRANCH   4  12
BRANCH   1  23
HETATM   23  N1  UNL     1      64.413  59.072  33.085  1.00  0.00    -0.226 N 
HETATM   24  C1  UNL     1      64.494  57.628  33.098  1.00  0.00     0.168 C 
HETATM   25  C2  UNL     1      64.548  59.836  34.318  1.00  0.00     0.168 C 
ENDBRANCH   1  23
BRANCH   9  26
HETATM   26  N7  UNL     1      63.600  63.201  31.545  1.00  0.00    -0.204 N 
ATOM     27  H7  UNL     1      62.787  63.184  32.161  1.00  0.00     0.183 HD
BRANCH  26  28
HETATM   28  C8  UNL     1      64.215  64.444  31.303  1.00  0.00     0.083 C 
BRANCH  28  29
HETATM   29  C9  UNL     1      64.802  65.108  32.515  1.00  0.00     0.028 C 
HETATM   30  C10 UNL     1      66.242  65.518  32.327  1.00  0.00     0.036 C 
HETATM   31  C11 UNL     1      66.738  65.918  33.702  1.00  0.00     0.168 C 
HETATM   32  O2  UNL     1      66.011  66.945  34.257  1.00  0.00    -0.391 OA
HETATM   33  C12 UNL     1      64.655  66.681  34.359  1.00  0.00     0.168 C 
HETATM   34  C13 UNL     1      64.053  66.305  33.007  1.00  0.00     0.036 C 
ENDBRANCH  28  29
ENDBRANCH  26  28
ENDBRANCH   9  26
TORSDOF 5
ENDMDL
MODEL 2
REMARK VINA RESULT: -6.811932424      0.614      1.298
REMARK  5 active torsions:
REMARK  status: ('A' for Active; 'I' for Inactive)
REMARK    1  A    between atoms: N1_2  and  C3_4 
REMARK    2  A    between atoms: C4_7  and  N3_8 
REMARK       I    between atoms: N3_8  and  C5_10 
REMARK       I    between atoms: C5_10  and  N4_11 
REMARK       I    between atoms: C5_10  and  N5_15 
REMARK    3  A    between atoms: C7_23  and  N7_24 
REMARK    4  A    between atoms: N7_24  and  C8_26 
REMARK    5  A    between atoms: C8_26  and  C9_27 
ROOT
HETATM    1  C3  UNL     1      64.031  59.942  31.927  1.00  0.00     0.695 C 
HETATM    2  N2  UNL     1      63.547  59.287  30.840  1.00  0.00    -0.171 N 
ATOM      3  H2  UNL     1      63.459  58.276  30.941  1.00  0.00     0.186 HD
HETATM    4  C4  UNL     1      63.164  59.787  29.639  1.00  0.00     0.189 C 
HETATM    5  C6  UNL     1      63.585  60.979  29.105  1.00  0.00     0.304 C 
HETATM    6  O1  UNL     1      63.659  61.078  27.855  1.00  0.00    -0.263 OA
HETATM    7  N6  UNL     1      63.938  62.088  29.827  1.00  0.00    -0.152 N 
ATOM      8  H6  UNL     1      64.180  62.906  29.267  1.00  0.00     0.187 HD
HETATM    9  C7  UNL     1      64.015  62.270  31.151  1.00  0.00     0.699 C 
HETATM   10  N8  UNL     1      64.276  61.255  32.038  1.00  0.00    -0.022 N 
ATOM     11  H8  UNL     1      64.723  61.543  32.909  1.00  0.00     0.203 HD
ENDROOT
BRANCH   4  12
HETATM   12  N3  UNL     1      62.363  59.073  28.999  1.00  0.00    -0.322 N 
HETATM   13  C5  UNL     1      62.444  57.817  28.372  1.00  0.00     0.481 C 
HETATM   14  N4  UNL     1      63.372  57.923  27.232  1.00  0.00    -0.033 N 
HETATM   15  N5  UNL     1      61.153  57.403  27.786  1.00  0.00    -0.033 N 
ATOM     16  H43 UNL     1      63.114  58.668  26.585  1.00  0.00     0.278 HD
ATOM     17  H42 UNL     1      64.286  58.284  27.504  1.00  0.00     0.278 HD
ATOM     18  H41 UNL     1      63.431  57.012  26.777  1.00  0.00     0.278 HD
ATOM     19  H53 UNL     1      60.409  57.420  28.484  1.00  0.00     0.278 HD
ATOM     20  H52 UNL     1      60.792  58.113  27.147  1.00  0.00     0.278 HD
ATOM     21  H51 UNL     1      61.211  56.492  27.331  1.00  0.00     0.278 HD
ATOM     22  H3  UNL     1      61.439  59.498  28.912  1.00  0.00     0.165 HD
ENDBRANCH   4  12
BRANCH   1  23
HETATM   23  N1  UNL     1      64.302  59.140  33.062  1.00  0.00    -0.226 N 
HETATM   24  C1  UNL     1      64.343  57.695  33.004  1.00  0.00     0.168 C 
HETATM   25  C2  UNL     1      64.543  59.841  34.316  1.00  0.00     0.168 C 
ENDBRANCH   1  23
BRANCH   9  26
HETATM   26  N7  UNL     1      63.852  63.389  31.712  1.00  0.00    -0.204 N 
ATOM     27  H7  UNL     1      63.356  63.407  32.603  1.00  0.00     0.183 HD
BRANCH  26  28
HETATM   28  C8  UNL     1      64.309  64.613  31.188  1.00  0.00     0.083 C 
BRANCH  28  29
HETATM   29  C9  UNL     1      65.019  65.498  32.171  1.00  0.00     0.028 C 
HETATM   30  C10 UNL     1      64.101  66.073  33.222  1.00  0.00     0.036 C 
HETATM   31  C11 UNL     1      64.916  67.124  33.948  1.00  0.00     0.168 C 
HETATM   32  O2  UNL     1      66.055  66.614  34.527  1.00  0.00    -0.391 OA
HETATM   33  C12 UNL     1      66.897  65.970  33.636  1.00  0.00     0.168 C 
HETATM   34  C13 UNL     1      66.171  64.860  32.880  1.00  0.00     0.036 C 
ENDBRANCH  28  29
ENDBRANCH  26  28
ENDBRANCH   9  26
TORSDOF 5
ENDMDL
MODEL 3
REMARK VINA RESULT: -6.574458465      2.508      8.058
REMARK  5 active torsions:
REMARK  status: ('A' for Active; 'I' for Inactive)
REMARK    1  A    between atoms: N1_2  and  C3_4 
REMARK    2  A    between atoms: C4_7  and  N3_8 
REMARK       I    between atoms: N3_8  and  C5_10 
REMARK       I    between atoms: C5_10  and  N4_11 
REMARK       I    between atoms: C5_10  and  N5_15 
REMARK    3  A    between atoms: C7_23  and  N7_24 
REMARK    4  A    between atoms: N7_24  and  C8_26 
REMARK    5  A    between atoms: C8_26  and  C9_27 
ROOT
HETATM    1  C3  UNL     1      64.080  61.051  28.881  1.00  0.00     0.695 C 
HETATM    2  N2  UNL     1      64.231  62.084  29.748  1.00  0.00    -0.171 N 
ATOM      3  H2  UNL     1      64.576  62.952  29.338  1.00  0.00     0.186 HD
HETATM    4  C4  UNL     1      63.987  62.127  31.081  1.00  0.00     0.189 C 
HETATM    5  C6  UNL     1      63.958  61.039  31.917  1.00  0.00     0.304 C 
HETATM    6  O1  UNL     1      64.297  61.201  33.116  1.00  0.00    -0.263 OA
HETATM    7  N6  UNL     1      63.586  59.772  31.553  1.00  0.00    -0.152 N 
ATOM      8  H6  UNL     1      63.576  59.092  32.315  1.00  0.00     0.187 HD
HETATM    9  C7  UNL     1      63.234  59.283  30.358  1.00  0.00     0.699 C 
HETATM   10  N8  UNL     1      63.681  59.803  29.169  1.00  0.00    -0.022 N 
ATOM     11  H8  UNL     1      63.716  59.144  28.391  1.00  0.00     0.203 HD
ENDROOT
BRANCH   4  12
HETATM   12  N3  UNL     1      63.777  63.268  31.545  1.00  0.00    -0.322 N 
HETATM   13  C5  UNL     1      64.559  64.423  31.715  1.00  0.00     0.481 C 
HETATM   14  N4  UNL     1      65.612  64.135  32.706  1.00  0.00    -0.033 N 
HETATM   15  N5  UNL     1      63.783  65.543  32.285  1.00  0.00    -0.033 N 
ATOM     16  H43 UNL     1      65.235  63.785  33.586  1.00  0.00     0.278 HD
ATOM     17  H42 UNL     1      66.169  63.318  32.458  1.00  0.00     0.278 HD
ATOM     18  H41 UNL     1      66.180  64.974  32.828  1.00  0.00     0.278 HD
ATOM     19  H53 UNL     1      62.952  65.738  31.726  1.00  0.00     0.278 HD
ATOM     20  H52 UNL     1      63.331  65.272  33.159  1.00  0.00     0.278 HD
ATOM     21  H51 UNL     1      64.351  66.382  32.408  1.00  0.00     0.278 HD
ATOM     22  H3  UNL     1      62.820  63.388  31.877  1.00  0.00     0.165 HD
ENDBRANCH   4  12
BRANCH   1  23
HETATM   23  N1  UNL     1      64.378  61.332  27.524  1.00  0.00    -0.226 N 
HETATM   24  C1  UNL     1      65.361  62.318  27.132  1.00  0.00     0.168 C 
HETATM   25  C2  UNL     1      63.642  60.574  26.522  1.00  0.00     0.168 C 
ENDBRANCH   1  23
BRANCH   9  26
HETATM   26  N7  UNL     1      62.456  58.301  30.208  1.00  0.00    -0.204 N 
ATOM     27  H7  UNL     1      62.768  57.391  30.545  1.00  0.00     0.183 HD
BRANCH  26  28
HETATM   28  C8  UNL     1      61.186  58.379  29.606  1.00  0.00     0.083 C 
BRANCH  28  29
HETATM   29  C9  UNL     1      60.950  57.398  28.494  1.00  0.00     0.028 C 
HETATM   30  C10 UNL     1      59.509  57.344  28.050  1.00  0.00     0.036 C 
HETATM   31  C11 UNL     1      59.408  56.142  27.131  1.00  0.00     0.168 C 
HETATM   32  O2  UNL     1      60.247  56.225  26.045  1.00  0.00    -0.391 OA
HETATM   33  C12 UNL     1      61.581  56.390  26.378  1.00  0.00     0.168 C 
HETATM   34  C13 UNL     1      61.790  57.607  27.275  1.00  0.00     0.036 C 
ENDBRANCH  28  29
ENDBRANCH  26  28
ENDBRANCH   9  26
TORSDOF 5
ENDMDL
MODEL 4
REMARK VINA RESULT: -6.456045644      3.399      8.027
REMARK  5 active torsions:
REMARK  status: ('A' for Active; 'I' for Inactive)
REMARK    1  A    between atoms: N1_2  and  C3_4 
REMARK    2  A    between atoms: C4_7  and  N3_8 
REMARK       I    between atoms: N3_8  and  C5_10 
REMARK       I    between atoms: C5_10  and  N4_11 
REMARK       I    between atoms: C5_10  and  N5_15 
REMARK    3  A    between atoms: C7_23  and  N7_24 
REMARK    4  A    between atoms: N7_24  and  C8_26 
REMARK    5  A    between atoms: C8_26  and  C9_27 
ROOT
HETATM    1  C3  UNL     1      65.372  64.700  32.734  1.00  0.00     0.695 C 
HETATM    2  N2  UNL     1      66.534  65.167  33.255  1.00  0.00    -0.171 N 
ATOM      3  H2  UNL     1      66.606  66.182  33.327  1.00  0.00     0.186 HD
HETATM    4  C4  UNL     1      67.615  64.476  33.696  1.00  0.00     0.189 C 
HETATM    5  C6  UNL     1      67.952  63.203  33.313  1.00  0.00     0.304 C 
HETATM    6  O1  UNL     1      69.169  62.889  33.293  1.00  0.00    -0.263 OA
HETATM    7  N6  UNL     1      67.064  62.227  32.943  1.00  0.00    -0.152 N 
ATOM      8  H6  UNL     1      67.484  61.320  32.735  1.00  0.00     0.187 HD
HETATM    9  C7  UNL     1      65.733  62.274  32.811  1.00  0.00     0.699 C 
HETATM   10  N8  UNL     1      65.046  63.420  32.500  1.00  0.00    -0.022 N 
ATOM     11  H8  UNL     1      64.156  63.278  32.020  1.00  0.00     0.203 HD
ENDROOT
BRANCH   4  12
HETATM   12  N3  UNL     1      68.336  65.085  34.514  1.00  0.00    -0.322 N 
HETATM   13  C5  UNL     1      69.314  66.090  34.412  1.00  0.00     0.481 C 
HETATM   14  N4  UNL     1      70.475  65.541  33.689  1.00  0.00    -0.033 N 
HETATM   15  N5  UNL     1      69.834  66.498  35.733  1.00  0.00    -0.033 N 
ATOM     16  H43 UNL     1      70.834  64.687  34.116  1.00  0.00     0.278 HD
ATOM     17  H42 UNL     1      70.222  65.148  32.783  1.00  0.00     0.278 HD
ATOM     18  H41 UNL     1      71.185  66.270  33.615  1.00  0.00     0.278 HD
ATOM     19  H53 UNL     1      69.078  66.781  36.356  1.00  0.00     0.278 HD
ATOM     20  H52 UNL     1      70.183  65.694  36.256  1.00  0.00     0.278 HD
ATOM     21  H51 UNL     1      70.544  67.227  35.659  1.00  0.00     0.278 HD
ATOM     22  H3  UNL     1      68.179  64.785  35.477  1.00  0.00     0.165 HD
ENDBRANCH   4  12
BRANCH   1  23
HETATM   23  N1  UNL     1      64.403  65.679  32.404  1.00  0.00    -0.226 N 
HETATM   24  C1  UNL     1      63.891  66.625  33.371  1.00  0.00     0.168 C 
HETATM   25  C2  UNL     1      63.933  65.696  31.025  1.00  0.00     0.168 C 
ENDBRANCH   1  23
BRANCH   9  26
HETATM   26  N7  UNL     1      64.982  61.271  32.964  1.00  0.00    -0.204 N 
ATOM     27  H7  UNL     1      64.223  61.344  33.641  1.00  0.00     0.183 HD
BRANCH  26  28
HETATM   28  C8  UNL     1      65.123  60.059  32.263  1.00  0.00     0.083 C 
BRANCH  28  29
HETATM   29  C9  UNL     1      64.224  59.908  31.070  1.00  0.00     0.028 C 
HETATM   30  C10 UNL     1      64.915  60.217  29.765  1.00  0.00     0.036 C 
HETATM   31  C11 UNL     1      63.817  60.272  28.721  1.00  0.00     0.168 C 
HETATM   32  O2  UNL     1      63.108  59.097  28.628  1.00  0.00    -0.391 OA
HETATM   33  C12 UNL     1      62.534  58.691  29.821  1.00  0.00     0.168 C 
HETATM   34  C13 UNL     1      63.576  58.568  30.930  1.00  0.00     0.036 C 
ENDBRANCH  28  29
ENDBRANCH  26  28
ENDBRANCH   9  26
TORSDOF 5
ENDMDL
MODEL 5
REMARK VINA RESULT: -6.220375331      1.205      1.696
REMARK  5 active torsions:
REMARK  status: ('A' for Active; 'I' for Inactive)
REMARK    1  A    between atoms: N1_2  and  C3_4 
REMARK    2  A    between atoms: C4_7  and  N3_8 
REMARK       I    between atoms: N3_8  and  C5_10 
REMARK       I    between atoms: C5_10  and  N4_11 
REMARK       I    between atoms: C5_10  and  N5_15 
REMARK    3  A    between atoms: C7_23  and  N7_24 
REMARK    4  A    between atoms: N7_24  and  C8_26 
REMARK    5  A    between atoms: C8_26  and  C9_27 
ROOT
HETATM    1  C3  UNL     1      63.915  59.711  31.315  1.00  0.00     0.695 C 
HETATM    2  N2  UNL     1      63.386  59.011  30.279  1.00  0.00    -0.171 N 
ATOM      3  H2  UNL     1      63.207  58.024  30.463  1.00  0.00     0.186 HD
HETATM    4  C4  UNL     1      63.062  59.438  29.033  1.00  0.00     0.189 C 
HETATM    5  C6  UNL     1      63.593  60.538  28.409  1.00  0.00     0.304 C 
HETATM    6  O1  UNL     1      63.690  60.523  27.156  1.00  0.00    -0.263 OA
HETATM    7  N6  UNL     1      64.037  61.670  29.041  1.00  0.00    -0.152 N 
ATOM      8  H6  UNL     1      64.357  62.412  28.418  1.00  0.00     0.187 HD
HETATM    9  C7  UNL     1      64.116  61.957  30.346  1.00  0.00     0.699 C 
HETATM   10  N8  UNL     1      64.275  61.002  31.320  1.00  0.00    -0.022 N 
ATOM     11  H8  UNL     1      64.737  61.323  32.172  1.00  0.00     0.203 HD
ENDROOT
BRANCH   4  12
HETATM   12  N3  UNL     1      62.207  58.745  28.441  1.00  0.00    -0.322 N 
HETATM   13  C5  UNL     1      62.164  57.422  27.970  1.00  0.00     0.481 C 
HETATM   14  N4  UNL     1      63.141  57.282  26.874  1.00  0.00    -0.033 N 
HETATM   15  N5  UNL     1      60.856  57.086  27.371  1.00  0.00    -0.033 N 
ATOM     16  H43 UNL     1      62.996  57.967  26.132  1.00  0.00     0.278 HD
ATOM     17  H42 UNL     1      64.080  57.570  27.149  1.00  0.00     0.278 HD
ATOM     18  H41 UNL     1      63.109  56.321  26.533  1.00  0.00     0.278 HD
ATOM     19  H53 UNL     1      60.094  57.271  28.023  1.00  0.00     0.278 HD
ATOM     20  H52 UNL     1      60.606  57.748  26.636  1.00  0.00     0.278 HD
ATOM     21  H51 UNL     1      60.824  56.125  27.030  1.00  0.00     0.278 HD
ATOM     22  H3  UNL     1      61.344  59.257  28.257  1.00  0.00     0.165 HD
ENDBRANCH   4  12
BRANCH   1  23
HETATM   23  N1  UNL     1      64.102  58.988  32.519  1.00  0.00    -0.226 N 
HETATM   24  C1  UNL     1      64.207  57.546  32.552  1.00  0.00     0.168 C 
HETATM   25  C2  UNL     1      64.184  59.770  33.745  1.00  0.00     0.168 C 
ENDBRANCH   1  23
BRANCH   9  26
HETATM   26  N7  UNL     1      64.047  63.129  30.807  1.00  0.00    -0.204 N 
ATOM     27  H7  UNL     1      63.855  63.887  30.153  1.00  0.00     0.183 HD
BRANCH  26  28
HETATM   28  C8  UNL     1      64.219  63.460  32.165  1.00  0.00     0.083 C 
BRANCH  28  29
HETATM   29  C9  UNL     1      65.529  64.112  32.498  1.00  0.00     0.028 C 
HETATM   30  C10 UNL     1      65.369  65.453  33.170  1.00  0.00     0.036 C 
HETATM   31  C11 UNL     1      66.753  66.071  33.190  1.00  0.00     0.168 C 
HETATM   32  O2  UNL     1      67.674  65.300  33.861  1.00  0.00    -0.391 OA
HETATM   33  C12 UNL     1      67.794  64.012  33.366  1.00  0.00     0.168 C 
HETATM   34  C13 UNL     1      66.449  63.291  33.344  1.00  0.00     0.036 C 
ENDBRANCH  28  29
ENDBRANCH  26  28
ENDBRANCH   9  26
TORSDOF 5
ENDMDL
