MODEL 1
REMARK VINA RESULT: -7.644399838      0.000      0.000
REMARK  8 active torsions:
REMARK  status: ('A' for Active; 'I' for Inactive)
REMARK    1  A    between atoms: N1_2  and  C3_4 
REMARK    2  A    between atoms: N4_11  and  N5_13 
REMARK    3  A    between atoms: C6_16  and  S1_17 
REMARK    4  A    between atoms: S1_17  and  N6_18 
REMARK    5  A    between atoms: C9_24  and  N7_25 
REMARK    6  A    between atoms: N7_25  and  C10_27 
REMARK    7  A    between atoms: C10_27  and  C11_28 
REMARK    8  A    between atoms: C11_28  and  O2_29 
ROOT
HETATM    1  C3  UNL     1      62.561  57.930  27.754  1.00  0.00     0.682 A 
HETATM    2  N2  UNL     1      62.863  57.558  29.000  1.00  0.00    -0.175 N 
ATOM      3  H2  UNL     1      62.667  56.594  29.272  1.00  0.00     0.186 HD
HETATM    4  C4  UNL     1      63.406  58.369  29.915  1.00  0.00     0.136 A 
HETATM    5  N3  UNL     1      63.701  57.964  31.170  1.00  0.00    -0.325 N 
ATOM      6  H3  UNL     1      63.505  57.001  31.443  1.00  0.00     0.169 HD
HETATM    7  C5  UNL     1      64.251  58.812  32.074  1.00  0.00     0.142 A 
HETATM    8  N4  UNL     1      64.515  58.393  33.247  1.00  0.00    -0.291 N 
ATOM      9  H4  UNL     1      64.929  59.047  33.912  1.00  0.00     0.188 HD
HETATM   10  C6  UNL     1      64.537  60.121  31.762  1.00  0.00     0.098 A 
HETATM   11  C7  UNL     1      64.234  60.536  30.472  1.00  0.00     0.045 A 
HETATM   12  C8  UNL     1      63.670  59.663  29.551  1.00  0.00     0.054 A 
HETATM   13  C9  UNL     1      63.367  60.081  28.261  1.00  0.00     0.131 A 
HETATM   14  N8  UNL     1      62.818  59.192  27.397  1.00  0.00    -0.176 N 
ATOM     15  H8  UNL     1      62.594  59.494  26.449  1.00  0.00     0.186 HD
ENDROOT
BRANCH  13  16
HETATM   16  N7  UNL     1      63.629  61.292  27.964  1.00  0.00    -0.373 N 
ATOM     17  H7  UNL     1      62.917  62.008  28.105  1.00  0.00     0.161 HD
BRANCH  16  18
HETATM   18  C10 UNL     1      64.910  61.666  27.434  1.00  0.00     0.147 C 
BRANCH  18  19
HETATM   19  C11 UNL     1      64.792  62.055  25.970  1.00  0.00     0.183 C 
BRANCH  19  20
HETATM   20  O2  UNL     1      64.239  60.979  25.278  1.00  0.00    -0.399 OA
ATOM     21  H2  UNL     1      64.950  60.456  24.927  1.00  0.00     0.209 HD
ENDBRANCH  19  20
ENDBRANCH  18  19
ENDBRANCH  16  18
ENDBRANCH  13  16
BRANCH   1  22
HETATM   22  N1  UNL     1      61.976  56.993  26.826  1.00  0.00    -0.226 N 
HETATM   23  C1  UNL     1      62.784  56.170  25.973  1.00  0.00     0.168 C 
HETATM   24  C2  UNL     1      60.532  56.889  26.760  1.00  0.00     0.168 C 
ENDBRANCH   1  22
BRANCH  10  25
HETATM   25  S1  UNL     1      65.247  61.276  32.870  1.00  0.00     0.147 S 
HETATM   26  O1  UNL     1      65.005  60.927  34.325  1.00  0.00    -0.230 OA
BRANCH  25  27
HETATM   27  N6  UNL     1      64.806  62.920  32.494  1.00  0.00    -0.345 NA
ATOM     28  H62 UNL     1      63.856  62.997  32.131  1.00  0.00     0.166 HD
ATOM     29  H61 UNL     1      65.497  63.386  31.906  1.00  0.00     0.166 HD
ENDBRANCH  25  27
ENDBRANCH  10  25
BRANCH   8  30
HETATM   30  N5  UNL     1      64.268  57.087  33.674  1.00  0.00    -0.344 N 
ATOM     31  H52 UNL     1      63.470  56.605  33.259  1.00  0.00     0.176 HD
ATOM     32  H51 UNL     1      64.837  56.602  34.368  1.00  0.00     0.176 HD
ENDBRANCH   8  30
TORSDOF 8
ENDMDL
MODEL 2
REMARK VINA RESULT: -5.829342049      2.728      6.992
REMARK  8 active torsions:
REMARK  status: ('A' for Active; 'I' for Inactive)
REMARK    1  A    between atoms: N1_2  and  C3_4 
REMARK    2  A    between atoms: N4_11  and  N5_13 
REMARK    3  A    between atoms: C6_16  and  S1_17 
REMARK    4  A    between atoms: S1_17  and  N6_18 
REMARK    5  A    between atoms: C9_24  and  N7_25 
REMARK    6  A    between atoms: N7_25  and  C10_27 
REMARK    7  A    between atoms: C10_27  and  C11_28 
REMARK    8  A    between atoms: C11_28  and  O2_29 
ROOT
HETATM    1  C3  UNL     1      64.470  62.861  31.775  1.00  0.00     0.682 A 
HETATM    2  N2  UNL     1      64.397  62.694  30.452  1.00  0.00    -0.175 N 
ATOM      3  H2  UNL     1      64.627  63.491  29.857  1.00  0.00     0.186 HD
HETATM    4  C4  UNL     1      64.042  61.550  29.858  1.00  0.00     0.136 A 
HETATM    5  N3  UNL     1      63.978  61.410  28.516  1.00  0.00    -0.325 N 
ATOM      6  H3  UNL     1      64.207  62.205  27.919  1.00  0.00     0.169 HD
HETATM    7  C5  UNL     1      63.614  60.235  27.945  1.00  0.00     0.142 A 
HETATM    8  N4  UNL     1      63.565  60.143  26.676  1.00  0.00    -0.291 N 
ATOM      9  H4  UNL     1      63.290  59.250  26.267  1.00  0.00     0.188 HD
HETATM   10  C6  UNL     1      63.294  59.130  28.699  1.00  0.00     0.098 A 
HETATM   11  C7  UNL     1      63.361  59.274  30.078  1.00  0.00     0.045 A 
HETATM   12  C8  UNL     1      63.733  60.480  30.657  1.00  0.00     0.054 A 
HETATM   13  C9  UNL     1      63.799  60.622  32.037  1.00  0.00     0.131 A 
HETATM   14  N8  UNL     1      64.169  61.819  32.555  1.00  0.00    -0.176 N 
ATOM     15  H8  UNL     1      64.219  61.927  33.568  1.00  0.00     0.186 HD
ENDROOT
BRANCH  13  16
HETATM   16  N7  UNL     1      63.505  59.602  32.743  1.00  0.00    -0.373 N 
ATOM     17  H7  UNL     1      62.550  59.245  32.732  1.00  0.00     0.161 HD
BRANCH  16  18
HETATM   18  C10 UNL     1      64.494  58.949  33.552  1.00  0.00     0.147 C 
BRANCH  18  19
HETATM   19  C11 UNL     1      64.364  57.439  33.444  1.00  0.00     0.183 C 
BRANCH  19  20
HETATM   20  O2  UNL     1      64.747  56.882  34.662  1.00  0.00    -0.399 OA
ATOM     21  H2  UNL     1      65.069  56.003  34.497  1.00  0.00     0.209 HD
ENDBRANCH  19  20
ENDBRANCH  18  19
ENDBRANCH  16  18
ENDBRANCH  13  16
BRANCH   1  22
HETATM   22  N1  UNL     1      64.862  64.131  32.338  1.00  0.00    -0.226 N 
HETATM   23  C1  UNL     1      66.062  64.276  33.110  1.00  0.00     0.168 C 
HETATM   24  C2  UNL     1      64.013  65.283  32.112  1.00  0.00     0.168 C 
ENDBRANCH   1  22
BRANCH  10  25
HETATM   25  S1  UNL     1      62.816  57.580  28.039  1.00  0.00     0.147 S 
HETATM   26  O1  UNL     1      63.967  56.826  27.404  1.00  0.00    -0.230 OA
BRANCH  25  27
HETATM   27  N6  UNL     1      61.432  57.699  26.987  1.00  0.00    -0.345 NA
ATOM     28  H62 UNL     1      60.723  58.339  27.344  1.00  0.00     0.166 HD
ATOM     29  H61 UNL     1      61.053  56.787  26.732  1.00  0.00     0.166 HD
ENDBRANCH  25  27
ENDBRANCH  10  25
BRANCH   8  30
HETATM   30  N5  UNL     1      63.868  61.198  25.813  1.00  0.00    -0.344 N 
ATOM     31  H52 UNL     1      64.699  61.099  25.230  1.00  0.00     0.176 HD
ATOM     32  H51 UNL     1      63.307  62.047  25.741  1.00  0.00     0.176 HD
ENDBRANCH   8  30
TORSDOF 8
ENDMDL
MODEL 3
REMARK VINA RESULT: -5.328699649      2.188      4.345
REMARK  8 active torsions:
REMARK  status: ('A' for Active; 'I' for Inactive)
REMARK    1  A    between atoms: N1_2  and  C3_4 
REMARK    2  A    between atoms: N4_11  and  N5_13 
REMARK    3  A    between atoms: C6_16  and  S1_17 
REMARK    4  A    between atoms: S1_17  and  N6_18 
REMARK    5  A    between atoms: C9_24  and  N7_25 
REMARK    6  A    between atoms: N7_25  and  C10_27 
REMARK    7  A    between atoms: C10_27  and  C11_28 
REMARK    8  A    between atoms: C11_28  and  O2_29 
ROOT
HETATM    1  C3  UNL     1      64.399  61.140  27.021  1.00  0.00     0.682 A 
HETATM    2  N2  UNL     1      64.808  61.446  28.255  1.00  0.00    -0.175 N 
ATOM      3  H2  UNL     1      65.392  62.274  28.373  1.00  0.00     0.186 HD
HETATM    4  C4  UNL     1      64.498  60.737  29.345  1.00  0.00     0.136 A 
HETATM    5  N3  UNL     1      64.926  61.072  30.582  1.00  0.00    -0.325 N 
ATOM      6  H3  UNL     1      65.511  61.899  30.702  1.00  0.00     0.169 HD
HETATM    7  C5  UNL     1      64.594  60.330  31.669  1.00  0.00     0.142 A 
HETATM    8  N4  UNL     1      65.017  60.678  32.819  1.00  0.00    -0.291 N 
ATOM      9  H4  UNL     1      64.755  60.108  33.622  1.00  0.00     0.188 HD
HETATM   10  C6  UNL     1      63.808  59.206  31.568  1.00  0.00     0.098 A 
HETATM   11  C7  UNL     1      63.369  58.863  30.297  1.00  0.00     0.045 A 
HETATM   12  C8  UNL     1      63.712  59.625  29.188  1.00  0.00     0.054 A 
HETATM   13  C9  UNL     1      63.272  59.280  27.917  1.00  0.00     0.131 A 
HETATM   14  N8  UNL     1      63.633  60.056  26.866  1.00  0.00    -0.176 N 
ATOM     15  H8  UNL     1      63.311  59.806  25.930  1.00  0.00     0.186 HD
ENDROOT
BRANCH  13  16
HETATM   16  N7  UNL     1      62.543  58.239  27.815  1.00  0.00    -0.373 N 
ATOM     17  H7  UNL     1      62.966  57.318  27.923  1.00  0.00     0.161 HD
BRANCH  16  18
HETATM   18  C10 UNL     1      61.136  58.342  27.551  1.00  0.00     0.147 C 
BRANCH  18  19
HETATM   19  C11 UNL     1      60.507  56.963  27.450  1.00  0.00     0.183 C 
BRANCH  19  20
HETATM   20  O2  UNL     1      59.297  56.986  28.140  1.00  0.00    -0.399 OA
ATOM     21  H2  UNL     1      58.960  57.874  28.118  1.00  0.00     0.209 HD
ENDBRANCH  19  20
ENDBRANCH  18  19
ENDBRANCH  16  18
ENDBRANCH  13  16
BRANCH   1  22
HETATM   22  N1  UNL     1      64.777  61.958  25.894  1.00  0.00    -0.226 N 
HETATM   23  C1  UNL     1      64.398  61.618  24.554  1.00  0.00     0.168 C 
HETATM   24  C2  UNL     1      65.563  63.152  26.135  1.00  0.00     0.168 C 
ENDBRANCH   1  22
BRANCH  10  25
HETATM   25  S1  UNL     1      63.336  58.197  32.920  1.00  0.00     0.147 S 
HETATM   26  O1  UNL     1      63.264  58.957  34.229  1.00  0.00    -0.230 OA
BRANCH  25  27
HETATM   27  N6  UNL     1      64.295  56.747  33.038  1.00  0.00    -0.345 NA
ATOM     28  H62 UNL     1      63.761  55.952  33.386  1.00  0.00     0.166 HD
ATOM     29  H61 UNL     1      65.166  56.895  33.548  1.00  0.00     0.166 HD
ENDBRANCH  25  27
ENDBRANCH  10  25
BRANCH   8  30
HETATM   30  N5  UNL     1      65.820  61.799  33.039  1.00  0.00    -0.344 N 
ATOM     31  H52 UNL     1      66.783  61.755  32.707  1.00  0.00     0.176 HD
ATOM     32  H51 UNL     1      65.493  62.644  33.508  1.00  0.00     0.176 HD
ENDBRANCH   8  30
TORSDOF 8
ENDMDL
MODEL 4
REMARK VINA RESULT: -4.859514381      3.020      5.022
REMARK  8 active torsions:
REMARK  status: ('A' for Active; 'I' for Inactive)
REMARK    1  A    between atoms: N1_2  and  C3_4 
REMARK    2  A    between atoms: N4_11  and  N5_13 
REMARK    3  A    between atoms: C6_16  and  S1_17 
REMARK    4  A    between atoms: S1_17  and  N6_18 
REMARK    5  A    between atoms: C9_24  and  N7_25 
REMARK    6  A    between atoms: N7_25  and  C10_27 
REMARK    7  A    between atoms: C10_27  and  C11_28 
REMARK    8  A    between atoms: C11_28  and  O2_29 
ROOT
HETATM    1  C3  UNL     1      62.920  59.352  29.761  1.00  0.00     0.682 A 
HETATM    2  N2  UNL     1      62.918  60.679  29.907  1.00  0.00    -0.175 N 
ATOM      3  H2  UNL     1      62.247  61.219  29.359  1.00  0.00     0.186 HD
HETATM    4  C4  UNL     1      63.739  61.346  30.724  1.00  0.00     0.136 A 
HETATM    5  N3  UNL     1      63.714  62.691  30.852  1.00  0.00    -0.325 N 
ATOM      6  H3  UNL     1      63.044  63.232  30.305  1.00  0.00     0.169 HD
HETATM    7  C5  UNL     1      64.562  63.337  31.691  1.00  0.00     0.142 A 
HETATM    8  N4  UNL     1      64.507  64.606  31.782  1.00  0.00    -0.291 N 
ATOM      9  H4  UNL     1      65.152  65.072  32.420  1.00  0.00     0.188 HD
HETATM   10  C6  UNL     1      65.485  62.660  32.452  1.00  0.00     0.098 A 
HETATM   11  C7  UNL     1      65.511  61.278  32.322  1.00  0.00     0.045 A 
HETATM   12  C8  UNL     1      64.641  60.623  31.460  1.00  0.00     0.054 A 
HETATM   13  C9  UNL     1      64.669  59.240  31.331  1.00  0.00     0.131 A 
HETATM   14  N8  UNL     1      63.799  58.645  30.478  1.00  0.00    -0.176 N 
ATOM     15  H8  UNL     1      63.815  57.629  30.380  1.00  0.00     0.186 HD
ENDROOT
BRANCH  13  16
HETATM   16  N7  UNL     1      65.522  58.605  32.034  1.00  0.00    -0.373 N 
ATOM     17  H7  UNL     1      66.459  58.989  32.151  1.00  0.00     0.161 HD
BRANCH  16  18
HETATM   18  C10 UNL     1      65.186  57.359  32.663  1.00  0.00     0.147 C 
BRANCH  18  19
HETATM   19  C11 UNL     1      64.237  57.585  33.827  1.00  0.00     0.183 C 
BRANCH  19  20
HETATM   20  O2  UNL     1      64.265  56.452  34.637  1.00  0.00    -0.399 OA
ATOM     21  H2  UNL     1      65.105  56.427  35.082  1.00  0.00     0.209 HD
ENDBRANCH  19  20
ENDBRANCH  18  19
ENDBRANCH  16  18
ENDBRANCH  13  16
BRANCH   1  22
HETATM   22  N1  UNL     1      62.000  58.708  28.856  1.00  0.00    -0.226 N 
HETATM   23  C1  UNL     1      62.209  58.710  27.438  1.00  0.00     0.168 C 
HETATM   24  C2  UNL     1      60.834  58.044  29.406  1.00  0.00     0.168 C 
ENDBRANCH   1  22
BRANCH  10  25
HETATM   25  S1  UNL     1      66.613  63.420  33.557  1.00  0.00     0.147 S 
HETATM   26  O1  UNL     1      66.596  64.933  33.472  1.00  0.00    -0.230 OA
BRANCH  25  27
HETATM   27  N6  UNL     1      68.220  62.759  33.430  1.00  0.00    -0.345 NA
ATOM     28  H62 UNL     1      68.527  62.306  34.290  1.00  0.00     0.166 HD
ATOM     29  H61 UNL     1      68.895  63.437  33.075  1.00  0.00     0.166 HD
ENDBRANCH  25  27
ENDBRANCH  10  25
BRANCH   8  30
HETATM   30  N5  UNL     1      63.611  65.395  31.058  1.00  0.00    -0.344 N 
ATOM     31  H52 UNL     1      63.982  66.236  30.618  1.00  0.00     0.176 HD
ATOM     32  H51 UNL     1      62.621  65.171  30.952  1.00  0.00     0.176 HD
ENDBRANCH   8  30
TORSDOF 8
ENDMDL
MODEL 5
REMARK VINA RESULT: -3.882644633      2.514      5.712
REMARK  8 active torsions:
REMARK  status: ('A' for Active; 'I' for Inactive)
REMARK    1  A    between atoms: N1_2  and  C3_4 
REMARK    2  A    between atoms: N4_11  and  N5_13 
REMARK    3  A    between atoms: C6_16  and  S1_17 
REMARK    4  A    between atoms: S1_17  and  N6_18 
REMARK    5  A    between atoms: C9_24  and  N7_25 
REMARK    6  A    between atoms: N7_25  and  C10_27 
REMARK    7  A    between atoms: C10_27  and  C11_28 
REMARK    8  A    between atoms: C11_28  and  O2_29 
ROOT
HETATM    1  C3  UNL     1      64.578  58.624  33.189  1.00  0.00     0.682 A 
HETATM    2  N2  UNL     1      64.318  58.077  31.999  1.00  0.00    -0.175 N 
ATOM      3  H2  UNL     1      64.181  57.066  31.958  1.00  0.00     0.186 HD
HETATM    4  C4  UNL     1      64.224  58.769  30.859  1.00  0.00     0.136 A 
HETATM    5  N3  UNL     1      63.958  58.187  29.668  1.00  0.00    -0.325 N 
ATOM      6  H3  UNL     1      63.821  57.177  29.625  1.00  0.00     0.169 HD
HETATM    7  C5  UNL     1      63.869  58.919  28.529  1.00  0.00     0.142 A 
HETATM    8  N4  UNL     1      63.617  58.333  27.427  1.00  0.00    -0.291 N 
ATOM      9  H4  UNL     1      63.554  58.902  26.582  1.00  0.00     0.188 HD
HETATM   10  C6  UNL     1      64.043  60.283  28.527  1.00  0.00     0.098 A 
HETATM   11  C7  UNL     1      64.316  60.880  29.751  1.00  0.00     0.045 A 
HETATM   12  C8  UNL     1      64.406  60.126  30.913  1.00  0.00     0.054 A 
HETATM   13  C9  UNL     1      64.679  60.726  32.136  1.00  0.00     0.131 A 
HETATM   14  N8  UNL     1      64.756  59.947  33.244  1.00  0.00    -0.176 N 
ATOM     15  H8  UNL     1      64.956  60.383  34.144  1.00  0.00     0.186 HD
ENDROOT
BRANCH  13  16
HETATM   16  N7  UNL     1      64.841  61.989  32.143  1.00  0.00    -0.373 N 
ATOM     17  H7  UNL     1      65.749  62.377  32.399  1.00  0.00     0.161 HD
BRANCH  16  18
HETATM   18  C10 UNL     1      63.768  62.877  31.795  1.00  0.00     0.147 C 
BRANCH  18  19
HETATM   19  C11 UNL     1      64.233  64.323  31.837  1.00  0.00     0.183 C 
BRANCH  19  20
HETATM   20  O2  UNL     1      63.391  65.074  31.020  1.00  0.00    -0.399 OA
ATOM     21  H2  UNL     1      62.565  65.190  31.474  1.00  0.00     0.209 HD
ENDBRANCH  19  20
ENDBRANCH  18  19
ENDBRANCH  16  18
ENDBRANCH  13  16
BRANCH   1  22
HETATM   22  N1  UNL     1      64.663  57.806  34.374  1.00  0.00    -0.226 N 
HETATM   23  C1  UNL     1      64.301  56.419  34.362  1.00  0.00     0.168 C 
HETATM   24  C2  UNL     1      65.128  58.413  35.606  1.00  0.00     0.168 C 
ENDBRANCH   1  22
BRANCH  10  25
HETATM   25  S1  UNL     1      63.945  61.296  27.102  1.00  0.00     0.147 S 
HETATM   26  O1  UNL     1      63.805  60.502  25.819  1.00  0.00    -0.230 OA
BRANCH  25  27
HETATM   27  N6  UNL     1      65.231  62.469  27.027  1.00  0.00    -0.345 NA
ATOM     28  H62 UNL     1      66.104  62.119  27.421  1.00  0.00     0.166 HD
ATOM     29  H61 UNL     1      64.958  63.375  27.407  1.00  0.00     0.166 HD
ENDBRANCH  25  27
ENDBRANCH  10  25
BRANCH   8  30
HETATM   30  N5  UNL     1      63.423  56.956  27.311  1.00  0.00    -0.344 N 
ATOM     31  H52 UNL     1      62.592  56.644  26.807  1.00  0.00     0.176 HD
ATOM     32  H51 UNL     1      64.061  56.261  27.699  1.00  0.00     0.176 HD
ENDBRANCH   8  30
TORSDOF 8
ENDMDL
