MODEL 1
REMARK VINA RESULT: -7.690426364      0.000      0.000
REMARK  7 active torsions:
REMARK  status: ('A' for Active; 'I' for Inactive)
REMARK    1  A    between atoms: C2_2  and  C3_3 
REMARK    2  A    between atoms: C5_5  and  N1_6 
REMARK    3  A    between atoms: C6_11  and  N3_12 
REMARK    4  A    between atoms: C8_14  and  C9_15 
REMARK    5  A    between atoms: N4_16  and  N5_18 
REMARK    6  A    between atoms: N5_18  and  C10_20 
REMARK    7  A    between atoms: N10_31  and  O1_32 
ROOT
HETATM    1  N3  UNL     1      63.199  58.689  28.408  1.00  0.00    -0.093 N 
HETATM    2  C7  UNL     1      63.855  58.494  29.593  1.00  0.00     0.151 A 
HETATM    3  C8  UNL     1      64.447  59.666  30.007  1.00  0.00     0.041 A 
HETATM    4  C13 UNL     1      64.126  60.601  29.022  1.00  0.00     0.144 A 
HETATM    5  N8  UNL     1      64.508  61.994  28.982  1.00  0.00    -0.080 NA
HETATM    6  N9  UNL     1      63.391  59.962  28.112  1.00  0.00    -0.266 N 
ATOM      7  H9  UNL     1      63.017  60.409  27.274  1.00  0.00     0.189 HD
ENDROOT
BRANCH   1   8
HETATM    8  C6  UNL     1      62.474  57.706  27.681  1.00  0.00     0.731 A 
HETATM    9  N2  UNL     1      63.084  57.074  26.667  1.00  0.00    -0.173 N 
HETATM   10  C5  UNL     1      62.471  56.133  25.930  1.00  0.00     0.116 A 
ATOM     11  H2  UNL     1      64.050  57.317  26.447  1.00  0.00     0.186 HD
HETATM   12  C4  UNL     1      61.155  55.795  26.223  1.00  0.00     0.076 A 
HETATM   13  C3  UNL     1      60.535  56.442  27.258  1.00  0.00     0.062 A 
HETATM   14  N10 UNL     1      61.200  57.373  27.957  1.00  0.00    -0.055 N 
BRANCH  10  15
HETATM   15  N1  UNL     1      63.094  55.537  24.951  1.00  0.00    -0.385 N 
ATOM     16  H12 UNL     1      62.585  55.204  24.132  1.00  0.00     0.157 HD
ATOM     17  H11 UNL     1      64.104  55.400  24.998  1.00  0.00     0.157 HD
ENDBRANCH  10  15
BRANCH  13  18
HETATM   18  C2  UNL     1      59.151  56.118  27.601  1.00  0.00     0.056 C 
HETATM   19  C1  UNL     1      58.600  55.216  26.499  1.00  0.00     0.011 C 
ENDBRANCH  13  18
BRANCH  14  20
HETATM   20  O1  UNL     1      60.593  58.041  29.010  1.00  0.00    -0.269 OA
ATOM     21  H1  UNL     1      60.821  58.940  29.213  1.00  0.00     0.245 HD
ENDBRANCH  14  20
ENDBRANCH   1   8
BRANCH   3  22
HETATM   22  C9  UNL     1      65.239  59.960  31.182  1.00  0.00     0.123 C 
HETATM   23  N4  UNL     1      65.094  60.876  32.029  1.00  0.00    -0.308 N 
ATOM     24  H4  UNL     1      65.765  60.917  32.796  1.00  0.00     0.186 HD
BRANCH  23  25
HETATM   25  N5  UNL     1      64.102  61.830  32.003  1.00  0.00    -0.272 N 
ATOM     26  H5  UNL     1      63.127  61.528  32.008  1.00  0.00     0.190 HD
BRANCH  25  27
HETATM   27  C10 UNL     1      64.391  63.244  31.970  1.00  0.00     0.190 C 
HETATM   28  N6  UNL     1      65.333  63.781  32.676  1.00  0.00    -0.360 N 
HETATM   29  C11 UNL     1      65.397  65.207  32.444  1.00  0.00     0.142 C 
ATOM     30  H6  UNL     1      65.946  63.268  33.309  1.00  0.00     0.162 HD
HETATM   31  C12 UNL     1      64.064  65.514  31.788  1.00  0.00     0.142 C 
HETATM   32  N7  UNL     1      63.723  64.231  31.194  1.00  0.00    -0.360 N 
ATOM     33  H7  UNL     1      63.124  64.070  30.384  1.00  0.00     0.162 HD
ENDBRANCH  25  27
ENDBRANCH  23  25
ENDBRANCH   3  22
TORSDOF 7
ENDMDL
MODEL 2
REMARK VINA RESULT: -7.648669546      1.628      2.449
REMARK  7 active torsions:
REMARK  status: ('A' for Active; 'I' for Inactive)
REMARK    1  A    between atoms: C2_2  and  C3_3 
REMARK    2  A    between atoms: C5_5  and  N1_6 
REMARK    3  A    between atoms: C6_11  and  N3_12 
REMARK    4  A    between atoms: C8_14  and  C9_15 
REMARK    5  A    between atoms: N4_16  and  N5_18 
REMARK    6  A    between atoms: N5_18  and  C10_20 
REMARK    7  A    between atoms: N10_31  and  O1_32 
ROOT
HETATM    1  N3  UNL     1      63.936  58.149  30.461  1.00  0.00    -0.093 N 
HETATM    2  C7  UNL     1      64.645  59.297  30.683  1.00  0.00     0.151 A 
HETATM    3  C8  UNL     1      65.026  59.372  32.004  1.00  0.00     0.041 A 
HETATM    4  C13 UNL     1      64.519  58.213  32.593  1.00  0.00     0.144 A 
HETATM    5  N8  UNL     1      64.644  57.809  33.975  1.00  0.00    -0.080 NA
HETATM    6  N9  UNL     1      63.889  57.538  31.632  1.00  0.00    -0.266 N 
ATOM      7  H9  UNL     1      63.421  56.644  31.784  1.00  0.00     0.189 HD
ENDROOT
BRANCH   1   8
HETATM    8  C6  UNL     1      63.382  57.734  29.219  1.00  0.00     0.731 A 
HETATM    9  N2  UNL     1      64.161  57.061  28.358  1.00  0.00    -0.173 N 
HETATM   10  C5  UNL     1      63.716  56.634  27.165  1.00  0.00     0.116 A 
ATOM     11  H2  UNL     1      65.127  56.866  28.620  1.00  0.00     0.186 HD
HETATM   12  C4  UNL     1      62.401  56.895  26.800  1.00  0.00     0.076 A 
HETATM   13  C3  UNL     1      61.608  57.583  27.680  1.00  0.00     0.062 A 
HETATM   14  N10 UNL     1      62.110  57.983  28.857  1.00  0.00    -0.055 N 
BRANCH  10  15
HETATM   15  N1  UNL     1      64.500  55.981  26.352  1.00  0.00    -0.385 N 
ATOM     16  H12 UNL     1      65.132  55.260  26.699  1.00  0.00     0.157 HD
ATOM     17  H11 UNL     1      64.484  56.188  25.353  1.00  0.00     0.157 HD
ENDBRANCH  10  15
BRANCH  13  18
HETATM   18  C2  UNL     1      60.219  57.879  27.337  1.00  0.00     0.056 C 
HETATM   19  C1  UNL     1      59.419  56.588  27.485  1.00  0.00     0.011 C 
ENDBRANCH  13  18
BRANCH  14  20
HETATM   20  O1  UNL     1      61.327  58.681  29.765  1.00  0.00    -0.269 OA
ATOM     21  H1  UNL     1      61.587  58.758  30.675  1.00  0.00     0.245 HD
ENDBRANCH  14  20
ENDBRANCH   1   8
BRANCH   3  22
HETATM   22  C9  UNL     1      65.781  60.383  32.713  1.00  0.00     0.123 C 
HETATM   23  N4  UNL     1      65.562  61.616  32.809  1.00  0.00    -0.308 N 
ATOM     24  H4  UNL     1      66.218  62.169  33.361  1.00  0.00     0.186 HD
BRANCH  23  25
HETATM   25  N5  UNL     1      64.505  62.282  32.228  1.00  0.00    -0.272 N 
ATOM     26  H5  UNL     1      63.681  61.750  31.950  1.00  0.00     0.190 HD
BRANCH  25  27
HETATM   27  C10 UNL     1      64.523  63.707  31.999  1.00  0.00     0.190 C 
HETATM   28  N6  UNL     1      63.728  64.290  31.164  1.00  0.00    -0.360 N 
HETATM   29  C11 UNL     1      63.966  65.717  31.139  1.00  0.00     0.142 C 
ATOM     30  H6  UNL     1      63.027  63.809  30.599  1.00  0.00     0.162 HD
HETATM   31  C12 UNL     1      65.324  65.854  31.800  1.00  0.00     0.142 C 
HETATM   32  N7  UNL     1      65.376  64.658  32.625  1.00  0.00    -0.360 N 
ATOM     33  H7  UNL     1      65.916  64.527  33.481  1.00  0.00     0.162 HD
ENDBRANCH  25  27
ENDBRANCH  23  25
ENDBRANCH   3  22
TORSDOF 7
ENDMDL
MODEL 3
REMARK VINA RESULT: -7.149744705      1.922      2.957
REMARK  7 active torsions:
REMARK  status: ('A' for Active; 'I' for Inactive)
REMARK    1  A    between atoms: C2_2  and  C3_3 
REMARK    2  A    between atoms: C5_5  and  N1_6 
REMARK    3  A    between atoms: C6_11  and  N3_12 
REMARK    4  A    between atoms: C8_14  and  C9_15 
REMARK    5  A    between atoms: N4_16  and  N5_18 
REMARK    6  A    between atoms: N5_18  and  C10_20 
REMARK    7  A    between atoms: N10_31  and  O1_32 
ROOT
HETATM    1  N3  UNL     1      63.389  58.763  31.038  1.00  0.00    -0.093 N 
HETATM    2  C7  UNL     1      63.671  59.886  31.767  1.00  0.00     0.151 A 
HETATM    3  C8  UNL     1      64.232  59.539  32.976  1.00  0.00     0.041 A 
HETATM    4  C13 UNL     1      64.285  58.145  32.963  1.00  0.00     0.144 A 
HETATM    5  N8  UNL     1      64.792  57.281  34.004  1.00  0.00    -0.080 NA
HETATM    6  N9  UNL     1      63.774  57.752  31.796  1.00  0.00    -0.266 N 
ATOM      7  H9  UNL     1      63.690  56.774  31.518  1.00  0.00     0.189 HD
ENDROOT
BRANCH   1   8
HETATM    8  C6  UNL     1      62.805  58.731  29.743  1.00  0.00     0.731 A 
HETATM    9  N2  UNL     1      63.378  59.440  28.759  1.00  0.00    -0.173 N 
HETATM   10  C5  UNL     1      62.890  59.465  27.508  1.00  0.00     0.116 A 
ATOM     11  H2  UNL     1      64.218  59.981  28.968  1.00  0.00     0.186 HD
HETATM   12  C4  UNL     1      61.748  58.730  27.212  1.00  0.00     0.076 A 
HETATM   13  C3  UNL     1      61.164  58.008  28.219  1.00  0.00     0.062 A 
HETATM   14  N10 UNL     1      61.698  58.024  29.448  1.00  0.00    -0.055 N 
BRANCH  10  15
HETATM   15  N1  UNL     1      63.473  60.164  26.574  1.00  0.00    -0.385 N 
ATOM     16  H12 UNL     1      63.062  60.242  25.643  1.00  0.00     0.157 HD
ATOM     17  H11 UNL     1      64.352  60.643  26.771  1.00  0.00     0.157 HD
ENDBRANCH  10  15
BRANCH  13  18
HETATM   18  C2  UNL     1      59.960  57.222  27.953  1.00  0.00     0.056 C 
HETATM   19  C1  UNL     1      60.156  56.513  26.615  1.00  0.00     0.011 C 
ENDBRANCH  13  18
BRANCH  14  20
HETATM   20  O1  UNL     1      61.125  57.300  30.483  1.00  0.00    -0.269 OA
ATOM     21  H1  UNL     1      60.190  57.134  30.503  1.00  0.00     0.245 HD
ENDBRANCH  14  20
ENDBRANCH   1   8
BRANCH   3  22
HETATM   22  C9  UNL     1      64.694  60.362  34.073  1.00  0.00     0.123 C 
HETATM   23  N4  UNL     1      65.365  61.424  34.041  1.00  0.00    -0.308 N 
ATOM     24  H4  UNL     1      65.594  61.862  34.934  1.00  0.00     0.186 HD
BRANCH  23  25
HETATM   25  N5  UNL     1      65.817  62.043  32.897  1.00  0.00    -0.272 N 
ATOM     26  H5  UNL     1      66.567  61.604  32.362  1.00  0.00     0.190 HD
BRANCH  25  27
HETATM   27  C10 UNL     1      65.266  63.292  32.427  1.00  0.00     0.190 C 
HETATM   28  N6  UNL     1      65.733  64.441  32.791  1.00  0.00    -0.360 N 
HETATM   29  C11 UNL     1      64.992  65.516  32.167  1.00  0.00     0.142 C 
ATOM     30  H6  UNL     1      66.516  64.573  33.431  1.00  0.00     0.162 HD
HETATM   31  C12 UNL     1      63.729  64.832  31.681  1.00  0.00     0.142 C 
HETATM   32  N7  UNL     1      64.175  63.456  31.530  1.00  0.00    -0.360 N 
ATOM     33  H7  UNL     1      63.784  62.750  30.906  1.00  0.00     0.162 HD
ENDBRANCH  25  27
ENDBRANCH  23  25
ENDBRANCH   3  22
TORSDOF 7
ENDMDL
MODEL 4
REMARK VINA RESULT: -7.048878210      1.615      2.137
REMARK  7 active torsions:
REMARK  status: ('A' for Active; 'I' for Inactive)
REMARK    1  A    between atoms: C2_2  and  C3_3 
REMARK    2  A    between atoms: C5_5  and  N1_6 
REMARK    3  A    between atoms: C6_11  and  N3_12 
REMARK    4  A    between atoms: C8_14  and  C9_15 
REMARK    5  A    between atoms: N4_16  and  N5_18 
REMARK    6  A    between atoms: N5_18  and  C10_20 
REMARK    7  A    between atoms: N10_31  and  O1_32 
ROOT
HETATM    1  N3  UNL     1      63.318  59.334  29.766  1.00  0.00    -0.093 N 
HETATM    2  C7  UNL     1      63.706  59.033  31.042  1.00  0.00     0.151 A 
HETATM    3  C8  UNL     1      63.942  60.188  31.752  1.00  0.00     0.041 A 
HETATM    4  C13 UNL     1      63.681  61.224  30.855  1.00  0.00     0.144 A 
HETATM    5  N8  UNL     1      63.779  62.644  31.106  1.00  0.00    -0.080 NA
HETATM    6  N9  UNL     1      63.319  60.654  29.706  1.00  0.00    -0.266 N 
ATOM      7  H9  UNL     1      63.069  61.181  28.868  1.00  0.00     0.189 HD
ENDROOT
BRANCH   1   8
HETATM    8  C6  UNL     1      62.990  58.398  28.748  1.00  0.00     0.731 A 
HETATM    9  N2  UNL     1      63.966  57.631  28.237  1.00  0.00    -0.173 N 
HETATM   10  C5  UNL     1      63.742  56.723  27.274  1.00  0.00     0.116 A 
ATOM     11  H2  UNL     1      64.916  57.743  28.595  1.00  0.00     0.186 HD
HETATM   12  C4  UNL     1      62.452  56.563  26.781  1.00  0.00     0.076 A 
HETATM   13  C3  UNL     1      61.458  57.347  27.303  1.00  0.00     0.062 A 
HETATM   14  N10 UNL     1      61.745  58.237  28.263  1.00  0.00    -0.055 N 
BRANCH  10  15
HETATM   15  N1  UNL     1      64.714  55.994  26.800  1.00  0.00    -0.385 N 
ATOM     16  H12 UNL     1      64.698  55.660  25.836  1.00  0.00     0.157 HD
ATOM     17  H11 UNL     1      65.506  55.752  27.396  1.00  0.00     0.157 HD
ENDBRANCH  10  15
BRANCH  13  18
HETATM   18  C2  UNL     1      60.087  57.213  26.814  1.00  0.00     0.056 C 
HETATM   19  C1  UNL     1      59.443  56.044  27.554  1.00  0.00     0.011 C 
ENDBRANCH  13  18
BRANCH  14  20
HETATM   20  O1  UNL     1      60.754  59.041  28.808  1.00  0.00    -0.269 OA
ATOM     21  H1  UNL     1      59.923  58.672  29.081  1.00  0.00     0.245 HD
ENDBRANCH  14  20
ENDBRANCH   1   8
BRANCH   3  22
HETATM   22  C9  UNL     1      64.367  60.385  33.122  1.00  0.00     0.123 C 
HETATM   23  N4  UNL     1      65.321  61.071  33.567  1.00  0.00    -0.308 N 
ATOM     24  H4  UNL     1      65.459  61.083  34.577  1.00  0.00     0.186 HD
BRANCH  23  25
HETATM   25  N5  UNL     1      66.194  61.807  32.798  1.00  0.00    -0.272 N 
ATOM     26  H5  UNL     1      66.596  61.381  31.963  1.00  0.00     0.190 HD
BRANCH  25  27
HETATM   27  C10 UNL     1      66.562  63.162  33.133  1.00  0.00     0.190 C 
HETATM   28  N6  UNL     1      65.818  64.179  32.841  1.00  0.00    -0.360 N 
HETATM   29  C11 UNL     1      66.431  65.409  33.295  1.00  0.00     0.142 C 
ATOM     30  H6  UNL     1      64.922  64.123  32.358  1.00  0.00     0.162 HD
HETATM   31  C12 UNL     1      67.872  65.007  33.548  1.00  0.00     0.142 C 
HETATM   32  N7  UNL     1      67.742  63.582  33.806  1.00  0.00    -0.360 N 
ATOM     33  H7  UNL     1      68.372  62.999  34.359  1.00  0.00     0.162 HD
ENDBRANCH  25  27
ENDBRANCH  23  25
ENDBRANCH   3  22
TORSDOF 7
ENDMDL
MODEL 5
REMARK VINA RESULT: -6.822805254      2.478      8.801
REMARK  7 active torsions:
REMARK  status: ('A' for Active; 'I' for Inactive)
REMARK    1  A    between atoms: C2_2  and  C3_3 
REMARK    2  A    between atoms: C5_5  and  N1_6 
REMARK    3  A    between atoms: C6_11  and  N3_12 
REMARK    4  A    between atoms: C8_14  and  C9_15 
REMARK    5  A    between atoms: N4_16  and  N5_18 
REMARK    6  A    between atoms: N5_18  and  C10_20 
REMARK    7  A    between atoms: N10_31  and  O1_32 
ROOT
HETATM    1  N3  UNL     1      64.837  61.328  32.447  1.00  0.00    -0.093 N 
HETATM    2  C7  UNL     1      64.941  60.501  31.363  1.00  0.00     0.151 A 
HETATM    3  C8  UNL     1      64.628  59.209  31.719  1.00  0.00     0.041 A 
HETATM    4  C13 UNL     1      64.323  59.273  33.079  1.00  0.00     0.144 A 
HETATM    5  N8  UNL     1      63.929  58.180  33.938  1.00  0.00    -0.080 NA
HETATM    6  N9  UNL     1      64.466  60.546  33.445  1.00  0.00    -0.266 N 
ATOM      7  H9  UNL     1      64.305  60.882  34.395  1.00  0.00     0.189 HD
ENDROOT
BRANCH   1   8
HETATM    8  C6  UNL     1      65.084  62.728  32.459  1.00  0.00     0.731 A 
HETATM    9  N2  UNL     1      64.199  63.545  31.868  1.00  0.00    -0.173 N 
HETATM   10  C5  UNL     1      64.357  64.878  31.834  1.00  0.00     0.116 A 
ATOM     11  H2  UNL     1      63.373  63.137  31.428  1.00  0.00     0.186 HD
HETATM   12  C4  UNL     1      65.478  65.442  32.431  1.00  0.00     0.076 A 
HETATM   13  C3  UNL     1      66.381  64.606  33.033  1.00  0.00     0.062 A 
HETATM   14  N10 UNL     1      66.168  63.283  33.033  1.00  0.00    -0.055 N 
BRANCH  10  15
HETATM   15  N1  UNL     1      63.476  65.643  31.252  1.00  0.00    -0.385 N 
ATOM     16  H12 UNL     1      63.421  65.700  30.235  1.00  0.00     0.157 HD
ATOM     17  H11 UNL     1      62.828  66.194  31.816  1.00  0.00     0.157 HD
ENDBRANCH  10  15
BRANCH  13  18
HETATM   18  C2  UNL     1      67.575  65.156  33.673  1.00  0.00     0.056 C 
HETATM   19  C1  UNL     1      67.276  66.608  34.041  1.00  0.00     0.011 C 
ENDBRANCH  13  18
BRANCH  14  20
HETATM   20  O1  UNL     1      67.067  62.417  33.637  1.00  0.00    -0.269 OA
ATOM     21  H1  UNL     1      66.974  62.176  34.551  1.00  0.00     0.245 HD
ENDBRANCH  14  20
ENDBRANCH   1   8
BRANCH   3  22
HETATM   22  C9  UNL     1      64.593  57.994  30.933  1.00  0.00     0.123 C 
HETATM   23  N4  UNL     1      63.812  57.673  30.002  1.00  0.00    -0.308 N 
ATOM     24  H4  UNL     1      63.952  56.762  29.565  1.00  0.00     0.186 HD
BRANCH  23  25
HETATM   25  N5  UNL     1      62.783  58.454  29.525  1.00  0.00    -0.272 N 
ATOM     26  H5  UNL     1      62.728  59.429  29.819  1.00  0.00     0.190 HD
BRANCH  25  27
HETATM   27  C10 UNL     1      61.780  57.940  28.623  1.00  0.00     0.190 C 
HETATM   28  N6  UNL     1      60.604  57.579  29.020  1.00  0.00    -0.360 N 
HETATM   29  C11 UNL     1      59.809  57.108  27.907  1.00  0.00     0.142 C 
ATOM     30  H6  UNL     1      60.280  57.621  29.986  1.00  0.00     0.162 HD
HETATM   31  C12 UNL     1      60.841  56.856  26.824  1.00  0.00     0.142 C 
HETATM   32  N7  UNL     1      61.912  57.758  27.219  1.00  0.00    -0.360 N 
ATOM     33  H7  UNL     1      62.617  58.175  26.611  1.00  0.00     0.162 HD
ENDBRANCH  25  27
ENDBRANCH  23  25
ENDBRANCH   3  22
TORSDOF 7
ENDMDL
