MODEL 1
REMARK VINA RESULT: -7.486306878      0.000      0.000
REMARK  7 active torsions:
REMARK  status: ('A' for Active; 'I' for Inactive)
REMARK    1  A    between atoms: C3_4  and  N2_5 
REMARK    2  A    between atoms: N2_5  and  C4_7 
REMARK    3  A    between atoms: C9_17  and  S1_18 
REMARK    4  A    between atoms: S1_18  and  C10_19 
REMARK    5  A    between atoms: C10_19  and  C11_20 
REMARK       I    between atoms: C11_20  and  N5_22 
REMARK    6  A    between atoms: N5_22  and  N6_24 
REMARK    7  A    between atoms: N7_26  and  O2_28 
ROOT
HETATM    1  N1  UNL     1      65.303  62.104  26.701  1.00  0.00    -0.083 NA
HETATM    2  C1  UNL     1      64.478  61.386  27.603  1.00  0.00     0.121 A 
HETATM    3  C2  UNL     1      63.659  60.366  27.144  1.00  0.00     0.093 A 
HETATM    4  C3  UNL     1      62.859  59.670  28.011  1.00  0.00     0.106 A 
HETATM    5  N4  UNL     1      62.873  59.981  29.312  1.00  0.00    -0.323 N 
ATOM      6  H4  UNL     1      62.277  59.460  29.956  1.00  0.00     0.169 HD
HETATM    7  C9  UNL     1      63.667  60.981  29.797  1.00  0.00     0.147 A 
HETATM    8  N8  UNL     1      64.444  61.651  28.930  1.00  0.00    -0.325 N 
ATOM      9  H8  UNL     1      65.039  62.397  29.290  1.00  0.00     0.169 HD
ENDROOT
BRANCH   7  10
HETATM   10  S1  UNL     1      63.682  61.390  31.526  1.00  0.00    -0.084 SA
BRANCH  10  11
HETATM   11  C10 UNL     1      64.975  60.532  32.417  1.00  0.00     0.186 C 
BRANCH  11  12
HETATM   12  C11 UNL     1      64.469  59.329  33.093  1.00  0.00     0.246 C 
HETATM   13  O1  UNL     1      63.629  59.437  34.010  1.00  0.00    -0.271 OA
HETATM   14  N5  UNL     1      64.931  58.050  32.701  1.00  0.00    -0.253 N 
ATOM     15  H5  UNL     1      65.618  57.964  31.952  1.00  0.00     0.191 HD
BRANCH  14  16
HETATM   16  N6  UNL     1      64.452  56.914  33.333  1.00  0.00    -0.221 N 
HETATM   17  N7  UNL     1      64.599  56.568  34.515  1.00  0.00    -0.196 N 
ATOM     18  H7  UNL     1      64.179  55.694  34.829  1.00  0.00     0.217 HD
ATOM     19  H6  UNL     1      63.905  56.280  32.751  1.00  0.00     0.210 HD
BRANCH  17  20
HETATM   20  O2  UNL     1      65.307  57.322  35.413  1.00  0.00    -0.273 OA
ATOM     21  H2  UNL     1      65.817  56.930  36.112  1.00  0.00     0.246 HD
ENDBRANCH  17  20
ENDBRANCH  14  16
ENDBRANCH  11  12
ENDBRANCH  10  11
ENDBRANCH   7  10
BRANCH   4  22
HETATM   22  N2  UNL     1      62.112  58.734  27.582  1.00  0.00    -0.371 N 
ATOM     23  H2  UNL     1      61.227  58.989  27.144  1.00  0.00     0.161 HD
BRANCH  22  24
HETATM   24  C4  UNL     1      62.444  57.328  27.680  1.00  0.00     0.086 C 
HETATM   25  C5  UNL     1      61.624  56.467  26.785  1.00  0.00     0.052 C 
HETATM   26  C6  UNL     1      62.369  56.315  25.458  1.00  0.00     0.234 C 
HETATM   27  N3  UNL     1      63.564  55.505  25.645  1.00  0.00    -0.075 N 
HETATM   28  C7  UNL     1      64.035  55.613  27.019  1.00  0.00     0.234 C 
ATOM     29  H32 UNL     1      63.413  54.534  25.370  1.00  0.00     0.277 HD
ATOM     30  H31 UNL     1      64.293  55.741  24.972  1.00  0.00     0.277 HD
HETATM   31  C8  UNL     1      63.898  57.050  27.479  1.00  0.00     0.052 C 
ENDBRANCH  22  24
ENDBRANCH   4  22
TORSDOF 7
ENDMDL
MODEL 2
REMARK VINA RESULT: -7.336105358      1.376      1.783
REMARK  7 active torsions:
REMARK  status: ('A' for Active; 'I' for Inactive)
REMARK    1  A    between atoms: C3_4  and  N2_5 
REMARK    2  A    between atoms: N2_5  and  C4_7 
REMARK    3  A    between atoms: C9_17  and  S1_18 
REMARK    4  A    between atoms: S1_18  and  C10_19 
REMARK    5  A    between atoms: C10_19  and  C11_20 
REMARK       I    between atoms: C11_20  and  N5_22 
REMARK    6  A    between atoms: N5_22  and  N6_24 
REMARK    7  A    between atoms: N7_26  and  O2_28 
ROOT
HETATM    1  N1  UNL     1      64.531  61.483  26.755  1.00  0.00    -0.083 NA
HETATM    2  C1  UNL     1      64.005  60.951  27.959  1.00  0.00     0.121 A 
HETATM    3  C2  UNL     1      63.250  59.787  27.941  1.00  0.00     0.093 A 
HETATM    4  C3  UNL     1      62.738  59.270  29.100  1.00  0.00     0.106 A 
HETATM    5  N4  UNL     1      62.971  59.897  30.259  1.00  0.00    -0.323 N 
ATOM      6  H4  UNL     1      62.589  59.508  31.122  1.00  0.00     0.169 HD
HETATM    7  C9  UNL     1      63.709  61.044  30.313  1.00  0.00     0.147 A 
HETATM    8  N8  UNL     1      64.203  61.535  29.164  1.00  0.00    -0.325 N 
ATOM      9  H8  UNL     1      64.756  62.392  29.201  1.00  0.00     0.169 HD
ENDROOT
BRANCH   7  10
HETATM   10  S1  UNL     1      64.016  61.873  31.854  1.00  0.00    -0.084 SA
BRANCH  10  11
HETATM   11  C10 UNL     1      65.109  60.941  32.921  1.00  0.00     0.186 C 
BRANCH  11  12
HETATM   12  C11 UNL     1      64.505  59.670  33.347  1.00  0.00     0.246 C 
HETATM   13  O1  UNL     1      63.586  59.669  34.191  1.00  0.00    -0.271 OA
HETATM   14  N5  UNL     1      64.965  58.449  32.797  1.00  0.00    -0.253 N 
ATOM     15  H5  UNL     1      65.717  58.452  32.108  1.00  0.00     0.191 HD
BRANCH  14  16
HETATM   16  N6  UNL     1      64.394  57.250  33.194  1.00  0.00    -0.221 N 
HETATM   17  N7  UNL     1      64.478  56.681  34.292  1.00  0.00    -0.196 N 
ATOM     18  H7  UNL     1      63.993  55.794  34.426  1.00  0.00     0.217 HD
ATOM     19  H6  UNL     1      63.830  56.774  32.489  1.00  0.00     0.210 HD
BRANCH  17  20
HETATM   20  O2  UNL     1      65.199  57.205  35.331  1.00  0.00    -0.273 OA
ATOM     21  H2  UNL     1      65.037  58.077  35.671  1.00  0.00     0.246 HD
ENDBRANCH  17  20
ENDBRANCH  14  16
ENDBRANCH  11  12
ENDBRANCH  10  11
ENDBRANCH   7  10
BRANCH   4  22
HETATM   22  N2  UNL     1      62.049  58.202  29.076  1.00  0.00    -0.371 N 
ATOM     23  H2  UNL     1      62.341  57.428  29.672  1.00  0.00     0.161 HD
BRANCH  22  24
HETATM   24  C4  UNL     1      60.873  58.019  28.250  1.00  0.00     0.086 C 
HETATM   25  C5  UNL     1      61.181  57.945  26.797  1.00  0.00     0.052 C 
HETATM   26  C6  UNL     1      61.385  56.474  26.429  1.00  0.00     0.234 C 
HETATM   27  N3  UNL     1      60.119  55.759  26.507  1.00  0.00    -0.075 N 
HETATM   28  C7  UNL     1      59.231  56.410  27.460  1.00  0.00     0.234 C 
ATOM     29  H32 UNL     1      59.684  55.655  25.590  1.00  0.00     0.277 HD
ATOM     30  H31 UNL     1      60.253  54.771  26.724  1.00  0.00     0.277 HD
HETATM   31  C8  UNL     1      60.037  56.854  28.665  1.00  0.00     0.052 C 
ENDBRANCH  22  24
ENDBRANCH   4  22
TORSDOF 7
ENDMDL
MODEL 3
REMARK VINA RESULT: -7.280094330      1.316      1.654
REMARK  7 active torsions:
REMARK  status: ('A' for Active; 'I' for Inactive)
REMARK    1  A    between atoms: C3_4  and  N2_5 
REMARK    2  A    between atoms: N2_5  and  C4_7 
REMARK    3  A    between atoms: C9_17  and  S1_18 
REMARK    4  A    between atoms: S1_18  and  C10_19 
REMARK    5  A    between atoms: C10_19  and  C11_20 
REMARK       I    between atoms: C11_20  and  N5_22 
REMARK    6  A    between atoms: N5_22  and  N6_24 
REMARK    7  A    between atoms: N7_26  and  O2_28 
ROOT
HETATM    1  N1  UNL     1      65.445  62.072  26.779  1.00  0.00    -0.083 NA
HETATM    2  C1  UNL     1      64.517  61.449  27.651  1.00  0.00     0.121 A 
HETATM    3  C2  UNL     1      63.531  60.615  27.147  1.00  0.00     0.093 A 
HETATM    4  C3  UNL     1      62.632  60.011  27.984  1.00  0.00     0.106 A 
HETATM    5  N4  UNL     1      62.710  60.232  29.301  1.00  0.00    -0.323 N 
ATOM      6  H4  UNL     1      62.039  59.780  29.923  1.00  0.00     0.169 HD
HETATM    7  C9  UNL     1      63.668  61.048  29.832  1.00  0.00     0.147 A 
HETATM    8  N8  UNL     1      64.541  61.630  28.993  1.00  0.00    -0.325 N 
ATOM      9  H8  UNL     1      65.259  62.239  29.386  1.00  0.00     0.169 HD
ENDROOT
BRANCH   7  10
HETATM   10  S1  UNL     1      63.768  61.337  31.582  1.00  0.00    -0.084 SA
BRANCH  10  11
HETATM   11  C10 UNL     1      65.076  60.390  32.354  1.00  0.00     0.186 C 
BRANCH  11  12
HETATM   12  C11 UNL     1      64.551  59.224  33.080  1.00  0.00     0.246 C 
HETATM   13  O1  UNL     1      63.756  59.387  34.028  1.00  0.00    -0.271 OA
HETATM   14  N5  UNL     1      64.945  57.918  32.699  1.00  0.00    -0.253 N 
ATOM     15  H5  UNL     1      65.595  57.787  31.925  1.00  0.00     0.191 HD
BRANCH  14  16
HETATM   16  N6  UNL     1      64.448  56.817  33.379  1.00  0.00    -0.221 N 
HETATM   17  N7  UNL     1      64.603  56.511  34.571  1.00  0.00    -0.196 N 
ATOM     18  H7  UNL     1      64.167  55.658  34.921  1.00  0.00     0.217 HD
ATOM     19  H6  UNL     1      63.879  56.176  32.827  1.00  0.00     0.210 HD
BRANCH  17  20
HETATM   20  O2  UNL     1      65.341  57.280  35.431  1.00  0.00    -0.273 OA
ATOM     21  H2  UNL     1      65.705  58.119  35.174  1.00  0.00     0.246 HD
ENDBRANCH  17  20
ENDBRANCH  14  16
ENDBRANCH  11  12
ENDBRANCH  10  11
ENDBRANCH   7  10
BRANCH   4  22
HETATM   22  N2  UNL     1      61.732  59.246  27.513  1.00  0.00    -0.371 N 
ATOM     23  H2  UNL     1      61.042  59.650  26.880  1.00  0.00     0.161 HD
BRANCH  22  24
HETATM   24  C4  UNL     1      61.628  57.835  27.824  1.00  0.00     0.086 C 
HETATM   25  C5  UNL     1      60.511  57.519  28.754  1.00  0.00     0.052 C 
HETATM   26  C6  UNL     1      59.274  57.189  27.915  1.00  0.00     0.234 C 
HETATM   27  N3  UNL     1      59.462  55.922  27.224  1.00  0.00    -0.075 N 
HETATM   28  C7  UNL     1      60.880  55.672  27.007  1.00  0.00     0.234 C 
ATOM     29  H32 UNL     1      59.010  55.151  27.716  1.00  0.00     0.277 HD
ATOM     30  H31 UNL     1      58.929  55.880  26.355  1.00  0.00     0.277 HD
HETATM   31  C8  UNL     1      61.557  56.969  26.610  1.00  0.00     0.052 C 
ENDBRANCH  22  24
ENDBRANCH   4  22
TORSDOF 7
ENDMDL
MODEL 4
REMARK VINA RESULT: -7.222816428      2.502      3.394
REMARK  7 active torsions:
REMARK  status: ('A' for Active; 'I' for Inactive)
REMARK    1  A    between atoms: C3_4  and  N2_5 
REMARK    2  A    between atoms: N2_5  and  C4_7 
REMARK    3  A    between atoms: C9_17  and  S1_18 
REMARK    4  A    between atoms: S1_18  and  C10_19 
REMARK    5  A    between atoms: C10_19  and  C11_20 
REMARK       I    between atoms: C11_20  and  N5_22 
REMARK    6  A    between atoms: N5_22  and  N6_24 
REMARK    7  A    between atoms: N7_26  and  O2_28 
ROOT
HETATM    1  N1  UNL     1      65.090  62.173  27.556  1.00  0.00    -0.083 NA
HETATM    2  C1  UNL     1      64.490  61.038  28.159  1.00  0.00     0.121 A 
HETATM    3  C2  UNL     1      63.367  60.454  27.593  1.00  0.00     0.093 A 
HETATM    4  C3  UNL     1      62.784  59.359  28.171  1.00  0.00     0.106 A 
HETATM    5  N4  UNL     1      63.305  58.852  29.294  1.00  0.00    -0.323 N 
ATOM      6  H4  UNL     1      62.869  58.036  29.722  1.00  0.00     0.169 HD
HETATM    7  C9  UNL     1      64.410  59.403  29.879  1.00  0.00     0.147 A 
HETATM    8  N8  UNL     1      64.968  60.477  29.294  1.00  0.00    -0.325 N 
ATOM      9  H8  UNL     1      65.794  60.890  29.729  1.00  0.00     0.169 HD
ENDROOT
BRANCH   7  10
HETATM   10  S1  UNL     1      65.099  58.726  31.369  1.00  0.00    -0.084 SA
BRANCH  10  11
HETATM   11  C10 UNL     1      64.234  59.282  32.834  1.00  0.00     0.186 C 
BRANCH  11  12
HETATM   12  C11 UNL     1      64.825  60.510  33.385  1.00  0.00     0.246 C 
HETATM   13  O1  UNL     1      64.756  60.738  34.611  1.00  0.00    -0.271 OA
HETATM   14  N5  UNL     1      65.475  61.430  32.527  1.00  0.00    -0.253 N 
ATOM     15  H5  UNL     1      65.529  61.241  31.526  1.00  0.00     0.191 HD
BRANCH  14  16
HETATM   16  N6  UNL     1      66.037  62.585  33.046  1.00  0.00    -0.221 N 
HETATM   17  N7  UNL     1      65.722  63.764  32.824  1.00  0.00    -0.196 N 
ATOM     18  H7  UNL     1      66.241  64.508  33.289  1.00  0.00     0.217 HD
ATOM     19  H6  UNL     1      66.811  62.448  33.696  1.00  0.00     0.210 HD
BRANCH  17  20
HETATM   20  O2  UNL     1      64.702  64.098  31.975  1.00  0.00    -0.273 OA
ATOM     21  H2  UNL     1      64.774  64.000  31.032  1.00  0.00     0.246 HD
ENDBRANCH  17  20
ENDBRANCH  14  16
ENDBRANCH  11  12
ENDBRANCH  10  11
ENDBRANCH   7  10
BRANCH   4  22
HETATM   22  N2  UNL     1      61.755  58.828  27.644  1.00  0.00    -0.371 N 
ATOM     23  H2  UNL     1      61.131  59.425  27.102  1.00  0.00     0.161 HD
BRANCH  22  24
HETATM   24  C4  UNL     1      61.419  57.425  27.769  1.00  0.00     0.086 C 
HETATM   25  C5  UNL     1      60.231  57.180  28.631  1.00  0.00     0.052 C 
HETATM   26  C6  UNL     1      58.990  57.162  27.737  1.00  0.00     0.234 C 
HETATM   27  N3  UNL     1      59.000  55.978  26.892  1.00  0.00    -0.075 N 
HETATM   28  C7  UNL     1      60.368  55.530  26.667  1.00  0.00     0.234 C 
ATOM     29  H32 UNL     1      58.414  55.234  27.272  1.00  0.00     0.277 HD
ATOM     30  H31 UNL     1      58.500  56.131  26.016  1.00  0.00     0.277 HD
HETATM   31  C8  UNL     1      61.256  56.739  26.453  1.00  0.00     0.052 C 
ENDBRANCH  22  24
ENDBRANCH   4  22
TORSDOF 7
ENDMDL
MODEL 5
REMARK VINA RESULT: -7.203037107      2.628      3.869
REMARK  7 active torsions:
REMARK  status: ('A' for Active; 'I' for Inactive)
REMARK    1  A    between atoms: C3_4  and  N2_5 
REMARK    2  A    between atoms: N2_5  and  C4_7 
REMARK    3  A    between atoms: C9_17  and  S1_18 
REMARK    4  A    between atoms: S1_18  and  C10_19 
REMARK    5  A    between atoms: C10_19  and  C11_20 
REMARK       I    between atoms: C11_20  and  N5_22 
REMARK    6  A    between atoms: N5_22  and  N6_24 
REMARK    7  A    between atoms: N7_26  and  O2_28 
ROOT
HETATM    1  N1  UNL     1      64.938  61.922  27.471  1.00  0.00    -0.083 NA
HETATM    2  C1  UNL     1      64.372  60.989  28.376  1.00  0.00     0.121 A 
HETATM    3  C2  UNL     1      63.166  60.369  28.083  1.00  0.00     0.093 A 
HETATM    4  C3  UNL     1      62.614  59.469  28.954  1.00  0.00     0.106 A 
HETATM    5  N4  UNL     1      63.247  59.189  30.099  1.00  0.00    -0.323 N 
ATOM      6  H4  UNL     1      62.834  58.517  30.746  1.00  0.00     0.169 HD
HETATM    7  C9  UNL     1      64.435  59.782  30.420  1.00  0.00     0.147 A 
HETATM    8  N8  UNL     1      64.960  60.662  29.550  1.00  0.00    -0.325 N 
ATOM      9  H8  UNL     1      65.848  61.105  29.787  1.00  0.00     0.169 HD
ENDROOT
BRANCH   7  10
HETATM   10  S1  UNL     1      65.273  59.406  31.940  1.00  0.00    -0.084 SA
BRANCH  10  11
HETATM   11  C10 UNL     1      64.784  60.495  33.274  1.00  0.00     0.186 C 
BRANCH  11  12
HETATM   12  C11 UNL     1      65.280  61.865  33.070  1.00  0.00     0.246 C 
HETATM   13  O1  UNL     1      66.368  62.214  33.571  1.00  0.00    -0.271 OA
HETATM   14  N5  UNL     1      64.523  62.784  32.304  1.00  0.00    -0.253 N 
ATOM     15  H5  UNL     1      63.633  62.497  31.897  1.00  0.00     0.191 HD
BRANCH  14  16
HETATM   16  N6  UNL     1      64.990  64.074  32.108  1.00  0.00    -0.221 N 
HETATM   17  N7  UNL     1      64.435  65.015  31.522  1.00  0.00    -0.196 N 
ATOM     18  H7  UNL     1      64.918  65.911  31.462  1.00  0.00     0.217 HD
ATOM     19  H6  UNL     1      65.912  64.275  32.496  1.00  0.00     0.210 HD
BRANCH  17  20
HETATM   20  O2  UNL     1      63.195  64.891  30.954  1.00  0.00    -0.273 OA
ATOM     21  H2  UNL     1      62.954  65.355  30.160  1.00  0.00     0.246 HD
ENDBRANCH  17  20
ENDBRANCH  14  16
ENDBRANCH  11  12
ENDBRANCH  10  11
ENDBRANCH   7  10
BRANCH   4  22
HETATM   22  N2  UNL     1      61.510  58.904  28.676  1.00  0.00    -0.371 N 
ATOM     23  H2  UNL     1      60.656  59.458  28.745  1.00  0.00     0.161 HD
BRANCH  22  24
HETATM   24  C4  UNL     1      61.393  57.519  28.267  1.00  0.00     0.086 C 
HETATM   25  C5  UNL     1      60.043  56.945  28.517  1.00  0.00     0.052 C 
HETATM   26  C6  UNL     1      59.199  57.148  27.258  1.00  0.00     0.234 C 
HETATM   27  N3  UNL     1      59.693  56.302  26.182  1.00  0.00    -0.075 N 
HETATM   28  C7  UNL     1      61.111  56.027  26.369  1.00  0.00     0.234 C 
ATOM     29  H32 UNL     1      59.148  55.445  26.091  1.00  0.00     0.277 HD
ATOM     30  H31 UNL     1      59.500  56.702  25.264  1.00  0.00     0.277 HD
HETATM   31  C8  UNL     1      61.802  57.287  26.850  1.00  0.00     0.052 C 
ENDBRANCH  22  24
ENDBRANCH   4  22
TORSDOF 7
ENDMDL
