MODEL 1
REMARK VINA RESULT: -7.325991229      0.000      0.000
REMARK  7 active torsions:
REMARK  status: ('A' for Active; 'I' for Inactive)
REMARK    1  A    between atoms: N1_2  and  C2_4 
REMARK    2  A    between atoms: C4_11  and  N4_12 
REMARK    3  A    between atoms: N4_12  and  O2_14 
REMARK    4  A    between atoms: C5_16  and  N5_17 
REMARK    5  A    between atoms: N5_17  and  C6_19 
REMARK    6  A    between atoms: C6_19  and  C7_20 
REMARK    7  A    between atoms: C7_20  and  N6_21 
ROOT
HETATM    1  C2  UNL     1      64.432  58.108  32.618  1.00  0.00     0.683 C 
HETATM    2  N2  UNL     1      64.742  58.942  33.625  1.00  0.00    -0.141 N 
ATOM      3  H2  UNL     1      65.173  58.507  34.441  1.00  0.00     0.189 HD
HETATM    4  C3  UNL     1      64.562  60.271  33.703  1.00  0.00     0.340 C 
HETATM    5  O1  UNL     1      64.591  60.730  34.871  1.00  0.00    -0.246 OA
HETATM    6  N3  UNL     1      64.355  61.184  32.709  1.00  0.00    -0.290 N 
ATOM      7  H3  UNL     1      64.365  62.164  32.992  1.00  0.00     0.172 HD
HETATM    8  C4  UNL     1      64.138  60.951  31.402  1.00  0.00     0.174 C 
HETATM    9  C5  UNL     1      64.260  59.727  30.781  1.00  0.00     0.163 C 
HETATM   10  N9  UNL     1      64.245  58.489  31.336  1.00  0.00    -0.173 N 
ATOM     11  H9  UNL     1      64.065  57.727  30.682  1.00  0.00     0.186 HD
ENDROOT
BRANCH   9  12
HETATM   12  N5  UNL     1      64.407  59.793  29.509  1.00  0.00    -0.371 N 
ATOM     13  H5  UNL     1      65.009  60.527  29.137  1.00  0.00     0.161 HD
BRANCH  12  14
HETATM   14  C6  UNL     1      63.773  58.897  28.570  1.00  0.00     0.141 C 
BRANCH  14  15
HETATM   15  C7  UNL     1      62.318  59.351  28.425  1.00  0.00     0.141 C 
BRANCH  15  16
HETATM   16  N6  UNL     1      61.696  58.801  27.249  1.00  0.00    -0.368 N 
HETATM   17  C8  UNL     1      60.904  57.777  27.385  1.00  0.00     0.161 A 
HETATM   18  N7  UNL     1      60.558  57.120  28.494  1.00  0.00    -0.279 N 
HETATM   19  S1  UNL     1      60.030  56.915  26.190  1.00  0.00    -0.039 SA
HETATM   20  N8  UNL     1      59.764  56.138  28.405  1.00  0.00    -0.296 N 
ATOM     21  H7  UNL     1      60.927  57.407  29.401  1.00  0.00     0.189 HD
HETATM   22  C9  UNL     1      59.281  55.765  27.230  1.00  0.00     0.066 A 
ATOM     23  H8  UNL     1      59.494  55.629  29.247  1.00  0.00     0.187 HD
HETATM   24  C10 UNL     1      58.339  54.643  26.900  1.00  0.00     0.078 C 
ATOM     25  H6  UNL     1      61.871  59.205  26.330  1.00  0.00     0.161 HD
ENDBRANCH  15  16
ENDBRANCH  14  15
ENDBRANCH  12  14
ENDBRANCH   9  12
BRANCH   8  26
HETATM   26  N4  UNL     1      63.783  61.979  30.673  1.00  0.00    -0.250 N 
ATOM     27  H4  UNL     1      63.498  61.853  29.702  1.00  0.00     0.196 HD
BRANCH  26  28
HETATM   28  O2  UNL     1      63.799  63.230  31.241  1.00  0.00    -0.288 OA
ATOM     29  H2  UNL     1      62.976  63.689  31.360  1.00  0.00     0.244 HD
ENDBRANCH  26  28
ENDBRANCH   8  26
BRANCH   1  30
HETATM   30  N1  UNL     1      64.306  56.860  32.906  1.00  0.00    -0.230 N 
HETATM   31  C1  UNL     1      64.552  56.430  34.259  1.00  0.00     0.165 C 
ATOM     32  H1  UNL     1      64.035  56.187  32.189  1.00  0.00     0.177 HD
ENDBRANCH   1  30
TORSDOF 7
ENDMDL
MODEL 2
REMARK VINA RESULT: -7.085594317      4.093      6.020
REMARK  7 active torsions:
REMARK  status: ('A' for Active; 'I' for Inactive)
REMARK    1  A    between atoms: N1_2  and  C2_4 
REMARK    2  A    between atoms: C4_11  and  N4_12 
REMARK    3  A    between atoms: N4_12  and  O2_14 
REMARK    4  A    between atoms: C5_16  and  N5_17 
REMARK    5  A    between atoms: N5_17  and  C6_19 
REMARK    6  A    between atoms: C6_19  and  C7_20 
REMARK    7  A    between atoms: C7_20  and  N6_21 
ROOT
HETATM    1  C2  UNL     1      65.226  65.376  32.921  1.00  0.00     0.683 C 
HETATM    2  N2  UNL     1      66.015  66.242  33.577  1.00  0.00    -0.141 N 
ATOM      3  H2  UNL     1      65.550  67.074  33.942  1.00  0.00     0.189 HD
HETATM    4  C3  UNL     1      67.334  66.162  33.819  1.00  0.00     0.340 C 
HETATM    5  O1  UNL     1      67.874  67.257  34.114  1.00  0.00    -0.246 OA
HETATM    6  N3  UNL     1      68.163  65.078  33.792  1.00  0.00    -0.290 N 
ATOM      7  H3  UNL     1      69.113  65.232  34.131  1.00  0.00     0.172 HD
HETATM    8  C4  UNL     1      67.882  63.831  33.374  1.00  0.00     0.174 C 
HETATM    9  C5  UNL     1      66.627  63.365  33.050  1.00  0.00     0.163 C 
HETATM   10  N9  UNL     1      65.517  64.072  32.720  1.00  0.00    -0.173 N 
ATOM     11  H9  UNL     1      64.790  63.536  32.247  1.00  0.00     0.186 HD
ENDROOT
BRANCH   9  12
HETATM   12  N5  UNL     1      66.518  62.087  33.070  1.00  0.00    -0.371 N 
ATOM     13  H5  UNL     1      67.373  61.534  33.009  1.00  0.00     0.161 HD
BRANCH  12  14
HETATM   14  C6  UNL     1      65.262  61.380  33.173  1.00  0.00     0.141 C 
BRANCH  14  15
HETATM   15  C7  UNL     1      65.314  60.221  32.174  1.00  0.00     0.141 C 
BRANCH  15  16
HETATM   16  N6  UNL     1      64.930  60.633  30.850  1.00  0.00    -0.368 N 
HETATM   17  C8  UNL     1      64.023  59.944  30.221  1.00  0.00     0.161 A 
HETATM   18  N7  UNL     1      63.356  58.861  30.627  1.00  0.00    -0.279 N 
HETATM   19  S1  UNL     1      63.366  60.184  28.657  1.00  0.00    -0.039 SA
HETATM   20  N8  UNL     1      62.504  58.336  29.850  1.00  0.00    -0.296 N 
ATOM     21  H7  UNL     1      63.531  58.462  31.549  1.00  0.00     0.189 HD
HETATM   22  C9  UNL     1      62.274  58.853  28.653  1.00  0.00     0.066 A 
ATOM     23  H8  UNL     1      61.991  57.508  30.150  1.00  0.00     0.187 HD
HETATM   24  C10 UNL     1      61.320  58.397  27.586  1.00  0.00     0.078 C 
ATOM     25  H6  UNL     1      65.360  61.449  30.413  1.00  0.00     0.161 HD
ENDBRANCH  15  16
ENDBRANCH  14  15
ENDBRANCH  12  14
ENDBRANCH   9  12
BRANCH   8  26
HETATM   26  N4  UNL     1      68.892  63.004  33.270  1.00  0.00    -0.250 N 
ATOM     27  H4  UNL     1      68.780  62.017  33.497  1.00  0.00     0.196 HD
BRANCH  26  28
HETATM   28  O2  UNL     1      70.106  63.492  32.850  1.00  0.00    -0.288 OA
ATOM     29  H2  UNL     1      70.185  64.420  32.661  1.00  0.00     0.244 HD
ENDBRANCH  26  28
ENDBRANCH   8  26
BRANCH   1  30
HETATM   30  N1  UNL     1      64.116  65.830  32.454  1.00  0.00    -0.230 N 
HETATM   31  C1  UNL     1      63.750  65.510  31.097  1.00  0.00     0.165 C 
ATOM     32  H1  UNL     1      63.506  66.405  33.034  1.00  0.00     0.177 HD
ENDBRANCH   1  30
TORSDOF 7
ENDMDL
MODEL 3
REMARK VINA RESULT: -7.082504481      1.956      3.052
REMARK  7 active torsions:
REMARK  status: ('A' for Active; 'I' for Inactive)
REMARK    1  A    between atoms: N1_2  and  C2_4 
REMARK    2  A    between atoms: C4_11  and  N4_12 
REMARK    3  A    between atoms: N4_12  and  O2_14 
REMARK    4  A    between atoms: C5_16  and  N5_17 
REMARK    5  A    between atoms: N5_17  and  C6_19 
REMARK    6  A    between atoms: C6_19  and  C7_20 
REMARK    7  A    between atoms: C7_20  and  N6_21 
ROOT
HETATM    1  C2  UNL     1      65.274  61.435  32.806  1.00  0.00     0.683 C 
HETATM    2  N2  UNL     1      65.002  60.574  33.800  1.00  0.00    -0.141 N 
ATOM      3  H2  UNL     1      65.107  60.943  34.745  1.00  0.00     0.189 HD
HETATM    4  C3  UNL     1      64.611  59.290  33.718  1.00  0.00     0.340 C 
HETATM    5  O1  UNL     1      64.790  58.627  34.769  1.00  0.00    -0.246 OA
HETATM    6  N3  UNL     1      64.054  58.612  32.672  1.00  0.00    -0.290 N 
ATOM      7  H3  UNL     1      63.724  57.669  32.876  1.00  0.00     0.172 HD
HETATM    8  C4  UNL     1      63.888  59.033  31.406  1.00  0.00     0.174 C 
HETATM    9  C5  UNL     1      64.097  60.321  30.962  1.00  0.00     0.163 C 
HETATM   10  N9  UNL     1      64.829  61.309  31.537  1.00  0.00    -0.173 N 
ATOM     11  H9  UNL     1      65.082  62.075  30.913  1.00  0.00     0.186 HD
ENDROOT
BRANCH   9  12
HETATM   12  N5  UNL     1      63.511  60.599  29.856  1.00  0.00    -0.371 N 
ATOM     13  H5  UNL     1      62.491  60.632  29.852  1.00  0.00     0.161 HD
BRANCH  12  14
HETATM   14  C6  UNL     1      64.201  60.868  28.615  1.00  0.00     0.141 C 
BRANCH  14  15
HETATM   15  C7  UNL     1      63.242  60.503  27.479  1.00  0.00     0.141 C 
BRANCH  15  16
HETATM   16  N6  UNL     1      63.286  59.099  27.166  1.00  0.00    -0.368 N 
HETATM   17  C8  UNL     1      62.184  58.410  27.235  1.00  0.00     0.161 A 
HETATM   18  N7  UNL     1      60.956  58.816  27.566  1.00  0.00    -0.279 N 
HETATM   19  S1  UNL     1      61.922  56.746  26.925  1.00  0.00    -0.039 SA
HETATM   20  N8  UNL     1      60.011  57.974  27.572  1.00  0.00    -0.296 N 
ATOM     21  H7  UNL     1      60.783  59.791  27.811  1.00  0.00     0.189 HD
HETATM   22  C9  UNL     1      60.232  56.709  27.253  1.00  0.00     0.066 A 
ATOM     23  H8  UNL     1      59.069  58.274  27.825  1.00  0.00     0.187 HD
HETATM   24  C10 UNL     1      59.268  55.558  27.195  1.00  0.00     0.078 C 
ATOM     25  H6  UNL     1      64.162  58.653  26.895  1.00  0.00     0.161 HD
ENDBRANCH  15  16
ENDBRANCH  14  15
ENDBRANCH  12  14
ENDBRANCH   9  12
BRANCH   8  26
HETATM   26  N4  UNL     1      63.497  58.138  30.535  1.00  0.00    -0.250 N 
ATOM     27  H4  UNL     1      64.168  57.498  30.112  1.00  0.00     0.196 HD
BRANCH  26  28
HETATM   28  O2  UNL     1      62.165  58.076  30.202  1.00  0.00    -0.288 OA
ATOM     29  H2  UNL     1      61.779  57.228  30.018  1.00  0.00     0.244 HD
ENDBRANCH  26  28
ENDBRANCH   8  26
BRANCH   1  30
HETATM   30  N1  UNL     1      66.011  62.450  33.093  1.00  0.00    -0.230 N 
HETATM   31  C1  UNL     1      65.548  63.769  32.743  1.00  0.00     0.165 C 
ATOM     32  H1  UNL     1      66.909  62.323  33.560  1.00  0.00     0.177 HD
ENDBRANCH   1  30
TORSDOF 7
ENDMDL
MODEL 4
REMARK VINA RESULT: -7.041405892      4.925      8.879
REMARK  7 active torsions:
REMARK  status: ('A' for Active; 'I' for Inactive)
REMARK    1  A    between atoms: N1_2  and  C2_4 
REMARK    2  A    between atoms: C4_11  and  N4_12 
REMARK    3  A    between atoms: N4_12  and  O2_14 
REMARK    4  A    between atoms: C5_16  and  N5_17 
REMARK    5  A    between atoms: N5_17  and  C6_19 
REMARK    6  A    between atoms: C6_19  and  C7_20 
REMARK    7  A    between atoms: C7_20  and  N6_21 
ROOT
HETATM    1  C2  UNL     1      63.596  60.675  29.162  1.00  0.00     0.683 C 
HETATM    2  N2  UNL     1      64.076  59.423  29.235  1.00  0.00    -0.141 N 
ATOM      3  H2  UNL     1      64.262  58.968  28.341  1.00  0.00     0.189 HD
HETATM    4  C3  UNL     1      64.346  58.687  30.327  1.00  0.00     0.340 C 
HETATM    5  O1  UNL     1      64.424  57.452  30.114  1.00  0.00    -0.246 OA
HETATM    6  N3  UNL     1      64.547  59.082  31.619  1.00  0.00    -0.290 N 
ATOM      7  H3  UNL     1      64.860  58.358  32.265  1.00  0.00     0.172 HD
HETATM    8  C4  UNL     1      64.382  60.309  32.145  1.00  0.00     0.174 C 
HETATM    9  C5  UNL     1      64.141  61.458  31.423  1.00  0.00     0.163 C 
HETATM   10  N9  UNL     1      63.663  61.583  30.160  1.00  0.00    -0.173 N 
ATOM     11  H9  UNL     1      63.296  62.506  29.927  1.00  0.00     0.186 HD
ENDROOT
BRANCH   9  12
HETATM   12  N5  UNL     1      64.415  62.542  32.051  1.00  0.00    -0.371 N 
ATOM     13  H5  UNL     1      65.050  62.484  32.847  1.00  0.00     0.161 HD
BRANCH  12  14
HETATM   14  C6  UNL     1      63.881  63.839  31.705  1.00  0.00     0.141 C 
BRANCH  14  15
HETATM   15  C7  UNL     1      64.788  64.888  32.356  1.00  0.00     0.141 C 
BRANCH  15  16
HETATM   16  N6  UNL     1      66.030  64.320  32.809  1.00  0.00    -0.368 N 
HETATM   17  C8  UNL     1      66.912  65.106  33.356  1.00  0.00     0.161 A 
HETATM   18  N7  UNL     1      66.846  66.421  33.575  1.00  0.00    -0.279 N 
HETATM   19  S1  UNL     1      68.460  64.730  33.985  1.00  0.00    -0.039 SA
HETATM   20  N8  UNL     1      67.827  67.002  34.127  1.00  0.00    -0.296 N 
ATOM     21  H7  UNL     1      66.018  66.951  33.303  1.00  0.00     0.189 HD
HETATM   22  C9  UNL     1      68.903  66.318  34.485  1.00  0.00     0.066 A 
ATOM     23  H8  UNL     1      67.788  68.006  34.299  1.00  0.00     0.187 HD
HETATM   24  C10 UNL     1      70.163  66.799  35.144  1.00  0.00     0.078 C 
ATOM     25  H6  UNL     1      66.216  63.322  32.704  1.00  0.00     0.161 HD
ENDBRANCH  15  16
ENDBRANCH  14  15
ENDBRANCH  12  14
ENDBRANCH   9  12
BRANCH   8  26
HETATM   26  N4  UNL     1      64.458  60.405  33.448  1.00  0.00    -0.250 N 
ATOM     27  H4  UNL     1      65.341  60.640  33.900  1.00  0.00     0.196 HD
BRANCH  26  28
HETATM   28  O2  UNL     1      63.327  60.182  34.195  1.00  0.00    -0.288 OA
ATOM     29  H2  UNL     1      63.412  59.749  35.036  1.00  0.00     0.244 HD
ENDBRANCH  26  28
ENDBRANCH   8  26
BRANCH   1  30
HETATM   30  N1  UNL     1      63.033  61.025  28.059  1.00  0.00    -0.230 N 
HETATM   31  C1  UNL     1      63.805  60.991  26.843  1.00  0.00     0.165 C 
ATOM     32  H1  UNL     1      62.058  61.321  28.045  1.00  0.00     0.177 HD
ENDBRANCH   1  30
TORSDOF 7
ENDMDL
MODEL 5
REMARK VINA RESULT: -7.039758071      1.341      3.161
REMARK  7 active torsions:
REMARK  status: ('A' for Active; 'I' for Inactive)
REMARK    1  A    between atoms: N1_2  and  C2_4 
REMARK    2  A    between atoms: C4_11  and  N4_12 
REMARK    3  A    between atoms: N4_12  and  O2_14 
REMARK    4  A    between atoms: C5_16  and  N5_17 
REMARK    5  A    between atoms: N5_17  and  C6_19 
REMARK    6  A    between atoms: C6_19  and  C7_20 
REMARK    7  A    between atoms: C7_20  and  N6_21 
ROOT
HETATM    1  C2  UNL     1      64.122  61.203  31.639  1.00  0.00     0.683 C 
HETATM    2  N2  UNL     1      64.072  61.212  32.981  1.00  0.00    -0.141 N 
ATOM      3  H2  UNL     1      63.809  62.101  33.407  1.00  0.00     0.189 HD
HETATM    4  C3  UNL     1      64.323  60.209  33.839  1.00  0.00     0.340 C 
HETATM    5  O1  UNL     1      64.565  60.581  35.014  1.00  0.00    -0.246 OA
HETATM    6  N3  UNL     1      64.352  58.861  33.624  1.00  0.00    -0.290 N 
ATOM      7  H3  UNL     1      64.445  58.277  34.455  1.00  0.00     0.172 HD
HETATM    8  C4  UNL     1      64.272  58.208  32.451  1.00  0.00     0.174 C 
HETATM    9  C5  UNL     1      63.966  58.787  31.237  1.00  0.00     0.163 C 
HETATM   10  N9  UNL     1      64.046  60.092  30.875  1.00  0.00    -0.173 N 
ATOM     11  H9  UNL     1      64.048  60.259  29.869  1.00  0.00     0.186 HD
ENDROOT
BRANCH   9  12
HETATM   12  N5  UNL     1      63.552  57.960  30.349  1.00  0.00    -0.371 N 
ATOM     13  H5  UNL     1      62.893  57.238  30.640  1.00  0.00     0.161 HD
BRANCH  12  14
HETATM   14  C6  UNL     1      63.960  57.985  28.963  1.00  0.00     0.141 C 
BRANCH  14  15
HETATM   15  C7  UNL     1      62.901  58.782  28.196  1.00  0.00     0.141 C 
BRANCH  15  16
HETATM   16  N6  UNL     1      62.403  58.059  27.056  1.00  0.00    -0.368 N 
HETATM   17  C8  UNL     1      61.352  57.305  27.206  1.00  0.00     0.161 A 
HETATM   18  N7  UNL     1      60.625  57.083  28.303  1.00  0.00    -0.279 N 
HETATM   19  S1  UNL     1      60.536  56.338  26.052  1.00  0.00    -0.039 SA
HETATM   20  N8  UNL     1      59.629  56.304  28.233  1.00  0.00    -0.296 N 
ATOM     21  H7  UNL     1      60.868  57.535  29.185  1.00  0.00     0.189 HD
HETATM   22  C9  UNL     1      59.309  55.718  27.090  1.00  0.00     0.066 A 
ATOM     23  H8  UNL     1      59.068  56.127  29.066  1.00  0.00     0.187 HD
HETATM   24  C10 UNL     1      58.184  54.770  26.787  1.00  0.00     0.078 C 
ATOM     25  H6  UNL     1      62.863  58.136  26.149  1.00  0.00     0.161 HD
ENDBRANCH  15  16
ENDBRANCH  14  15
ENDBRANCH  12  14
ENDBRANCH   9  12
BRANCH   8  26
HETATM   26  N4  UNL     1      64.507  56.921  32.477  1.00  0.00    -0.250 N 
ATOM     27  H4  UNL     1      64.944  56.457  31.682  1.00  0.00     0.196 HD
BRANCH  26  28
HETATM   28  O2  UNL     1      64.153  56.207  33.597  1.00  0.00    -0.288 OA
ATOM     29  H2  UNL     1      63.411  55.616  33.547  1.00  0.00     0.244 HD
ENDBRANCH  26  28
ENDBRANCH   8  26
BRANCH   1  30
HETATM   30  N1  UNL     1      64.253  62.339  31.048  1.00  0.00    -0.230 N 
HETATM   31  C1  UNL     1      63.782  63.527  31.712  1.00  0.00     0.165 C 
ATOM     32  H1  UNL     1      64.683  62.396  30.125  1.00  0.00     0.177 HD
ENDBRANCH   1  30
TORSDOF 7
ENDMDL
