MODEL 1
REMARK VINA RESULT: -7.138716114      0.000      0.000
REMARK  8 active torsions:
REMARK  status: ('A' for Active; 'I' for Inactive)
REMARK    1  A    between atoms: N2_5  and  C3_6 
REMARK    2  A    between atoms: N5_14  and  C7_16 
REMARK    3  A    between atoms: C7_16  and  O1_17 
REMARK    4  A    between atoms: C7_16  and  C8_19 
REMARK    5  A    between atoms: C8_19  and  N6_20 
REMARK    6  A    between atoms: C8_19  and  C9_24 
REMARK    7  A    between atoms: C11_26  and  N7_27 
REMARK    8  A    between atoms: N7_27  and  N8_29 
ROOT
HETATM    1  C3  UNL     1      23.527 -45.292   7.518  1.00  0.00     0.170 A 
HETATM    2  N3  UNL     1      23.477 -44.930   8.785  1.00  0.00    -0.282 N 
ATOM      3  H3  UNL     1      23.499 -43.933   8.996  1.00  0.00     0.188 HD
HETATM    4  N4  UNL     1      23.401 -45.775   9.801  1.00  0.00    -0.310 N 
ATOM      5  H4  UNL     1      23.365 -45.417  10.756  1.00  0.00     0.186 HD
HETATM    6  C4  UNL     1      23.371 -47.099   9.584  1.00  0.00     0.109 A 
HETATM    7  C5  UNL     1      23.422 -47.515   8.253  1.00  0.00     0.052 A 
HETATM    8  C6  UNL     1      23.500 -46.664   7.181  1.00  0.00     0.079 A 
HETATM    9  N5  UNL     1      23.549 -46.977   5.952  1.00  0.00    -0.359 N 
ATOM     10  H5  UNL     1      23.605 -46.179   5.319  1.00  0.00     0.162 HD
ENDROOT
BRANCH   9  11
HETATM   11  C7  UNL     1      23.542 -48.227   5.304  1.00  0.00     0.251 C 
BRANCH  11  12
HETATM   12  O1  UNL     1      22.325 -48.692   4.842  1.00  0.00    -0.375 OA
ATOM     13  H1  UNL     1      22.274 -49.609   4.602  1.00  0.00     0.212 HD
ENDBRANCH  11  12
BRANCH  11  14
HETATM   14  C8  UNL     1      24.556 -48.330   4.174  1.00  0.00     0.263 C 
BRANCH  14  15
HETATM   15  N6  UNL     1      25.614 -49.221   4.515  1.00  0.00    -0.068 N 
ATOM     16  H63 UNL     1      25.284 -49.989   5.101  1.00  0.00     0.275 HD
ATOM     17  H62 UNL     1      25.925 -49.762   3.709  1.00  0.00     0.275 HD
ATOM     18  H61 UNL     1      26.388 -48.720   4.953  1.00  0.00     0.275 HD
ENDBRANCH  14  15
BRANCH  14  19
HETATM   19  C9  UNL     1      25.082 -46.927   3.898  1.00  0.00     0.194 C 
HETATM   20  C10 UNL     1      25.631 -46.773   2.521  1.00  0.00     0.116 C 
HETATM   21  C11 UNL     1      26.819 -45.914   2.715  1.00  0.00     0.118 C 
HETATM   22  N9  UNL     1      27.087 -45.882   3.967  1.00  0.00    -0.253 N 
HETATM   23  O2  UNL     1      26.215 -46.632   4.708  1.00  0.00    -0.271 OA
ATOM     24  H9  UNL     1      27.864 -45.356   4.368  1.00  0.00     0.195 HD
BRANCH  21  25
HETATM   25  N7  UNL     1      27.549 -45.232   1.691  1.00  0.00    -0.294 N 
ATOM     26  H7  UNL     1      28.068 -44.387   1.929  1.00  0.00     0.187 HD
BRANCH  25  27
HETATM   27  N8  UNL     1      27.569 -45.688   0.394  1.00  0.00    -0.344 N 
ATOM     28  H82 UNL     1      27.116 -46.579   0.190  1.00  0.00     0.176 HD
ATOM     29  H81 UNL     1      28.020 -45.160  -0.352  1.00  0.00     0.176 HD
ENDBRANCH  25  27
ENDBRANCH  21  25
ENDBRANCH  14  19
ENDBRANCH  11  14
ENDBRANCH   9  11
BRANCH   1  30
HETATM   30  N2  UNL     1      23.608 -44.346   6.435  1.00  0.00    -0.216 N 
HETATM   31  N1  UNL     1      24.611 -44.121   5.613  1.00  0.00    -0.293 N 
HETATM   32  C2  UNL     1      24.276 -43.143   4.733  1.00  0.00     0.054 A 
ATOM     33  H1  UNL     1      25.507 -44.608   5.634  1.00  0.00     0.187 HD
HETATM   34  C1  UNL     1      25.111 -42.584   3.641  1.00  0.00     0.072 C 
HETATM   35  C13 UNL     1      22.983 -42.731   5.021  1.00  0.00     0.116 A 
HETATM   36  C12 UNL     1      22.602 -43.516   6.101  1.00  0.00     0.172 A 
HETATM   37  N12 UNL     1      21.978 -41.903   4.688  1.00  0.00    -0.279 N 
HETATM   38  N10 UNL     1      21.347 -43.119   6.385  1.00  0.00    -0.266 N 
HETATM   39  N11 UNL     1      20.999 -42.165   5.538  1.00  0.00    -0.020 NA
ATOM     40  H10 UNL     1      20.761 -43.493   7.131  1.00  0.00     0.186 HD
ATOM     41  H12 UNL     1      21.972 -41.214   3.936  1.00  0.00     0.184 HD
ENDBRANCH   1  30
TORSDOF 8
ENDMDL
MODEL 2
REMARK VINA RESULT: -7.027714350      1.597      2.166
REMARK  8 active torsions:
REMARK  status: ('A' for Active; 'I' for Inactive)
REMARK    1  A    between atoms: N2_5  and  C3_6 
REMARK    2  A    between atoms: N5_14  and  C7_16 
REMARK    3  A    between atoms: C7_16  and  O1_17 
REMARK    4  A    between atoms: C7_16  and  C8_19 
REMARK    5  A    between atoms: C8_19  and  N6_20 
REMARK    6  A    between atoms: C8_19  and  C9_24 
REMARK    7  A    between atoms: C11_26  and  N7_27 
REMARK    8  A    between atoms: N7_27  and  N8_29 
ROOT
HETATM    1  C3  UNL     1      23.261 -45.012   6.519  1.00  0.00     0.170 A 
HETATM    2  N3  UNL     1      23.046 -44.247   7.570  1.00  0.00    -0.282 N 
ATOM      3  H3  UNL     1      22.721 -43.294   7.407  1.00  0.00     0.188 HD
HETATM    4  N4  UNL     1      23.223 -44.632   8.825  1.00  0.00    -0.310 N 
ATOM      5  H4  UNL     1      23.033 -43.981   9.586  1.00  0.00     0.186 HD
HETATM    6  C4  UNL     1      23.651 -45.874   9.100  1.00  0.00     0.109 A 
HETATM    7  C5  UNL     1      23.889 -46.709   8.008  1.00  0.00     0.052 A 
HETATM    8  C6  UNL     1      23.713 -46.338   6.700  1.00  0.00     0.079 A 
HETATM    9  N5  UNL     1      23.910 -47.048   5.666  1.00  0.00    -0.359 N 
ATOM     10  H5  UNL     1      23.715 -46.569   4.787  1.00  0.00     0.162 HD
ENDROOT
BRANCH   9  11
HETATM   11  C7  UNL     1      24.350 -48.377   5.513  1.00  0.00     0.251 C 
BRANCH  11  12
HETATM   12  O1  UNL     1      23.380 -49.350   5.367  1.00  0.00    -0.375 OA
ATOM     13  H1  UNL     1      23.479 -50.141   5.882  1.00  0.00     0.212 HD
ENDBRANCH  11  12
BRANCH  11  14
HETATM   14  C8  UNL     1      25.377 -48.551   4.403  1.00  0.00     0.263 C 
BRANCH  14  15
HETATM   15  N6  UNL     1      26.290 -49.600   4.712  1.00  0.00    -0.068 N 
ATOM     16  H63 UNL     1      26.461 -49.667   5.716  1.00  0.00     0.275 HD
ATOM     17  H62 UNL     1      25.871 -50.519   4.564  1.00  0.00     0.275 HD
ATOM     18  H61 UNL     1      27.160 -49.495   4.189  1.00  0.00     0.275 HD
ENDBRANCH  14  15
BRANCH  14  19
HETATM   19  C9  UNL     1      26.101 -47.221   4.233  1.00  0.00     0.194 C 
HETATM   20  C10 UNL     1      26.077 -46.724   2.828  1.00  0.00     0.116 C 
HETATM   21  C11 UNL     1      27.425 -46.144   2.642  1.00  0.00     0.118 C 
HETATM   22  N9  UNL     1      28.166 -46.544   3.607  1.00  0.00    -0.253 N 
HETATM   23  O2  UNL     1      27.497 -47.357   4.480  1.00  0.00    -0.271 OA
ATOM     24  H9  UNL     1      29.147 -46.285   3.713  1.00  0.00     0.195 HD
BRANCH  21  25
HETATM   25  N7  UNL     1      27.839 -45.287   1.575  1.00  0.00    -0.294 N 
ATOM     26  H7  UNL     1      28.152 -44.340   1.790  1.00  0.00     0.187 HD
BRANCH  25  27
HETATM   27  N8  UNL     1      27.826 -45.707   0.265  1.00  0.00    -0.344 N 
ATOM     28  H82 UNL     1      27.791 -46.709   0.082  1.00  0.00     0.176 HD
ATOM     29  H81 UNL     1      27.851 -45.044  -0.509  1.00  0.00     0.176 HD
ENDBRANCH  25  27
ENDBRANCH  21  25
ENDBRANCH  14  19
ENDBRANCH  11  14
ENDBRANCH   9  11
BRANCH   1  30
HETATM   30  N2  UNL     1      23.057 -44.562   5.166  1.00  0.00    -0.216 N 
HETATM   31  N1  UNL     1      21.956 -44.597   4.445  1.00  0.00    -0.293 N 
HETATM   32  C2  UNL     1      22.193 -44.073   3.215  1.00  0.00     0.054 A 
ATOM     33  H1  UNL     1      21.059 -44.964   4.762  1.00  0.00     0.187 HD
HETATM   34  C1  UNL     1      21.231 -43.921   2.095  1.00  0.00     0.072 C 
HETATM   35  C13 UNL     1      23.524 -43.686   3.163  1.00  0.00     0.116 A 
HETATM   36  C12 UNL     1      24.029 -44.013   4.414  1.00  0.00     0.172 A 
HETATM   37  N12 UNL     1      24.496 -43.137   2.414  1.00  0.00    -0.279 N 
HETATM   38  N10 UNL     1      25.323 -43.639   4.368  1.00  0.00    -0.266 N 
HETATM   39  N11 UNL     1      25.576 -43.125   3.177  1.00  0.00    -0.020 NA
ATOM     40  H10 UNL     1      25.996 -43.737   5.128  1.00  0.00     0.186 HD
ATOM     41  H12 UNL     1      24.417 -42.800   1.454  1.00  0.00     0.184 HD
ENDBRANCH   1  30
TORSDOF 8
ENDMDL
MODEL 3
REMARK VINA RESULT: -6.831422510      1.895      2.689
REMARK  8 active torsions:
REMARK  status: ('A' for Active; 'I' for Inactive)
REMARK    1  A    between atoms: N2_5  and  C3_6 
REMARK    2  A    between atoms: N5_14  and  C7_16 
REMARK    3  A    between atoms: C7_16  and  O1_17 
REMARK    4  A    between atoms: C7_16  and  C8_19 
REMARK    5  A    between atoms: C8_19  and  N6_20 
REMARK    6  A    between atoms: C8_19  and  C9_24 
REMARK    7  A    between atoms: C11_26  and  N7_27 
REMARK    8  A    between atoms: N7_27  and  N8_29 
ROOT
HETATM    1  C3  UNL     1      21.735 -45.789   4.754  1.00  0.00     0.170 A 
HETATM    2  N3  UNL     1      20.461 -45.527   4.540  1.00  0.00    -0.282 N 
ATOM      3  H3  UNL     1      20.183 -44.549   4.462  1.00  0.00     0.188 HD
HETATM    4  N4  UNL     1      19.518 -46.448   4.420  1.00  0.00    -0.310 N 
ATOM      5  H4  UNL     1      18.552 -46.165   4.254  1.00  0.00     0.186 HD
HETATM    6  C4  UNL     1      19.824 -47.751   4.515  1.00  0.00     0.109 A 
HETATM    7  C5  UNL     1      21.165 -48.063   4.742  1.00  0.00     0.052 A 
HETATM    8  C6  UNL     1      22.163 -47.131   4.869  1.00  0.00     0.079 A 
HETATM    9  N5  UNL     1      23.397 -47.348   5.075  1.00  0.00    -0.359 N 
ATOM     10  H5  UNL     1      23.965 -46.503   5.137  1.00  0.00     0.162 HD
ENDROOT
BRANCH   9  11
HETATM   11  C7  UNL     1      24.123 -48.544   5.234  1.00  0.00     0.251 C 
BRANCH  11  12
HETATM   12  O1  UNL     1      23.406 -49.725   5.215  1.00  0.00    -0.375 OA
ATOM     13  H1  UNL     1      23.882 -50.519   5.002  1.00  0.00     0.212 HD
ENDBRANCH  11  12
BRANCH  11  14
HETATM   14  C8  UNL     1      25.292 -48.676   4.268  1.00  0.00     0.263 C 
BRANCH  14  15
HETATM   15  N6  UNL     1      26.194 -49.694   4.693  1.00  0.00    -0.068 N 
ATOM     16  H63 UNL     1      26.994 -49.303   5.191  1.00  0.00     0.275 HD
ATOM     17  H62 UNL     1      25.799 -50.255   5.448  1.00  0.00     0.275 HD
ATOM     18  H61 UNL     1      26.487 -50.275   3.907  1.00  0.00     0.275 HD
ENDBRANCH  14  15
BRANCH  14  19
HETATM   19  C9  UNL     1      25.982 -47.321   4.194  1.00  0.00     0.194 C 
HETATM   20  C10 UNL     1      26.072 -46.790   2.804  1.00  0.00     0.116 C 
HETATM   21  C11 UNL     1      27.411 -46.164   2.756  1.00  0.00     0.118 C 
HETATM   22  N9  UNL     1      28.073 -46.564   3.778  1.00  0.00    -0.253 N 
HETATM   23  O2  UNL     1      27.354 -47.418   4.567  1.00  0.00    -0.271 OA
ATOM     24  H9  UNL     1      29.031 -46.276   3.980  1.00  0.00     0.195 HD
BRANCH  21  25
HETATM   25  N7  UNL     1      27.894 -45.269   1.751  1.00  0.00    -0.294 N 
ATOM     26  H7  UNL     1      28.146 -44.316   2.013  1.00  0.00     0.187 HD
BRANCH  25  27
HETATM   27  N8  UNL     1      28.026 -45.661   0.440  1.00  0.00    -0.344 N 
ATOM     28  H82 UNL     1      28.870 -45.385  -0.063  1.00  0.00     0.176 HD
ATOM     29  H81 UNL     1      27.308 -46.212  -0.028  1.00  0.00     0.176 HD
ENDBRANCH  25  27
ENDBRANCH  21  25
ENDBRANCH  14  19
ENDBRANCH  11  14
ENDBRANCH   9  11
BRANCH   1  30
HETATM   30  N2  UNL     1      22.738 -44.763   4.878  1.00  0.00    -0.216 N 
HETATM   31  N1  UNL     1      23.520 -44.259   3.947  1.00  0.00    -0.293 N 
HETATM   32  C2  UNL     1      24.326 -43.309   4.485  1.00  0.00     0.054 A 
ATOM     33  H1  UNL     1      23.521 -44.541   2.967  1.00  0.00     0.187 HD
HETATM   34  C1  UNL     1      25.354 -42.495   3.791  1.00  0.00     0.072 C 
HETATM   35  C13 UNL     1      24.031 -43.211   5.837  1.00  0.00     0.116 A 
HETATM   36  C12 UNL     1      23.025 -44.146   6.040  1.00  0.00     0.172 A 
HETATM   37  N12 UNL     1      24.315 -42.596   6.998  1.00  0.00    -0.279 N 
HETATM   38  N10 UNL     1      22.734 -44.055   7.353  1.00  0.00    -0.266 N 
HETATM   39  N11 UNL     1      23.509 -43.133   7.898  1.00  0.00    -0.020 NA
ATOM     40  H10 UNL     1      22.032 -44.607   7.844  1.00  0.00     0.186 HD
ATOM     41  H12 UNL     1      25.010 -41.866   7.153  1.00  0.00     0.184 HD
ENDBRANCH   1  30
TORSDOF 8
ENDMDL
MODEL 4
REMARK VINA RESULT: -6.823110237      2.346      3.336
REMARK  8 active torsions:
REMARK  status: ('A' for Active; 'I' for Inactive)
REMARK    1  A    between atoms: N2_5  and  C3_6 
REMARK    2  A    between atoms: N5_14  and  C7_16 
REMARK    3  A    between atoms: C7_16  and  O1_17 
REMARK    4  A    between atoms: C7_16  and  C8_19 
REMARK    5  A    between atoms: C8_19  and  N6_20 
REMARK    6  A    between atoms: C8_19  and  C9_24 
REMARK    7  A    between atoms: C11_26  and  N7_27 
REMARK    8  A    between atoms: N7_27  and  N8_29 
ROOT
HETATM    1  C3  UNL     1      20.758 -45.247   4.621  1.00  0.00     0.170 A 
HETATM    2  N3  UNL     1      19.633 -44.574   4.757  1.00  0.00    -0.282 N 
ATOM      3  H3  UNL     1      19.695 -43.563   4.878  1.00  0.00     0.188 HD
HETATM    4  N4  UNL     1      18.428 -45.122   4.745  1.00  0.00    -0.310 N 
ATOM      5  H4  UNL     1      17.603 -44.532   4.854  1.00  0.00     0.186 HD
HETATM    6  C4  UNL     1      18.285 -46.447   4.591  1.00  0.00     0.109 A 
HETATM    7  C5  UNL     1      19.458 -47.189   4.445  1.00  0.00     0.052 A 
HETATM    8  C6  UNL     1      20.718 -46.649   4.452  1.00  0.00     0.079 A 
HETATM    9  N5  UNL     1      21.820 -47.267   4.325  1.00  0.00    -0.359 N 
ATOM     10  H5  UNL     1      22.642 -46.665   4.360  1.00  0.00     0.162 HD
ENDROOT
BRANCH   9  11
HETATM   11  C7  UNL     1      22.112 -48.632   4.144  1.00  0.00     0.251 C 
BRANCH  11  12
HETATM   12  O1  UNL     1      22.157 -49.102   2.846  1.00  0.00    -0.375 OA
ATOM     13  H1  UNL     1      21.367 -49.500   2.501  1.00  0.00     0.212 HD
ENDBRANCH  11  12
BRANCH  11  14
HETATM   14  C8  UNL     1      23.377 -49.082   4.863  1.00  0.00     0.263 C 
BRANCH  14  15
HETATM   15  N6  UNL     1      23.527 -48.401   6.106  1.00  0.00    -0.068 N 
ATOM     16  H63 UNL     1      23.442 -47.391   5.994  1.00  0.00     0.275 HD
ATOM     17  H62 UNL     1      22.727 -48.558   6.719  1.00  0.00     0.275 HD
ATOM     18  H61 UNL     1      24.405 -48.657   6.559  1.00  0.00     0.275 HD
ENDBRANCH  14  15
BRANCH  14  19
HETATM   19  C9  UNL     1      24.554 -48.808   3.936  1.00  0.00     0.194 C 
HETATM   20  C10 UNL     1      25.830 -48.578   4.672  1.00  0.00     0.116 C 
HETATM   21  C11 UNL     1      26.483 -47.495   3.905  1.00  0.00     0.118 C 
HETATM   22  N9  UNL     1      25.611 -46.982   3.119  1.00  0.00    -0.253 N 
HETATM   23  O2  UNL     1      24.386 -47.579   3.235  1.00  0.00    -0.271 OA
ATOM     24  H9  UNL     1      25.808 -46.213   2.478  1.00  0.00     0.195 HD
BRANCH  21  25
HETATM   25  N7  UNL     1      27.849 -47.085   4.011  1.00  0.00    -0.294 N 
ATOM     26  H7  UNL     1      28.532 -47.726   4.415  1.00  0.00     0.187 HD
BRANCH  25  27
HETATM   27  N8  UNL     1      28.265 -45.846   3.583  1.00  0.00    -0.344 N 
ATOM     28  H82 UNL     1      27.776 -45.418   2.797  1.00  0.00     0.176 HD
ATOM     29  H81 UNL     1      29.041 -45.359   4.030  1.00  0.00     0.176 HD
ENDBRANCH  25  27
ENDBRANCH  21  25
ENDBRANCH  14  19
ENDBRANCH  11  14
ENDBRANCH   9  11
BRANCH   1  30
HETATM   30  N2  UNL     1      22.055 -44.620   4.637  1.00  0.00    -0.216 N 
HETATM   31  N1  UNL     1      22.961 -44.580   3.683  1.00  0.00    -0.293 N 
HETATM   32  C2  UNL     1      24.047 -43.886   4.107  1.00  0.00     0.054 A 
ATOM     33  H1  UNL     1      22.861 -45.007   2.762  1.00  0.00     0.187 HD
HETATM   34  C1  UNL     1      25.292 -43.603   3.350  1.00  0.00     0.072 C 
HETATM   35  C13 UNL     1      23.808 -43.466   5.407  1.00  0.00     0.116 A 
HETATM   36  C12 UNL     1      22.541 -43.952   5.700  1.00  0.00     0.172 A 
HETATM   37  N12 UNL     1      24.291 -42.798   6.468  1.00  0.00    -0.279 N 
HETATM   38  N10 UNL     1      22.303 -43.546   6.962  1.00  0.00    -0.266 N 
HETATM   39  N11 UNL     1      23.351 -42.867   7.396  1.00  0.00    -0.020 NA
ATOM     40  H10 UNL     1      21.454 -43.733   7.495  1.00  0.00     0.186 HD
ATOM     41  H12 UNL     1      25.197 -42.334   6.544  1.00  0.00     0.184 HD
ENDBRANCH   1  30
TORSDOF 8
ENDMDL
MODEL 5
REMARK VINA RESULT: -6.802976171      1.546      4.763
REMARK  8 active torsions:
REMARK  status: ('A' for Active; 'I' for Inactive)
REMARK    1  A    between atoms: N2_5  and  C3_6 
REMARK    2  A    between atoms: N5_14  and  C7_16 
REMARK    3  A    between atoms: C7_16  and  O1_17 
REMARK    4  A    between atoms: C7_16  and  C8_19 
REMARK    5  A    between atoms: C8_19  and  N6_20 
REMARK    6  A    between atoms: C8_19  and  C9_24 
REMARK    7  A    between atoms: C11_26  and  N7_27 
REMARK    8  A    between atoms: N7_27  and  N8_29 
ROOT
HETATM    1  C3  UNL     1      22.612 -43.238   6.188  1.00  0.00     0.170 A 
HETATM    2  N3  UNL     1      21.555 -42.545   6.560  1.00  0.00    -0.282 N 
ATOM      3  H3  UNL     1      21.054 -42.852   7.393  1.00  0.00     0.188 HD
HETATM    4  N4  UNL     1      21.099 -41.477   5.924  1.00  0.00    -0.310 N 
ATOM      5  H4  UNL     1      20.273 -40.992   6.275  1.00  0.00     0.186 HD
HETATM    6  C4  UNL     1      21.717 -41.028   4.820  1.00  0.00     0.109 A 
HETATM    7  C5  UNL     1      22.841 -41.741   4.400  1.00  0.00     0.052 A 
HETATM    8  C6  UNL     1      23.335 -42.848   5.039  1.00  0.00     0.079 A 
HETATM    9  N5  UNL     1      24.349 -43.538   4.709  1.00  0.00    -0.359 N 
ATOM     10  H5  UNL     1      24.538 -44.325   5.329  1.00  0.00     0.162 HD
ENDROOT
BRANCH   9  11
HETATM   11  C7  UNL     1      25.259 -43.414   3.641  1.00  0.00     0.251 C 
BRANCH  11  12
HETATM   12  O1  UNL     1      25.970 -42.233   3.553  1.00  0.00    -0.375 OA
ATOM     13  H1  UNL     1      26.382 -42.036   2.720  1.00  0.00     0.212 HD
ENDBRANCH  11  12
BRANCH  11  14
HETATM   14  C8  UNL     1      26.238 -44.574   3.541  1.00  0.00     0.263 C 
BRANCH  14  15
HETATM   15  N6  UNL     1      26.557 -44.859   2.182  1.00  0.00    -0.068 N 
ATOM     16  H63 UNL     1      26.052 -45.678   1.842  1.00  0.00     0.275 HD
ATOM     17  H62 UNL     1      26.165 -44.161   1.550  1.00  0.00     0.275 HD
ATOM     18  H61 UNL     1      27.564 -44.959   2.055  1.00  0.00     0.275 HD
ENDBRANCH  14  15
BRANCH  14  19
HETATM   19  C9  UNL     1      25.599 -45.777   4.224  1.00  0.00     0.194 C 
HETATM   20  C10 UNL     1      26.573 -46.869   4.507  1.00  0.00     0.116 C 
HETATM   21  C11 UNL     1      25.806 -48.101   4.222  1.00  0.00     0.118 C 
HETATM   22  N9  UNL     1      24.749 -47.771   3.578  1.00  0.00    -0.253 N 
HETATM   23  O2  UNL     1      24.665 -46.423   3.363  1.00  0.00    -0.271 OA
ATOM     24  H9  UNL     1      24.047 -48.440   3.260  1.00  0.00     0.195 HD
BRANCH  21  25
HETATM   25  N7  UNL     1      26.171 -49.433   4.594  1.00  0.00    -0.294 N 
ATOM     26  H7  UNL     1      25.438 -50.104   4.822  1.00  0.00     0.187 HD
BRANCH  25  27
HETATM   27  N8  UNL     1      27.486 -49.830   4.654  1.00  0.00    -0.344 N 
ATOM     28  H82 UNL     1      27.966 -49.775   5.552  1.00  0.00     0.176 HD
ATOM     29  H81 UNL     1      27.979 -50.171   3.829  1.00  0.00     0.176 HD
ENDBRANCH  25  27
ENDBRANCH  21  25
ENDBRANCH  14  19
ENDBRANCH  11  14
ENDBRANCH   9  11
BRANCH   1  30
HETATM   30  N2  UNL     1      23.083 -44.396   6.904  1.00  0.00    -0.216 N 
HETATM   31  N1  UNL     1      23.745 -44.448   8.041  1.00  0.00    -0.293 N 
HETATM   32  C2  UNL     1      23.999 -45.740   8.369  1.00  0.00     0.054 A 
ATOM     33  H1  UNL     1      24.026 -43.637   8.593  1.00  0.00     0.187 HD
HETATM   34  C1  UNL     1      24.717 -46.246   9.565  1.00  0.00     0.072 C 
HETATM   35  C13 UNL     1      23.463 -46.548   7.377  1.00  0.00     0.116 A 
HETATM   36  C12 UNL     1      22.897 -45.658   6.474  1.00  0.00     0.172 A 
HETATM   37  N12 UNL     1      23.275 -47.807   6.946  1.00  0.00    -0.279 N 
HETATM   38  N10 UNL     1      22.375 -46.438   5.508  1.00  0.00    -0.266 N 
HETATM   39  N11 UNL     1      22.611 -47.704   5.808  1.00  0.00    -0.020 NA
ATOM     40  H10 UNL     1      21.879 -46.107   4.681  1.00  0.00     0.186 HD
ATOM     41  H12 UNL     1      23.582 -48.666   7.403  1.00  0.00     0.184 HD
ENDBRANCH   1  30
TORSDOF 8
ENDMDL
