MODEL 1
REMARK VINA RESULT: -6.762393593      0.000      0.000
REMARK  7 active torsions:
REMARK  status: ('A' for Active; 'I' for Inactive)
REMARK    1  A    between atoms: C3_6  and  S1_7 
REMARK    2  A    between atoms: S1_7  and  C4_8 
REMARK    3  A    between atoms: N3_9  and  N4_11 
REMARK    4  A    between atoms: N4_11  and  C5_13 
REMARK       I    between atoms: N8_21  and  C8_22 
REMARK       I    between atoms: C8_22  and  N10_26 
REMARK    5  A    between atoms: N10_26  and  N11_28 
REMARK    6  A    between atoms: C10_32  and  C11_33 
REMARK       I    between atoms: C11_33  and  N12_35 
REMARK    7  A    between atoms: N12_35  and  N13_37 
ROOT
HETATM    1  C1  UNL     1      23.958 -48.866   5.813  1.00  0.00     0.231 C 
HETATM    2  N1  UNL     1      23.807 -47.559   6.019  1.00  0.00    -0.410 NA
HETATM    3  C2  UNL     1      23.671 -46.378   6.220  1.00  0.00     0.196 A 
HETATM    4  N2  UNL     1      23.621 -45.511   5.134  1.00  0.00    -0.310 N 
ATOM      5  H2  UNL     1      23.739 -45.915   4.204  1.00  0.00     0.170 HD
HETATM    6  C3  UNL     1      23.433 -44.212   5.211  1.00  0.00     0.174 A 
HETATM    7  N8  UNL     1      23.275 -43.687   6.431  1.00  0.00    -0.134 N 
HETATM    8  C8  UNL     1      23.038 -42.286   6.529  1.00  0.00     0.698 C 
HETATM    9  N9  UNL     1      23.991 -41.515   6.866  1.00  0.00    -0.233 N 
ATOM     10  H91 UNL     1      23.822 -40.511   6.936  1.00  0.00     0.174 HD
ATOM     11  H92 UNL     1      24.911 -41.911   7.057  1.00  0.00     0.174 HD
HETATM   12  N10 UNL     1      21.756 -41.734   6.263  1.00  0.00    -0.138 N 
ATOM     13  H10 UNL     1      21.522 -40.793   6.579  1.00  0.00     0.205 HD
HETATM   14  C9  UNL     1      23.309 -44.445   7.534  1.00  0.00     0.139 A 
HETATM   15  C10 UNL     1      23.513 -45.836   7.476  1.00  0.00     0.108 A 
ENDROOT
BRANCH  15  16
HETATM   16  C11 UNL     1      23.628 -46.529   8.740  1.00  0.00     0.275 C 
HETATM   17  O1  UNL     1      24.497 -46.035   9.551  1.00  0.00    -0.266 OA
HETATM   18  N12 UNL     1      22.922 -47.649   9.156  1.00  0.00    -0.272 N 
ATOM     19  H12 UNL     1      22.232 -48.068   8.532  1.00  0.00     0.189 HD
BRANCH  18  20
HETATM   20  N13 UNL     1      23.144 -48.221  10.432  1.00  0.00    -0.342 N 
ATOM     21 2H13 UNL     1      23.895 -47.843  11.009  1.00  0.00     0.176 HD
ATOM     22 1H13 UNL     1      22.570 -48.993  10.770  1.00  0.00     0.176 HD
ENDBRANCH  18  20
ENDBRANCH  15  16
BRANCH   6  23
HETATM   23  S1  UNL     1      23.452 -43.175   3.714  1.00  0.00    -0.046 SA
BRANCH  23  24
HETATM   24  C4  UNL     1      25.171 -42.633   3.482  1.00  0.00     0.160 C 
HETATM   25  N3  UNL     1      26.048 -43.301   2.972  1.00  0.00    -0.291 N 
ATOM     26  H3  UNL     1      26.946 -42.818   2.927  1.00  0.00     0.187 HD
BRANCH  25  27
HETATM   27  N4  UNL     1      26.087 -44.546   2.452  1.00  0.00    -0.130 N 
ATOM     28  H4  UNL     1      25.678 -44.697   1.530  1.00  0.00     0.205 HD
BRANCH  27  29
HETATM   29  C5  UNL     1      26.618 -45.562   3.064  1.00  0.00     0.714 A 
HETATM   30  N5  UNL     1      27.742 -45.637   3.760  1.00  0.00    -0.130 N 
HETATM   31  N6  UNL     1      27.911 -46.862   4.243  1.00  0.00    -0.281 N 
ATOM     32  H5  UNL     1      28.388 -44.861   3.905  1.00  0.00     0.205 HD
HETATM   33  C6  UNL     1      26.882 -47.600   3.855  1.00  0.00     0.217 A 
ATOM     34  H6  UNL     1      28.696 -47.178   4.812  1.00  0.00     0.188 HD
HETATM   35  N7  UNL     1      26.071 -46.782   3.115  1.00  0.00    -0.180 N 
HETATM   36  C7  UNL     1      24.846 -47.264   2.534  1.00  0.00     0.176 C 
ENDBRANCH  27  29
ENDBRANCH  25  27
ENDBRANCH  23  24
ENDBRANCH   6  23
BRANCH  12  37
HETATM   37  N11 UNL     1      20.802 -42.513   5.548  1.00  0.00    -0.331 N 
ATOM     38 2H11 UNL     1      21.118 -43.132   4.802  1.00  0.00     0.177 HD
ATOM     39 1H11 UNL     1      19.816 -42.437   5.796  1.00  0.00     0.177 HD
ENDBRANCH  12  37
TORSDOF 7
ENDMDL
MODEL 2
REMARK VINA RESULT: -6.333205094      3.556      7.648
REMARK  7 active torsions:
REMARK  status: ('A' for Active; 'I' for Inactive)
REMARK    1  A    between atoms: C3_6  and  S1_7 
REMARK    2  A    between atoms: S1_7  and  C4_8 
REMARK    3  A    between atoms: N3_9  and  N4_11 
REMARK    4  A    between atoms: N4_11  and  C5_13 
REMARK       I    between atoms: N8_21  and  C8_22 
REMARK       I    between atoms: C8_22  and  N10_26 
REMARK    5  A    between atoms: N10_26  and  N11_28 
REMARK    6  A    between atoms: C10_32  and  C11_33 
REMARK       I    between atoms: C11_33  and  N12_35 
REMARK    7  A    between atoms: N12_35  and  N13_37 
ROOT
HETATM    1  C1  UNL     1      21.916 -46.498  -0.183  1.00  0.00     0.231 C 
HETATM    2  N1  UNL     1      23.040 -46.489   0.532  1.00  0.00    -0.410 NA
HETATM    3  C2  UNL     1      24.064 -46.482   1.166  1.00  0.00     0.196 A 
HETATM    4  N2  UNL     1      23.997 -46.435   2.555  1.00  0.00    -0.310 N 
ATOM      5  H2  UNL     1      23.071 -46.373   2.979  1.00  0.00     0.170 HD
HETATM    6  C3  UNL     1      25.034 -46.466   3.364  1.00  0.00     0.174 A 
HETATM    7  N8  UNL     1      26.245 -46.552   2.804  1.00  0.00    -0.134 N 
HETATM    8  C8  UNL     1      27.376 -46.619   3.668  1.00  0.00     0.698 C 
HETATM    9  N9  UNL     1      28.083 -45.578   3.850  1.00  0.00    -0.233 N 
ATOM     10  H91 UNL     1      28.893 -45.626   4.469  1.00  0.00     0.174 HD
ATOM     11  H92 UNL     1      27.827 -44.711   3.379  1.00  0.00     0.174 HD
HETATM   12  N10 UNL     1      27.732 -47.828   4.325  1.00  0.00    -0.138 N 
ATOM     13  H10 UNL     1      28.663 -47.945   4.723  1.00  0.00     0.205 HD
HETATM   14  C9  UNL     1      26.406 -46.601   1.476  1.00  0.00     0.139 A 
HETATM   15  C10 UNL     1      25.312 -46.565   0.591  1.00  0.00     0.108 A 
ENDROOT
BRANCH  15  16
HETATM   16  C11 UNL     1      25.621 -46.526  -0.822  1.00  0.00     0.275 C 
HETATM   17  O1  UNL     1      26.487 -47.395  -1.210  1.00  0.00    -0.266 OA
HETATM   18  N12 UNL     1      25.100 -45.664  -1.776  1.00  0.00    -0.272 N 
ATOM     19  H12 UNL     1      24.417 -44.960  -1.497  1.00  0.00     0.189 HD
BRANCH  18  20
HETATM   20  N13 UNL     1      25.501 -45.746  -3.131  1.00  0.00    -0.342 N 
ATOM     21 2H13 UNL     1      26.288 -46.350  -3.369  1.00  0.00     0.176 HD
ATOM     22 1H13 UNL     1      25.018 -45.216  -3.856  1.00  0.00     0.176 HD
ENDBRANCH  18  20
ENDBRANCH  15  16
BRANCH   6  23
HETATM   23  S1  UNL     1      24.815 -46.333   5.166  1.00  0.00    -0.046 SA
BRANCH  23  24
HETATM   24  C4  UNL     1      23.153 -46.971   5.534  1.00  0.00     0.160 C 
HETATM   25  N3  UNL     1      22.842 -47.556   6.552  1.00  0.00    -0.291 N 
ATOM     26  H3  UNL     1      21.860 -47.831   6.574  1.00  0.00     0.187 HD
BRANCH  25  27
HETATM   27  N4  UNL     1      23.521 -47.921   7.660  1.00  0.00    -0.130 N 
ATOM     28  H4  UNL     1      24.386 -48.449   7.545  1.00  0.00     0.205 HD
BRANCH  27  29
HETATM   29  C5  UNL     1      23.130 -47.635   8.867  1.00  0.00     0.714 A 
HETATM   30  N5  UNL     1      22.511 -48.395   9.757  1.00  0.00    -0.130 N 
HETATM   31  N6  UNL     1      22.309 -47.724  10.884  1.00  0.00    -0.281 N 
ATOM     32  H5  UNL     1      22.229 -49.362   9.598  1.00  0.00     0.205 HD
HETATM   33  C6  UNL     1      22.804 -46.505  10.727  1.00  0.00     0.217 A 
ATOM     34  H6  UNL     1      21.854 -48.083  11.722  1.00  0.00     0.188 HD
HETATM   35  N7  UNL     1      23.319 -46.451   9.460  1.00  0.00    -0.180 N 
HETATM   36  C7  UNL     1      23.944 -45.259   8.953  1.00  0.00     0.176 C 
ENDBRANCH  27  29
ENDBRANCH  25  27
ENDBRANCH  23  24
ENDBRANCH   6  23
BRANCH  12  37
HETATM   37  N11 UNL     1      26.769 -48.872   4.420  1.00  0.00    -0.331 N 
ATOM     38 2H11 UNL     1      27.083 -49.842   4.445  1.00  0.00     0.177 HD
ATOM     39 1H11 UNL     1      25.779 -48.631   4.462  1.00  0.00     0.177 HD
ENDBRANCH  12  37
TORSDOF 7
ENDMDL
MODEL 3
REMARK VINA RESULT: -6.283534537      2.254      6.427
REMARK  7 active torsions:
REMARK  status: ('A' for Active; 'I' for Inactive)
REMARK    1  A    between atoms: C3_6  and  S1_7 
REMARK    2  A    between atoms: S1_7  and  C4_8 
REMARK    3  A    between atoms: N3_9  and  N4_11 
REMARK    4  A    between atoms: N4_11  and  C5_13 
REMARK       I    between atoms: N8_21  and  C8_22 
REMARK       I    between atoms: C8_22  and  N10_26 
REMARK    5  A    between atoms: N10_26  and  N11_28 
REMARK    6  A    between atoms: C10_32  and  C11_33 
REMARK       I    between atoms: C11_33  and  N12_35 
REMARK    7  A    between atoms: N12_35  and  N13_37 
ROOT
HETATM    1  C1  UNL     1      21.253 -42.943   5.915  1.00  0.00     0.231 C 
HETATM    2  N1  UNL     1      22.377 -43.452   5.413  1.00  0.00    -0.410 NA
HETATM    3  C2  UNL     1      23.399 -43.900   4.957  1.00  0.00     0.196 A 
HETATM    4  N2  UNL     1      23.553 -45.280   4.878  1.00  0.00    -0.310 N 
ATOM      5  H2  UNL     1      22.799 -45.860   5.247  1.00  0.00     0.170 HD
HETATM    6  C3  UNL     1      24.596 -45.895   4.363  1.00  0.00     0.174 A 
HETATM    7  N8  UNL     1      25.580 -45.132   3.877  1.00  0.00    -0.134 N 
HETATM    8  C8  UNL     1      26.701 -45.784   3.287  1.00  0.00     0.698 C 
HETATM    9  N9  UNL     1      27.782 -45.884   3.948  1.00  0.00    -0.233 N 
ATOM     10  H91 UNL     1      28.585 -46.352   3.527  1.00  0.00     0.174 HD
ATOM     11  H92 UNL     1      27.828 -45.501   4.892  1.00  0.00     0.174 HD
HETATM   12  N10 UNL     1      26.636 -46.318   1.972  1.00  0.00    -0.138 N 
ATOM     13  H10 UNL     1      27.490 -46.543   1.462  1.00  0.00     0.205 HD
HETATM   14  C9  UNL     1      25.517 -43.795   3.911  1.00  0.00     0.139 A 
HETATM   15  C10 UNL     1      24.414 -43.115   4.460  1.00  0.00     0.108 A 
ENDROOT
BRANCH  15  16
HETATM   16  C11 UNL     1      24.509 -41.673   4.528  1.00  0.00     0.275 C 
HETATM   17  O1  UNL     1      25.406 -41.153   3.765  1.00  0.00    -0.266 OA
HETATM   18  N12 UNL     1      23.758 -40.813   5.318  1.00  0.00    -0.272 N 
ATOM     19  H12 UNL     1      23.045 -41.197   5.938  1.00  0.00     0.189 HD
BRANCH  18  20
HETATM   20  N13 UNL     1      23.965 -39.414   5.276  1.00  0.00    -0.342 N 
ATOM     21 2H13 UNL     1      24.906 -39.068   5.087  1.00  0.00     0.176 HD
ATOM     22 1H13 UNL     1      23.196 -38.763   5.432  1.00  0.00     0.176 HD
ENDBRANCH  18  20
ENDBRANCH  15  16
BRANCH   6  23
HETATM   23  S1  UNL     1      24.707 -47.713   4.377  1.00  0.00    -0.046 SA
BRANCH  23  24
HETATM   24  C4  UNL     1      23.232 -48.314   5.253  1.00  0.00     0.160 C 
HETATM   25  N3  UNL     1      23.030 -48.186   6.443  1.00  0.00    -0.291 N 
ATOM     26  H3  UNL     1      22.142 -48.586   6.746  1.00  0.00     0.187 HD
BRANCH  25  27
HETATM   27  N4  UNL     1      23.731 -47.627   7.452  1.00  0.00    -0.130 N 
ATOM     28  H4  UNL     1      24.686 -47.319   7.264  1.00  0.00     0.205 HD
BRANCH  27  29
HETATM   29  C5  UNL     1      23.256 -47.461   8.651  1.00  0.00     0.714 A 
HETATM   30  N5  UNL     1      22.750 -48.351   9.490  1.00  0.00    -0.130 N 
HETATM   31  N6  UNL     1      22.395 -47.769  10.629  1.00  0.00    -0.281 N 
ATOM     32  H5  UNL     1      22.646 -49.345   9.289  1.00  0.00     0.205 HD
HETATM   33  C6  UNL     1      22.673 -46.477  10.532  1.00  0.00     0.217 A 
ATOM     34  H6  UNL     1      21.981 -48.235  11.436  1.00  0.00     0.188 HD
HETATM   35  N7  UNL     1      23.214 -46.285   9.289  1.00  0.00    -0.180 N 
HETATM   36  C7  UNL     1      23.638 -44.985   8.846  1.00  0.00     0.176 C 
ENDBRANCH  27  29
ENDBRANCH  25  27
ENDBRANCH  23  24
ENDBRANCH   6  23
BRANCH  12  37
HETATM   37  N11 UNL     1      25.361 -46.535   1.376  1.00  0.00    -0.331 N 
ATOM     38 2H11 UNL     1      24.558 -45.996   1.699  1.00  0.00     0.177 HD
ATOM     39 1H11 UNL     1      25.274 -47.227   0.633  1.00  0.00     0.177 HD
ENDBRANCH  12  37
TORSDOF 7
ENDMDL
MODEL 4
REMARK VINA RESULT: -6.210699224      2.761      6.148
REMARK  7 active torsions:
REMARK  status: ('A' for Active; 'I' for Inactive)
REMARK    1  A    between atoms: C3_6  and  S1_7 
REMARK    2  A    between atoms: S1_7  and  C4_8 
REMARK    3  A    between atoms: N3_9  and  N4_11 
REMARK    4  A    between atoms: N4_11  and  C5_13 
REMARK       I    between atoms: N8_21  and  C8_22 
REMARK       I    between atoms: C8_22  and  N10_26 
REMARK    5  A    between atoms: N10_26  and  N11_28 
REMARK    6  A    between atoms: C10_32  and  C11_33 
REMARK       I    between atoms: C11_33  and  N12_35 
REMARK    7  A    between atoms: N12_35  and  N13_37 
ROOT
HETATM    1  C1  UNL     1      27.375 -47.248   4.415  1.00  0.00     0.231 C 
HETATM    2  N1  UNL     1      26.452 -46.332   4.126  1.00  0.00    -0.410 NA
HETATM    3  C2  UNL     1      25.622 -45.503   3.851  1.00  0.00     0.196 A 
HETATM    4  N2  UNL     1      24.685 -45.142   4.813  1.00  0.00    -0.310 N 
ATOM      5  H2  UNL     1      24.720 -45.628   5.710  1.00  0.00     0.170 HD
HETATM    6  C3  UNL     1      23.757 -44.223   4.658  1.00  0.00     0.174 A 
HETATM    7  N8  UNL     1      23.717 -43.585   3.484  1.00  0.00    -0.134 N 
HETATM    8  C8  UNL     1      22.738 -42.564   3.312  1.00  0.00     0.698 C 
HETATM    9  N9  UNL     1      21.685 -42.816   2.645  1.00  0.00    -0.233 N 
ATOM     10  H91 UNL     1      20.984 -42.085   2.523  1.00  0.00     0.174 HD
ATOM     11  H92 UNL     1      21.556 -43.746   2.248  1.00  0.00     0.174 HD
HETATM   12  N10 UNL     1      22.919 -41.268   3.867  1.00  0.00    -0.138 N 
ATOM     13  H10 UNL     1      22.363 -40.481   3.534  1.00  0.00     0.205 HD
HETATM   14  C9  UNL     1      24.579 -43.866   2.499  1.00  0.00     0.139 A 
HETATM   15  C10 UNL     1      25.577 -44.848   2.640  1.00  0.00     0.108 A 
ENDROOT
BRANCH  15  16
HETATM   16  C11 UNL     1      26.382 -45.129   1.472  1.00  0.00     0.275 C 
HETATM   17  O1  UNL     1      25.729 -45.179   0.364  1.00  0.00    -0.266 OA
HETATM   18  N12 UNL     1      27.751 -45.352   1.424  1.00  0.00    -0.272 N 
ATOM     19  H12 UNL     1      28.294 -45.326   2.287  1.00  0.00     0.189 HD
BRANCH  18  20
HETATM   20  N13 UNL     1      28.406 -45.616   0.197  1.00  0.00    -0.342 N 
ATOM     21 2H13 UNL     1      27.839 -45.882  -0.608  1.00  0.00     0.176 HD
ATOM     22 1H13 UNL     1      29.419 -45.545   0.116  1.00  0.00     0.176 HD
ENDBRANCH  18  20
ENDBRANCH  15  16
BRANCH   6  23
HETATM   23  S1  UNL     1      22.546 -43.888   5.976  1.00  0.00    -0.046 SA
BRANCH  23  24
HETATM   24  C4  UNL     1      23.499 -43.376   7.437  1.00  0.00     0.160 C 
HETATM   25  N3  UNL     1      23.669 -44.055   8.429  1.00  0.00    -0.291 N 
ATOM     26  H3  UNL     1      24.238 -43.594   9.139  1.00  0.00     0.187 HD
BRANCH  25  27
HETATM   27  N4  UNL     1      23.265 -45.291   8.792  1.00  0.00    -0.130 N 
ATOM     28  H4  UNL     1      22.379 -45.637   8.423  1.00  0.00     0.205 HD
BRANCH  27  29
HETATM   29  C5  UNL     1      23.945 -46.064   9.586  1.00  0.00     0.714 A 
HETATM   30  N5  UNL     1      25.255 -46.213   9.702  1.00  0.00    -0.130 N 
HETATM   31  N6  UNL     1      25.542 -47.092  10.654  1.00  0.00    -0.281 N 
ATOM     32  H5  UNL     1      25.948 -45.722   9.137  1.00  0.00     0.205 HD
HETATM   33  C6  UNL     1      24.400 -47.524  11.169  1.00  0.00     0.217 A 
ATOM     34  H6  UNL     1      26.477 -47.383  10.940  1.00  0.00     0.188 HD
HETATM   35  N7  UNL     1      23.398 -46.878  10.497  1.00  0.00    -0.180 N 
HETATM   36  C7  UNL     1      22.013 -47.110  10.807  1.00  0.00     0.176 C 
ENDBRANCH  27  29
ENDBRANCH  25  27
ENDBRANCH  23  24
ENDBRANCH   6  23
BRANCH  12  37
HETATM   37  N11 UNL     1      23.886 -41.085   4.895  1.00  0.00    -0.331 N 
ATOM     38 2H11 UNL     1      24.742 -41.639   4.884  1.00  0.00     0.177 HD
ATOM     39 1H11 UNL     1      23.706 -40.399   5.627  1.00  0.00     0.177 HD
ENDBRANCH  12  37
TORSDOF 7
ENDMDL
MODEL 5
REMARK VINA RESULT: -6.084305596      2.611      5.320
REMARK  7 active torsions:
REMARK  status: ('A' for Active; 'I' for Inactive)
REMARK    1  A    between atoms: C3_6  and  S1_7 
REMARK    2  A    between atoms: S1_7  and  C4_8 
REMARK    3  A    between atoms: N3_9  and  N4_11 
REMARK    4  A    between atoms: N4_11  and  C5_13 
REMARK       I    between atoms: N8_21  and  C8_22 
REMARK       I    between atoms: C8_22  and  N10_26 
REMARK    5  A    between atoms: N10_26  and  N11_28 
REMARK    6  A    between atoms: C10_32  and  C11_33 
REMARK       I    between atoms: C11_33  and  N12_35 
REMARK    7  A    between atoms: N12_35  and  N13_37 
ROOT
HETATM    1  C1  UNL     1      21.543 -43.263   5.974  1.00  0.00     0.231 C 
HETATM    2  N1  UNL     1      22.479 -44.186   5.759  1.00  0.00    -0.410 NA
HETATM    3  C2  UNL     1      23.327 -45.023   5.580  1.00  0.00     0.196 A 
HETATM    4  N2  UNL     1      23.690 -45.346   4.276  1.00  0.00    -0.310 N 
ATOM      5  H2  UNL     1      23.189 -44.879   3.519  1.00  0.00     0.170 HD
HETATM    6  C3  UNL     1      24.627 -46.206   3.943  1.00  0.00     0.174 A 
HETATM    7  N8  UNL     1      25.284 -46.813   4.938  1.00  0.00    -0.134 N 
HETATM    8  C8  UNL     1      26.324 -47.723   4.593  1.00  0.00     0.698 C 
HETATM    9  N9  UNL     1      26.101 -48.974   4.646  1.00  0.00    -0.233 N 
ATOM     10  H91 UNL     1      26.845 -49.626   4.399  1.00  0.00     0.174 HD
ATOM     11  H92 UNL     1      25.179 -49.306   4.930  1.00  0.00     0.174 HD
HETATM   12  N10 UNL     1      27.607 -47.260   4.197  1.00  0.00    -0.138 N 
ATOM     13  H10 UNL     1      28.410 -47.890   4.205  1.00  0.00     0.205 HD
HETATM   14  C9  UNL     1      25.001 -46.565   6.222  1.00  0.00     0.139 A 
HETATM   15  C10 UNL     1      24.000 -45.652   6.603  1.00  0.00     0.108 A 
ENDROOT
BRANCH  15  16
HETATM   16  C11 UNL     1      23.723 -45.544   8.018  1.00  0.00     0.275 C 
HETATM   17  O1  UNL     1      23.827 -44.356   8.501  1.00  0.00    -0.266 OA
HETATM   18  N12 UNL     1      23.376 -46.566   8.891  1.00  0.00    -0.272 N 
ATOM     19  H12 UNL     1      23.293 -47.520   8.540  1.00  0.00     0.189 HD
BRANCH  18  20
HETATM   20  N13 UNL     1      23.134 -46.306  10.261  1.00  0.00    -0.342 N 
ATOM     21 2H13 UNL     1      23.765 -45.673  10.754  1.00  0.00     0.176 HD
ATOM     22 1H13 UNL     1      22.349 -46.737  10.748  1.00  0.00     0.176 HD
ENDBRANCH  18  20
ENDBRANCH  15  16
BRANCH   6  23
HETATM   23  S1  UNL     1      24.963 -46.590   2.195  1.00  0.00    -0.046 SA
BRANCH  23  24
HETATM   24  C4  UNL     1      23.406 -47.211   1.493  1.00  0.00     0.160 C 
HETATM   25  N3  UNL     1      22.613 -47.919   2.080  1.00  0.00    -0.291 N 
ATOM     26  H3  UNL     1      21.796 -48.158   1.519  1.00  0.00     0.187 HD
BRANCH  25  27
HETATM   27  N4  UNL     1      22.583 -48.456   3.318  1.00  0.00    -0.130 N 
ATOM     28  H4  UNL     1      23.460 -48.533   3.833  1.00  0.00     0.205 HD
BRANCH  27  29
HETATM   29  C5  UNL     1      21.495 -48.881   3.889  1.00  0.00     0.714 A 
HETATM   30  N5  UNL     1      21.153 -50.108   4.249  1.00  0.00    -0.130 N 
HETATM   31  N6  UNL     1      19.957 -50.110   4.825  1.00  0.00    -0.281 N 
ATOM     32  H5  UNL     1      21.728 -50.938   4.103  1.00  0.00     0.205 HD
HETATM   33  C6  UNL     1      19.510 -48.862   4.841  1.00  0.00     0.217 A 
ATOM     34  H6  UNL     1      19.468 -50.927   5.191  1.00  0.00     0.188 HD
HETATM   35  N7  UNL     1      20.477 -48.092   4.253  1.00  0.00    -0.180 N 
HETATM   36  C7  UNL     1      20.319 -46.670   4.106  1.00  0.00     0.176 C 
ENDBRANCH  27  29
ENDBRANCH  25  27
ENDBRANCH  23  24
ENDBRANCH   6  23
BRANCH  12  37
HETATM   37  N11 UNL     1      27.759 -45.905   3.789  1.00  0.00    -0.331 N 
ATOM     38 2H11 UNL     1      26.931 -45.324   3.663  1.00  0.00     0.177 HD
ATOM     39 1H11 UNL     1      28.697 -45.538   3.630  1.00  0.00     0.177 HD
ENDBRANCH  12  37
TORSDOF 7
ENDMDL
