MODEL 1
REMARK VINA RESULT: -7.131336037      0.000      0.000
REMARK  6 active torsions:
REMARK  status: ('A' for Active; 'I' for Inactive)
REMARK    1  A    between atoms: N1_1  and  C1_4 
REMARK    2  A    between atoms: C5_16  and  N6_17 
REMARK    3  A    between atoms: N6_17  and  C6_19 
REMARK    4  A    between atoms: C6_19  and  C7_20 
REMARK    5  A    between atoms: N9_26  and  N10_28 
REMARK       I    between atoms: C9_30  and  N12_32 
REMARK    6  A    between atoms: N12_32  and  N13_34 
ROOT
HETATM    1  N6  UNL     1      24.361 -47.562   3.439  1.00  0.00    -0.196 N 
ATOM      2  H6  UNL     1      23.788 -48.177   2.860  1.00  0.00     0.183 HD
ENDROOT
BRANCH   1   3
HETATM    3  C5  UNL     1      24.059 -47.452   4.818  1.00  0.00     0.698 A 
HETATM    4  N5  UNL     1      23.672 -48.528   5.455  1.00  0.00    -0.131 N 
HETATM    5  N4  UNL     1      23.360 -48.473   6.822  1.00  0.00    -0.280 N 
ATOM      6  H5  UNL     1      23.596 -49.413   4.953  1.00  0.00     0.205 HD
HETATM    7  C4  UNL     1      23.445 -47.276   7.575  1.00  0.00     0.137 A 
ATOM      8  H4  UNL     1      23.061 -49.328   7.292  1.00  0.00     0.188 HD
HETATM    9  C1  UNL     1      23.145 -47.198   8.915  1.00  0.00     0.132 A 
HETATM   10  C3  UNL     1      23.853 -46.147   6.899  1.00  0.00     0.154 A 
HETATM   11  N2  UNL     1      23.238 -46.032   9.607  1.00  0.00    -0.337 N 
HETATM   12  C2  UNL     1      23.638 -44.951   8.920  1.00  0.00     0.183 A 
ATOM     13  H2  UNL     1      23.015 -45.982  10.601  1.00  0.00     0.168 HD
HETATM   14  N3  UNL     1      23.935 -45.014   7.611  1.00  0.00    -0.336 N 
ATOM     15  H3  UNL     1      24.235 -44.161   7.137  1.00  0.00     0.168 HD
HETATM   16  N14 UNL     1      24.171 -46.209   5.498  1.00  0.00    -0.173 N 
ATOM     17  H14 UNL     1      24.474 -45.373   4.998  1.00  0.00     0.186 HD
BRANCH   9  18
HETATM   18  N1  UNL     1      22.765 -48.224   9.566  1.00  0.00    -0.383 N 
ATOM     19  H12 UNL     1      23.439 -48.886   9.949  1.00  0.00     0.157 HD
ATOM     20  H11 UNL     1      21.759 -48.347   9.683  1.00  0.00     0.157 HD
ENDBRANCH   9  18
ENDBRANCH   1   3
BRANCH   1  21
HETATM   21  C6  UNL     1      25.331 -46.916   2.886  1.00  0.00     0.164 C 
BRANCH  21  22
HETATM   22  C7  UNL     1      25.416 -45.480   3.099  1.00  0.00     0.182 A 
HETATM   23  N7  UNL     1      26.464 -44.780   3.549  1.00  0.00    -0.275 N 
HETATM   24  N8  UNL     1      26.145 -43.498   3.604  1.00  0.00    -0.262 N 
ATOM     25  H7  UNL     1      27.368 -45.173   3.809  1.00  0.00     0.189 HD
HETATM   26  C8  UNL     1      24.875 -43.397   3.181  1.00  0.00     0.260 A 
ATOM     27  H8  UNL     1      26.747 -42.733   3.910  1.00  0.00     0.190 HD
HETATM   28  N9  UNL     1      24.163 -42.324   3.074  1.00  0.00    -0.261 N 
HETATM   29  O3  UNL     1      24.471 -44.606   2.886  1.00  0.00    -0.257 OA
ATOM     30  H9  UNL     1      23.202 -42.383   2.737  1.00  0.00     0.190 HD
BRANCH  28  31
HETATM   31  N10 UNL     1      24.696 -41.097   3.415  1.00  0.00    -0.269 N 
HETATM   32  C9  UNL     1      24.279 -40.393   4.396  1.00  0.00     0.226 C 
HETATM   33  N11 UNL     1      24.864 -39.144   4.699  1.00  0.00    -0.060 NA
HETATM   34  N12 UNL     1      23.217 -40.868   5.196  1.00  0.00    -0.212 N 
ATOM     35  H12 UNL     1      22.309 -41.060   4.773  1.00  0.00     0.196 HD
ATOM     36  H10 UNL     1      25.465 -40.733   2.852  1.00  0.00     0.190 HD
BRANCH  34  37
HETATM   37  N13 UNL     1      23.406 -41.077   6.560  1.00  0.00    -0.036 N 
HETATM   38  O1  UNL     1      24.269 -41.873   6.972  1.00  0.00    -0.516 OA
HETATM   39  O2  UNL     1      22.640 -40.404   7.477  1.00  0.00    -0.516 OA
ENDBRANCH  34  37
ENDBRANCH  28  31
ENDBRANCH  21  22
ENDBRANCH   1  21
TORSDOF 6
ENDMDL
MODEL 2
REMARK VINA RESULT: -6.776310931      2.086      4.846
REMARK  6 active torsions:
REMARK  status: ('A' for Active; 'I' for Inactive)
REMARK    1  A    between atoms: N1_1  and  C1_4 
REMARK    2  A    between atoms: C5_16  and  N6_17 
REMARK    3  A    between atoms: N6_17  and  C6_19 
REMARK    4  A    between atoms: C6_19  and  C7_20 
REMARK    5  A    between atoms: N9_26  and  N10_28 
REMARK       I    between atoms: C9_30  and  N12_32 
REMARK    6  A    between atoms: N12_32  and  N13_34 
ROOT
HETATM    1  N6  UNL     1      23.404 -48.085   6.020  1.00  0.00    -0.196 N 
ATOM      2  H6  UNL     1      22.735 -48.787   5.703  1.00  0.00     0.183 HD
ENDROOT
BRANCH   1   3
HETATM    3  C5  UNL     1      24.451 -47.702   5.146  1.00  0.00     0.698 A 
HETATM    4  N5  UNL     1      25.539 -48.429   5.128  1.00  0.00    -0.131 N 
HETATM    5  N4  UNL     1      26.606 -48.093   4.280  1.00  0.00    -0.280 N 
ATOM      6  H5  UNL     1      25.612 -49.246   5.734  1.00  0.00     0.205 HD
HETATM    7  C4  UNL     1      26.567 -46.971   3.416  1.00  0.00     0.137 A 
ATOM      8  H4  UNL     1      27.442 -48.678   4.287  1.00  0.00     0.188 HD
HETATM    9  C1  UNL     1      27.599 -46.622   2.577  1.00  0.00     0.132 A 
HETATM   10  C3  UNL     1      25.419 -46.210   3.440  1.00  0.00     0.154 A 
HETATM   11  N2  UNL     1      27.528 -45.539   1.759  1.00  0.00    -0.337 N 
HETATM   12  C2  UNL     1      26.397 -44.818   1.807  1.00  0.00     0.183 A 
ATOM     13  H2  UNL     1      28.298 -45.286   1.139  1.00  0.00     0.168 HD
HETATM   14  N3  UNL     1      25.381 -45.149   2.621  1.00  0.00    -0.336 N 
ATOM     15  H3  UNL     1      24.543 -44.567   2.616  1.00  0.00     0.168 HD
HETATM   16  N14 UNL     1      24.328 -46.560   4.310  1.00  0.00    -0.173 N 
ATOM     17  H14 UNL     1      23.479 -45.996   4.327  1.00  0.00     0.186 HD
BRANCH   9  18
HETATM   18  N1  UNL     1      28.673 -47.305   2.532  1.00  0.00    -0.383 N 
ATOM     19  H12 UNL     1      29.129 -47.514   1.645  1.00  0.00     0.157 HD
ATOM     20  H11 UNL     1      29.049 -47.629   3.423  1.00  0.00     0.157 HD
ENDBRANCH   9  18
ENDBRANCH   1   3
BRANCH   1  21
HETATM   21  C6  UNL     1      23.264 -47.582   7.200  1.00  0.00     0.164 C 
BRANCH  21  22
HETATM   22  C7  UNL     1      23.284 -46.135   7.340  1.00  0.00     0.182 A 
HETATM   23  N7  UNL     1      23.894 -45.413   8.288  1.00  0.00    -0.275 N 
HETATM   24  N8  UNL     1      23.676 -44.127   8.070  1.00  0.00    -0.262 N 
ATOM     25  H7  UNL     1      24.442 -45.795   9.058  1.00  0.00     0.189 HD
HETATM   26  C8  UNL     1      22.917 -44.046   6.967  1.00  0.00     0.260 A 
ATOM     27  H8  UNL     1      24.019 -43.348   8.632  1.00  0.00     0.190 HD
HETATM   28  N9  UNL     1      22.468 -42.976   6.395  1.00  0.00    -0.261 N 
HETATM   29  O3  UNL     1      22.701 -45.270   6.557  1.00  0.00    -0.257 OA
ATOM     30  H9  UNL     1      21.896 -43.052   5.555  1.00  0.00     0.190 HD
BRANCH  28  31
HETATM   31  N10 UNL     1      22.760 -41.733   6.918  1.00  0.00    -0.269 N 
HETATM   32  C9  UNL     1      23.476 -40.862   6.314  1.00  0.00     0.226 C 
HETATM   33  N11 UNL     1      23.741 -39.605   6.898  1.00  0.00    -0.060 NA
HETATM   34  N12 UNL     1      24.010 -41.158   5.042  1.00  0.00    -0.212 N 
ATOM     35  H12 UNL     1      24.639 -41.953   4.926  1.00  0.00     0.196 HD
ATOM     36  H10 UNL     1      22.385 -41.496   7.836  1.00  0.00     0.190 HD
BRANCH  34  37
HETATM   37  N13 UNL     1      23.678 -40.369   3.942  1.00  0.00    -0.036 N 
HETATM   38  O1  UNL     1      22.495 -40.238   3.583  1.00  0.00    -0.516 OA
HETATM   39  O2  UNL     1      24.658 -39.721   3.234  1.00  0.00    -0.516 OA
ENDBRANCH  34  37
ENDBRANCH  28  31
ENDBRANCH  21  22
ENDBRANCH   1  21
TORSDOF 6
ENDMDL
MODEL 3
REMARK VINA RESULT: -6.706888827      3.511      6.743
REMARK  6 active torsions:
REMARK  status: ('A' for Active; 'I' for Inactive)
REMARK    1  A    between atoms: N1_1  and  C1_4 
REMARK    2  A    between atoms: C5_16  and  N6_17 
REMARK    3  A    between atoms: N6_17  and  C6_19 
REMARK    4  A    between atoms: C6_19  and  C7_20 
REMARK    5  A    between atoms: N9_26  and  N10_28 
REMARK       I    between atoms: C9_30  and  N12_32 
REMARK    6  A    between atoms: N12_32  and  N13_34 
ROOT
HETATM    1  N6  UNL     1      27.914 -46.684   4.036  1.00  0.00    -0.196 N 
ATOM      2  H6  UNL     1      28.656 -46.293   4.617  1.00  0.00     0.183 HD
ENDROOT
BRANCH   1   3
HETATM    3  C5  UNL     1      28.005 -46.540   2.630  1.00  0.00     0.698 A 
HETATM    4  N5  UNL     1      27.366 -45.545   2.068  1.00  0.00    -0.131 N 
HETATM    5  N4  UNL     1      27.423 -45.358   0.678  1.00  0.00    -0.280 N 
ATOM      6  H5  UNL     1      26.824 -44.902   2.643  1.00  0.00     0.205 HD
HETATM    7  C4  UNL     1      28.158 -46.215  -0.177  1.00  0.00     0.137 A 
ATOM      8  H4  UNL     1      26.916 -44.574   0.268  1.00  0.00     0.188 HD
HETATM    9  C1  UNL     1      28.229 -46.052  -1.540  1.00  0.00     0.132 A 
HETATM   10  C3  UNL     1      28.828 -47.261   0.421  1.00  0.00     0.154 A 
HETATM   11  N2  UNL     1      28.944 -46.894  -2.331  1.00  0.00    -0.337 N 
HETATM   12  C2  UNL     1      29.584 -47.902  -1.718  1.00  0.00     0.183 A 
ATOM     13  H2  UNL     1      28.993 -46.766  -3.342  1.00  0.00     0.168 HD
HETATM   14  N3  UNL     1      29.524 -48.073  -0.387  1.00  0.00    -0.336 N 
ATOM     15  H3  UNL     1      30.031 -48.855   0.028  1.00  0.00     0.168 HD
HETATM   16  N14 UNL     1      28.766 -47.448   1.846  1.00  0.00    -0.173 N 
ATOM     17  H14 UNL     1      29.263 -48.222   2.288  1.00  0.00     0.186 HD
BRANCH   9  18
HETATM   18  N1  UNL     1      27.621 -45.096  -2.122  1.00  0.00    -0.383 N 
ATOM     19  H12 UNL     1      26.744 -44.727  -1.756  1.00  0.00     0.157 HD
ATOM     20  H11 UNL     1      28.053 -44.723  -2.967  1.00  0.00     0.157 HD
ENDBRANCH   9  18
ENDBRANCH   1   3
BRANCH   1  21
HETATM   21  C6  UNL     1      26.931 -47.291   4.610  1.00  0.00     0.164 C 
BRANCH  21  22
HETATM   22  C7  UNL     1      25.694 -46.557   4.822  1.00  0.00     0.182 A 
HETATM   23  N7  UNL     1      24.559 -47.007   5.370  1.00  0.00    -0.275 N 
HETATM   24  N8  UNL     1      23.662 -46.035   5.384  1.00  0.00    -0.262 N 
ATOM     25  H7  UNL     1      24.408 -47.952   5.721  1.00  0.00     0.189 HD
HETATM   26  C8  UNL     1      24.249 -44.960   4.835  1.00  0.00     0.260 A 
ATOM     27  H8  UNL     1      22.709 -46.092   5.742  1.00  0.00     0.190 HD
HETATM   28  N9  UNL     1      23.733 -43.789   4.650  1.00  0.00    -0.261 N 
HETATM   29  O3  UNL     1      25.467 -45.311   4.511  1.00  0.00    -0.257 OA
ATOM     30  H9  UNL     1      24.290 -43.052   4.219  1.00  0.00     0.190 HD
BRANCH  28  31
HETATM   31  N10 UNL     1      22.433 -43.532   5.035  1.00  0.00    -0.269 N 
HETATM   32  C9  UNL     1      22.120 -42.733   5.982  1.00  0.00     0.226 C 
HETATM   33  N11 UNL     1      20.771 -42.508   6.331  1.00  0.00    -0.060 NA
HETATM   34  N12 UNL     1      23.138 -42.061   6.693  1.00  0.00    -0.212 N 
ATOM     35  H12 UNL     1      23.845 -42.596   7.196  1.00  0.00     0.196 HD
ATOM     36  H10 UNL     1      21.681 -44.006   4.535  1.00  0.00     0.190 HD
BRANCH  34  37
HETATM   37  N13 UNL     1      23.179 -40.668   6.708  1.00  0.00    -0.036 N 
HETATM   38  O1  UNL     1      23.945 -40.043   5.953  1.00  0.00    -0.516 OA
HETATM   39  O2  UNL     1      22.372 -39.960   7.560  1.00  0.00    -0.516 OA
ENDBRANCH  34  37
ENDBRANCH  28  31
ENDBRANCH  21  22
ENDBRANCH   1  21
TORSDOF 6
ENDMDL
MODEL 4
REMARK VINA RESULT: -6.676108358      2.094      4.916
REMARK  6 active torsions:
REMARK  status: ('A' for Active; 'I' for Inactive)
REMARK    1  A    between atoms: N1_1  and  C1_4 
REMARK    2  A    between atoms: C5_16  and  N6_17 
REMARK    3  A    between atoms: N6_17  and  C6_19 
REMARK    4  A    between atoms: C6_19  and  C7_20 
REMARK    5  A    between atoms: N9_26  and  N10_28 
REMARK       I    between atoms: C9_30  and  N12_32 
REMARK    6  A    between atoms: N12_32  and  N13_34 
ROOT
HETATM    1  N6  UNL     1      23.448 -48.081   6.195  1.00  0.00    -0.196 N 
ATOM      2  H6  UNL     1      22.980 -48.973   6.034  1.00  0.00     0.183 HD
ENDROOT
BRANCH   1   3
HETATM    3  C5  UNL     1      24.154 -47.481   5.124  1.00  0.00     0.698 A 
HETATM    4  N5  UNL     1      23.463 -46.953   4.146  1.00  0.00    -0.131 N 
HETATM    5  N4  UNL     1      24.114 -46.346   3.061  1.00  0.00    -0.280 N 
ATOM      6  H5  UNL     1      22.444 -46.983   4.173  1.00  0.00     0.205 HD
HETATM    7  C4  UNL     1      25.525 -46.273   2.964  1.00  0.00     0.137 A 
ATOM      8  H4  UNL     1      23.549 -45.943   2.313  1.00  0.00     0.188 HD
HETATM    9  C1  UNL     1      26.185 -45.683   1.911  1.00  0.00     0.132 A 
HETATM   10  C3  UNL     1      26.247 -46.830   3.997  1.00  0.00     0.154 A 
HETATM   11  N2  UNL     1      27.541 -45.629   1.851  1.00  0.00    -0.337 N 
HETATM   12  C2  UNL     1      28.215 -46.182   2.872  1.00  0.00     0.183 A 
ATOM     13  H2  UNL     1      28.024 -45.190   1.067  1.00  0.00     0.168 HD
HETATM   14  N3  UNL     1      27.583 -46.760   3.907  1.00  0.00    -0.336 N 
ATOM     15  H3  UNL     1      28.144 -47.163   4.657  1.00  0.00     0.168 HD
HETATM   16  N14 UNL     1      25.575 -47.450   5.107  1.00  0.00    -0.173 N 
ATOM     17  H14 UNL     1      26.110 -47.863   5.871  1.00  0.00     0.186 HD
BRANCH   9  18
HETATM   18  N1  UNL     1      25.546 -45.160   0.942  1.00  0.00    -0.383 N 
ATOM     19  H12 UNL     1      25.839 -44.273   0.535  1.00  0.00     0.157 HD
ATOM     20  H11 UNL     1      24.733 -45.671   0.598  1.00  0.00     0.157 HD
ENDBRANCH   9  18
ENDBRANCH   1   3
BRANCH   1  21
HETATM   21  C6  UNL     1      23.373 -47.544   7.366  1.00  0.00     0.164 C 
BRANCH  21  22
HETATM   22  C7  UNL     1      23.367 -46.093   7.461  1.00  0.00     0.182 A 
HETATM   23  N7  UNL     1      23.979 -45.330   8.375  1.00  0.00    -0.275 N 
HETATM   24  N8  UNL     1      23.733 -44.056   8.121  1.00  0.00    -0.262 N 
ATOM     25  H7  UNL     1      24.547 -45.678   9.148  1.00  0.00     0.189 HD
HETATM   26  C8  UNL     1      22.954 -44.024   7.029  1.00  0.00     0.260 A 
ATOM     27  H8  UNL     1      24.070 -43.254   8.653  1.00  0.00     0.190 HD
HETATM   28  N9  UNL     1      22.477 -42.981   6.432  1.00  0.00    -0.261 N 
HETATM   29  O3  UNL     1      22.756 -45.264   6.661  1.00  0.00    -0.257 OA
ATOM     30  H9  UNL     1      21.892 -43.093   5.604  1.00  0.00     0.190 HD
BRANCH  28  31
HETATM   31  N10 UNL     1      22.753 -41.717   6.911  1.00  0.00    -0.269 N 
HETATM   32  C9  UNL     1      23.474 -40.866   6.286  1.00  0.00     0.226 C 
HETATM   33  N11 UNL     1      23.723 -39.585   6.825  1.00  0.00    -0.060 NA
HETATM   34  N12 UNL     1      24.030 -41.207   5.034  1.00  0.00    -0.212 N 
ATOM     35  H12 UNL     1      24.666 -42.002   4.960  1.00  0.00     0.196 HD
ATOM     36  H10 UNL     1      22.362 -41.447   7.813  1.00  0.00     0.190 HD
BRANCH  34  37
HETATM   37  N13 UNL     1      23.713 -40.463   3.900  1.00  0.00    -0.036 N 
HETATM   38  O1  UNL     1      22.529 -40.280   3.566  1.00  0.00    -0.516 OA
HETATM   39  O2  UNL     1      24.707 -39.918   3.128  1.00  0.00    -0.516 OA
ENDBRANCH  34  37
ENDBRANCH  28  31
ENDBRANCH  21  22
ENDBRANCH   1  21
TORSDOF 6
ENDMDL
MODEL 5
REMARK VINA RESULT: -6.637321296      2.914      4.323
REMARK  6 active torsions:
REMARK  status: ('A' for Active; 'I' for Inactive)
REMARK    1  A    between atoms: N1_1  and  C1_4 
REMARK    2  A    between atoms: C5_16  and  N6_17 
REMARK    3  A    between atoms: N6_17  and  C6_19 
REMARK    4  A    between atoms: C6_19  and  C7_20 
REMARK    5  A    between atoms: N9_26  and  N10_28 
REMARK       I    between atoms: C9_30  and  N12_32 
REMARK    6  A    between atoms: N12_32  and  N13_34 
ROOT
HETATM    1  N6  UNL     1      21.461 -48.165   5.227  1.00  0.00    -0.196 N 
ATOM      2  H6  UNL     1      21.098 -48.618   6.066  1.00  0.00     0.183 HD
ENDROOT
BRANCH   1   3
HETATM    3  C5  UNL     1      22.859 -48.169   5.005  1.00  0.00     0.698 A 
HETATM    4  N5  UNL     1      23.498 -49.307   5.103  1.00  0.00    -0.131 N 
HETATM    5  N4  UNL     1      24.885 -49.366   4.893  1.00  0.00    -0.280 N 
ATOM      6  H5  UNL     1      22.986 -50.157   5.336  1.00  0.00     0.205 HD
HETATM    7  C4  UNL     1      25.654 -48.222   4.568  1.00  0.00     0.137 A 
ATOM      8  H4  UNL     1      25.356 -50.266   4.976  1.00  0.00     0.188 HD
HETATM    9  C1  UNL     1      27.013 -48.254   4.356  1.00  0.00     0.132 A 
HETATM   10  C3  UNL     1      24.976 -47.027   4.465  1.00  0.00     0.154 A 
HETATM   11  N2  UNL     1      27.721 -47.137   4.046  1.00  0.00    -0.337 N 
HETATM   12  C2  UNL     1      27.031 -45.989   3.954  1.00  0.00     0.183 A 
ATOM     13  H2  UNL     1      28.729 -47.169   3.889  1.00  0.00     0.168 HD
HETATM   14  N3  UNL     1      25.703 -45.944   4.157  1.00  0.00    -0.336 N 
ATOM     15  H3  UNL     1      25.228 -45.045   4.073  1.00  0.00     0.168 HD
HETATM   16  N14 UNL     1      23.555 -46.973   4.682  1.00  0.00    -0.173 N 
ATOM     17  H14 UNL     1      23.053 -46.088   4.605  1.00  0.00     0.186 HD
BRANCH   9  18
HETATM   18  N1  UNL     1      27.668 -49.342   4.445  1.00  0.00    -0.383 N 
ATOM     19  H12 UNL     1      27.331 -50.199   4.007  1.00  0.00     0.157 HD
ATOM     20  H11 UNL     1      28.541 -49.312   4.972  1.00  0.00     0.157 HD
ENDBRANCH   9  18
ENDBRANCH   1   3
BRANCH   1  21
HETATM   21  C6  UNL     1      20.628 -47.613   4.411  1.00  0.00     0.164 C 
BRANCH  21  22
HETATM   22  C7  UNL     1      20.534 -46.162   4.397  1.00  0.00     0.182 A 
HETATM   23  N7  UNL     1      19.809 -45.397   3.573  1.00  0.00    -0.275 N 
HETATM   24  N8  UNL     1      19.991 -44.123   3.879  1.00  0.00    -0.262 N 
ATOM     25  H7  UNL     1      19.209 -45.741   2.824  1.00  0.00     0.189 HD
HETATM   26  C8  UNL     1      20.846 -44.094   4.914  1.00  0.00     0.260 A 
ATOM     27  H8  UNL     1      19.565 -43.319   3.419  1.00  0.00     0.190 HD
HETATM   28  N9  UNL     1      21.299 -43.053   5.532  1.00  0.00    -0.261 N 
HETATM   29  O3  UNL     1      21.150 -45.335   5.197  1.00  0.00    -0.257 OA
ATOM     30  H9  UNL     1      21.950 -43.168   6.310  1.00  0.00     0.190 HD
BRANCH  28  31
HETATM   31  N10 UNL     1      20.908 -41.788   5.146  1.00  0.00    -0.269 N 
HETATM   32  C9  UNL     1      21.390 -40.715   5.646  1.00  0.00     0.226 C 
HETATM   33  N11 UNL     1      20.951 -39.446   5.210  1.00  0.00    -0.060 NA
HETATM   34  N12 UNL     1      22.379 -40.795   6.650  1.00  0.00    -0.212 N 
ATOM     35  H12 UNL     1      22.175 -41.273   7.527  1.00  0.00     0.196 HD
ATOM     36  H10 UNL     1      20.195 -41.705   4.421  1.00  0.00     0.190 HD
BRANCH  34  37
HETATM   37  N13 UNL     1      23.634 -40.225   6.444  1.00  0.00    -0.036 N 
HETATM   38  O1  UNL     1      24.116 -39.427   7.267  1.00  0.00    -0.516 OA
HETATM   39  O2  UNL     1      24.361 -40.536   5.324  1.00  0.00    -0.516 OA
ENDBRANCH  34  37
ENDBRANCH  28  31
ENDBRANCH  21  22
ENDBRANCH   1  21
TORSDOF 6
ENDMDL
