MODEL 1
REMARK VINA RESULT: -6.400733976      0.000      0.000
REMARK  8 active torsions:
REMARK  status: ('A' for Active; 'I' for Inactive)
REMARK    1  A    between atoms: C2_2  and  N1_4 
REMARK    2  A    between atoms: N1_4  and  C4_6 
REMARK    3  A    between atoms: C4_6  and  N2_8 
REMARK    4  A    between atoms: N2_8  and  C5_9 
REMARK    5  A    between atoms: C5_9  and  C6_10 
REMARK    6  A    between atoms: C6_10  and  N3_11 
REMARK    7  A    between atoms: C6_10  and  C7_15 
REMARK    8  A    between atoms: C7_15  and  C8_16 
ROOT
HETATM    1  C6  UNL     1      31.331  16.975  13.957  1.00  0.00     0.217 C 
ENDROOT
BRANCH   1   2
HETATM    2  C5  UNL     1      32.539  16.997  13.015  1.00  0.00     0.254 C 
BRANCH   2   3
HETATM    3  N2  UNL     1      32.989  18.285  12.779  1.00  0.00    -0.419 NA
BRANCH   3   4
HETATM    4  C4  UNL     1      33.418  19.510  12.554  1.00  0.00     0.240 C 
HETATM    5  S1  UNL     1      34.188  20.296  13.840  1.00  0.00    -0.026 SA
BRANCH   4   6
HETATM    6  N1  UNL     1      33.292  20.257  11.351  1.00  0.00    -0.352 N 
ATOM      7  H1  UNL     1      32.537  20.941  11.320  1.00  0.00     0.163 HD
BRANCH   6   8
HETATM    8  C2  UNL     1      34.098  20.160  10.188  1.00  0.00     0.076 C 
HETATM    9  C1  UNL     1      35.262  21.153  10.322  1.00  0.00     0.032 C 
HETATM   10  C3  UNL     1      34.657  18.750  10.036  1.00  0.00     0.032 C 
ENDBRANCH   6   8
ENDBRANCH   4   6
ENDBRANCH   3   4
ENDBRANCH   2   3
ENDBRANCH   1   2
BRANCH   1  11
HETATM   11  N3  UNL     1      31.881  17.381  15.274  1.00  0.00    -0.072 N 
ATOM     12  H33 UNL     1      31.201  17.363  16.034  1.00  0.00     0.274 HD
ATOM     13  H32 UNL     1      32.525  16.705  15.683  1.00  0.00     0.274 HD
ATOM     14  H31 UNL     1      32.293  18.299  15.106  1.00  0.00     0.274 HD
ENDBRANCH   1  11
BRANCH   1  15
HETATM   15  C7  UNL     1      30.776  15.606  14.137  1.00  0.00     0.075 C 
BRANCH  15  16
HETATM   16  C8  UNL     1      30.023  15.159  12.957  1.00  0.00    -0.041 A 
HETATM   17  C9  UNL     1      30.195  13.960  12.294  1.00  0.00     0.010 A 
HETATM   18  C10 UNL     1      29.433  13.594  11.218  1.00  0.00     0.018 A 
HETATM   19  C11 UNL     1      28.470  14.456  10.791  1.00  0.00     0.087 A 
HETATM   20  N4  UNL     1      28.273  15.641  11.415  1.00  0.00    -0.375 N 
HETATM   21  C12 UNL     1      29.008  16.007  12.463  1.00  0.00     0.094 A 
ATOM     22  H4  UNL     1      27.544  16.268  11.075  1.00  0.00     0.164 HD
ENDBRANCH  15  16
ENDBRANCH   1  15
TORSDOF 8
ENDMDL
MODEL 2
REMARK VINA RESULT: -6.364048689      1.733      2.379
REMARK  8 active torsions:
REMARK  status: ('A' for Active; 'I' for Inactive)
REMARK    1  A    between atoms: C2_2  and  N1_4 
REMARK    2  A    between atoms: N1_4  and  C4_6 
REMARK    3  A    between atoms: C4_6  and  N2_8 
REMARK    4  A    between atoms: N2_8  and  C5_9 
REMARK    5  A    between atoms: C5_9  and  C6_10 
REMARK    6  A    between atoms: C6_10  and  N3_11 
REMARK    7  A    between atoms: C6_10  and  C7_15 
REMARK    8  A    between atoms: C7_15  and  C8_16 
ROOT
HETATM    1  C6  UNL     1      30.187  15.154  13.543  1.00  0.00     0.217 C 
ENDROOT
BRANCH   1   2
HETATM    2  C5  UNL     1      31.385  15.353  12.610  1.00  0.00     0.254 C 
BRANCH   2   3
HETATM    3  N2  UNL     1      32.103  16.495  12.925  1.00  0.00    -0.419 NA
BRANCH   3   4
HETATM    4  C4  UNL     1      32.785  17.582  13.224  1.00  0.00     0.240 C 
HETATM    5  S1  UNL     1      32.403  18.344  14.686  1.00  0.00    -0.026 SA
BRANCH   4   6
HETATM    6  N1  UNL     1      33.802  18.200  12.445  1.00  0.00    -0.352 N 
ATOM      7  H1  UNL     1      34.652  18.467  12.942  1.00  0.00     0.163 HD
BRANCH   6   8
HETATM    8  C2  UNL     1      33.770  18.487  11.057  1.00  0.00     0.076 C 
HETATM    9  C1  UNL     1      33.529  19.993  10.881  1.00  0.00     0.032 C 
HETATM   10  C3  UNL     1      35.093  18.111  10.398  1.00  0.00     0.032 C 
ENDBRANCH   6   8
ENDBRANCH   4   6
ENDBRANCH   3   4
ENDBRANCH   2   3
ENDBRANCH   1   2
BRANCH   1  11
HETATM   11  N3  UNL     1      30.789  15.004  14.892  1.00  0.00    -0.072 N 
ATOM     12  H33 UNL     1      30.194  14.517  15.562  1.00  0.00     0.274 HD
ATOM     13  H32 UNL     1      31.566  14.345  14.931  1.00  0.00     0.274 HD
ATOM     14  H31 UNL     1      31.035  15.954  15.167  1.00  0.00     0.274 HD
ENDBRANCH   1  11
BRANCH   1  15
HETATM   15  C7  UNL     1      29.457  13.887  13.266  1.00  0.00     0.075 C 
BRANCH  15  16
HETATM   16  C8  UNL     1      28.446  14.055  12.213  1.00  0.00    -0.041 A 
HETATM   17  C9  UNL     1      28.197  15.216  11.508  1.00  0.00     0.010 A 
HETATM   18  C10 UNL     1      27.258  15.292  10.515  1.00  0.00     0.018 A 
HETATM   19  C11 UNL     1      26.546  14.170  10.219  1.00  0.00     0.087 A 
HETATM   20  N4  UNL     1      26.762  13.014  10.888  1.00  0.00    -0.375 N 
HETATM   21  C12 UNL     1      27.672  12.928  11.856  1.00  0.00     0.094 A 
ATOM     22  H4  UNL     1      26.215  12.188  10.645  1.00  0.00     0.164 HD
ENDBRANCH  15  16
ENDBRANCH   1  15
TORSDOF 8
ENDMDL
MODEL 3
REMARK VINA RESULT: -6.361627950      2.326      6.210
REMARK  8 active torsions:
REMARK  status: ('A' for Active; 'I' for Inactive)
REMARK    1  A    between atoms: C2_2  and  N1_4 
REMARK    2  A    between atoms: N1_4  and  C4_6 
REMARK    3  A    between atoms: C4_6  and  N2_8 
REMARK    4  A    between atoms: N2_8  and  C5_9 
REMARK    5  A    between atoms: C5_9  and  C6_10 
REMARK    6  A    between atoms: C6_10  and  N3_11 
REMARK    7  A    between atoms: C6_10  and  C7_15 
REMARK    8  A    between atoms: C7_15  and  C8_16 
ROOT
HETATM    1  C6  UNL     1      31.943  17.022  14.048  1.00  0.00     0.217 C 
ENDROOT
BRANCH   1   2
HETATM    2  C5  UNL     1      30.571  17.441  13.509  1.00  0.00     0.254 C 
BRANCH   2   3
HETATM    3  N2  UNL     1      29.843  16.358  13.047  1.00  0.00    -0.419 NA
BRANCH   3   4
HETATM    4  C4  UNL     1      29.150  15.327  12.608  1.00  0.00     0.240 C 
HETATM    5  S1  UNL     1      29.935  13.827  12.602  1.00  0.00    -0.026 SA
BRANCH   4   6
HETATM    6  N1  UNL     1      27.814  15.335  12.120  1.00  0.00    -0.352 N 
ATOM      7  H1  UNL     1      27.077  15.374  12.823  1.00  0.00     0.163 HD
BRANCH   6   8
HETATM    8  C2  UNL     1      27.390  15.294  10.768  1.00  0.00     0.076 C 
HETATM    9  C1  UNL     1      28.619  15.493   9.870  1.00  0.00     0.032 C 
HETATM   10  C3  UNL     1      26.746  13.951  10.445  1.00  0.00     0.032 C 
ENDBRANCH   6   8
ENDBRANCH   4   6
ENDBRANCH   3   4
ENDBRANCH   2   3
ENDBRANCH   1   2
BRANCH   1  11
HETATM   11  N3  UNL     1      31.670  16.548  15.428  1.00  0.00    -0.072 N 
ATOM     12  H33 UNL     1      30.842  16.963  15.855  1.00  0.00     0.274 HD
ATOM     13  H32 UNL     1      31.351  15.581  15.481  1.00  0.00     0.274 HD
ATOM     14  H31 UNL     1      32.535  16.729  15.935  1.00  0.00     0.274 HD
ENDBRANCH   1  11
BRANCH   1  15
HETATM   15  C7  UNL     1      32.878  18.173  14.177  1.00  0.00     0.075 C 
BRANCH  15  16
HETATM   16  C8  UNL     1      33.269  18.712  12.866  1.00  0.00    -0.041 A 
HETATM   17  C9  UNL     1      33.797  17.986  11.818  1.00  0.00     0.010 A 
HETATM   18  C10 UNL     1      34.109  18.550  10.611  1.00  0.00     0.018 A 
HETATM   19  C11 UNL     1      33.886  19.883  10.448  1.00  0.00     0.087 A 
HETATM   20  N4  UNL     1      33.369  20.628  11.454  1.00  0.00    -0.375 N 
HETATM   21  C12 UNL     1      33.063  20.090  12.633  1.00  0.00     0.094 A 
ATOM     22  H4  UNL     1      33.211  21.624  11.305  1.00  0.00     0.164 HD
ENDBRANCH  15  16
ENDBRANCH   1  15
TORSDOF 8
ENDMDL
MODEL 4
REMARK VINA RESULT: -6.293316270      2.685      6.802
REMARK  8 active torsions:
REMARK  status: ('A' for Active; 'I' for Inactive)
REMARK    1  A    between atoms: C2_2  and  N1_4 
REMARK    2  A    between atoms: N1_4  and  C4_6 
REMARK    3  A    between atoms: C4_6  and  N2_8 
REMARK    4  A    between atoms: N2_8  and  C5_9 
REMARK    5  A    between atoms: C5_9  and  C6_10 
REMARK    6  A    between atoms: C6_10  and  N3_11 
REMARK    7  A    between atoms: C6_10  and  C7_15 
REMARK    8  A    between atoms: C7_15  and  C8_16 
ROOT
HETATM    1  C6  UNL     1      31.701  16.143  13.550  1.00  0.00     0.217 C 
ENDROOT
BRANCH   1   2
HETATM    2  C5  UNL     1      30.238  16.438  13.204  1.00  0.00     0.254 C 
BRANCH   2   3
HETATM    3  N2  UNL     1      29.710  15.493  12.340  1.00  0.00    -0.419 NA
BRANCH   3   4
HETATM    4  C4  UNL     1      29.207  14.595  11.518  1.00  0.00     0.240 C 
HETATM    5  S1  UNL     1      28.360  15.180  10.174  1.00  0.00    -0.026 SA
BRANCH   4   6
HETATM    6  N1  UNL     1      29.281  13.180  11.641  1.00  0.00    -0.352 N 
ATOM      7  H1  UNL     1      30.197  12.761  11.482  1.00  0.00     0.163 HD
BRANCH   6   8
HETATM    8  C2  UNL     1      28.228  12.286  11.960  1.00  0.00     0.076 C 
HETATM    9  C1  UNL     1      28.844  10.986  12.497  1.00  0.00     0.032 C 
HETATM   10  C3  UNL     1      27.316  12.885  13.024  1.00  0.00     0.032 C 
ENDBRANCH   6   8
ENDBRANCH   4   6
ENDBRANCH   3   4
ENDBRANCH   2   3
ENDBRANCH   1   2
BRANCH   1  11
HETATM   11  N3  UNL     1      31.628  15.181  14.678  1.00  0.00    -0.072 N 
ATOM     12  H33 UNL     1      32.534  14.828  14.985  1.00  0.00     0.274 HD
ATOM     13  H32 UNL     1      31.363  15.601  15.568  1.00  0.00     0.274 HD
ATOM     14  H31 UNL     1      30.987  14.457  14.353  1.00  0.00     0.274 HD
ENDBRANCH   1  11
BRANCH   1  15
HETATM   15  C7  UNL     1      32.415  17.343  14.067  1.00  0.00     0.075 C 
BRANCH  15  16
HETATM   16  C8  UNL     1      32.936  18.183  12.980  1.00  0.00    -0.041 A 
HETATM   17  C9  UNL     1      33.598  17.732  11.856  1.00  0.00     0.010 A 
HETATM   18  C10 UNL     1      34.029  18.571  10.864  1.00  0.00     0.018 A 
HETATM   19  C11 UNL     1      33.790  19.904  11.004  1.00  0.00     0.087 A 
HETATM   20  N4  UNL     1      33.144  20.384  12.092  1.00  0.00    -0.375 N 
HETATM   21  C12 UNL     1      32.721  19.577  13.063  1.00  0.00     0.094 A 
ATOM     22  H4  UNL     1      32.978  21.387  12.171  1.00  0.00     0.164 HD
ENDBRANCH  15  16
ENDBRANCH   1  15
TORSDOF 8
ENDMDL
MODEL 5
REMARK VINA RESULT: -6.250655288      1.693      2.399
REMARK  8 active torsions:
REMARK  status: ('A' for Active; 'I' for Inactive)
REMARK    1  A    between atoms: C2_2  and  N1_4 
REMARK    2  A    between atoms: N1_4  and  C4_6 
REMARK    3  A    between atoms: C4_6  and  N2_8 
REMARK    4  A    between atoms: N2_8  and  C5_9 
REMARK    5  A    between atoms: C5_9  and  C6_10 
REMARK    6  A    between atoms: C6_10  and  N3_11 
REMARK    7  A    between atoms: C6_10  and  C7_15 
REMARK    8  A    between atoms: C7_15  and  C8_16 
ROOT
HETATM    1  C6  UNL     1      30.531  15.399  13.706  1.00  0.00     0.217 C 
ENDROOT
BRANCH   1   2
HETATM    2  C5  UNL     1      31.345  16.330  14.609  1.00  0.00     0.254 C 
BRANCH   2   3
HETATM    3  N2  UNL     1      32.216  17.126  13.884  1.00  0.00    -0.419 NA
BRANCH   3   4
HETATM    4  C4  UNL     1      33.045  17.882  13.193  1.00  0.00     0.240 C 
HETATM    5  S1  UNL     1      33.397  19.409  13.835  1.00  0.00    -0.026 SA
BRANCH   4   6
HETATM    6  N1  UNL     1      33.668  17.566  11.955  1.00  0.00    -0.352 N 
ATOM      7  H1  UNL     1      33.178  16.899  11.360  1.00  0.00     0.163 HD
BRANCH   6   8
HETATM    8  C2  UNL     1      34.894  18.073  11.453  1.00  0.00     0.076 C 
HETATM    9  C1  UNL     1      36.007  17.074  11.798  1.00  0.00     0.032 C 
HETATM   10  C3  UNL     1      34.826  18.245   9.940  1.00  0.00     0.032 C 
ENDBRANCH   6   8
ENDBRANCH   4   6
ENDBRANCH   3   4
ENDBRANCH   2   3
ENDBRANCH   1   2
BRANCH   1  11
HETATM   11  N3  UNL     1      31.548  14.700  12.882  1.00  0.00    -0.072 N 
ATOM     12  H33 UNL     1      32.434  15.199  12.802  1.00  0.00     0.274 HD
ATOM     13  H32 UNL     1      31.930  13.860  13.315  1.00  0.00     0.274 HD
ATOM     14  H31 UNL     1      31.082  14.533  11.991  1.00  0.00     0.274 HD
ENDBRANCH   1  11
BRANCH   1  15
HETATM   15  C7  UNL     1      29.662  16.147  12.756  1.00  0.00     0.075 C 
BRANCH  15  16
HETATM   16  C8  UNL     1      28.723  15.259  12.056  1.00  0.00    -0.041 A 
HETATM   17  C9  UNL     1      28.175  15.484  10.809  1.00  0.00     0.010 A 
HETATM   18  C10 UNL     1      27.330  14.595  10.201  1.00  0.00     0.018 A 
HETATM   19  C11 UNL     1      27.024  13.446  10.864  1.00  0.00     0.087 A 
HETATM   20  N4  UNL     1      27.542  13.191  12.088  1.00  0.00    -0.375 N 
HETATM   21  C12 UNL     1      28.365  14.048  12.689  1.00  0.00     0.094 A 
ATOM     22  H4  UNL     1      27.297  12.322  12.562  1.00  0.00     0.164 HD
ENDBRANCH  15  16
ENDBRANCH   1  15
TORSDOF 8
ENDMDL
