MODEL 1
REMARK VINA RESULT: -5.727913095      0.000      0.000
REMARK  6 active torsions:
REMARK  status: ('A' for Active; 'I' for Inactive)
REMARK    1  A    between atoms: C2_2  and  C3_3 
REMARK    2  A    between atoms: C3_3  and  N1_4 
REMARK    3  A    between atoms: N1_4  and  C4_6 
REMARK    4  A    between atoms: N3_10  and  C6_12 
REMARK    5  A    between atoms: C9_17  and  N5_18 
REMARK    6  A    between atoms: N5_18  and  C10_20 
ROOT
HETATM    1  C4  UNL     1      33.401  19.534  12.283  1.00  0.00     0.707 A 
HETATM    2  N2  UNL     1      34.497  18.772  12.245  1.00  0.00    -0.021 N 
ATOM      3  H2  UNL     1      34.647  18.071  12.970  1.00  0.00     0.203 HD
HETATM    4  C5  UNL     1      35.405  18.914  11.268  1.00  0.00     0.707 A 
HETATM    5  N3  UNL     1      36.445  18.178  11.245  1.00  0.00    -0.221 N 
ATOM      6  H3  UNL     1      37.107  18.320  10.483  1.00  0.00     0.178 HD
HETATM    7  N4  UNL     1      35.185  19.859  10.306  1.00  0.00    -0.021 N 
ATOM      8  H4  UNL     1      35.871  19.971   9.559  1.00  0.00     0.203 HD
HETATM    9  C9  UNL     1      34.096  20.646  10.307  1.00  0.00     0.707 A 
HETATM   10  N6  UNL     1      33.212  20.471  11.304  1.00  0.00    -0.021 N 
ATOM     11  H6  UNL     1      32.375  21.054  11.331  1.00  0.00     0.203 HD
ENDROOT
BRANCH   1  12
HETATM   12  N1  UNL     1      32.527  19.405  13.215  1.00  0.00    -0.222 N 
ATOM     13  H1  UNL     1      31.697  19.997  13.241  1.00  0.00     0.178 HD
BRANCH  12  14
HETATM   14  C3  UNL     1      32.756  18.395  14.228  1.00  0.00     0.164 C 
BRANCH  14  15
HETATM   15  C2  UNL     1      31.526  17.573  14.335  1.00  0.00    -0.017 C 
HETATM   16  C1  UNL     1      31.509  16.489  15.073  1.00  0.00     0.008 C 
ENDBRANCH  14  15
ENDBRANCH  12  14
ENDBRANCH   1  12
BRANCH   9  17
HETATM   17  N5  UNL     1      33.943  21.520   9.375  1.00  0.00    -0.221 N 
ATOM     18  H5  UNL     1      32.996  21.849   9.187  1.00  0.00     0.178 HD
BRANCH  17  19
HETATM   19  C10 UNL     1      35.003  22.065   8.583  1.00  0.00     0.091 C 
HETATM   20  C11 UNL     1      34.615  22.379   7.178  1.00  0.00     0.032 C 
HETATM   21  C12 UNL     1      35.668  23.256   9.236  1.00  0.00     0.032 C 
ENDBRANCH  17  19
ENDBRANCH   9  17
BRANCH   5  22
HETATM   22  C6  UNL     1      36.757  17.158  12.217  1.00  0.00     0.091 C 
HETATM   23  C7  UNL     1      37.049  15.837  11.523  1.00  0.00     0.032 C 
HETATM   24  C8  UNL     1      38.015  17.581  12.982  1.00  0.00     0.032 C 
ENDBRANCH   5  22
TORSDOF 6
ENDMDL
MODEL 2
REMARK VINA RESULT: -5.717243478      2.490      2.819
REMARK  6 active torsions:
REMARK  status: ('A' for Active; 'I' for Inactive)
REMARK    1  A    between atoms: C2_2  and  C3_3 
REMARK    2  A    between atoms: C3_3  and  N1_4 
REMARK    3  A    between atoms: N1_4  and  C4_6 
REMARK    4  A    between atoms: N3_10  and  C6_12 
REMARK    5  A    between atoms: C9_17  and  N5_18 
REMARK    6  A    between atoms: N5_18  and  C10_20 
ROOT
HETATM    1  C4  UNL     1      33.482  19.534  13.471  1.00  0.00     0.707 A 
HETATM    2  N2  UNL     1      34.490  18.767  13.049  1.00  0.00    -0.021 N 
ATOM      3  H2  UNL     1      34.339  17.767  12.916  1.00  0.00     0.203 HD
HETATM    4  C5  UNL     1      35.699  19.291  12.796  1.00  0.00     0.707 A 
HETATM    5  N3  UNL     1      36.650  18.545  12.392  1.00  0.00    -0.221 N 
ATOM      6  H3  UNL     1      37.551  18.987  12.210  1.00  0.00     0.178 HD
HETATM    7  N4  UNL     1      35.878  20.633  12.979  1.00  0.00    -0.021 N 
ATOM      8  H4  UNL     1      36.795  21.037  12.787  1.00  0.00     0.203 HD
HETATM    9  C9  UNL     1      34.891  21.439  13.403  1.00  0.00     0.707 A 
HETATM   10  N6  UNL     1      33.697  20.874  13.644  1.00  0.00    -0.021 N 
ATOM     11  H6  UNL     1      32.927  21.461  13.966  1.00  0.00     0.203 HD
ENDROOT
BRANCH   1  12
HETATM   12  N1  UNL     1      32.321  19.040  13.717  1.00  0.00    -0.222 N 
ATOM     13  H1  UNL     1      31.496  19.362  13.211  1.00  0.00     0.178 HD
BRANCH  12  14
HETATM   14  C3  UNL     1      32.220  18.013  14.733  1.00  0.00     0.164 C 
BRANCH  14  15
HETATM   15  C2  UNL     1      31.216  17.020  14.278  1.00  0.00    -0.017 C 
HETATM   16  C1  UNL     1      31.209  15.805  14.767  1.00  0.00     0.008 C 
ENDBRANCH  14  15
ENDBRANCH  12  14
ENDBRANCH   1  12
BRANCH   9  17
HETATM   17  N5  UNL     1      35.120  22.696  13.558  1.00  0.00    -0.221 N 
ATOM     18  H5  UNL     1      34.344  23.284  13.861  1.00  0.00     0.178 HD
BRANCH  17  19
HETATM   19  C10 UNL     1      36.384  23.330  13.337  1.00  0.00     0.091 C 
HETATM   20  C11 UNL     1      36.472  24.085  12.055  1.00  0.00     0.032 C 
HETATM   21  C12 UNL     1      36.814  24.195  14.501  1.00  0.00     0.032 C 
ENDBRANCH  17  19
ENDBRANCH   9  17
BRANCH   5  22
HETATM   22  C6  UNL     1      36.549  17.123  12.172  1.00  0.00     0.091 C 
HETATM   23  C7  UNL     1      36.523  16.819  10.682  1.00  0.00     0.032 C 
HETATM   24  C8  UNL     1      37.784  16.447  12.773  1.00  0.00     0.032 C 
ENDBRANCH   5  22
TORSDOF 6
ENDMDL
MODEL 3
REMARK VINA RESULT: -5.704091400      2.546      6.216
REMARK  6 active torsions:
REMARK  status: ('A' for Active; 'I' for Inactive)
REMARK    1  A    between atoms: C2_2  and  C3_3 
REMARK    2  A    between atoms: C3_3  and  N1_4 
REMARK    3  A    between atoms: N1_4  and  C4_6 
REMARK    4  A    between atoms: N3_10  and  C6_12 
REMARK    5  A    between atoms: C9_17  and  N5_18 
REMARK    6  A    between atoms: N5_18  and  C10_20 
ROOT
HETATM    1  C4  UNL     1      34.550  20.628  11.082  1.00  0.00     0.707 A 
HETATM    2  N2  UNL     1      35.165  21.431  11.956  1.00  0.00    -0.021 N 
ATOM      3  H2  UNL     1      35.907  22.051  11.632  1.00  0.00     0.203 HD
HETATM    4  C5  UNL     1      34.821  21.435  13.252  1.00  0.00     0.707 A 
HETATM    5  N3  UNL     1      35.416  22.207  14.072  1.00  0.00    -0.221 N 
ATOM      6  H3  UNL     1      35.120  22.178  15.047  1.00  0.00     0.178 HD
HETATM    7  N4  UNL     1      33.822  20.597  13.664  1.00  0.00    -0.021 N 
ATOM      8  H4  UNL     1      33.556  20.597  14.649  1.00  0.00     0.203 HD
HETATM    9  C9  UNL     1      33.180  19.774  12.819  1.00  0.00     0.707 A 
HETATM   10  N6  UNL     1      33.555  19.802  11.529  1.00  0.00    -0.021 N 
ATOM     11  H6  UNL     1      33.084  19.189  10.864  1.00  0.00     0.203 HD
ENDROOT
BRANCH   1  12
HETATM   12  N1  UNL     1      34.874  20.617   9.839  1.00  0.00    -0.222 N 
ATOM     13  H1  UNL     1      34.748  19.779   9.272  1.00  0.00     0.178 HD
BRANCH  12  14
HETATM   14  C3  UNL     1      35.422  21.830   9.268  1.00  0.00     0.164 C 
BRANCH  14  15
HETATM   15  C2  UNL     1      34.713  22.093   7.993  1.00  0.00    -0.017 C 
HETATM   16  C1  UNL     1      33.635  22.838   7.968  1.00  0.00     0.008 C 
ENDBRANCH  14  15
ENDBRANCH  12  14
ENDBRANCH   1  12
BRANCH   9  17
HETATM   17  N5  UNL     1      32.248  19.007  13.266  1.00  0.00    -0.221 N 
ATOM     18  H5  UNL     1      31.284  19.320  13.155  1.00  0.00     0.178 HD
BRANCH  17  19
HETATM   19  C10 UNL     1      32.465  17.746  13.906  1.00  0.00     0.091 C 
HETATM   20  C11 UNL     1      31.835  17.629  15.252  1.00  0.00     0.032 C 
HETATM   21  C12 UNL     1      32.083  16.573  13.030  1.00  0.00     0.032 C 
ENDBRANCH  17  19
ENDBRANCH   9  17
BRANCH   5  22
HETATM   22  C6  UNL     1      36.477  23.121  13.725  1.00  0.00     0.091 C 
HETATM   23  C7  UNL     1      35.970  24.555  13.751  1.00  0.00     0.032 C 
HETATM   24  C8  UNL     1      37.592  22.993  14.766  1.00  0.00     0.032 C 
ENDBRANCH   5  22
TORSDOF 6
ENDMDL
MODEL 4
REMARK VINA RESULT: -5.670782326      2.287      5.589
REMARK  6 active torsions:
REMARK  status: ('A' for Active; 'I' for Inactive)
REMARK    1  A    between atoms: C2_2  and  C3_3 
REMARK    2  A    between atoms: C3_3  and  N1_4 
REMARK    3  A    between atoms: N1_4  and  C4_6 
REMARK    4  A    between atoms: N3_10  and  C6_12 
REMARK    5  A    between atoms: C9_17  and  N5_18 
REMARK    6  A    between atoms: N5_18  and  C10_20 
ROOT
HETATM    1  C4  UNL     1      34.050  20.137  13.444  1.00  0.00     0.707 A 
HETATM    2  N2  UNL     1      34.716  19.581  12.429  1.00  0.00    -0.021 N 
ATOM      3  H2  UNL     1      35.546  20.044  12.059  1.00  0.00     0.203 HD
HETATM    4  C5  UNL     1      34.311  18.423  11.888  1.00  0.00     0.707 A 
HETATM    5  N3  UNL     1      34.958  17.905  10.920  1.00  0.00    -0.221 N 
ATOM      6  H3  UNL     1      34.614  17.023  10.541  1.00  0.00     0.178 HD
HETATM    7  N4  UNL     1      33.197  17.818  12.400  1.00  0.00    -0.021 N 
ATOM      8  H4  UNL     1      32.885  16.937  11.993  1.00  0.00     0.203 HD
HETATM    9  C9  UNL     1      32.498  18.344  13.419  1.00  0.00     0.707 A 
HETATM   10  N6  UNL     1      32.939  19.505  13.932  1.00  0.00    -0.021 N 
ATOM     11  H6  UNL     1      32.429  19.928  14.708  1.00  0.00     0.203 HD
ENDROOT
BRANCH   1  12
HETATM   12  N1  UNL     1      34.430  21.247  13.968  1.00  0.00    -0.222 N 
ATOM     13  H1  UNL     1      33.756  21.886  14.389  1.00  0.00     0.178 HD
BRANCH  12  14
HETATM   14  C3  UNL     1      35.844  21.562  13.943  1.00  0.00     0.164 C 
BRANCH  14  15
HETATM   15  C2  UNL     1      36.001  22.902  13.328  1.00  0.00    -0.017 C 
HETATM   16  C1  UNL     1      36.349  23.024  12.070  1.00  0.00     0.008 C 
ENDBRANCH  14  15
ENDBRANCH  12  14
ENDBRANCH   1  12
BRANCH   9  17
HETATM   17  N5  UNL     1      31.456  17.729  13.859  1.00  0.00    -0.221 N 
ATOM     18  H5  UNL     1      30.740  18.287  14.322  1.00  0.00     0.178 HD
BRANCH  17  19
HETATM   19  C10 UNL     1      31.229  16.322  13.745  1.00  0.00     0.091 C 
HETATM   20  C11 UNL     1      31.220  15.598  15.049  1.00  0.00     0.032 C 
HETATM   21  C12 UNL     1      29.992  15.993  12.939  1.00  0.00     0.032 C 
ENDBRANCH  17  19
ENDBRANCH   9  17
BRANCH   5  22
HETATM   22  C6  UNL     1      36.141  18.473  10.319  1.00  0.00     0.091 C 
HETATM   23  C7  UNL     1      37.316  17.517  10.460  1.00  0.00     0.032 C 
HETATM   24  C8  UNL     1      35.877  18.683   8.826  1.00  0.00     0.032 C 
ENDBRANCH   5  22
TORSDOF 6
ENDMDL
MODEL 5
REMARK VINA RESULT: -5.650431888      2.363      5.824
REMARK  6 active torsions:
REMARK  status: ('A' for Active; 'I' for Inactive)
REMARK    1  A    between atoms: C2_2  and  C3_3 
REMARK    2  A    between atoms: C3_3  and  N1_4 
REMARK    3  A    between atoms: N1_4  and  C4_6 
REMARK    4  A    between atoms: N3_10  and  C6_12 
REMARK    5  A    between atoms: C9_17  and  N5_18 
REMARK    6  A    between atoms: N5_18  and  C10_20 
ROOT
HETATM    1  C4  UNL     1      34.392  19.136  11.539  1.00  0.00     0.707 A 
HETATM    2  N2  UNL     1      34.917  20.190  12.170  1.00  0.00    -0.021 N 
ATOM      3  H2  UNL     1      35.733  20.656  11.774  1.00  0.00     0.203 HD
HETATM    4  C5  UNL     1      34.387  20.646  13.315  1.00  0.00     0.707 A 
HETATM    5  N3  UNL     1      34.899  21.653  13.903  1.00  0.00    -0.221 N 
ATOM      6  H3  UNL     1      34.462  21.965  14.770  1.00  0.00     0.178 HD
HETATM    7  N4  UNL     1      33.292  20.007  13.826  1.00  0.00    -0.021 N 
ATOM      8  H4  UNL     1      32.884  20.349  14.696  1.00  0.00     0.203 HD
HETATM    9  C9  UNL     1      32.734  18.943  13.224  1.00  0.00     0.707 A 
HETATM   10  N6  UNL     1      33.296  18.520  12.080  1.00  0.00    -0.021 N 
ATOM     11  H6  UNL     1      32.893  17.715  11.599  1.00  0.00     0.203 HD
ENDROOT
BRANCH   1  12
HETATM   12  N1  UNL     1      34.893  18.692  10.443  1.00  0.00    -0.222 N 
ATOM     13  H1  UNL     1      34.311  18.560   9.616  1.00  0.00     0.178 HD
BRANCH  12  14
HETATM   14  C3  UNL     1      36.309  18.387  10.416  1.00  0.00     0.164 C 
BRANCH  14  15
HETATM   15  C2  UNL     1      36.466  16.933  10.662  1.00  0.00    -0.017 C 
HETATM   16  C1  UNL     1      36.938  16.495  11.804  1.00  0.00     0.008 C 
ENDBRANCH  14  15
ENDBRANCH  12  14
ENDBRANCH   1  12
BRANCH   9  17
HETATM   17  N5  UNL     1      31.705  18.382  13.754  1.00  0.00    -0.221 N 
ATOM     18  H5  UNL     1      30.950  18.987  14.077  1.00  0.00     0.178 HD
BRANCH  17  19
HETATM   19  C10 UNL     1      31.540  16.971  13.924  1.00  0.00     0.091 C 
HETATM   20  C11 UNL     1      31.552  16.521  15.345  1.00  0.00     0.032 C 
HETATM   21  C12 UNL     1      30.325  16.434  13.200  1.00  0.00     0.032 C 
ENDBRANCH  17  19
ENDBRANCH   9  17
BRANCH   5  22
HETATM   22  C6  UNL     1      36.051  22.386  13.436  1.00  0.00     0.091 C 
HETATM   23  C7  UNL     1      35.796  23.883  13.524  1.00  0.00     0.032 C 
HETATM   24  C8  UNL     1      37.241  22.053  14.338  1.00  0.00     0.032 C 
ENDBRANCH   5  22
TORSDOF 6
ENDMDL
