MODEL 1
REMARK VINA RESULT: -9.199348878      0.000      0.000
REMARK  5 active torsions:
REMARK  status: ('A' for Active; 'I' for Inactive)
REMARK       I    between atoms: N1_1  and  C1_5 
REMARK       I    between atoms: C1_5  and  N2_6 
REMARK       I    between atoms: C1_5  and  N3_10 
REMARK    1  A    between atoms: N3_10  and  O1_11 
REMARK    2  A    between atoms: N3_10  and  C2_13 
REMARK    3  A    between atoms: C2_13  and  C3_14 
REMARK    4  A    between atoms: C7_18  and  C8_19 
REMARK    5  A    between atoms: C8_19  and  C9_20 
ROOT
HETATM    1  C3  UNL     1      32.107  17.565  13.639  1.00  0.00    -0.042 A 
HETATM    2  C4  UNL     1      31.865  17.410  14.999  1.00  0.00     0.008 A 
HETATM    3  C5  UNL     1      31.265  16.272  15.498  1.00  0.00     0.001 A 
HETATM    4  C6  UNL     1      30.884  15.251  14.666  1.00  0.00     0.007 A 
HETATM    5  C7  UNL     1      31.113  15.383  13.322  1.00  0.00    -0.053 A 
HETATM    6  C15 UNL     1      31.708  16.514  12.833  1.00  0.00     0.015 A 
ENDROOT
BRANCH   1   7
HETATM    7  C2  UNL     1      32.749  18.771  13.068  1.00  0.00     0.163 C 
BRANCH   7   8
HETATM    8  N3  UNL     1      33.783  18.433  12.109  1.00  0.00    -0.141 NA
HETATM    9  C1  UNL     1      34.300  19.659  11.533  1.00  0.00     0.479 C 
HETATM   10  N1  UNL     1      33.168  20.379  10.983  1.00  0.00    -0.035 N 
HETATM   11  N2  UNL     1      35.262  19.429  10.502  1.00  0.00    -0.035 N 
ATOM     12  H13 UNL     1      33.448  21.242  10.517  1.00  0.00     0.278 HD
ATOM     13  H12 UNL     1      32.763  19.903  10.176  1.00  0.00     0.278 HD
ATOM     14  H11 UNL     1      32.481  20.543  11.720  1.00  0.00     0.278 HD
ATOM     15  H23 UNL     1      34.857  18.953   9.695  1.00  0.00     0.278 HD
ATOM     16  H22 UNL     1      35.542  20.292  10.036  1.00  0.00     0.278 HD
ATOM     17  H21 UNL     1      36.058  18.922  10.889  1.00  0.00     0.278 HD
BRANCH   8  18
HETATM   18  O1  UNL     1      34.757  17.679  12.654  1.00  0.00    -0.309 OA
ATOM     19  H1  UNL     1      34.931  16.897  12.144  1.00  0.00     0.237 HD
ENDBRANCH   8  18
ENDBRANCH   7   8
ENDBRANCH   1   7
BRANCH   5  20
HETATM   20  C8  UNL     1      30.736  14.332  12.333  1.00  0.00     0.077 C 
BRANCH  20  21
HETATM   21  C9  UNL     1      29.369  14.498  11.826  1.00  0.00    -0.054 A 
HETATM   22  C10 UNL     1      28.322  13.802  12.392  1.00  0.00     0.007 A 
HETATM   23  C11 UNL     1      27.029  13.955  11.915  1.00  0.00     0.001 A 
HETATM   24  C12 UNL     1      26.769  14.818  10.854  1.00  0.00     0.000 A 
HETATM   25  C13 UNL     1      27.801  15.504  10.294  1.00  0.00     0.001 A 
HETATM   26  C14 UNL     1      29.092  15.343  10.778  1.00  0.00     0.007 A 
ENDBRANCH  20  21
ENDBRANCH   5  20
TORSDOF 5
ENDMDL
MODEL 2
REMARK VINA RESULT: -9.096462895      1.621      1.797
REMARK  5 active torsions:
REMARK  status: ('A' for Active; 'I' for Inactive)
REMARK       I    between atoms: N1_1  and  C1_5 
REMARK       I    between atoms: C1_5  and  N2_6 
REMARK       I    between atoms: C1_5  and  N3_10 
REMARK    1  A    between atoms: N3_10  and  O1_11 
REMARK    2  A    between atoms: N3_10  and  C2_13 
REMARK    3  A    between atoms: C2_13  and  C3_14 
REMARK    4  A    between atoms: C7_18  and  C8_19 
REMARK    5  A    between atoms: C8_19  and  C9_20 
ROOT
HETATM    1  C3  UNL     1      32.747  17.828  13.391  1.00  0.00    -0.042 A 
HETATM    2  C4  UNL     1      32.330  18.015  14.704  1.00  0.00     0.008 A 
HETATM    3  C5  UNL     1      31.524  17.094  15.341  1.00  0.00     0.001 A 
HETATM    4  C6  UNL     1      31.104  15.958  14.699  1.00  0.00     0.007 A 
HETATM    5  C7  UNL     1      31.505  15.753  13.405  1.00  0.00    -0.053 A 
HETATM    6  C15 UNL     1      32.303  16.671  12.778  1.00  0.00     0.015 A 
ENDROOT
BRANCH   1   7
HETATM    7  C2  UNL     1      33.612  18.794  12.676  1.00  0.00     0.163 C 
BRANCH   7   8
HETATM    8  N3  UNL     1      33.351  20.161  13.082  1.00  0.00    -0.141 NA
HETATM    9  C1  UNL     1      34.603  20.892  13.080  1.00  0.00     0.479 C 
HETATM   10  N1  UNL     1      35.520  20.165  13.936  1.00  0.00    -0.035 N 
HETATM   11  N2  UNL     1      34.468  22.231  13.560  1.00  0.00    -0.035 N 
ATOM     12  H13 UNL     1      36.421  20.635  14.026  1.00  0.00     0.278 HD
ATOM     13  H12 UNL     1      35.241  20.198  14.916  1.00  0.00     0.278 HD
ATOM     14  H11 UNL     1      35.617  19.209  13.593  1.00  0.00     0.278 HD
ATOM     15  H23 UNL     1      34.189  22.264  14.540  1.00  0.00     0.278 HD
ATOM     16  H22 UNL     1      35.368  22.702  13.649  1.00  0.00     0.278 HD
ATOM     17  H21 UNL     1      33.822  22.743  12.958  1.00  0.00     0.278 HD
BRANCH   8  18
HETATM   18  O1  UNL     1      32.417  20.752  12.312  1.00  0.00    -0.309 OA
ATOM     19  H1  UNL     1      31.540  20.622  12.651  1.00  0.00     0.237 HD
ENDBRANCH   8  18
ENDBRANCH   7   8
ENDBRANCH   1   7
BRANCH   5  20
HETATM   20  C8  UNL     1      31.103  14.551  12.619  1.00  0.00     0.077 C 
BRANCH  20  21
HETATM   21  C9  UNL     1      29.705  14.605  12.177  1.00  0.00    -0.054 A 
HETATM   22  C10 UNL     1      28.752  13.800  12.766  1.00  0.00     0.007 A 
HETATM   23  C11 UNL     1      27.431  13.848  12.351  1.00  0.00     0.001 A 
HETATM   24  C12 UNL     1      27.045  14.713  11.332  1.00  0.00     0.000 A 
HETATM   25  C13 UNL     1      27.982  15.506  10.750  1.00  0.00     0.001 A 
HETATM   26  C14 UNL     1      29.304  15.451  11.171  1.00  0.00     0.007 A 
ENDBRANCH  20  21
ENDBRANCH   5  20
TORSDOF 5
ENDMDL
MODEL 3
REMARK VINA RESULT: -8.988080045      1.430      1.792
REMARK  5 active torsions:
REMARK  status: ('A' for Active; 'I' for Inactive)
REMARK       I    between atoms: N1_1  and  C1_5 
REMARK       I    between atoms: C1_5  and  N2_6 
REMARK       I    between atoms: C1_5  and  N3_10 
REMARK    1  A    between atoms: N3_10  and  O1_11 
REMARK    2  A    between atoms: N3_10  and  C2_13 
REMARK    3  A    between atoms: C2_13  and  C3_14 
REMARK    4  A    between atoms: C7_18  and  C8_19 
REMARK    5  A    between atoms: C8_19  and  C9_20 
ROOT
HETATM    1  C3  UNL     1      32.751  17.660  12.911  1.00  0.00    -0.042 A 
HETATM    2  C4  UNL     1      32.702  18.342  14.121  1.00  0.00     0.008 A 
HETATM    3  C5  UNL     1      31.992  17.850  15.197  1.00  0.00     0.001 A 
HETATM    4  C6  UNL     1      31.305  16.666  15.109  1.00  0.00     0.007 A 
HETATM    5  C7  UNL     1      31.339  15.978  13.925  1.00  0.00    -0.053 A 
HETATM    6  C15 UNL     1      32.046  16.472  12.861  1.00  0.00     0.015 A 
ENDROOT
BRANCH   1   7
HETATM    7  C2  UNL     1      33.503  18.157  11.737  1.00  0.00     0.163 C 
BRANCH   7   8
HETATM    8  N3  UNL     1      33.895  19.544  11.890  1.00  0.00    -0.141 NA
HETATM    9  C1  UNL     1      35.271  19.688  11.453  1.00  0.00     0.479 C 
HETATM   10  N1  UNL     1      36.059  18.742  12.219  1.00  0.00    -0.035 N 
HETATM   11  N2  UNL     1      35.785  21.006  11.655  1.00  0.00    -0.035 N 
ATOM     12  H13 UNL     1      37.054  18.804  12.004  1.00  0.00     0.278 HD
ATOM     13  H12 UNL     1      36.108  18.990  13.207  1.00  0.00     0.278 HD
ATOM     14  H11 UNL     1      35.692  17.801  12.075  1.00  0.00     0.278 HD
ATOM     15  H23 UNL     1      35.834  21.254  12.643  1.00  0.00     0.278 HD
ATOM     16  H22 UNL     1      36.780  21.068  11.440  1.00  0.00     0.278 HD
ATOM     17  H21 UNL     1      35.230  21.672  11.117  1.00  0.00     0.278 HD
BRANCH   8  18
HETATM   18  O1  UNL     1      33.067  20.383  11.239  1.00  0.00    -0.309 OA
ATOM     19  H1  UNL     1      33.054  21.248  11.631  1.00  0.00     0.237 HD
ENDBRANCH   8  18
ENDBRANCH   7   8
ENDBRANCH   1   7
BRANCH   5  20
HETATM   20  C8  UNL     1      30.627  14.683  13.726  1.00  0.00     0.077 C 
BRANCH  20  21
HETATM   21  C9  UNL     1      29.778  14.684  12.529  1.00  0.00    -0.054 A 
HETATM   22  C10 UNL     1      29.850  13.650  11.618  1.00  0.00     0.007 A 
HETATM   23  C11 UNL     1      29.050  13.647  10.486  1.00  0.00     0.001 A 
HETATM   24  C12 UNL     1      28.160  14.691  10.251  1.00  0.00     0.000 A 
HETATM   25  C13 UNL     1      28.088  15.710  11.147  1.00  0.00     0.001 A 
HETATM   26  C14 UNL     1      28.893  15.705  12.278  1.00  0.00     0.007 A 
ENDBRANCH  20  21
ENDBRANCH   5  20
TORSDOF 5
ENDMDL
MODEL 4
REMARK VINA RESULT: -8.676516388      1.451      1.768
REMARK  5 active torsions:
REMARK  status: ('A' for Active; 'I' for Inactive)
REMARK       I    between atoms: N1_1  and  C1_5 
REMARK       I    between atoms: C1_5  and  N2_6 
REMARK       I    between atoms: C1_5  and  N3_10 
REMARK    1  A    between atoms: N3_10  and  O1_11 
REMARK    2  A    between atoms: N3_10  and  C2_13 
REMARK    3  A    between atoms: C2_13  and  C3_14 
REMARK    4  A    between atoms: C7_18  and  C8_19 
REMARK    5  A    between atoms: C8_19  and  C9_20 
ROOT
HETATM    1  C3  UNL     1      32.876  17.652  12.863  1.00  0.00    -0.042 A 
HETATM    2  C4  UNL     1      32.781  18.380  14.044  1.00  0.00     0.008 A 
HETATM    3  C5  UNL     1      32.024  17.931  15.107  1.00  0.00     0.001 A 
HETATM    4  C6  UNL     1      31.336  16.748  15.035  1.00  0.00     0.007 A 
HETATM    5  C7  UNL     1      31.415  16.014  13.881  1.00  0.00    -0.053 A 
HETATM    6  C15 UNL     1      32.167  16.465  12.830  1.00  0.00     0.015 A 
ENDROOT
BRANCH   1   7
HETATM    7  C2  UNL     1      33.678  18.101  11.703  1.00  0.00     0.163 C 
BRANCH   7   8
HETATM    8  N3  UNL     1      34.958  17.427  11.634  1.00  0.00    -0.141 NA
HETATM    9  C1  UNL     1      35.755  18.047  10.593  1.00  0.00     0.479 C 
HETATM   10  N1  UNL     1      34.971  17.996   9.373  1.00  0.00    -0.035 N 
HETATM   11  N2  UNL     1      37.005  17.390  10.380  1.00  0.00    -0.035 N 
ATOM     12  H13 UNL     1      35.476  18.377   8.573  1.00  0.00     0.278 HD
ATOM     13  H12 UNL     1      34.853  17.043   9.030  1.00  0.00     0.278 HD
ATOM     14  H11 UNL     1      34.078  18.466   9.525  1.00  0.00     0.278 HD
ATOM     15  H23 UNL     1      36.887  16.436  10.037  1.00  0.00     0.278 HD
ATOM     16  H22 UNL     1      37.510  17.770   9.580  1.00  0.00     0.278 HD
ATOM     17  H21 UNL     1      37.556  17.425  11.238  1.00  0.00     0.278 HD
BRANCH   8  18
HETATM   18  O1  UNL     1      35.595  17.419  12.821  1.00  0.00    -0.309 OA
ATOM     19  H1  UNL     1      35.265  18.089  13.407  1.00  0.00     0.237 HD
ENDBRANCH   8  18
ENDBRANCH   7   8
ENDBRANCH   1   7
BRANCH   5  20
HETATM   20  C8  UNL     1      30.705  14.715  13.701  1.00  0.00     0.077 C 
BRANCH  20  21
HETATM   21  C9  UNL     1      29.830  14.707  12.524  1.00  0.00    -0.054 A 
HETATM   22  C10 UNL     1      29.868  13.658  11.629  1.00  0.00     0.007 A 
HETATM   23  C11 UNL     1      29.044  13.647  10.515  1.00  0.00     0.001 A 
HETATM   24  C12 UNL     1      28.163  14.699  10.282  1.00  0.00     0.000 A 
HETATM   25  C13 UNL     1      28.125  15.734  11.161  1.00  0.00     0.001 A 
HETATM   26  C14 UNL     1      28.954  15.737  12.275  1.00  0.00     0.007 A 
ENDBRANCH  20  21
ENDBRANCH   5  20
TORSDOF 5
ENDMDL
MODEL 5
REMARK VINA RESULT: -8.647649102      3.418      6.312
REMARK  5 active torsions:
REMARK  status: ('A' for Active; 'I' for Inactive)
REMARK       I    between atoms: N1_1  and  C1_5 
REMARK       I    between atoms: C1_5  and  N2_6 
REMARK       I    between atoms: C1_5  and  N3_10 
REMARK    1  A    between atoms: N3_10  and  O1_11 
REMARK    2  A    between atoms: N3_10  and  C2_13 
REMARK    3  A    between atoms: C2_13  and  C3_14 
REMARK    4  A    between atoms: C7_18  and  C8_19 
REMARK    5  A    between atoms: C8_19  and  C9_20 
ROOT
HETATM    1  C3  UNL     1      30.926  15.630  13.275  1.00  0.00    -0.042 A 
HETATM    2  C4  UNL     1      30.920  15.575  14.664  1.00  0.00     0.008 A 
HETATM    3  C5  UNL     1      31.518  16.558  15.426  1.00  0.00     0.001 A 
HETATM    4  C6  UNL     1      32.144  17.626  14.837  1.00  0.00     0.007 A 
HETATM    5  C7  UNL     1      32.162  17.700  13.470  1.00  0.00    -0.053 A 
HETATM    6  C15 UNL     1      31.567  16.722  12.719  1.00  0.00     0.015 A 
ENDROOT
BRANCH   1   7
HETATM    7  C2  UNL     1      30.294  14.595  12.426  1.00  0.00     0.163 C 
BRANCH   7   8
HETATM    8  N3  UNL     1      29.218  15.137  11.620  1.00  0.00    -0.141 NA
HETATM    9  C1  UNL     1      28.368  14.046  11.185  1.00  0.00     0.479 C 
HETATM   10  N1  UNL     1      29.221  13.091  10.503  1.00  0.00    -0.035 N 
HETATM   11  N2  UNL     1      27.327  14.466  10.302  1.00  0.00    -0.035 N 
ATOM     12  H13 UNL     1      28.695  12.304  10.125  1.00  0.00     0.278 HD
ATOM     13  H12 UNL     1      29.586  13.458   9.624  1.00  0.00     0.278 HD
ATOM     14  H11 UNL     1      29.965  12.791  11.134  1.00  0.00     0.278 HD
ATOM     15  H23 UNL     1      27.691  14.833   9.423  1.00  0.00     0.278 HD
ATOM     16  H22 UNL     1      26.801  13.679   9.924  1.00  0.00     0.278 HD
ATOM     17  H21 UNL     1      26.728  15.138  10.781  1.00  0.00     0.278 HD
BRANCH   8  18
HETATM   18  O1  UNL     1      28.525  16.091  12.271  1.00  0.00    -0.309 OA
ATOM     19  H1  UNL     1      28.060  15.744  13.023  1.00  0.00     0.237 HD
ENDBRANCH   8  18
ENDBRANCH   7   8
ENDBRANCH   1   7
BRANCH   5  20
HETATM   20  C8  UNL     1      32.816  18.820  12.732  1.00  0.00     0.077 C 
BRANCH  20  21
HETATM   21  C9  UNL     1      33.921  18.366  11.880  1.00  0.00    -0.054 A 
HETATM   22  C10 UNL     1      33.913  18.623  10.525  1.00  0.00     0.007 A 
HETATM   23  C11 UNL     1      34.954  18.196   9.716  1.00  0.00     0.001 A 
HETATM   24  C12 UNL     1      36.028  17.499  10.263  1.00  0.00     0.000 A 
HETATM   25  C13 UNL     1      36.037  17.243  11.598  1.00  0.00     0.001 A 
HETATM   26  C14 UNL     1      34.989  17.675  12.400  1.00  0.00     0.007 A 
ENDBRANCH  20  21
ENDBRANCH   5  20
TORSDOF 5
ENDMDL
