MODEL 1
REMARK VINA RESULT: -8.271989719      0.000      0.000
REMARK  5 active torsions:
REMARK  status: ('A' for Active; 'I' for Inactive)
REMARK    1  A    between atoms: C1_4  and  C2_6 
REMARK    2  A    between atoms: C4_10  and  C5_11 
REMARK    3  A    between atoms: C5_11  and  N4_12 
REMARK    4  A    between atoms: N4_12  and  C6_14 
REMARK    5  A    between atoms: C6_14  and  C7_15 
ROOT
HETATM    1  C2  UNL     1      33.143  18.942  13.636  1.00  0.00     0.042 A 
HETATM    2  C3  UNL     1      32.666  18.730  14.900  1.00  0.00     0.106 A 
HETATM    3  N3  UNL     1      31.981  17.589  15.210  1.00  0.00    -0.348 N 
ATOM      4  H3  UNL     1      31.640  17.461  16.163  1.00  0.00     0.167 HD
HETATM    5  C4  UNL     1      31.744  16.635  14.306  1.00  0.00     0.140 A 
HETATM    6  O1  UNL     1      32.225  16.855  13.068  1.00  0.00    -0.307 OA
HETATM    7  C13 UNL     1      32.878  17.903  12.706  1.00  0.00     0.160 A 
ENDROOT
BRANCH   5   8
HETATM    8  C5  UNL     1      30.998  15.379  14.500  1.00  0.00     0.203 C 
BRANCH   8   9
HETATM    9  N4  UNL     1      30.912  14.669  13.214  1.00  0.00    -0.391 N 
ATOM     10  H4  UNL     1      31.627  14.631  12.487  1.00  0.00     0.159 HD
BRANCH   9  11
HETATM   11  C6  UNL     1      29.622  14.040  13.188  1.00  0.00     0.094 C 
BRANCH  11  12
HETATM   12  C7  UNL     1      28.687  14.173  12.112  1.00  0.00    -0.021 A 
HETATM   13  C8  UNL     1      28.561  15.343  11.400  1.00  0.00     0.013 A 
HETATM   14  C9  UNL     1      27.557  15.461  10.470  1.00  0.00     0.001 A 
HETATM   15  C10 UNL     1      26.697  14.415  10.245  1.00  0.00     0.000 A 
HETATM   16  C11 UNL     1      26.824  13.238  10.957  1.00  0.00     0.001 A 
HETATM   17  C12 UNL     1      27.808  13.093  11.892  1.00  0.00     0.013 A 
ENDBRANCH  11  12
ENDBRANCH   9  11
ENDBRANCH   8   9
ENDBRANCH   5   8
BRANCH   1  18
HETATM   18  C1  UNL     1      33.811  20.157  13.187  1.00  0.00     0.123 C 
HETATM   19  N1  UNL     1      34.350  20.943  13.973  1.00  0.00    -0.387 N 
ATOM     20  H12 UNL     1      34.817  21.793  13.659  1.00  0.00     0.157 HD
ATOM     21  H11 UNL     1      34.355  20.673  14.957  1.00  0.00     0.157 HD
HETATM   22  N2  UNL     1      33.804  20.537  11.803  1.00  0.00    -0.082 NA
ENDBRANCH   1  18
TORSDOF 5
ENDMDL
MODEL 2
REMARK VINA RESULT: -8.261626554      0.131      1.137
REMARK  5 active torsions:
REMARK  status: ('A' for Active; 'I' for Inactive)
REMARK    1  A    between atoms: C1_4  and  C2_6 
REMARK    2  A    between atoms: C4_10  and  C5_11 
REMARK    3  A    between atoms: C5_11  and  N4_12 
REMARK    4  A    between atoms: N4_12  and  C6_14 
REMARK    5  A    between atoms: C6_14  and  C7_15 
ROOT
HETATM    1  C2  UNL     1      33.138  18.927  13.619  1.00  0.00     0.042 A 
HETATM    2  C3  UNL     1      32.677  18.690  14.884  1.00  0.00     0.106 A 
HETATM    3  N3  UNL     1      31.990  17.545  15.178  1.00  0.00    -0.348 N 
ATOM      4  H3  UNL     1      31.661  17.398  16.132  1.00  0.00     0.167 HD
HETATM    5  C4  UNL     1      31.736  16.613  14.256  1.00  0.00     0.140 A 
HETATM    6  O1  UNL     1      32.201  16.859  13.017  1.00  0.00    -0.307 OA
HETATM    7  C13 UNL     1      32.855  17.912  12.670  1.00  0.00     0.160 A 
ENDROOT
BRANCH   5   8
HETATM    8  C5  UNL     1      30.986  15.357  14.432  1.00  0.00     0.203 C 
BRANCH   8   9
HETATM    9  N4  UNL     1      30.925  14.651  13.142  1.00  0.00    -0.391 N 
ATOM     10  H4  UNL     1      31.626  14.668  12.401  1.00  0.00     0.159 HD
BRANCH   9  11
HETATM   11  C6  UNL     1      29.682  13.931  13.137  1.00  0.00     0.094 C 
BRANCH  11  12
HETATM   12  C7  UNL     1      28.619  14.176  12.210  1.00  0.00    -0.021 A 
HETATM   13  C8  UNL     1      27.637  13.244  11.970  1.00  0.00     0.013 A 
HETATM   14  C9  UNL     1      26.719  13.473  10.974  1.00  0.00     0.001 A 
HETATM   15  C10 UNL     1      26.776  14.628  10.235  1.00  0.00     0.000 A 
HETATM   16  C11 UNL     1      27.760  15.567  10.477  1.00  0.00     0.001 A 
HETATM   17  C12 UNL     1      28.689  15.365  11.456  1.00  0.00     0.013 A 
ENDBRANCH  11  12
ENDBRANCH   9  11
ENDBRANCH   8   9
ENDBRANCH   5   8
BRANCH   1  18
HETATM   18  C1  UNL     1      33.806  20.149  13.189  1.00  0.00     0.123 C 
HETATM   19  N1  UNL     1      34.334  20.930  13.988  1.00  0.00    -0.387 N 
ATOM     20  H12 UNL     1      34.801  21.784  13.687  1.00  0.00     0.157 HD
ATOM     21  H11 UNL     1      34.330  20.651  14.969  1.00  0.00     0.157 HD
HETATM   22  N2  UNL     1      33.812  20.542  11.808  1.00  0.00    -0.082 NA
ENDBRANCH   1  18
TORSDOF 5
ENDMDL
MODEL 3
REMARK VINA RESULT: -8.257158812      1.290      1.431
REMARK  5 active torsions:
REMARK  status: ('A' for Active; 'I' for Inactive)
REMARK    1  A    between atoms: C1_4  and  C2_6 
REMARK    2  A    between atoms: C4_10  and  C5_11 
REMARK    3  A    between atoms: C5_11  and  N4_12 
REMARK    4  A    between atoms: N4_12  and  C6_14 
REMARK    5  A    between atoms: C6_14  and  C7_15 
ROOT
HETATM    1  C2  UNL     1      33.437  19.024  12.466  1.00  0.00     0.042 A 
HETATM    2  C3  UNL     1      32.448  19.399  13.332  1.00  0.00     0.106 A 
HETATM    3  N3  UNL     1      31.778  18.469  14.078  1.00  0.00    -0.348 N 
ATOM      4  H3  UNL     1      31.046  18.782  14.715  1.00  0.00     0.167 HD
HETATM    5  C4  UNL     1      32.052  17.165  13.998  1.00  0.00     0.140 A 
HETATM    6  O1  UNL     1      33.033  16.812  13.146  1.00  0.00    -0.307 OA
HETATM    7  C13 UNL     1      33.704  17.632  12.416  1.00  0.00     0.160 A 
ENDROOT
BRANCH   5   8
HETATM    8  C5  UNL     1      31.390  16.062  14.719  1.00  0.00     0.203 C 
BRANCH   8   9
HETATM    9  N4  UNL     1      30.981  15.034  13.750  1.00  0.00    -0.391 N 
ATOM     10  H4  UNL     1      31.375  14.099  13.646  1.00  0.00     0.159 HD
BRANCH   9  11
HETATM   11  C6  UNL     1      29.914  15.610  12.980  1.00  0.00     0.094 C 
BRANCH  11  12
HETATM   12  C7  UNL     1      29.270  14.951  11.884  1.00  0.00    -0.021 A 
HETATM   13  C8  UNL     1      28.181  15.497  11.247  1.00  0.00     0.013 A 
HETATM   14  C9  UNL     1      27.519  14.764  10.293  1.00  0.00     0.001 A 
HETATM   15  C10 UNL     1      27.951  13.501   9.971  1.00  0.00     0.000 A 
HETATM   16  C11 UNL     1      29.047  12.952  10.607  1.00  0.00     0.001 A 
HETATM   17  C12 UNL     1      29.721  13.655  11.563  1.00  0.00     0.013 A 
ENDBRANCH  11  12
ENDBRANCH   9  11
ENDBRANCH   8   9
ENDBRANCH   5   8
BRANCH   1  18
HETATM   18  C1  UNL     1      34.151  19.926  11.571  1.00  0.00     0.123 C 
HETATM   19  N1  UNL     1      35.353  20.177  11.707  1.00  0.00    -0.387 N 
ATOM     20  H12 UNL     1      35.852  20.808  11.080  1.00  0.00     0.157 HD
ATOM     21  H11 UNL     1      35.843  19.675  12.448  1.00  0.00     0.157 HD
HETATM   22  N2  UNL     1      33.461  20.632  10.528  1.00  0.00    -0.082 NA
ENDBRANCH   1  18
TORSDOF 5
ENDMDL
MODEL 4
REMARK VINA RESULT: -8.252814558      1.324      1.695
REMARK  5 active torsions:
REMARK  status: ('A' for Active; 'I' for Inactive)
REMARK    1  A    between atoms: C1_4  and  C2_6 
REMARK    2  A    between atoms: C4_10  and  C5_11 
REMARK    3  A    between atoms: C5_11  and  N4_12 
REMARK    4  A    between atoms: N4_12  and  C6_14 
REMARK    5  A    between atoms: C6_14  and  C7_15 
ROOT
HETATM    1  C2  UNL     1      33.462  19.044  12.441  1.00  0.00     0.042 A 
HETATM    2  C3  UNL     1      32.469  19.448  13.289  1.00  0.00     0.106 A 
HETATM    3  N3  UNL     1      31.800  18.544  14.067  1.00  0.00    -0.348 N 
ATOM      4  H3  UNL     1      31.065  18.878  14.690  1.00  0.00     0.167 HD
HETATM    5  C4  UNL     1      32.077  17.239  14.037  1.00  0.00     0.140 A 
HETATM    6  O1  UNL     1      33.061  16.858  13.201  1.00  0.00    -0.307 OA
HETATM    7  C13 UNL     1      33.733  17.652  12.443  1.00  0.00     0.160 A 
ENDROOT
BRANCH   5   8
HETATM    8  C5  UNL     1      31.416  16.162  14.795  1.00  0.00     0.203 C 
BRANCH   8   9
HETATM    9  N4  UNL     1      31.040  15.084  13.868  1.00  0.00    -0.391 N 
ATOM     10  H4  UNL     1      31.441  14.147  13.823  1.00  0.00     0.159 HD
BRANCH   9  11
HETATM   11  C6  UNL     1      29.993  15.614  13.040  1.00  0.00     0.094 C 
BRANCH  11  12
HETATM   12  C7  UNL     1      29.300  14.857  12.041  1.00  0.00    -0.021 A 
HETATM   13  C8  UNL     1      29.727  13.609  11.651  1.00  0.00     0.013 A 
HETATM   14  C9  UNL     1      29.108  12.984  10.596  1.00  0.00     0.001 A 
HETATM   15  C10 UNL     1      28.064  13.597   9.947  1.00  0.00     0.000 A 
HETATM   16  C11 UNL     1      27.633  14.849  10.340  1.00  0.00     0.001 A 
HETATM   17  C12 UNL     1      28.232  15.496  11.381  1.00  0.00     0.013 A 
ENDBRANCH  11  12
ENDBRANCH   9  11
ENDBRANCH   8   9
ENDBRANCH   5   8
BRANCH   1  18
HETATM   18  C1  UNL     1      34.176  19.915  11.515  1.00  0.00     0.123 C 
HETATM   19  N1  UNL     1      35.391  20.121  11.606  1.00  0.00    -0.387 N 
ATOM     20  H12 UNL     1      35.890  20.730  10.958  1.00  0.00     0.157 HD
ATOM     21  H11 UNL     1      35.888  19.605  12.332  1.00  0.00     0.157 HD
HETATM   22  N2  UNL     1      33.476  20.641  10.493  1.00  0.00    -0.082 NA
ENDBRANCH   1  18
TORSDOF 5
ENDMDL
MODEL 5
REMARK VINA RESULT: -8.024266724      0.810      1.126
REMARK  5 active torsions:
REMARK  status: ('A' for Active; 'I' for Inactive)
REMARK    1  A    between atoms: C1_4  and  C2_6 
REMARK    2  A    between atoms: C4_10  and  C5_11 
REMARK    3  A    between atoms: C5_11  and  N4_12 
REMARK    4  A    between atoms: N4_12  and  C6_14 
REMARK    5  A    between atoms: C6_14  and  C7_15 
ROOT
HETATM    1  C2  UNL     1      33.301  19.061  13.422  1.00  0.00     0.042 A 
HETATM    2  C3  UNL     1      33.149  18.084  12.478  1.00  0.00     0.106 A 
HETATM    3  N3  UNL     1      32.468  16.933  12.761  1.00  0.00    -0.348 N 
ATOM      4  H3  UNL     1      32.372  16.225  12.035  1.00  0.00     0.167 HD
HETATM    5  C4  UNL     1      31.925  16.707  13.960  1.00  0.00     0.140 A 
HETATM    6  O1  UNL     1      32.077  17.681  14.877  1.00  0.00    -0.307 OA
HETATM    7  C13 UNL     1      32.704  18.788  14.679  1.00  0.00     0.160 A 
ENDROOT
BRANCH   5   8
HETATM    8  C5  UNL     1      31.196  15.505  14.404  1.00  0.00     0.203 C 
BRANCH   8   9
HETATM    9  N4  UNL     1      30.965  14.630  13.244  1.00  0.00    -0.391 N 
ATOM     10  H4  UNL     1      31.647  14.357  12.537  1.00  0.00     0.159 HD
BRANCH   9  11
HETATM   11  C6  UNL     1      29.585  14.236  13.308  1.00  0.00     0.094 C 
BRANCH  11  12
HETATM   12  C7  UNL     1      28.689  14.272  12.192  1.00  0.00    -0.021 A 
HETATM   13  C8  UNL     1      28.512  15.409  11.440  1.00  0.00     0.013 A 
HETATM   14  C9  UNL     1      27.542  15.430  10.467  1.00  0.00     0.001 A 
HETATM   15  C10 UNL     1      26.766  14.320  10.242  1.00  0.00     0.000 A 
HETATM   16  C11 UNL     1      26.945  13.176  10.995  1.00  0.00     0.001 A 
HETATM   17  C12 UNL     1      27.897  13.127  11.972  1.00  0.00     0.013 A 
ENDBRANCH  11  12
ENDBRANCH   9  11
ENDBRANCH   8   9
ENDBRANCH   5   8
BRANCH   1  18
HETATM   18  C1  UNL     1      34.076  20.282  13.243  1.00  0.00     0.123 C 
HETATM   19  N1  UNL     1      34.525  20.925  14.199  1.00  0.00    -0.387 N 
ATOM     20  H12 UNL     1      35.067  21.779  14.074  1.00  0.00     0.157 HD
ATOM     21  H11 UNL     1      34.375  20.528  15.127  1.00  0.00     0.157 HD
HETATM   22  N2  UNL     1      34.288  20.841  11.938  1.00  0.00    -0.082 NA
ENDBRANCH   1  18
TORSDOF 5
ENDMDL
