MODEL 1
REMARK VINA RESULT: -6.698776711      0.000      0.000
REMARK  5 active torsions:
REMARK  status: ('A' for Active; 'I' for Inactive)
REMARK       I    between atoms: C2_2  and  N1_4 
REMARK    1  A    between atoms: C4_7  and  C5_8 
REMARK       I    between atoms: C5_8  and  N3_10 
REMARK    2  A    between atoms: N3_10  and  N4_12 
REMARK    3  A    between atoms: N6_18  and  N7_20 
REMARK    4  A    between atoms: N7_20  and  C7_22 
REMARK    5  A    between atoms: C7_22  and  N8_23 
ROOT
HETATM    1  C1  UNL     1       3.853   7.330  12.215  1.00  0.00     0.119 C 
HETATM    2  C2  UNL     1       3.662   8.467  11.237  1.00  0.00     0.240 C 
HETATM    3  O1  UNL     1       4.453   8.562  10.271  1.00  0.00    -0.273 OA
HETATM    4  N1  UNL     1       2.607   9.403  11.418  1.00  0.00    -0.099 N 
HETATM    5  C3  UNL     1       1.721   9.334  12.463  1.00  0.00     0.175 A 
HETATM    6  N2  UNL     1       1.676   8.376  13.518  1.00  0.00    -0.079 NA
HETATM    7  C4  UNL     1       0.832  10.376  12.348  1.00  0.00     0.161 A 
HETATM    8  N5  UNL     1       1.141  11.080  11.270  1.00  0.00    -0.181 N 
ATOM      9  H5  UNL     1       0.658  11.911  10.931  1.00  0.00     0.184 HD
HETATM   10  C6  UNL     1       2.255  10.472  10.684  1.00  0.00     0.708 A 
HETATM   11  N6  UNL     1       2.725  10.977   9.639  1.00  0.00    -0.123 N 
ATOM     12  H6  UNL     1       2.199  11.803   9.353  1.00  0.00     0.206 HD
ENDROOT
BRANCH  11  13
HETATM   13  N7  UNL     1       3.716  10.725   8.812  1.00  0.00    -0.236 N 
ATOM     14  H7  UNL     1       3.621   9.960   8.145  1.00  0.00     0.199 HD
BRANCH  13  15
HETATM   15  C7  UNL     1       4.804  11.416   8.820  1.00  0.00     0.061 C 
BRANCH  15  16
HETATM   16  N8  UNL     1       5.805  12.200   8.840  1.00  0.00    -0.350 N 
ATOM     17  H82 UNL     1       5.251  12.683   8.132  1.00  0.00     0.167 HD
ATOM     18  H81 UNL     1       6.648  12.769   8.926  1.00  0.00     0.167 HD
ENDBRANCH  15  16
ENDBRANCH  13  15
ENDBRANCH  11  13
BRANCH   7  19
HETATM   19  C5  UNL     1      -0.271  10.635  13.289  1.00  0.00     0.295 C 
HETATM   20  O2  UNL     1      -1.469  10.512  12.937  1.00  0.00    -0.264 OA
HETATM   21  N3  UNL     1      -0.020  11.030  14.621  1.00  0.00    -0.204 N 
ATOM     22  H3  UNL     1       0.949  11.134  14.920  1.00  0.00     0.196 HD
BRANCH  21  23
HETATM   23  N4  UNL     1      -1.026  11.285  15.545  1.00  0.00    -0.036 N 
HETATM   24  O3  UNL     1      -1.552  10.413  16.261  1.00  0.00    -0.516 OA
HETATM   25  O4  UNL     1      -1.459  12.599  15.667  1.00  0.00    -0.516 OA
ENDBRANCH  21  23
ENDBRANCH   7  19
TORSDOF 5
ENDMDL
MODEL 2
REMARK VINA RESULT: -6.458486740      1.304      1.333
REMARK  5 active torsions:
REMARK  status: ('A' for Active; 'I' for Inactive)
REMARK       I    between atoms: C2_2  and  N1_4 
REMARK    1  A    between atoms: C4_7  and  C5_8 
REMARK       I    between atoms: C5_8  and  N3_10 
REMARK    2  A    between atoms: N3_10  and  N4_12 
REMARK    3  A    between atoms: N6_18  and  N7_20 
REMARK    4  A    between atoms: N7_20  and  C7_22 
REMARK    5  A    between atoms: C7_22  and  N8_23 
ROOT
HETATM    1  C1  UNL     1       3.764   8.278  13.845  1.00  0.00     0.119 C 
HETATM    2  C2  UNL     1       3.407   8.906  12.517  1.00  0.00     0.240 C 
HETATM    3  O1  UNL     1       4.091   8.605  11.512  1.00  0.00    -0.273 OA
HETATM    4  N1  UNL     1       2.320   9.817  12.420  1.00  0.00    -0.099 N 
HETATM    5  C3  UNL     1       1.548  10.173  13.497  1.00  0.00     0.175 A 
HETATM    6  N2  UNL     1       1.666   9.736  14.848  1.00  0.00    -0.079 NA
HETATM    7  C4  UNL     1       0.589  11.060  13.069  1.00  0.00     0.161 A 
HETATM    8  N5  UNL     1       0.747  11.260  11.770  1.00  0.00    -0.181 N 
ATOM      9  H5  UNL     1       0.181  11.869  11.179  1.00  0.00     0.184 HD
HETATM   10  C6  UNL     1       1.832  10.481  11.359  1.00  0.00     0.708 A 
HETATM   11  N6  UNL     1       2.164  10.516  10.152  1.00  0.00    -0.123 N 
ATOM     12  H6  UNL     1       1.562  11.142   9.616  1.00  0.00     0.206 HD
ENDROOT
BRANCH  11  13
HETATM   13  N7  UNL     1       3.082   9.960   9.392  1.00  0.00    -0.236 N 
ATOM     14  H7  UNL     1       3.009   8.966   9.176  1.00  0.00     0.199 HD
BRANCH  13  15
HETATM   15  C7  UNL     1       4.071  10.633   8.913  1.00  0.00     0.061 C 
BRANCH  15  16
HETATM   16  N8  UNL     1       5.119  11.243   8.530  1.00  0.00    -0.350 N 
ATOM     17  H82 UNL     1       4.636  12.032   8.959  1.00  0.00     0.167 HD
ATOM     18  H81 UNL     1       5.992  11.644   8.185  1.00  0.00     0.167 HD
ENDBRANCH  15  16
ENDBRANCH  13  15
ENDBRANCH  11  13
BRANCH   7  19
HETATM   19  C5  UNL     1      -0.429  11.668  13.942  1.00  0.00     0.295 C 
HETATM   20  O2  UNL     1      -1.610  11.830  13.550  1.00  0.00    -0.264 OA
HETATM   21  N3  UNL     1      -0.113  12.090  15.252  1.00  0.00    -0.204 N 
ATOM     22  H3  UNL     1       0.843  11.964  15.584  1.00  0.00     0.196 HD
BRANCH  21  23
HETATM   23  N4  UNL     1      -1.038  12.668  16.113  1.00  0.00    -0.036 N 
HETATM   24  O3  UNL     1      -1.911  12.028  16.728  1.00  0.00    -0.516 OA
HETATM   25  O4  UNL     1      -0.970  14.043  16.289  1.00  0.00    -0.516 OA
ENDBRANCH  21  23
ENDBRANCH   7  19
TORSDOF 5
ENDMDL
MODEL 3
REMARK VINA RESULT: -6.397164019      9.795     11.614
REMARK  5 active torsions:
REMARK  status: ('A' for Active; 'I' for Inactive)
REMARK       I    between atoms: C2_2  and  N1_4 
REMARK    1  A    between atoms: C4_7  and  C5_8 
REMARK       I    between atoms: C5_8  and  N3_10 
REMARK    2  A    between atoms: N3_10  and  N4_12 
REMARK    3  A    between atoms: N6_18  and  N7_20 
REMARK    4  A    between atoms: N7_20  and  C7_22 
REMARK    5  A    between atoms: C7_22  and  N8_23 
ROOT
HETATM    1  C1  UNL     1       6.463   8.834  17.202  1.00  0.00     0.119 C 
HETATM    2  C2  UNL     1       6.273   9.359  18.607  1.00  0.00     0.240 C 
HETATM    3  O1  UNL     1       6.068  10.584  18.762  1.00  0.00    -0.273 OA
HETATM    4  N1  UNL     1       6.329   8.476  19.719  1.00  0.00    -0.099 N 
HETATM    5  C3  UNL     1       6.553   7.128  19.590  1.00  0.00     0.175 A 
HETATM    6  N2  UNL     1       6.764   6.381  18.395  1.00  0.00    -0.079 NA
HETATM    7  C4  UNL     1       6.546   6.565  20.844  1.00  0.00     0.161 A 
HETATM    8  N5  UNL     1       6.326   7.519  21.736  1.00  0.00    -0.181 N 
ATOM      9  H5  UNL     1       6.267   7.400  22.746  1.00  0.00     0.184 HD
HETATM   10  C6  UNL     1       6.189   8.720  21.034  1.00  0.00     0.708 A 
HETATM   11  N6  UNL     1       5.973   9.767  21.685  1.00  0.00    -0.123 N 
ATOM     12  H6  UNL     1       5.927   9.582  22.687  1.00  0.00     0.206 HD
ENDROOT
BRANCH  11  13
HETATM   13  N7  UNL     1       5.791  11.042  21.420  1.00  0.00    -0.236 N 
ATOM     14  H7  UNL     1       5.456  11.312  20.495  1.00  0.00     0.199 HD
BRANCH  13  15
HETATM   15  C7  UNL     1       6.021  11.961  22.294  1.00  0.00     0.061 C 
BRANCH  15  16
HETATM   16  N8  UNL     1       6.359  12.809  23.179  1.00  0.00    -0.350 N 
ATOM     17  H82 UNL     1       7.248  12.315  23.099  1.00  0.00     0.167 HD
ATOM     18  H81 UNL     1       6.536  13.526  23.882  1.00  0.00     0.167 HD
ENDBRANCH  15  16
ENDBRANCH  13  15
ENDBRANCH  11  13
BRANCH   7  19
HETATM   19  C5  UNL     1       6.752   5.133  21.113  1.00  0.00     0.295 C 
HETATM   20  O2  UNL     1       5.989   4.262  20.628  1.00  0.00    -0.264 OA
HETATM   21  N3  UNL     1       7.818   4.686  21.925  1.00  0.00    -0.204 N 
ATOM     22  H3  UNL     1       8.446   5.382  22.325  1.00  0.00     0.196 HD
BRANCH  21  23
HETATM   23  N4  UNL     1       8.054   3.346  22.206  1.00  0.00    -0.036 N 
HETATM   24  O3  UNL     1       7.591   2.750  23.196  1.00  0.00    -0.516 OA
HETATM   25  O4  UNL     1       8.857   2.641  21.319  1.00  0.00    -0.516 OA
ENDBRANCH  21  23
ENDBRANCH   7  19
TORSDOF 5
ENDMDL
MODEL 4
REMARK VINA RESULT: -6.324396792      8.124      9.858
REMARK  5 active torsions:
REMARK  status: ('A' for Active; 'I' for Inactive)
REMARK       I    between atoms: C2_2  and  N1_4 
REMARK    1  A    between atoms: C4_7  and  C5_8 
REMARK       I    between atoms: C5_8  and  N3_10 
REMARK    2  A    between atoms: N3_10  and  N4_12 
REMARK    3  A    between atoms: N6_18  and  N7_20 
REMARK    4  A    between atoms: N7_20  and  C7_22 
REMARK    5  A    between atoms: C7_22  and  N8_23 
ROOT
HETATM    1  C1  UNL     1       8.303   8.721  16.780  1.00  0.00     0.119 C 
HETATM    2  C2  UNL     1       6.805   8.521  16.814  1.00  0.00     0.240 C 
HETATM    3  O1  UNL     1       6.122   8.969  15.864  1.00  0.00    -0.273 OA
HETATM    4  N1  UNL     1       6.194   7.840  17.902  1.00  0.00    -0.099 N 
HETATM    5  C3  UNL     1       6.906   7.336  18.961  1.00  0.00     0.175 A 
HETATM    6  N2  UNL     1       8.313   7.388  19.179  1.00  0.00    -0.079 NA
HETATM    7  C4  UNL     1       6.026   6.742  19.833  1.00  0.00     0.161 A 
HETATM    8  N5  UNL     1       4.800   6.863  19.346  1.00  0.00    -0.181 N 
ATOM      9  H5  UNL     1       3.942   6.519  19.775  1.00  0.00     0.184 HD
HETATM   10  C6  UNL     1       4.901   7.552  18.134  1.00  0.00     0.708 A 
HETATM   11  N6  UNL     1       3.851   7.782  17.493  1.00  0.00    -0.123 N 
ATOM     12  H6  UNL     1       3.031   7.414  17.974  1.00  0.00     0.206 HD
ENDROOT
BRANCH  11  13
HETATM   13  N7  UNL     1       3.525   8.371  16.363  1.00  0.00    -0.236 N 
ATOM     14  H7  UNL     1       4.266   8.653  15.721  1.00  0.00     0.199 HD
BRANCH  13  15
HETATM   15  C7  UNL     1       2.299   8.605  16.044  1.00  0.00     0.061 C 
BRANCH  15  16
HETATM   16  N8  UNL     1       1.056   8.750  15.816  1.00  0.00    -0.350 N 
ATOM     17  H82 UNL     1       1.260   8.057  15.095  1.00  0.00     0.167 HD
ATOM     18  H81 UNL     1       0.058   8.933  15.710  1.00  0.00     0.167 HD
ENDBRANCH  15  16
ENDBRANCH  13  15
ENDBRANCH  11  13
BRANCH   7  19
HETATM   19  C5  UNL     1       6.418   6.087  21.092  1.00  0.00     0.295 C 
HETATM   20  O2  UNL     1       5.873   6.391  22.181  1.00  0.00    -0.264 OA
HETATM   21  N3  UNL     1       7.421   5.094  21.119  1.00  0.00    -0.204 N 
ATOM     22  H3  UNL     1       7.872   4.838  20.242  1.00  0.00     0.196 HD
BRANCH  21  23
HETATM   23  N4  UNL     1       7.825   4.448  22.281  1.00  0.00    -0.036 N 
HETATM   24  O3  UNL     1       7.443   3.311  22.615  1.00  0.00    -0.516 OA
HETATM   25  O4  UNL     1       8.712   5.124  23.109  1.00  0.00    -0.516 OA
ENDBRANCH  21  23
ENDBRANCH   7  19
TORSDOF 5
ENDMDL
MODEL 5
REMARK VINA RESULT: -6.278819528      3.254      7.115
REMARK  5 active torsions:
REMARK  status: ('A' for Active; 'I' for Inactive)
REMARK       I    between atoms: C2_2  and  N1_4 
REMARK    1  A    between atoms: C4_7  and  C5_8 
REMARK       I    between atoms: C5_8  and  N3_10 
REMARK    2  A    between atoms: N3_10  and  N4_12 
REMARK    3  A    between atoms: N6_18  and  N7_20 
REMARK    4  A    between atoms: N7_20  and  C7_22 
REMARK    5  A    between atoms: C7_22  and  N8_23 
ROOT
HETATM    1  C1  UNL     1      -0.588   9.670  15.318  1.00  0.00     0.119 C 
HETATM    2  C2  UNL     1       0.677   9.249  16.032  1.00  0.00     0.240 C 
HETATM    3  O1  UNL     1       0.688   9.263  17.284  1.00  0.00    -0.273 OA
HETATM    4  N1  UNL     1       1.822   8.848  15.291  1.00  0.00    -0.099 N 
HETATM    5  C3  UNL     1       1.850   8.819  13.919  1.00  0.00     0.175 A 
HETATM    6  N2  UNL     1       0.808   9.165  13.010  1.00  0.00    -0.079 NA
HETATM    7  C4  UNL     1       3.092   8.389  13.519  1.00  0.00     0.161 A 
HETATM    8  N5  UNL     1       3.825   8.152  14.596  1.00  0.00    -0.181 N 
ATOM      9  H5  UNL     1       4.790   7.822  14.610  1.00  0.00     0.184 HD
HETATM   10  C6  UNL     1       3.032   8.439  15.710  1.00  0.00     0.708 A 
HETATM   11  N6  UNL     1       3.529   8.284  16.848  1.00  0.00    -0.123 N 
ATOM     12  H6  UNL     1       4.493   7.955  16.794  1.00  0.00     0.206 HD
ENDROOT
BRANCH  11  13
HETATM   13  N7  UNL     1       3.139   8.434  18.095  1.00  0.00    -0.236 N 
ATOM     14  H7  UNL     1       2.466   9.168  18.318  1.00  0.00     0.199 HD
BRANCH  13  15
HETATM   15  C7  UNL     1       3.579   7.682  19.044  1.00  0.00     0.061 C 
BRANCH  15  16
HETATM   16  N8  UNL     1       3.953   6.844  19.924  1.00  0.00    -0.350 N 
ATOM     17  H82 UNL     1       3.186   6.304  19.521  1.00  0.00     0.167 HD
ATOM     18  H81 UNL     1       4.324   6.238  20.657  1.00  0.00     0.167 HD
ENDBRANCH  15  16
ENDBRANCH  13  15
ENDBRANCH  11  13
BRANCH   7  19
HETATM   19  C5  UNL     1       3.503   8.229  12.115  1.00  0.00     0.295 C 
HETATM   20  O2  UNL     1       4.050   7.174  11.712  1.00  0.00    -0.264 OA
HETATM   21  N3  UNL     1       3.297   9.258  11.169  1.00  0.00    -0.204 N 
ATOM     22  H3  UNL     1       2.854  10.121  11.483  1.00  0.00     0.196 HD
BRANCH  21  23
HETATM   23  N4  UNL     1       3.667   9.154   9.834  1.00  0.00    -0.036 N 
HETATM   24  O3  UNL     1       4.729   9.607   9.368  1.00  0.00    -0.516 OA
HETATM   25  O4  UNL     1       2.788   8.502   8.980  1.00  0.00    -0.516 OA
ENDBRANCH  21  23
ENDBRANCH   7  19
TORSDOF 5
ENDMDL
