MODEL 1
REMARK VINA RESULT: -6.702046530      0.000      0.000
REMARK  4 active torsions:
REMARK  status: ('A' for Active; 'I' for Inactive)
REMARK    1  A    between atoms: C2_2  and  N1_3 
REMARK    2  A    between atoms: C3_4  and  N2_5 
REMARK    3  A    between atoms: C5_10  and  N4_11 
REMARK    4  A    between atoms: C7_23  and  N9_24 
ROOT
HETATM    1  N2  UNL     1       1.196  10.364  12.142  1.00  0.00    -0.025 N 
HETATM    2  N3  UNL     1       1.554  11.019  11.053  1.00  0.00    -0.252 N 
ATOM      3  H3  UNL     1       1.129  11.864  10.672  1.00  0.00     0.190 HD
HETATM    4  C4  UNL     1       2.621  10.322  10.544  1.00  0.00     0.194 A 
HETATM    5  S1  UNL     1       3.791  10.218   9.302  1.00  0.00    -0.013 SA
HETATM    6  C5  UNL     1       4.582   8.812   9.839  1.00  0.00     0.161 A 
HETATM    7  N5  UNL     1       3.899   8.505  10.944  1.00  0.00    -0.267 N 
ATOM      8  H5  UNL     1       4.147   7.688  11.501  1.00  0.00     0.190 HD
HETATM    9  N6  UNL     1       2.915   9.265  11.292  1.00  0.00    -0.177 N 
HETATM   10  C6  UNL     1       1.993   9.303  12.317  1.00  0.00     0.384 A 
HETATM   11  O1  UNL     1       1.850   8.522  13.286  1.00  0.00    -0.242 OA
ENDROOT
BRANCH   1  12
HETATM   12  C3  UNL     1       0.100  10.781  12.974  1.00  0.00     0.739 A 
HETATM   13  N1  UNL     1       0.098  11.605  14.029  1.00  0.00    -0.010 N 
HETATM   14  C7  UNL     1      -1.145  11.729  14.526  1.00  0.00     0.707 A 
HETATM   15  N8  UNL     1      -1.925  10.961  13.756  1.00  0.00    -0.117 N 
HETATM   16  N7  UNL     1      -1.175  10.386  12.815  1.00  0.00    -0.115 N 
ATOM     17  H8  UNL     1      -2.931  10.837  13.869  1.00  0.00     0.206 HD
ATOM     18  H7  UNL     1      -1.513   9.750  12.093  1.00  0.00     0.206 HD
BRANCH  13  19
HETATM   19  C2  UNL     1       1.278  12.258  14.543  1.00  0.00     0.162 C 
HETATM   20  C1  UNL     1       2.053  11.416  15.500  1.00  0.00     0.028 C 
ENDBRANCH  13  19
BRANCH  14  21
HETATM   21  N9  UNL     1      -1.492  12.446  15.537  1.00  0.00    -0.233 N 
ATOM     22  H92 UNL     1      -1.713  13.442  15.553  1.00  0.00     0.174 HD
ATOM     23  H91 UNL     1      -1.600  12.120  16.497  1.00  0.00     0.174 HD
ENDBRANCH  14  21
ENDBRANCH   1  12
BRANCH   6  24
HETATM   24  N4  UNL     1       5.606   8.183   9.309  1.00  0.00    -0.378 N 
ATOM     25  H42 UNL     1       6.337   8.556   8.703  1.00  0.00     0.158 HD
ATOM     26  H41 UNL     1       5.874   7.202   9.394  1.00  0.00     0.158 HD
ENDBRANCH   6  24
TORSDOF 4
ENDMDL
MODEL 2
REMARK VINA RESULT: -6.630377698      2.290      5.861
REMARK  4 active torsions:
REMARK  status: ('A' for Active; 'I' for Inactive)
REMARK    1  A    between atoms: C2_2  and  N1_3 
REMARK    2  A    between atoms: C3_4  and  N2_5 
REMARK    3  A    between atoms: C5_10  and  N4_11 
REMARK    4  A    between atoms: C7_23  and  N9_24 
ROOT
HETATM    1  N2  UNL     1       1.383  10.183  12.265  1.00  0.00    -0.025 N 
HETATM    2  N3  UNL     1       1.274  11.384  12.803  1.00  0.00    -0.252 N 
ATOM      3  H3  UNL     1       1.802  12.221  12.558  1.00  0.00     0.190 HD
HETATM    4  C4  UNL     1       0.298  11.267  13.761  1.00  0.00     0.194 A 
HETATM    5  S1  UNL     1      -0.610  12.061  14.972  1.00  0.00    -0.013 SA
HETATM    6  C5  UNL     1      -1.552  10.735  15.468  1.00  0.00     0.161 A 
HETATM    7  N5  UNL     1      -1.112   9.759  14.672  1.00  0.00    -0.267 N 
ATOM      8  H5  UNL     1      -1.501   8.818  14.736  1.00  0.00     0.190 HD
HETATM    9  N6  UNL     1      -0.184  10.031  13.817  1.00  0.00    -0.177 N 
HETATM   10  C6  UNL     1       0.521   9.343  12.851  1.00  0.00     0.384 A 
HETATM   11  O1  UNL     1       0.436   8.141  12.512  1.00  0.00    -0.242 OA
ENDROOT
BRANCH   1  12
HETATM   12  C3  UNL     1       2.312   9.886  11.209  1.00  0.00     0.739 A 
HETATM   13  N1  UNL     1       3.437   9.162  11.243  1.00  0.00    -0.010 N 
HETATM   14  C7  UNL     1       4.014   9.134  10.029  1.00  0.00     0.707 A 
HETATM   15  N8  UNL     1       3.222   9.858   9.230  1.00  0.00    -0.117 N 
HETATM   16  N7  UNL     1       2.190  10.316   9.941  1.00  0.00    -0.115 N 
ATOM     17  H8  UNL     1       3.381  10.033   8.238  1.00  0.00     0.206 HD
ATOM     18  H7  UNL     1       1.433  10.897   9.581  1.00  0.00     0.206 HD
BRANCH  13  19
HETATM   19  C2  UNL     1       3.941   8.512  12.429  1.00  0.00     0.162 C 
HETATM   20  C1  UNL     1       4.303   9.464  13.518  1.00  0.00     0.028 C 
ENDBRANCH  13  19
BRANCH  14  21
HETATM   21  N9  UNL     1       5.105   8.526   9.720  1.00  0.00    -0.233 N 
ATOM     22  H92 UNL     1       5.948   8.425  10.285  1.00  0.00     0.174 HD
ATOM     23  H91 UNL     1       5.298   8.042   8.842  1.00  0.00     0.174 HD
ENDBRANCH  14  21
ENDBRANCH   1  12
BRANCH   6  24
HETATM   24  N4  UNL     1      -2.479  10.679  16.398  1.00  0.00    -0.378 N 
ATOM     25  H42 UNL     1      -2.880  11.442  16.943  1.00  0.00     0.158 HD
ATOM     26  H41 UNL     1      -2.980   9.867  16.759  1.00  0.00     0.158 HD
ENDBRANCH   6  24
TORSDOF 4
ENDMDL
MODEL 3
REMARK VINA RESULT: -6.527944674      3.806      5.590
REMARK  4 active torsions:
REMARK  status: ('A' for Active; 'I' for Inactive)
REMARK    1  A    between atoms: C2_2  and  N1_3 
REMARK    2  A    between atoms: C3_4  and  N2_5 
REMARK    3  A    between atoms: C5_10  and  N4_11 
REMARK    4  A    between atoms: C7_23  and  N9_24 
ROOT
HETATM    1  N2  UNL     1       2.559   9.579  14.322  1.00  0.00    -0.025 N 
HETATM    2  N3  UNL     1       3.493  10.199  15.020  1.00  0.00    -0.252 N 
ATOM      3  H3  UNL     1       4.019  11.030  14.748  1.00  0.00     0.190 HD
HETATM    4  C4  UNL     1       3.606   9.487  16.188  1.00  0.00     0.194 A 
HETATM    5  S1  UNL     1       4.397   9.346  17.697  1.00  0.00    -0.013 SA
HETATM    6  C5  UNL     1       3.587   7.961  18.260  1.00  0.00     0.161 A 
HETATM    7  N5  UNL     1       2.754   7.689  17.252  1.00  0.00    -0.267 N 
ATOM      8  H5  UNL     1       2.121   6.891  17.300  1.00  0.00     0.190 HD
HETATM    9  N6  UNL     1       2.768   8.458  16.215  1.00  0.00    -0.177 N 
HETATM   10  C6  UNL     1       2.100   8.527  15.011  1.00  0.00     0.384 A 
HETATM   11  O1  UNL     1       1.205   7.779  14.555  1.00  0.00    -0.242 OA
ENDROOT
BRANCH   1  12
HETATM   12  C3  UNL     1       2.141  10.021  13.019  1.00  0.00     0.739 A 
HETATM   13  N1  UNL     1       2.757   9.890  11.838  1.00  0.00    -0.010 N 
HETATM   14  C7  UNL     1       2.021  10.448  10.861  1.00  0.00     0.707 A 
HETATM   15  N8  UNL     1       0.927  10.933  11.458  1.00  0.00    -0.117 N 
HETATM   16  N7  UNL     1       0.996  10.677  12.765  1.00  0.00    -0.115 N 
ATOM     17  H8  UNL     1       0.163  11.421  10.990  1.00  0.00     0.206 HD
ATOM     18  H7  UNL     1       0.294  10.936  13.458  1.00  0.00     0.206 HD
BRANCH  13  19
HETATM   19  C2  UNL     1       4.032   9.237  11.663  1.00  0.00     0.162 C 
HETATM   20  C1  UNL     1       3.926   7.758  11.508  1.00  0.00     0.028 C 
ENDBRANCH  13  19
BRANCH  14  21
HETATM   21  N9  UNL     1       2.327  10.494   9.611  1.00  0.00    -0.233 N 
ATOM     22  H92 UNL     1       1.767  10.863   8.842  1.00  0.00     0.174 HD
ATOM     23  H91 UNL     1       3.193  10.159   9.191  1.00  0.00     0.174 HD
ENDBRANCH  14  21
ENDBRANCH   1  12
BRANCH   6  24
HETATM   24  N4  UNL     1       3.736   7.317  19.395  1.00  0.00    -0.378 N 
ATOM     25  H42 UNL     1       3.131   7.329  20.217  1.00  0.00     0.158 HD
ATOM     26  H41 UNL     1       4.481   6.682  19.682  1.00  0.00     0.158 HD
ENDBRANCH   6  24
TORSDOF 4
ENDMDL
MODEL 4
REMARK VINA RESULT: -6.494157242      2.094      6.062
REMARK  4 active torsions:
REMARK  status: ('A' for Active; 'I' for Inactive)
REMARK    1  A    between atoms: C2_2  and  N1_3 
REMARK    2  A    between atoms: C3_4  and  N2_5 
REMARK    3  A    between atoms: C5_10  and  N4_11 
REMARK    4  A    between atoms: C7_23  and  N9_24 
ROOT
HETATM    1  N2  UNL     1       1.891   9.650  12.628  1.00  0.00    -0.025 N 
HETATM    2  N3  UNL     1       1.974  10.871  13.123  1.00  0.00    -0.252 N 
ATOM      3  H3  UNL     1       2.756  11.521  13.040  1.00  0.00     0.190 HD
HETATM    4  C4  UNL     1       0.783  11.082  13.773  1.00  0.00     0.194 A 
HETATM    5  S1  UNL     1      -0.164  12.168  14.692  1.00  0.00    -0.013 SA
HETATM    6  C5  UNL     1      -1.529  11.176  14.899  1.00  0.00     0.161 A 
HETATM    7  N5  UNL     1      -1.175  10.065  14.248  1.00  0.00    -0.267 N 
ATOM      8  H5  UNL     1      -1.808   9.268  14.195  1.00  0.00     0.190 HD
HETATM    9  N6  UNL     1      -0.014  10.024  13.685  1.00  0.00    -0.177 N 
HETATM   10  C6  UNL     1       0.709   9.110  12.946  1.00  0.00     0.384 A 
HETATM   11  O1  UNL     1       0.393   7.952  12.588  1.00  0.00    -0.242 OA
ENDROOT
BRANCH   1  12
HETATM   12  C3  UNL     1       2.951   9.047  11.867  1.00  0.00     0.739 A 
HETATM   13  N1  UNL     1       3.481   9.425  10.697  1.00  0.00    -0.010 N 
HETATM   14  C7  UNL     1       4.460   8.580  10.330  1.00  0.00     0.707 A 
HETATM   15  N8  UNL     1       4.533   7.661  11.300  1.00  0.00    -0.117 N 
HETATM   16  N7  UNL     1       3.621   7.940  12.232  1.00  0.00    -0.115 N 
ATOM     17  H8  UNL     1       5.181   6.874  11.322  1.00  0.00     0.206 HD
ATOM     18  H7  UNL     1       3.457   7.402  13.082  1.00  0.00     0.206 HD
BRANCH  13  19
HETATM   19  C2  UNL     1       3.045  10.582   9.953  1.00  0.00     0.162 C 
HETATM   20  C1  UNL     1       4.087  11.643   9.839  1.00  0.00     0.028 C 
ENDBRANCH  13  19
BRANCH  14  21
HETATM   21  N9  UNL     1       5.171   8.659   9.260  1.00  0.00    -0.233 N 
ATOM     22  H92 UNL     1       4.966   8.266   8.341  1.00  0.00     0.174 HD
ATOM     23  H91 UNL     1       6.067   9.136   9.166  1.00  0.00     0.174 HD
ENDBRANCH  14  21
ENDBRANCH   1  12
BRANCH   6  24
HETATM   24  N4  UNL     1      -2.650  11.430  15.535  1.00  0.00    -0.378 N 
ATOM     25  H42 UNL     1      -3.438  12.000  15.231  1.00  0.00     0.158 HD
ATOM     26  H41 UNL     1      -2.954  11.111  16.455  1.00  0.00     0.158 HD
ENDBRANCH   6  24
TORSDOF 4
ENDMDL
MODEL 5
REMARK VINA RESULT: -6.343066896      1.465      1.639
REMARK  4 active torsions:
REMARK  status: ('A' for Active; 'I' for Inactive)
REMARK    1  A    between atoms: C2_2  and  N1_3 
REMARK    2  A    between atoms: C3_4  and  N2_5 
REMARK    3  A    between atoms: C5_10  and  N4_11 
REMARK    4  A    between atoms: C7_23  and  N9_24 
ROOT
HETATM    1  N2  UNL     1       1.163  10.251  12.625  1.00  0.00    -0.025 N 
HETATM    2  N3  UNL     1       1.725   9.128  13.034  1.00  0.00    -0.252 N 
ATOM      3  H3  UNL     1       1.478   8.577  13.856  1.00  0.00     0.190 HD
HETATM    4  C4  UNL     1       2.711   8.860  12.118  1.00  0.00     0.194 A 
HETATM    5  S1  UNL     1       3.964   7.798  11.645  1.00  0.00    -0.013 SA
HETATM    6  C5  UNL     1       4.466   8.631  10.250  1.00  0.00     0.161 A 
HETATM    7  N5  UNL     1       3.638   9.678  10.230  1.00  0.00    -0.267 N 
ATOM      8  H5  UNL     1       3.698  10.375   9.489  1.00  0.00     0.190 HD
HETATM    9  N6  UNL     1       2.760   9.788  11.169  1.00  0.00    -0.177 N 
HETATM   10  C6  UNL     1       1.760  10.677  11.506  1.00  0.00     0.384 A 
HETATM   11  O1  UNL     1       1.402  11.727  10.925  1.00  0.00    -0.242 OA
ENDROOT
BRANCH   1  12
HETATM   12  C3  UNL     1       0.072  10.874  13.326  1.00  0.00     0.739 A 
HETATM   13  N1  UNL     1       0.076  11.543  14.485  1.00  0.00    -0.010 N 
HETATM   14  C7  UNL     1      -1.164  11.965  14.788  1.00  0.00     0.707 A 
HETATM   15  N8  UNL     1      -1.948  11.544  13.789  1.00  0.00    -0.117 N 
HETATM   16  N7  UNL     1      -1.203  10.883  12.902  1.00  0.00    -0.115 N 
ATOM     17  H8  UNL     1      -2.953  11.703  13.717  1.00  0.00     0.206 HD
ATOM     18  H7  UNL     1      -1.546  10.454  12.042  1.00  0.00     0.206 HD
BRANCH  13  19
HETATM   19  C2  UNL     1       1.260  11.767  15.281  1.00  0.00     0.162 C 
HETATM   20  C1  UNL     1       1.507  10.700  16.292  1.00  0.00     0.028 C 
ENDBRANCH  13  19
BRANCH  14  21
HETATM   21  N9  UNL     1      -1.504  12.637  15.831  1.00  0.00    -0.233 N 
ATOM     22  H92 UNL     1      -0.989  13.390  16.288  1.00  0.00     0.174 HD
ATOM     23  H91 UNL     1      -2.359  12.515  16.374  1.00  0.00     0.174 HD
ENDBRANCH  14  21
ENDBRANCH   1  12
BRANCH   6  24
HETATM   24  N4  UNL     1       5.423   8.326   9.403  1.00  0.00    -0.378 N 
ATOM     25  H42 UNL     1       6.286   8.833   9.210  1.00  0.00     0.158 HD
ATOM     26  H41 UNL     1       5.493   7.528   8.771  1.00  0.00     0.158 HD
ENDBRANCH   6  24
TORSDOF 4
ENDMDL
