MODEL 1
REMARK VINA RESULT: -7.103649190      0.000      0.000
REMARK  3 active torsions:
REMARK  status: ('A' for Active; 'I' for Inactive)
REMARK    1  A    between atoms: N1_1  and  C1_4 
REMARK    2  A    between atoms: C3_8  and  N3_9 
REMARK    3  A    between atoms: N6_18  and  C6_19 
ROOT
HETATM    1  C1  UNL     1       1.561  10.265  12.191  1.00  0.00     0.684 A 
HETATM    2  N2  UNL     1       0.775  10.053  13.285  1.00  0.00    -0.172 N 
ATOM      3  H2  UNL     1      -0.192  10.376  13.288  1.00  0.00     0.186 HD
HETATM    4  C2  UNL     1       1.272   9.422  14.349  1.00  0.00     0.181 A 
HETATM    5  C3  UNL     1       0.681   9.088  15.573  1.00  0.00     0.166 A 
HETATM    6  C4  UNL     1       1.692   8.450  16.254  1.00  0.00     0.148 A 
HETATM    7  N4  UNL     1       2.790   8.418  15.480  1.00  0.00    -0.297 N 
ATOM      8  H4  UNL     1       3.681   8.001  15.749  1.00  0.00     0.186 HD
HETATM    9  N5  UNL     1       2.547   9.007  14.315  1.00  0.00    -0.185 N 
HETATM   10  C5  UNL     1       3.319   9.226  13.214  1.00  0.00     0.364 A 
HETATM   11  O3  UNL     1       4.484   8.808  13.274  1.00  0.00    -0.244 OA
HETATM   12  N6  UNL     1       2.827   9.865  12.130  1.00  0.00    -0.125 N 
ENDROOT
BRANCH  12  13
HETATM   13  C6  UNL     1       3.655  10.062  11.035  1.00  0.00     0.140 C 
HETATM   14  C7  UNL     1       3.433  11.367  10.271  1.00  0.00     0.055 C 
HETATM   15  C8  UNL     1       4.541  11.176   9.218  1.00  0.00     0.234 C 
HETATM   16  N7  UNL     1       4.701   9.763   9.041  1.00  0.00    -0.073 N 
HETATM   17  C9  UNL     1       3.675   9.120   9.905  1.00  0.00     0.258 C 
ATOM     18  H72 UNL     1       4.654   9.469   8.065  1.00  0.00     0.277 HD
ATOM     19  H71 UNL     1       5.649   9.436   9.224  1.00  0.00     0.277 HD
ENDBRANCH  12  13
BRANCH   1  20
HETATM   20  N1  UNL     1       1.041  10.864  11.214  1.00  0.00    -0.234 N 
ATOM     21  H12 UNL     1       1.203  11.861  11.081  1.00  0.00     0.174 HD
ATOM     22  H11 UNL     1       0.465  10.311  10.580  1.00  0.00     0.174 HD
ENDBRANCH   1  20
BRANCH   5  23
HETATM   23  N3  UNL     1      -0.651   9.358  15.982  1.00  0.00    -0.110 N 
HETATM   24  O1  UNL     1      -1.090   8.921  17.043  1.00  0.00    -0.532 OA
HETATM   25  O2  UNL     1      -1.472  10.118  15.189  1.00  0.00    -0.532 OA
ENDBRANCH   5  23
TORSDOF 3
ENDMDL
MODEL 2
REMARK VINA RESULT: -6.970627743      5.344      8.458
REMARK  3 active torsions:
REMARK  status: ('A' for Active; 'I' for Inactive)
REMARK    1  A    between atoms: N1_1  and  C1_4 
REMARK    2  A    between atoms: C3_8  and  N3_9 
REMARK    3  A    between atoms: N6_18  and  C6_19 
ROOT
HETATM    1  C1  UNL     1       4.202   6.867  20.032  1.00  0.00     0.684 A 
HETATM    2  N2  UNL     1       3.345   7.368  19.097  1.00  0.00    -0.172 N 
ATOM      3  H2  UNL     1       2.339   7.362  19.271  1.00  0.00     0.186 HD
HETATM    4  C2  UNL     1       3.821   7.865  17.956  1.00  0.00     0.181 A 
HETATM    5  C3  UNL     1       3.162   8.428  16.856  1.00  0.00     0.166 A 
HETATM    6  C4  UNL     1       4.188   8.752  15.998  1.00  0.00     0.148 A 
HETATM    7  N4  UNL     1       5.356   8.401  16.561  1.00  0.00    -0.297 N 
ATOM      8  H4  UNL     1       6.273   8.532  16.131  1.00  0.00     0.186 HD
HETATM    9  N5  UNL     1       5.148   7.860  17.754  1.00  0.00    -0.185 N 
HETATM   10  C5  UNL     1       5.991   7.356  18.698  1.00  0.00     0.364 A 
HETATM   11  O3  UNL     1       7.198   7.393  18.426  1.00  0.00    -0.244 OA
HETATM   12  N6  UNL     1       5.519   6.849  19.859  1.00  0.00    -0.125 N 
ENDROOT
BRANCH  12  13
HETATM   13  C6  UNL     1       6.420   6.348  20.788  1.00  0.00     0.140 C 
HETATM   14  C7  UNL     1       6.574   4.828  20.799  1.00  0.00     0.055 C 
HETATM   15  C8  UNL     1       7.644   4.743  21.904  1.00  0.00     0.234 C 
HETATM   16  N7  UNL     1       7.447   5.876  22.757  1.00  0.00    -0.073 N 
HETATM   17  C9  UNL     1       6.251   6.587  22.230  1.00  0.00     0.258 C 
ATOM     18  H72 UNL     1       7.371   5.631  23.745  1.00  0.00     0.277 HD
ATOM     19  H71 UNL     1       8.270   6.471  22.839  1.00  0.00     0.277 HD
ENDBRANCH  12  13
BRANCH   1  20
HETATM   20  N1  UNL     1       3.698   6.412  21.091  1.00  0.00    -0.234 N 
ATOM     21  H12 UNL     1       3.477   7.040  21.863  1.00  0.00     0.174 HD
ATOM     22  H11 UNL     1       3.527   5.407  21.133  1.00  0.00     0.174 HD
ENDBRANCH   1  20
BRANCH   5  23
HETATM   23  N3  UNL     1       1.763   8.607  16.698  1.00  0.00    -0.110 N 
HETATM   24  O1  UNL     1       1.081   9.097  17.594  1.00  0.00    -0.532 OA
HETATM   25  O2  UNL     1       1.151   8.231  15.530  1.00  0.00    -0.532 OA
ENDBRANCH   5  23
TORSDOF 3
ENDMDL
MODEL 3
REMARK VINA RESULT: -6.905876791      1.609      2.503
REMARK  3 active torsions:
REMARK  status: ('A' for Active; 'I' for Inactive)
REMARK    1  A    between atoms: N1_1  and  C1_4 
REMARK    2  A    between atoms: C3_8  and  N3_9 
REMARK    3  A    between atoms: N6_18  and  C6_19 
ROOT
HETATM    1  C1  UNL     1       3.003   9.519  12.939  1.00  0.00     0.684 A 
HETATM    2  N2  UNL     1       2.056   9.397  13.913  1.00  0.00    -0.172 N 
ATOM      3  H2  UNL     1       2.281   8.921  14.787  1.00  0.00     0.186 HD
HETATM    4  C2  UNL     1       0.837   9.901  13.722  1.00  0.00     0.181 A 
HETATM    5  C3  UNL     1      -0.291   9.906  14.551  1.00  0.00     0.166 A 
HETATM    6  C4  UNL     1      -1.236  10.571  13.803  1.00  0.00     0.148 A 
HETATM    7  N4  UNL     1      -0.693  10.925  12.626  1.00  0.00    -0.297 N 
ATOM      8  H4  UNL     1      -1.182  11.430  11.887  1.00  0.00     0.186 HD
HETATM    9  N5  UNL     1       0.570  10.523  12.563  1.00  0.00    -0.185 N 
HETATM   10  C5  UNL     1       1.528  10.636  11.601  1.00  0.00     0.364 A 
HETATM   11  O3  UNL     1       1.191  11.225  10.565  1.00  0.00    -0.244 OA
HETATM   12  N6  UNL     1       2.767  10.129  11.783  1.00  0.00    -0.125 N 
ENDROOT
BRANCH  12  13
HETATM   13  C6  UNL     1       3.706  10.272  10.771  1.00  0.00     0.140 C 
HETATM   14  C7  UNL     1       3.658  11.599  10.015  1.00  0.00     0.055 C 
HETATM   15  C8  UNL     1       4.840  11.332   9.065  1.00  0.00     0.234 C 
HETATM   16  N7  UNL     1       4.904   9.913   8.876  1.00  0.00    -0.073 N 
HETATM   17  C9  UNL     1       3.756   9.344   9.631  1.00  0.00     0.258 C 
ATOM     18  H72 UNL     1       4.925   9.635   7.895  1.00  0.00     0.277 HD
ATOM     19  H71 UNL     1       5.803   9.509   9.139  1.00  0.00     0.277 HD
ENDBRANCH  12  13
BRANCH   1  20
HETATM   20  N1  UNL     1       4.137   9.026  13.173  1.00  0.00    -0.234 N 
ATOM     21  H12 UNL     1       4.219   8.063  13.498  1.00  0.00     0.174 HD
ATOM     22  H11 UNL     1       4.947   9.627  13.023  1.00  0.00     0.174 HD
ENDBRANCH   1  20
BRANCH   5  23
HETATM   23  N3  UNL     1      -0.400   9.349  15.852  1.00  0.00    -0.110 N 
HETATM   24  O1  UNL     1       0.468   8.600  16.295  1.00  0.00    -0.532 OA
HETATM   25  O2  UNL     1      -1.485   9.642  16.636  1.00  0.00    -0.532 OA
ENDBRANCH   5  23
TORSDOF 3
ENDMDL
MODEL 4
REMARK VINA RESULT: -6.883072018      2.276      5.895
REMARK  3 active torsions:
REMARK  status: ('A' for Active; 'I' for Inactive)
REMARK    1  A    between atoms: N1_1  and  C1_4 
REMARK    2  A    between atoms: C3_8  and  N3_9 
REMARK    3  A    between atoms: N6_18  and  C6_19 
ROOT
HETATM    1  C1  UNL     1      -0.359  10.069  13.103  1.00  0.00     0.684 A 
HETATM    2  N2  UNL     1       0.667   9.760  12.261  1.00  0.00    -0.172 N 
ATOM      3  H2  UNL     1       0.613  10.014  11.275  1.00  0.00     0.186 HD
HETATM    4  C2  UNL     1       1.742   9.124  12.727  1.00  0.00     0.181 A 
HETATM    5  C3  UNL     1       2.908   8.700  12.079  1.00  0.00     0.166 A 
HETATM    6  C4  UNL     1       3.638   8.109  13.085  1.00  0.00     0.148 A 
HETATM    7  N4  UNL     1       2.944   8.185  14.233  1.00  0.00    -0.297 N 
ATOM      8  H4  UNL     1       3.261   7.821  15.131  1.00  0.00     0.186 HD
HETATM    9  N5  UNL     1       1.786   8.801  14.029  1.00  0.00    -0.185 N 
HETATM   10  C5  UNL     1       0.752   9.118  14.858  1.00  0.00     0.364 A 
HETATM   11  O3  UNL     1       0.880   8.781  16.042  1.00  0.00    -0.244 OA
HETATM   12  N6  UNL     1      -0.343   9.762  14.396  1.00  0.00    -0.125 N 
ENDROOT
BRANCH  12  13
HETATM   13  C6  UNL     1      -1.368  10.062  15.282  1.00  0.00     0.140 C 
HETATM   14  C7  UNL     1      -1.348  11.480  15.851  1.00  0.00     0.055 C 
HETATM   15  C8  UNL     1      -2.623  11.370  16.708  1.00  0.00     0.234 C 
HETATM   16  N7  UNL     1      -2.752   9.993  17.081  1.00  0.00    -0.073 N 
HETATM   17  C9  UNL     1      -1.556   9.302  16.527  1.00  0.00     0.258 C 
ATOM     18  H72 UNL     1      -2.874   9.853  18.084  1.00  0.00     0.277 HD
ATOM     19  H71 UNL     1      -3.634   9.574  16.789  1.00  0.00     0.277 HD
ENDBRANCH  12  13
BRANCH   1  20
HETATM   20  N1  UNL     1      -1.348  10.671  12.610  1.00  0.00    -0.234 N 
ATOM     21  H12 UNL     1      -1.213  11.346  11.858  1.00  0.00     0.174 HD
ATOM     22  H11 UNL     1      -2.267  10.452  12.994  1.00  0.00     0.174 HD
ENDBRANCH   1  20
BRANCH   5  23
HETATM   23  N3  UNL     1       3.230   8.860  10.706  1.00  0.00    -0.110 N 
HETATM   24  O1  UNL     1       2.795   9.810  10.060  1.00  0.00    -0.532 OA
HETATM   25  O2  UNL     1       4.036   7.946  10.079  1.00  0.00    -0.532 OA
ENDBRANCH   5  23
TORSDOF 3
ENDMDL
MODEL 5
REMARK VINA RESULT: -6.816527011      1.360      1.526
REMARK  3 active torsions:
REMARK  status: ('A' for Active; 'I' for Inactive)
REMARK    1  A    between atoms: N1_1  and  C1_4 
REMARK    2  A    between atoms: C3_8  and  N3_9 
REMARK    3  A    between atoms: N6_18  and  C6_19 
ROOT
HETATM    1  C1  UNL     1       1.599   8.824  13.039  1.00  0.00     0.684 A 
HETATM    2  N2  UNL     1       0.834   8.901  14.165  1.00  0.00    -0.172 N 
ATOM      3  H2  UNL     1      -0.184   8.865  14.094  1.00  0.00     0.186 HD
HETATM    4  C2  UNL     1       1.415   9.021  15.358  1.00  0.00     0.181 A 
HETATM    5  C3  UNL     1       0.862   9.118  16.641  1.00  0.00     0.166 A 
HETATM    6  C4  UNL     1       1.964   9.220  17.458  1.00  0.00     0.148 A 
HETATM    7  N4  UNL     1       3.075   9.186  16.703  1.00  0.00    -0.297 N 
ATOM      8  H4  UNL     1       4.027   9.246  17.064  1.00  0.00     0.186 HD
HETATM    9  N5  UNL     1       2.755   9.065  15.421  1.00  0.00    -0.185 N 
HETATM   10  C5  UNL     1       3.505   8.988  14.286  1.00  0.00     0.364 A 
HETATM   11  O3  UNL     1       4.733   9.036  14.441  1.00  0.00    -0.244 OA
HETATM   12  N6  UNL     1       2.927   8.865  13.071  1.00  0.00    -0.125 N 
ENDROOT
BRANCH  12  13
HETATM   13  C6  UNL     1       3.736   8.790  11.947  1.00  0.00     0.140 C 
HETATM   14  C7  UNL     1       3.314   9.673  10.774  1.00  0.00     0.055 C 
HETATM   15  C8  UNL     1       4.465   9.303   9.819  1.00  0.00     0.234 C 
HETATM   16  N7  UNL     1       4.868   7.971  10.157  1.00  0.00    -0.073 N 
HETATM   17  C9  UNL     1       3.946   7.520  11.234  1.00  0.00     0.258 C 
ATOM     18  H72 UNL     1       4.897   7.340   9.355  1.00  0.00     0.277 HD
ATOM     19  H71 UNL     1       5.853   7.897  10.409  1.00  0.00     0.277 HD
ENDBRANCH  12  13
BRANCH   1  20
HETATM   20  N1  UNL     1       0.998   8.710  11.939  1.00  0.00    -0.234 N 
ATOM     21  H12 UNL     1       0.676   7.795  11.625  1.00  0.00     0.174 HD
ATOM     22  H11 UNL     1       0.854   9.560  11.395  1.00  0.00     0.174 HD
ENDBRANCH   1  20
BRANCH   5  23
HETATM   23  N3  UNL     1      -0.516   9.108  16.981  1.00  0.00    -0.110 N 
HETATM   24  O1  UNL     1      -0.911   8.565  18.010  1.00  0.00    -0.532 OA
HETATM   25  O2  UNL     1      -1.431   9.710  16.156  1.00  0.00    -0.532 OA
ENDBRANCH   5  23
TORSDOF 3
ENDMDL
