MODEL 1
REMARK VINA RESULT: -6.416052314      0.000      0.000
REMARK  3 active torsions:
REMARK  status: ('A' for Active; 'I' for Inactive)
REMARK    1  A    between atoms: N1_1  and  C1_4 
REMARK    2  A    between atoms: C2_6  and  C3_7 
REMARK       I    between atoms: N5_17  and  C5_18 
REMARK       I    between atoms: C5_18  and  N6_20 
REMARK    3  A    between atoms: N6_20  and  N7_22 
ROOT
HETATM    1  C1  UNL     1       6.007   7.731  18.612  1.00  0.00     0.171 A 
HETATM    2  S1  UNL     1       5.307   8.288  17.125  1.00  0.00    -0.029 SA
HETATM    3  C2  UNL     1       3.679   8.134  17.573  1.00  0.00     0.138 A 
HETATM    4  N4  UNL     1       3.771   7.685  18.780  1.00  0.00    -0.278 N 
ATOM      5  H4  UNL     1       2.920   7.494  19.309  1.00  0.00     0.188 HD
HETATM    6  N5  UNL     1       4.921   7.471  19.332  1.00  0.00    -0.180 N 
HETATM    7  C5  UNL     1       4.939   6.966  20.690  1.00  0.00     0.361 C 
HETATM    8  O2  UNL     1       3.829   6.745  21.307  1.00  0.00    -0.243 OA
HETATM    9  N6  UNL     1       6.089   6.685  21.422  1.00  0.00    -0.256 N 
ATOM     10  H6  UNL     1       7.004   6.837  20.996  1.00  0.00     0.191 HD
ENDROOT
BRANCH   3  11
HETATM   11  C3  UNL     1       2.446   8.439  16.778  1.00  0.00     0.150 A 
HETATM   12  N2  UNL     1       2.293   8.025  15.555  1.00  0.00    -0.300 N 
HETATM   13  C4  UNL     1       1.189   8.322  14.901  1.00  0.00     0.305 A 
ATOM     14  H2  UNL     1       3.023   7.475  15.104  1.00  0.00     0.171 HD
HETATM   15  O1  UNL     1       0.863   8.006  13.701  1.00  0.00    -0.258 OA
HETATM   16  S2  UNL     1       0.329   9.224  16.069  1.00  0.00     0.049 SA
HETATM   17  N3  UNL     1       1.452   9.157  17.320  1.00  0.00    -0.306 N 
ATOM     18  H3  UNL     1       1.392   9.562  18.255  1.00  0.00     0.176 HD
ENDBRANCH   3  11
BRANCH   1  19
HETATM   19  N1  UNL     1       7.281   7.620  18.884  1.00  0.00    -0.378 N 
ATOM     20  H12 UNL     1       8.047   8.292  18.841  1.00  0.00     0.158 HD
ATOM     21  H11 UNL     1       7.765   6.783  19.209  1.00  0.00     0.158 HD
ENDBRANCH   1  19
BRANCH   9  22
HETATM   22  N7  UNL     1       6.010   6.191  22.754  1.00  0.00    -0.341 N 
ATOM     23  H72 UNL     1       5.999   6.862  23.522  1.00  0.00     0.177 HD
ATOM     24  H71 UNL     1       5.966   5.189  22.942  1.00  0.00     0.177 HD
ENDBRANCH   9  22
TORSDOF 3
ENDMDL
MODEL 2
REMARK VINA RESULT: -6.337111711      1.865      2.287
REMARK  3 active torsions:
REMARK  status: ('A' for Active; 'I' for Inactive)
REMARK    1  A    between atoms: N1_1  and  C1_4 
REMARK    2  A    between atoms: C2_6  and  C3_7 
REMARK       I    between atoms: N5_17  and  C5_18 
REMARK       I    between atoms: C5_18  and  N6_20 
REMARK    3  A    between atoms: N6_20  and  N7_22 
ROOT
HETATM    1  C1  UNL     1       5.959   8.653  20.825  1.00  0.00     0.171 A 
HETATM    2  S1  UNL     1       5.295   9.552  19.497  1.00  0.00    -0.029 SA
HETATM    3  C2  UNL     1       4.786   8.229  18.566  1.00  0.00     0.138 A 
HETATM    4  N4  UNL     1       5.141   7.227  19.299  1.00  0.00    -0.278 N 
ATOM      5  H4  UNL     1       4.953   6.279  18.976  1.00  0.00     0.188 HD
HETATM    6  N5  UNL     1       5.731   7.404  20.437  1.00  0.00    -0.180 N 
HETATM    7  C5  UNL     1       6.099   6.228  21.200  1.00  0.00     0.361 C 
HETATM    8  O2  UNL     1       5.834   5.054  20.738  1.00  0.00    -0.243 OA
HETATM    9  N6  UNL     1       6.737   6.246  22.437  1.00  0.00    -0.256 N 
ATOM     10  H6  UNL     1       6.977   7.141  22.864  1.00  0.00     0.191 HD
ENDROOT
BRANCH   3  11
HETATM   11  C3  UNL     1       4.099   8.218  17.235  1.00  0.00     0.150 A 
HETATM   12  N2  UNL     1       2.803   8.226  17.126  1.00  0.00    -0.300 N 
HETATM   13  C4  UNL     1       2.251   8.215  15.930  1.00  0.00     0.305 A 
ATOM     14  H2  UNL     1       2.218   8.241  17.960  1.00  0.00     0.171 HD
HETATM   15  O1  UNL     1       1.004   8.221  15.627  1.00  0.00    -0.258 OA
HETATM   16  S2  UNL     1       3.625   8.194  14.916  1.00  0.00     0.049 SA
HETATM   17  N3  UNL     1       4.817   8.200  16.103  1.00  0.00    -0.306 N 
ATOM     18  H3  UNL     1       5.831   8.191  15.990  1.00  0.00     0.176 HD
ENDBRANCH   3  11
BRANCH   1  19
HETATM   19  N1  UNL     1       6.523   9.145  21.897  1.00  0.00    -0.378 N 
ATOM     20  H12 UNL     1       6.771  10.098  22.159  1.00  0.00     0.158 HD
ATOM     21  H11 UNL     1       6.836   8.622  22.716  1.00  0.00     0.158 HD
ENDBRANCH   1  19
BRANCH   9  22
HETATM   22  N7  UNL     1       7.060   5.038  23.116  1.00  0.00    -0.341 N 
ATOM     23  H72 UNL     1       6.394   4.668  23.794  1.00  0.00     0.177 HD
ATOM     24  H71 UNL     1       7.936   4.548  22.932  1.00  0.00     0.177 HD
ENDBRANCH   9  22
TORSDOF 3
ENDMDL
MODEL 3
REMARK VINA RESULT: -6.268447106      6.391      8.214
REMARK  3 active torsions:
REMARK  status: ('A' for Active; 'I' for Inactive)
REMARK    1  A    between atoms: N1_1  and  C1_4 
REMARK    2  A    between atoms: C2_6  and  C3_7 
REMARK       I    between atoms: N5_17  and  C5_18 
REMARK       I    between atoms: C5_18  and  N6_20 
REMARK    3  A    between atoms: N6_20  and  N7_22 
ROOT
HETATM    1  C1  UNL     1       3.162  10.642   9.938  1.00  0.00     0.171 A 
HETATM    2  S1  UNL     1       1.803  11.374  10.730  1.00  0.00    -0.029 SA
HETATM    3  C2  UNL     1       1.545  10.166  11.892  1.00  0.00     0.138 A 
HETATM    4  N4  UNL     1       2.476   9.316  11.612  1.00  0.00    -0.278 N 
ATOM      5  H4  UNL     1       2.561   8.465  12.168  1.00  0.00     0.188 HD
HETATM    6  N5  UNL     1       3.304   9.523  10.639  1.00  0.00    -0.180 N 
HETATM    7  C5  UNL     1       4.319   8.520  10.389  1.00  0.00     0.361 C 
HETATM    8  O2  UNL     1       4.376   7.465  11.126  1.00  0.00    -0.243 OA
HETATM    9  N6  UNL     1       5.281   8.593   9.385  1.00  0.00    -0.256 N 
ATOM     10  H6  UNL     1       5.297   9.401   8.762  1.00  0.00     0.191 HD
ENDROOT
BRANCH   3  11
HETATM   11  C3  UNL     1       0.507  10.097  12.970  1.00  0.00     0.150 A 
HETATM   12  N2  UNL     1       0.732   9.512  14.109  1.00  0.00    -0.300 N 
HETATM   13  C4  UNL     1      -0.217   9.480  15.022  1.00  0.00     0.305 A 
ATOM     14  H2  UNL     1       1.638   9.082  14.295  1.00  0.00     0.171 HD
HETATM   15  O1  UNL     1      -0.180   8.954  16.193  1.00  0.00    -0.258 OA
HETATM   16  S2  UNL     1      -1.482  10.313  14.235  1.00  0.00     0.049 SA
HETATM   17  N3  UNL     1      -0.702  10.646  12.782  1.00  0.00    -0.306 N 
ATOM     18  H3  UNL     1      -1.058  11.141  11.964  1.00  0.00     0.176 HD
ENDBRANCH   3  11
BRANCH   1  19
HETATM   19  N1  UNL     1       3.827  11.123   8.920  1.00  0.00    -0.378 N 
ATOM     20  H12 UNL     1       4.400  10.672   8.207  1.00  0.00     0.158 HD
ATOM     21  H11 UNL     1       3.892  12.103   8.641  1.00  0.00     0.158 HD
ENDBRANCH   1  19
BRANCH   9  22
HETATM   22  N7  UNL     1       6.243   7.558   9.212  1.00  0.00    -0.341 N 
ATOM     23  H72 UNL     1       6.195   6.985   8.370  1.00  0.00     0.177 HD
ATOM     24  H71 UNL     1       6.966   7.389   9.912  1.00  0.00     0.177 HD
ENDBRANCH   9  22
TORSDOF 3
ENDMDL
MODEL 4
REMARK VINA RESULT: -6.205567093      1.965      2.205
REMARK  3 active torsions:
REMARK  status: ('A' for Active; 'I' for Inactive)
REMARK    1  A    between atoms: N1_1  and  C1_4 
REMARK    2  A    between atoms: C2_6  and  C3_7 
REMARK       I    between atoms: N5_17  and  C5_18 
REMARK       I    between atoms: C5_18  and  N6_20 
REMARK    3  A    between atoms: N6_20  and  N7_22 
ROOT
HETATM    1  C1  UNL     1       6.031   8.633  20.865  1.00  0.00     0.171 A 
HETATM    2  S1  UNL     1       5.310   9.541  19.573  1.00  0.00    -0.029 SA
HETATM    3  C2  UNL     1       4.689   8.227  18.698  1.00  0.00     0.138 A 
HETATM    4  N4  UNL     1       5.057   7.222  19.420  1.00  0.00    -0.278 N 
ATOM      5  H4  UNL     1       4.812   6.277  19.123  1.00  0.00     0.188 HD
HETATM    6  N5  UNL     1       5.731   7.389  20.511  1.00  0.00    -0.180 N 
HETATM    7  C5  UNL     1       6.107   6.209  21.264  1.00  0.00     0.361 C 
HETATM    8  O2  UNL     1       5.768   5.041  20.837  1.00  0.00    -0.243 OA
HETATM    9  N6  UNL     1       6.830   6.218  22.453  1.00  0.00    -0.256 N 
ATOM     10  H6  UNL     1       7.131   7.109  22.850  1.00  0.00     0.191 HD
ENDROOT
BRANCH   3  11
HETATM   11  C3  UNL     1       3.911   8.226  17.417  1.00  0.00     0.150 A 
HETATM   12  N2  UNL     1       4.495   8.226  16.255  1.00  0.00    -0.300 N 
HETATM   13  C4  UNL     1       3.763   8.225  15.160  1.00  0.00     0.305 A 
ATOM     14  H2  UNL     1       5.512   8.225  16.192  1.00  0.00     0.171 HD
HETATM   15  O1  UNL     1       4.155   8.225  13.938  1.00  0.00    -0.258 OA
HETATM   16  S2  UNL     1       2.181   8.225  15.803  1.00  0.00     0.049 SA
HETATM   17  N3  UNL     1       2.571   8.226  17.440  1.00  0.00    -0.306 N 
ATOM     18  H3  UNL     1       1.945   8.226  18.246  1.00  0.00     0.176 HD
ENDBRANCH   3  11
BRANCH   1  19
HETATM   19  N1  UNL     1       6.686   9.116  21.889  1.00  0.00    -0.378 N 
ATOM     20  H12 UNL     1       6.964  10.066  22.132  1.00  0.00     0.158 HD
ATOM     21  H11 UNL     1       7.059   8.588  22.678  1.00  0.00     0.158 HD
ENDBRANCH   1  19
BRANCH   9  22
HETATM   22  N7  UNL     1       7.154   5.006  23.126  1.00  0.00    -0.341 N 
ATOM     23  H72 UNL     1       8.124   4.689  23.115  1.00  0.00     0.177 HD
ATOM     24  H71 UNL     1       6.438   4.463  23.608  1.00  0.00     0.177 HD
ENDBRANCH   9  22
TORSDOF 3
ENDMDL
MODEL 5
REMARK VINA RESULT: -6.203180958      5.044      5.761
REMARK  3 active torsions:
REMARK  status: ('A' for Active; 'I' for Inactive)
REMARK    1  A    between atoms: N1_1  and  C1_4 
REMARK    2  A    between atoms: C2_6  and  C3_7 
REMARK       I    between atoms: N5_17  and  C5_18 
REMARK       I    between atoms: C5_18  and  N6_20 
REMARK    3  A    between atoms: N6_20  and  N7_22 
ROOT
HETATM    1  C1  UNL     1       5.964   5.765  20.515  1.00  0.00     0.171 A 
HETATM    2  S1  UNL     1       5.338   7.312  20.039  1.00  0.00    -0.029 SA
HETATM    3  C2  UNL     1       6.300   8.266  21.059  1.00  0.00     0.138 A 
HETATM    4  N4  UNL     1       7.008   7.378  21.673  1.00  0.00    -0.278 N 
ATOM      5  H4  UNL     1       7.694   7.676  22.367  1.00  0.00     0.188 HD
HETATM    6  N5  UNL     1       6.866   6.116  21.425  1.00  0.00    -0.180 N 
HETATM    7  C5  UNL     1       7.699   5.183  22.157  1.00  0.00     0.361 C 
HETATM    8  O2  UNL     1       8.547   5.622  23.022  1.00  0.00    -0.243 OA
HETATM    9  N6  UNL     1       7.668   3.799  22.007  1.00  0.00    -0.256 N 
ATOM     10  H6  UNL     1       7.020   3.381  21.339  1.00  0.00     0.191 HD
ENDROOT
BRANCH   3  11
HETATM   11  C3  UNL     1       6.327   9.756  21.214  1.00  0.00     0.150 A 
HETATM   12  N2  UNL     1       5.237  10.461  21.296  1.00  0.00    -0.300 N 
HETATM   13  C4  UNL     1       5.319  11.769  21.431  1.00  0.00     0.305 A 
ATOM     14  H2  UNL     1       4.327  10.005  21.257  1.00  0.00     0.171 HD
HETATM   15  O1  UNL     1       4.364  12.622  21.527  1.00  0.00    -0.258 OA
HETATM   16  S2  UNL     1       7.009  12.011  21.443  1.00  0.00     0.049 SA
HETATM   17  N3  UNL     1       7.496  10.409  21.273  1.00  0.00    -0.306 N 
ATOM     18  H3  UNL     1       8.442  10.031  21.226  1.00  0.00     0.176 HD
ENDBRANCH   3  11
BRANCH   1  19
HETATM   19  N1  UNL     1       5.597   4.598  20.056  1.00  0.00    -0.378 N 
ATOM     20  H12 UNL     1       5.181   4.316  19.169  1.00  0.00     0.158 HD
ATOM     21  H11 UNL     1       5.666   3.702  20.541  1.00  0.00     0.158 HD
ENDBRANCH   1  19
BRANCH   9  22
HETATM   22  N7  UNL     1       8.526   2.958  22.771  1.00  0.00    -0.341 N 
ATOM     23  H72 UNL     1       9.145   3.389  23.457  1.00  0.00     0.177 HD
ATOM     24  H71 UNL     1       8.525   1.946  22.640  1.00  0.00     0.177 HD
ENDBRANCH   9  22
TORSDOF 3
ENDMDL
