MODEL 1
REMARK VINA RESULT: -7.409766303      0.000      0.000
REMARK  15 active torsions:
REMARK  status: ('A' for Active; 'I' for Inactive)
REMARK    1  A    between atoms: C2_2  and  C3_3 
REMARK    2  A    between atoms: C3_3  and  C4_4 
REMARK    3  A    between atoms: C4_4  and  C5_5 
REMARK    4  A    between atoms: C5_5  and  C6_6 
REMARK    5  A    between atoms: C6_6  and  C7_7 
REMARK    6  A    between atoms: C7_7  and  O2_9 
REMARK    7  A    between atoms: O2_9  and  C8_10 
REMARK    8  A    between atoms: C9_12  and  C10_13 
REMARK    9  A    between atoms: C10_13  and  O4_14 
REMARK   10  A    between atoms: C14_19  and  O5_20 
REMARK   11  A    between atoms: C15_22  and  O6_23 
REMARK   12  A    between atoms: O6_23  and  C16_24 
REMARK   13  A    between atoms: C19_28  and  O8_29 
REMARK   14  A    between atoms: C20_31  and  O9_32 
REMARK   15  A    between atoms: C21_34  and  O10_35 
ROOT
HETATM    1  C8  UNL     1      20.010  64.375  45.574  1.00  0.00     0.301 C 
HETATM    2  O3  UNL     1      19.620  64.321  46.855  1.00  0.00    -0.350 OA
HETATM    3  C9  UNL     1      20.442  64.554  47.881  1.00  0.00     0.158 C 
HETATM    4  C11 UNL     1      21.680  65.308  47.572  1.00  0.00     0.009 C 
HETATM    5  C12 UNL     1      21.290  66.756  47.294  1.00  0.00     0.020 C 
HETATM    6  C13 UNL     1      22.661  65.349  48.721  1.00  0.00     0.020 C 
HETATM    7  C14 UNL     1      22.364  64.694  46.404  1.00  0.00     0.162 C 
HETATM    8  C15 UNL     1      21.448  64.416  45.248  1.00  0.00     0.209 C 
ENDROOT
BRANCH   8   9
HETATM    9  O6  UNL     1      21.931  63.231  44.651  1.00  0.00    -0.346 OA
BRANCH   9  10
HETATM   10  C16 UNL     1      22.665  63.459  43.511  1.00  0.00     0.292 C 
HETATM   11  O7  UNL     1      22.437  64.756  43.123  1.00  0.00    -0.351 OA
HETATM   12  C17 UNL     1      23.082  65.125  41.956  1.00  0.00     0.152 C 
HETATM   13  C18 UNL     1      22.720  66.584  41.693  1.00  0.00     0.042 C 
HETATM   14  C19 UNL     1      22.476  64.329  40.816  1.00  0.00     0.178 C 
HETATM   15  C20 UNL     1      22.858  62.872  41.097  1.00  0.00     0.183 C 
HETATM   16  C21 UNL     1      22.187  62.531  42.412  1.00  0.00     0.204 C 
BRANCH  14  17
HETATM   17  O8  UNL     1      22.922  64.746  39.578  1.00  0.00    -0.390 OA
ATOM     18  H8  UNL     1      22.930  64.046  38.936  1.00  0.00     0.210 HD
ENDBRANCH  14  17
BRANCH  15  19
HETATM   19  O9  UNL     1      24.249  62.782  41.198  1.00  0.00    -0.390 OA
ATOM     20  H9  UNL     1      24.512  63.057  42.068  1.00  0.00     0.210 HD
ENDBRANCH  15  19
BRANCH  16  21
HETATM   21  O10 UNL     1      20.816  62.824  42.232  1.00  0.00    -0.388 OA
ATOM     22  H10 UNL     1      20.544  62.326  41.472  1.00  0.00     0.210 HD
ENDBRANCH  16  21
ENDBRANCH   9  10
ENDBRANCH   8   9
BRANCH   1  23
HETATM   23  O2  UNL     1      19.437  63.262  44.898  1.00  0.00    -0.287 OA
BRANCH  23  24
HETATM   24  C7  UNL     1      18.380  63.396  43.995  1.00  0.00     0.261 C 
HETATM   25  O1  UNL     1      17.910  62.400  43.407  1.00  0.00    -0.265 OA
BRANCH  24  26
HETATM   26  C6  UNL     1      17.819  64.737  43.739  1.00  0.00     0.111 C 
BRANCH  26  27
HETATM   27  C5  UNL     1      16.404  64.838  44.216  1.00  0.00     0.010 C 
BRANCH  27  28
HETATM   28  C4  UNL     1      16.325  65.702  45.439  1.00  0.00     0.000 C 
BRANCH  28  29
HETATM   29  C3  UNL     1      15.090  65.393  46.213  1.00  0.00    -0.000 C 
BRANCH  29  30
HETATM   30  C2  UNL     1      15.342  65.784  47.670  1.00  0.00    -0.005 C 
HETATM   31  C1  UNL     1      16.810  66.105  47.874  1.00  0.00     0.005 C 
ENDBRANCH  29  30
ENDBRANCH  28  29
ENDBRANCH  27  28
ENDBRANCH  26  27
ENDBRANCH  24  26
ENDBRANCH  23  24
ENDBRANCH   1  23
BRANCH   7  32
HETATM   32  O5  UNL     1      23.408  65.567  46.034  1.00  0.00    -0.392 OA
ATOM     33  H5  UNL     1      23.004  66.321  45.620  1.00  0.00     0.210 HD
ENDBRANCH   7  32
BRANCH   3  34
HETATM   34  C10 UNL     1      20.691  63.266  48.639  1.00  0.00     0.197 C 
BRANCH  34  35
HETATM   35  O4  UNL     1      19.910  63.154  49.788  1.00  0.00    -0.398 OA
ATOM     36  H4  UNL     1      20.218  62.477  50.379  1.00  0.00     0.209 HD
ENDBRANCH  34  35
ENDBRANCH   3  34
TORSDOF 15
ENDMDL
MODEL 2
REMARK VINA RESULT: -7.344230099      1.895      2.860
REMARK  15 active torsions:
REMARK  status: ('A' for Active; 'I' for Inactive)
REMARK    1  A    between atoms: C2_2  and  C3_3 
REMARK    2  A    between atoms: C3_3  and  C4_4 
REMARK    3  A    between atoms: C4_4  and  C5_5 
REMARK    4  A    between atoms: C5_5  and  C6_6 
REMARK    5  A    between atoms: C6_6  and  C7_7 
REMARK    6  A    between atoms: C7_7  and  O2_9 
REMARK    7  A    between atoms: O2_9  and  C8_10 
REMARK    8  A    between atoms: C9_12  and  C10_13 
REMARK    9  A    between atoms: C10_13  and  O4_14 
REMARK   10  A    between atoms: C14_19  and  O5_20 
REMARK   11  A    between atoms: C15_22  and  O6_23 
REMARK   12  A    between atoms: O6_23  and  C16_24 
REMARK   13  A    between atoms: C19_28  and  O8_29 
REMARK   14  A    between atoms: C20_31  and  O9_32 
REMARK   15  A    between atoms: C21_34  and  O10_35 
ROOT
HETATM    1  C8  UNL     1      21.597  66.097  46.156  1.00  0.00     0.301 C 
HETATM    2  O3  UNL     1      21.131  66.499  47.347  1.00  0.00    -0.350 OA
HETATM    3  C9  UNL     1      20.784  65.653  48.321  1.00  0.00     0.158 C 
HETATM    4  C11 UNL     1      21.342  64.283  48.228  1.00  0.00     0.009 C 
HETATM    5  C12 UNL     1      22.831  64.361  48.549  1.00  0.00     0.020 C 
HETATM    6  C13 UNL     1      20.744  63.323  49.232  1.00  0.00     0.020 C 
HETATM    7  C14 UNL     1      21.105  63.734  46.868  1.00  0.00     0.162 C 
HETATM    8  C15 UNL     1      21.479  64.680  45.763  1.00  0.00     0.209 C 
ENDROOT
BRANCH   8   9
HETATM    9  O6  UNL     1      20.546  64.450  44.729  1.00  0.00    -0.346 OA
BRANCH   9  10
HETATM   10  C16 UNL     1      21.068  63.736  43.677  1.00  0.00     0.292 C 
HETATM   11  O7  UNL     1      22.430  63.688  43.844  1.00  0.00    -0.351 OA
HETATM   12  C17 UNL     1      23.106  63.030  42.832  1.00  0.00     0.152 C 
HETATM   13  C18 UNL     1      24.589  63.070  43.193  1.00  0.00     0.042 C 
HETATM   14  C19 UNL     1      22.959  63.846  41.564  1.00  0.00     0.178 C 
HETATM   15  C20 UNL     1      21.467  63.785  41.218  1.00  0.00     0.183 C 
HETATM   16  C21 UNL     1      20.762  64.456  42.379  1.00  0.00     0.204 C 
BRANCH  14  17
HETATM   17  O8  UNL     1      23.743  63.374  40.530  1.00  0.00    -0.390 OA
ATOM     18  H8  UNL     1      24.576  63.826  40.465  1.00  0.00     0.210 HD
ENDBRANCH  14  17
BRANCH  15  19
HETATM   19  O9  UNL     1      21.086  62.445  41.098  1.00  0.00    -0.390 OA
ATOM     20  H9  UNL     1      20.143  62.402  40.997  1.00  0.00     0.210 HD
ENDBRANCH  15  19
BRANCH  16  21
HETATM   21  O10 UNL     1      21.352  65.734  42.502  1.00  0.00    -0.388 OA
ATOM     22  H10 UNL     1      20.832  66.311  41.954  1.00  0.00     0.210 HD
ENDBRANCH  16  21
ENDBRANCH   9  10
ENDBRANCH   8   9
BRANCH   1  23
HETATM   23  O2  UNL     1      20.965  66.885  45.154  1.00  0.00    -0.287 OA
BRANCH  23  24
HETATM   24  C7  UNL     1      19.969  67.817  45.452  1.00  0.00     0.261 C 
HETATM   25  O1  UNL     1      20.211  68.802  46.180  1.00  0.00    -0.265 OA
BRANCH  24  26
HETATM   26  C6  UNL     1      18.615  67.627  44.895  1.00  0.00     0.111 C 
BRANCH  26  27
HETATM   27  C5  UNL     1      17.863  66.567  45.637  1.00  0.00     0.010 C 
BRANCH  27  28
HETATM   28  C4  UNL     1      16.992  65.789  44.696  1.00  0.00     0.000 C 
BRANCH  28  29
HETATM   29  C3  UNL     1      15.707  65.429  45.359  1.00  0.00    -0.000 C 
BRANCH  29  30
HETATM   30  C2  UNL     1      15.925  65.506  46.871  1.00  0.00    -0.005 C 
HETATM   31  C1  UNL     1      14.589  65.500  47.589  1.00  0.00     0.005 C 
ENDBRANCH  29  30
ENDBRANCH  28  29
ENDBRANCH  27  28
ENDBRANCH  26  27
ENDBRANCH  24  26
ENDBRANCH  23  24
ENDBRANCH   1  23
BRANCH   7  32
HETATM   32  O5  UNL     1      21.831  62.528  46.780  1.00  0.00    -0.392 OA
ATOM     33  H5  UNL     1      21.324  61.940  46.232  1.00  0.00     0.210 HD
ENDBRANCH   7  32
BRANCH   3  34
HETATM   34  C10 UNL     1      19.282  65.684  48.514  1.00  0.00     0.197 C 
BRANCH  34  35
HETATM   35  O4  UNL     1      18.867  66.707  49.363  1.00  0.00    -0.398 OA
ATOM     36  H4  UNL     1      17.974  66.985  49.197  1.00  0.00     0.209 HD
ENDBRANCH  34  35
ENDBRANCH   3  34
TORSDOF 15
ENDMDL
MODEL 3
REMARK VINA RESULT: -7.289873359      1.911      3.146
REMARK  15 active torsions:
REMARK  status: ('A' for Active; 'I' for Inactive)
REMARK    1  A    between atoms: C2_2  and  C3_3 
REMARK    2  A    between atoms: C3_3  and  C4_4 
REMARK    3  A    between atoms: C4_4  and  C5_5 
REMARK    4  A    between atoms: C5_5  and  C6_6 
REMARK    5  A    between atoms: C6_6  and  C7_7 
REMARK    6  A    between atoms: C7_7  and  O2_9 
REMARK    7  A    between atoms: O2_9  and  C8_10 
REMARK    8  A    between atoms: C9_12  and  C10_13 
REMARK    9  A    between atoms: C10_13  and  O4_14 
REMARK   10  A    between atoms: C14_19  and  O5_20 
REMARK   11  A    between atoms: C15_22  and  O6_23 
REMARK   12  A    between atoms: O6_23  and  C16_24 
REMARK   13  A    between atoms: C19_28  and  O8_29 
REMARK   14  A    between atoms: C20_31  and  O9_32 
REMARK   15  A    between atoms: C21_34  and  O10_35 
ROOT
HETATM    1  C8  UNL     1      21.693  65.999  46.018  1.00  0.00     0.301 C 
HETATM    2  O3  UNL     1      21.188  66.447  47.177  1.00  0.00    -0.350 OA
HETATM    3  C9  UNL     1      20.817  65.642  48.175  1.00  0.00     0.158 C 
HETATM    4  C11 UNL     1      21.384  64.272  48.158  1.00  0.00     0.009 C 
HETATM    5  C12 UNL     1      22.862  64.373  48.519  1.00  0.00     0.020 C 
HETATM    6  C13 UNL     1      20.761  63.352  49.182  1.00  0.00     0.020 C 
HETATM    7  C14 UNL     1      21.191  63.665  46.815  1.00  0.00     0.162 C 
HETATM    8  C15 UNL     1      21.593  64.565  45.683  1.00  0.00     0.209 C 
ENDROOT
BRANCH   8   9
HETATM    9  O6  UNL     1      20.693  64.286  44.632  1.00  0.00    -0.346 OA
BRANCH   9  10
HETATM   10  C16 UNL     1      21.262  63.566  43.609  1.00  0.00     0.292 C 
HETATM   11  O7  UNL     1      22.623  63.604  43.781  1.00  0.00    -0.351 OA
HETATM   12  C17 UNL     1      23.342  62.950  42.796  1.00  0.00     0.152 C 
HETATM   13  C18 UNL     1      24.818  63.090  43.159  1.00  0.00     0.042 C 
HETATM   14  C19 UNL     1      23.154  63.710  41.498  1.00  0.00     0.178 C 
HETATM   15  C20 UNL     1      21.670  63.549  41.150  1.00  0.00     0.183 C 
HETATM   16  C21 UNL     1      20.920  64.219  42.284  1.00  0.00     0.204 C 
BRANCH  14  17
HETATM   17  O8  UNL     1      23.969  63.248  40.485  1.00  0.00    -0.390 OA
ATOM     18  H8  UNL     1      24.284  63.943  39.920  1.00  0.00     0.210 HD
ENDBRANCH  14  17
BRANCH  15  19
HETATM   19  O9  UNL     1      21.369  62.186  41.078  1.00  0.00    -0.390 OA
ATOM     20  H9  UNL     1      20.427  62.083  41.007  1.00  0.00     0.210 HD
ENDBRANCH  15  19
BRANCH  16  21
HETATM   21  O10 UNL     1      21.434  65.534  42.362  1.00  0.00    -0.388 OA
ATOM     22  H10 UNL     1      21.714  65.752  41.481  1.00  0.00     0.210 HD
ENDBRANCH  16  21
ENDBRANCH   9  10
ENDBRANCH   8   9
BRANCH   1  23
HETATM   23  O2  UNL     1      21.087  66.739  44.965  1.00  0.00    -0.287 OA
BRANCH  23  24
HETATM   24  C7  UNL     1      20.369  67.915  45.193  1.00  0.00     0.261 C 
HETATM   25  O1  UNL     1      20.960  69.000  45.378  1.00  0.00    -0.265 OA
BRANCH  24  26
HETATM   26  C6  UNL     1      18.894  67.865  45.215  1.00  0.00     0.111 C 
BRANCH  26  27
HETATM   27  C5  UNL     1      18.383  66.573  44.659  1.00  0.00     0.010 C 
BRANCH  27  28
HETATM   28  C4  UNL     1      17.076  66.210  45.299  1.00  0.00     0.000 C 
BRANCH  28  29
HETATM   29  C3  UNL     1      16.283  65.332  44.393  1.00  0.00    -0.000 C 
BRANCH  29  30
HETATM   30  C2  UNL     1      17.251  64.349  43.732  1.00  0.00    -0.005 C 
HETATM   31  C1  UNL     1      16.598  63.714  42.519  1.00  0.00     0.005 C 
ENDBRANCH  29  30
ENDBRANCH  28  29
ENDBRANCH  27  28
ENDBRANCH  26  27
ENDBRANCH  24  26
ENDBRANCH  23  24
ENDBRANCH   1  23
BRANCH   7  32
HETATM   32  O5  UNL     1      21.925  62.461  46.800  1.00  0.00    -0.392 OA
ATOM     33  H5  UNL     1      22.201  62.294  47.694  1.00  0.00     0.210 HD
ENDBRANCH   7  32
BRANCH   3  34
HETATM   34  C10 UNL     1      19.310  65.671  48.322  1.00  0.00     0.197 C 
BRANCH  34  35
HETATM   35  O4  UNL     1      18.880  66.551  49.313  1.00  0.00    -0.398 OA
ATOM     36  H4  UNL     1      18.228  67.168  49.002  1.00  0.00     0.209 HD
ENDBRANCH  34  35
ENDBRANCH   3  34
TORSDOF 15
ENDMDL
MODEL 4
REMARK VINA RESULT: -7.286381101      1.152      1.385
REMARK  15 active torsions:
REMARK  status: ('A' for Active; 'I' for Inactive)
REMARK    1  A    between atoms: C2_2  and  C3_3 
REMARK    2  A    between atoms: C3_3  and  C4_4 
REMARK    3  A    between atoms: C4_4  and  C5_5 
REMARK    4  A    between atoms: C5_5  and  C6_6 
REMARK    5  A    between atoms: C6_6  and  C7_7 
REMARK    6  A    between atoms: C7_7  and  O2_9 
REMARK    7  A    between atoms: O2_9  and  C8_10 
REMARK    8  A    between atoms: C9_12  and  C10_13 
REMARK    9  A    between atoms: C10_13  and  O4_14 
REMARK   10  A    between atoms: C14_19  and  O5_20 
REMARK   11  A    between atoms: C15_22  and  O6_23 
REMARK   12  A    between atoms: O6_23  and  C16_24 
REMARK   13  A    between atoms: C19_28  and  O8_29 
REMARK   14  A    between atoms: C20_31  and  O9_32 
REMARK   15  A    between atoms: C21_34  and  O10_35 
ROOT
HETATM    1  C8  UNL     1      20.852  65.283  46.236  1.00  0.00     0.301 C 
HETATM    2  O3  UNL     1      20.388  65.239  47.493  1.00  0.00    -0.350 OA
HETATM    3  C9  UNL     1      21.115  64.813  48.528  1.00  0.00     0.158 C 
HETATM    4  C11 UNL     1      22.586  64.810  48.340  1.00  0.00     0.009 C 
HETATM    5  C12 UNL     1      23.061  66.259  48.342  1.00  0.00     0.020 C 
HETATM    6  C13 UNL     1      23.332  64.119  49.458  1.00  0.00     0.020 C 
HETATM    7  C14 UNL     1      22.927  64.126  47.065  1.00  0.00     0.162 C 
HETATM    8  C15 UNL     1      22.108  64.588  45.895  1.00  0.00     0.209 C 
ENDROOT
BRANCH   8   9
HETATM    9  O6  UNL     1      21.927  63.449  45.080  1.00  0.00    -0.346 OA
BRANCH   9  10
HETATM   10  C16 UNL     1      22.643  63.502  43.909  1.00  0.00     0.292 C 
HETATM   11  O7  UNL     1      22.612  64.800  43.462  1.00  0.00    -0.351 OA
HETATM   12  C17 UNL     1      23.263  65.004  42.258  1.00  0.00     0.152 C 
HETATM   13  C18 UNL     1      23.132  66.490  41.932  1.00  0.00     0.042 C 
HETATM   14  C19 UNL     1      22.493  64.267  41.180  1.00  0.00     0.178 C 
HETATM   15  C20 UNL     1      22.645  62.781  41.523  1.00  0.00     0.183 C 
HETATM   16  C21 UNL     1      21.979  62.615  42.874  1.00  0.00     0.204 C 
BRANCH  14  17
HETATM   17  O8  UNL     1      22.953  64.548  39.909  1.00  0.00    -0.390 OA
ATOM     18  H8  UNL     1      22.878  63.807  39.319  1.00  0.00     0.210 HD
ENDBRANCH  14  17
BRANCH  15  19
HETATM   19  O9  UNL     1      24.007  62.470  41.587  1.00  0.00    -0.390 OA
ATOM     20  H9  UNL     1      24.316  62.624  42.471  1.00  0.00     0.210 HD
ENDBRANCH  15  19
BRANCH  16  21
HETATM   21  O10 UNL     1      20.668  63.119  42.722  1.00  0.00    -0.388 OA
ATOM     22  H10 UNL     1      20.769  64.042  42.525  1.00  0.00     0.210 HD
ENDBRANCH  16  21
ENDBRANCH   9  10
ENDBRANCH   8   9
BRANCH   1  23
HETATM   23  O2  UNL     1      19.830  64.791  45.377  1.00  0.00    -0.287 OA
BRANCH  23  24
HETATM   24  C7  UNL     1      19.158  65.610  44.467  1.00  0.00     0.261 C 
HETATM   25  O1  UNL     1      19.523  65.677  43.275  1.00  0.00    -0.265 OA
BRANCH  24  26
HETATM   26  C6  UNL     1      18.003  66.403  44.931  1.00  0.00     0.111 C 
BRANCH  26  27
HETATM   27  C5  UNL     1      16.710  65.797  44.485  1.00  0.00     0.010 C 
BRANCH  27  28
HETATM   28  C4  UNL     1      15.965  65.232  45.658  1.00  0.00     0.000 C 
BRANCH  28  29
HETATM   29  C3  UNL     1      16.612  65.653  46.933  1.00  0.00    -0.000 C 
BRANCH  29  30
HETATM   30  C2  UNL     1      15.502  65.959  47.940  1.00  0.00    -0.005 C 
HETATM   31  C1  UNL     1      14.146  65.696  47.314  1.00  0.00     0.005 C 
ENDBRANCH  29  30
ENDBRANCH  28  29
ENDBRANCH  27  28
ENDBRANCH  26  27
ENDBRANCH  24  26
ENDBRANCH  23  24
ENDBRANCH   1  23
BRANCH   7  32
HETATM   32  O5  UNL     1      24.305  64.337  46.844  1.00  0.00    -0.392 OA
ATOM     33  H5  UNL     1      24.482  64.079  45.946  1.00  0.00     0.210 HD
ENDBRANCH   7  32
BRANCH   3  34
HETATM   34  C10 UNL     1      20.567  63.492  49.030  1.00  0.00     0.197 C 
BRANCH  34  35
HETATM   35  O4  UNL     1      20.005  63.588  50.301  1.00  0.00    -0.398 OA
ATOM     36  H4  UNL     1      19.185  63.114  50.379  1.00  0.00     0.209 HD
ENDBRANCH  34  35
ENDBRANCH   3  34
TORSDOF 15
ENDMDL
MODEL 5
REMARK VINA RESULT: -7.258916041      1.910      2.816
REMARK  15 active torsions:
REMARK  status: ('A' for Active; 'I' for Inactive)
REMARK    1  A    between atoms: C2_2  and  C3_3 
REMARK    2  A    between atoms: C3_3  and  C4_4 
REMARK    3  A    between atoms: C4_4  and  C5_5 
REMARK    4  A    between atoms: C5_5  and  C6_6 
REMARK    5  A    between atoms: C6_6  and  C7_7 
REMARK    6  A    between atoms: C7_7  and  O2_9 
REMARK    7  A    between atoms: O2_9  and  C8_10 
REMARK    8  A    between atoms: C9_12  and  C10_13 
REMARK    9  A    between atoms: C10_13  and  O4_14 
REMARK   10  A    between atoms: C14_19  and  O5_20 
REMARK   11  A    between atoms: C15_22  and  O6_23 
REMARK   12  A    between atoms: O6_23  and  C16_24 
REMARK   13  A    between atoms: C19_28  and  O8_29 
REMARK   14  A    between atoms: C20_31  and  O9_32 
REMARK   15  A    between atoms: C21_34  and  O10_35 
ROOT
HETATM    1  C8  UNL     1      20.779  65.203  46.389  1.00  0.00     0.301 C 
HETATM    2  O3  UNL     1      20.364  65.134  47.662  1.00  0.00    -0.350 OA
HETATM    3  C9  UNL     1      21.152  64.747  48.668  1.00  0.00     0.158 C 
HETATM    4  C11 UNL     1      22.612  64.822  48.425  1.00  0.00     0.009 C 
HETATM    5  C12 UNL     1      23.010  66.294  48.413  1.00  0.00     0.020 C 
HETATM    6  C13 UNL     1      23.436  64.171  49.512  1.00  0.00     0.020 C 
HETATM    7  C14 UNL     1      22.942  64.157  47.137  1.00  0.00     0.162 C 
HETATM    8  C15 UNL     1      22.055  64.575  46.000  1.00  0.00     0.209 C 
ENDROOT
BRANCH   8   9
HETATM    9  O6  UNL     1      21.904  63.428  45.189  1.00  0.00    -0.346 OA
BRANCH   9  10
HETATM   10  C16 UNL     1      22.564  63.523  43.988  1.00  0.00     0.292 C 
HETATM   11  O7  UNL     1      22.399  64.805  43.525  1.00  0.00    -0.351 OA
HETATM   12  C17 UNL     1      22.979  65.045  42.291  1.00  0.00     0.152 C 
HETATM   13  C18 UNL     1      22.703  66.507  41.950  1.00  0.00     0.042 C 
HETATM   14  C19 UNL     1      22.234  64.224  41.257  1.00  0.00     0.178 C 
HETATM   15  C20 UNL     1      22.532  62.764  41.614  1.00  0.00     0.183 C 
HETATM   16  C21 UNL     1      21.939  62.563  42.995  1.00  0.00     0.204 C 
BRANCH  14  17
HETATM   17  O8  UNL     1      22.614  64.522  39.964  1.00  0.00    -0.390 OA
ATOM     18  H8  UNL     1      23.352  65.119  39.926  1.00  0.00     0.210 HD
ENDBRANCH  14  17
BRANCH  15  19
HETATM   19  O9  UNL     1      23.917  62.575  41.624  1.00  0.00    -0.390 OA
ATOM     20  H9  UNL     1      24.262  62.874  42.457  1.00  0.00     0.210 HD
ENDBRANCH  15  19
BRANCH  16  21
HETATM   21  O10 UNL     1      20.583  62.947  42.891  1.00  0.00    -0.388 OA
ATOM     22  H10 UNL     1      20.547  63.573  42.178  1.00  0.00     0.210 HD
ENDBRANCH  16  21
ENDBRANCH   9  10
ENDBRANCH   8   9
BRANCH   1  23
HETATM   23  O2  UNL     1      19.753  64.657  45.568  1.00  0.00    -0.287 OA
BRANCH  23  24
HETATM   24  C7  UNL     1      19.001  65.441  44.689  1.00  0.00     0.261 C 
HETATM   25  O1  UNL     1      19.001  65.206  43.463  1.00  0.00    -0.265 OA
BRANCH  24  26
HETATM   26  C6  UNL     1      18.201  66.559  45.226  1.00  0.00     0.111 C 
BRANCH  26  27
HETATM   27  C5  UNL     1      18.585  67.859  44.594  1.00  0.00     0.010 C 
BRANCH  27  28
HETATM   28  C4  UNL     1      19.712  68.496  45.353  1.00  0.00     0.000 C 
BRANCH  28  29
HETATM   29  C3  UNL     1      20.698  69.094  44.410  1.00  0.00    -0.000 C 
BRANCH  29  30
HETATM   30  C2  UNL     1      20.087  70.378  43.847  1.00  0.00    -0.005 C 
HETATM   31  C1  UNL     1      20.250  70.414  42.340  1.00  0.00     0.005 C 
ENDBRANCH  29  30
ENDBRANCH  28  29
ENDBRANCH  27  28
ENDBRANCH  26  27
ENDBRANCH  24  26
ENDBRANCH  23  24
ENDBRANCH   1  23
BRANCH   7  32
HETATM   32  O5  UNL     1      24.297  64.441  46.864  1.00  0.00    -0.392 OA
ATOM     33  H5  UNL     1      24.413  64.355  45.925  1.00  0.00     0.210 HD
ENDBRANCH   7  32
BRANCH   3  34
HETATM   34  C10 UNL     1      20.693  63.399  49.187  1.00  0.00     0.197 C 
BRANCH  34  35
HETATM   35  O4  UNL     1      19.992  63.492  50.388  1.00  0.00    -0.398 OA
ATOM     36  H4  UNL     1      19.113  63.135  50.330  1.00  0.00     0.209 HD
ENDBRANCH  34  35
ENDBRANCH   3  34
TORSDOF 15
ENDMDL
