MODEL 1
REMARK VINA RESULT: -8.067070144      0.000      0.000
REMARK  15 active torsions:
REMARK  status: ('A' for Active; 'I' for Inactive)
REMARK    1  A    between atoms: C4_4  and  C5_5 
REMARK    2  A    between atoms: C5_5  and  C6_6 
REMARK    3  A    between atoms: C6_6  and  C7_7 
REMARK    4  A    between atoms: C7_7  and  O1_10 
REMARK    5  A    between atoms: O1_10  and  C10_11 
REMARK    6  A    between atoms: C10_11  and  C11_12 
REMARK    7  A    between atoms: C11_12  and  C12_13 
REMARK    8  A    between atoms: C11_12  and  C21_31 
REMARK    9  A    between atoms: C16_19  and  O3_20 
REMARK   10  A    between atoms: C18_22  and  O4_23 
REMARK   11  A    between atoms: C19_25  and  O5_26 
REMARK   12  A    between atoms: C20_28  and  O6_29 
REMARK   13  A    between atoms: C21_31  and  O7_32 
REMARK   14  A    between atoms: C21_31  and  C22_34 
REMARK   15  A    between atoms: C22_34  and  O8_35 
ROOT
HETATM    1  C1  UNL     1      14.441  65.465  47.543  1.00  0.00     0.017 C 
HETATM    2  C2  UNL     1      15.566  65.632  47.108  1.00  0.00    -0.090 C 
HETATM    3  C3  UNL     1      16.887  65.854  46.595  1.00  0.00     0.059 C 
HETATM    4  C4  UNL     1      17.071  66.250  45.367  1.00  0.00    -0.018 C 
ENDROOT
BRANCH   4   5
HETATM    5  C5  UNL     1      18.416  66.487  44.806  1.00  0.00     0.030 C 
BRANCH   5   6
HETATM    6  C6  UNL     1      18.971  67.828  45.230  1.00  0.00     0.041 C 
BRANCH   6   7
HETATM    7  C7  UNL     1      20.207  67.601  46.067  1.00  0.00     0.054 C 
HETATM    8  C8  UNL     1      21.435  68.089  45.324  1.00  0.00     0.045 C 
HETATM    9  C9  UNL     1      20.061  68.495  47.300  1.00  0.00     0.045 C 
BRANCH   7  10
HETATM   10  O1  UNL     1      20.330  66.311  46.520  1.00  0.00    -0.380 OA
BRANCH  10  11
HETATM   11  C10 UNL     1      21.377  66.141  47.419  1.00  0.00     0.181 C 
BRANCH  11  12
HETATM   12  C11 UNL     1      21.956  64.784  47.233  1.00  0.00     0.080 C 
BRANCH  12  13
HETATM   13  C12 UNL     1      21.889  64.378  45.794  1.00  0.00    -0.005 A 
HETATM   14  C13 UNL     1      22.756  64.710  44.784  1.00  0.00     0.028 A 
HETATM   15  C14 UNL     1      22.497  64.249  43.544  1.00  0.00     0.015 A 
HETATM   16  C15 UNL     1      21.371  63.477  43.394  1.00  0.00     0.122 A 
HETATM   17  C20 UNL     1      23.381  64.547  42.334  1.00  0.00     0.185 C 
HETATM   18  S1  UNL     1      20.729  63.427  44.976  1.00  0.00    -0.069 SA
HETATM   19  O2  UNL     1      20.828  62.852  42.245  1.00  0.00    -0.310 OA
HETATM   20  C16 UNL     1      21.539  62.665  41.027  1.00  0.00     0.297 C 
HETATM   21  C18 UNL     1      22.965  62.273  41.289  1.00  0.00     0.205 C 
HETATM   22  C19 UNL     1      23.894  63.317  41.710  1.00  0.00     0.185 C 
BRANCH  20  23
HETATM   23  O3  UNL     1      21.398  63.722  40.166  1.00  0.00    -0.363 OA
HETATM   24  C17 UNL     1      20.202  63.651  39.458  1.00  0.00     0.204 C 
ENDBRANCH  20  23
BRANCH  21  25
HETATM   25  O4  UNL     1      23.439  61.675  40.109  1.00  0.00    -0.388 OA
ATOM     26  H4  UNL     1      23.673  60.781  40.334  1.00  0.00     0.210 HD
ENDBRANCH  21  25
BRANCH  22  27
HETATM   27  O5  UNL     1      24.833  62.744  42.601  1.00  0.00    -0.390 OA
ATOM     28  H5  UNL     1      25.535  62.359  42.089  1.00  0.00     0.210 HD
ENDBRANCH  22  27
BRANCH  17  29
HETATM   29  O6  UNL     1      24.459  65.339  42.725  1.00  0.00    -0.388 OA
ATOM     30  H6  UNL     1      25.192  64.785  42.969  1.00  0.00     0.210 HD
ENDBRANCH  17  29
ENDBRANCH  12  13
BRANCH  12  31
HETATM   31  C21 UNL     1      21.469  63.738  48.188  1.00  0.00     0.152 C 
BRANCH  31  32
HETATM   32  O7  UNL     1      22.564  63.512  49.067  1.00  0.00    -0.393 OA
ATOM     33  H7  UNL     1      22.527  62.584  49.266  1.00  0.00     0.210 HD
ENDBRANCH  31  32
BRANCH  31  34
HETATM   34  C22 UNL     1      20.318  64.111  49.047  1.00  0.00     0.196 C 
BRANCH  34  35
HETATM   35  O8  UNL     1      19.873  63.186  49.941  1.00  0.00    -0.398 OA
ATOM     36  H8  UNL     1      19.467  63.505  50.739  1.00  0.00     0.209 HD
ENDBRANCH  34  35
ENDBRANCH  31  34
ENDBRANCH  12  31
ENDBRANCH  11  12
ENDBRANCH  10  11
ENDBRANCH   7  10
ENDBRANCH   6   7
ENDBRANCH   5   6
ENDBRANCH   4   5
TORSDOF 15
ENDMDL
MODEL 2
REMARK VINA RESULT: -7.793263597      1.162      1.570
REMARK  15 active torsions:
REMARK  status: ('A' for Active; 'I' for Inactive)
REMARK    1  A    between atoms: C4_4  and  C5_5 
REMARK    2  A    between atoms: C5_5  and  C6_6 
REMARK    3  A    between atoms: C6_6  and  C7_7 
REMARK    4  A    between atoms: C7_7  and  O1_10 
REMARK    5  A    between atoms: O1_10  and  C10_11 
REMARK    6  A    between atoms: C10_11  and  C11_12 
REMARK    7  A    between atoms: C11_12  and  C12_13 
REMARK    8  A    between atoms: C11_12  and  C21_31 
REMARK    9  A    between atoms: C16_19  and  O3_20 
REMARK   10  A    between atoms: C18_22  and  O4_23 
REMARK   11  A    between atoms: C19_25  and  O5_26 
REMARK   12  A    between atoms: C20_28  and  O6_29 
REMARK   13  A    between atoms: C21_31  and  O7_32 
REMARK   14  A    between atoms: C21_31  and  C22_34 
REMARK   15  A    between atoms: C22_34  and  O8_35 
ROOT
HETATM    1  C1  UNL     1      16.747  62.953  42.329  1.00  0.00     0.017 C 
HETATM    2  C2  UNL     1      16.699  63.834  43.169  1.00  0.00    -0.090 C 
HETATM    3  C3  UNL     1      16.649  64.888  44.139  1.00  0.00     0.059 C 
HETATM    4  C4  UNL     1      17.736  65.491  44.529  1.00  0.00    -0.018 C 
ENDROOT
BRANCH   4   5
HETATM    5  C5  UNL     1      17.721  66.580  45.526  1.00  0.00     0.030 C 
BRANCH   5   6
HETATM    6  C6  UNL     1      18.831  67.579  45.281  1.00  0.00     0.041 C 
BRANCH   6   7
HETATM    7  C7  UNL     1      19.822  67.493  46.417  1.00  0.00     0.054 C 
HETATM    8  C8  UNL     1      20.457  68.849  46.658  1.00  0.00     0.045 C 
HETATM    9  C9  UNL     1      19.010  67.165  47.672  1.00  0.00     0.045 C 
BRANCH   7  10
HETATM   10  O1  UNL     1      20.744  66.487  46.263  1.00  0.00    -0.380 OA
BRANCH  10  11
HETATM   11  C10 UNL     1      21.293  66.055  47.464  1.00  0.00     0.181 C 
BRANCH  11  12
HETATM   12  C11 UNL     1      21.891  64.708  47.264  1.00  0.00     0.080 C 
BRANCH  12  13
HETATM   13  C12 UNL     1      21.836  64.321  45.819  1.00  0.00    -0.005 A 
HETATM   14  C13 UNL     1      22.713  64.662  44.822  1.00  0.00     0.028 A 
HETATM   15  C14 UNL     1      22.464  64.218  43.573  1.00  0.00     0.015 A 
HETATM   16  C15 UNL     1      21.337  63.451  43.404  1.00  0.00     0.122 A 
HETATM   17  C20 UNL     1      23.359  64.528  42.375  1.00  0.00     0.185 C 
HETATM   18  S1  UNL     1      20.681  63.383  44.979  1.00  0.00    -0.069 SA
HETATM   19  O2  UNL     1      20.802  62.842  42.242  1.00  0.00    -0.310 OA
HETATM   20  C16 UNL     1      21.524  62.668  41.028  1.00  0.00     0.297 C 
HETATM   21  C18 UNL     1      22.946  62.269  41.298  1.00  0.00     0.205 C 
HETATM   22  C19 UNL     1      23.875  63.305  41.740  1.00  0.00     0.185 C 
BRANCH  20  23
HETATM   23  O3  UNL     1      21.394  63.736  40.179  1.00  0.00    -0.363 OA
HETATM   24  C17 UNL     1      20.057  64.036  39.934  1.00  0.00     0.204 C 
ENDBRANCH  20  23
BRANCH  21  25
HETATM   25  O4  UNL     1      23.430  61.684  40.115  1.00  0.00    -0.388 OA
ATOM     26  H4  UNL     1      24.354  61.512  40.256  1.00  0.00     0.210 HD
ENDBRANCH  21  25
BRANCH  22  27
HETATM   27  O5  UNL     1      24.804  62.718  42.633  1.00  0.00    -0.390 OA
ATOM     28  H5  UNL     1      25.343  63.409  42.999  1.00  0.00     0.210 HD
ENDBRANCH  22  27
BRANCH  17  29
HETATM   29  O6  UNL     1      24.436  65.312  42.786  1.00  0.00    -0.388 OA
ATOM     30  H6  UNL     1      24.267  65.660  43.654  1.00  0.00     0.210 HD
ENDBRANCH  17  29
ENDBRANCH  12  13
BRANCH  12  31
HETATM   31  C21 UNL     1      21.414  63.643  48.202  1.00  0.00     0.152 C 
BRANCH  31  32
HETATM   32  O7  UNL     1      22.406  63.588  49.221  1.00  0.00    -0.393 OA
ATOM     33  H7  UNL     1      22.413  62.680  49.502  1.00  0.00     0.210 HD
ENDBRANCH  31  32
BRANCH  31  34
HETATM   34  C22 UNL     1      20.125  63.898  48.892  1.00  0.00     0.196 C 
BRANCH  34  35
HETATM   35  O8  UNL     1      20.049  63.596  50.218  1.00  0.00    -0.398 OA
ATOM     36  H8  UNL     1      19.507  62.857  50.469  1.00  0.00     0.209 HD
ENDBRANCH  34  35
ENDBRANCH  31  34
ENDBRANCH  12  31
ENDBRANCH  11  12
ENDBRANCH  10  11
ENDBRANCH   7  10
ENDBRANCH   6   7
ENDBRANCH   5   6
ENDBRANCH   4   5
TORSDOF 15
ENDMDL
MODEL 3
REMARK VINA RESULT: -7.777547140      1.754      6.373
REMARK  15 active torsions:
REMARK  status: ('A' for Active; 'I' for Inactive)
REMARK    1  A    between atoms: C4_4  and  C5_5 
REMARK    2  A    between atoms: C5_5  and  C6_6 
REMARK    3  A    between atoms: C6_6  and  C7_7 
REMARK    4  A    between atoms: C7_7  and  O1_10 
REMARK    5  A    between atoms: O1_10  and  C10_11 
REMARK    6  A    between atoms: C10_11  and  C11_12 
REMARK    7  A    between atoms: C11_12  and  C12_13 
REMARK    8  A    between atoms: C11_12  and  C21_31 
REMARK    9  A    between atoms: C16_19  and  O3_20 
REMARK   10  A    between atoms: C18_22  and  O4_23 
REMARK   11  A    between atoms: C19_25  and  O5_26 
REMARK   12  A    between atoms: C20_28  and  O6_29 
REMARK   13  A    between atoms: C21_31  and  O7_32 
REMARK   14  A    between atoms: C21_31  and  C22_34 
REMARK   15  A    between atoms: C22_34  and  O8_35 
ROOT
HETATM    1  C1  UNL     1      15.006  65.467  46.027  1.00  0.00     0.017 C 
HETATM    2  C2  UNL     1      16.027  65.142  45.446  1.00  0.00    -0.090 C 
HETATM    3  C3  UNL     1      17.220  64.774  44.743  1.00  0.00     0.059 C 
HETATM    4  C4  UNL     1      17.177  63.941  43.741  1.00  0.00    -0.018 C 
ENDROOT
BRANCH   4   5
HETATM    5  C5  UNL     1      18.386  63.540  42.994  1.00  0.00     0.030 C 
BRANCH   5   6
HETATM    6  C6  UNL     1      18.160  63.581  41.499  1.00  0.00     0.041 C 
BRANCH   6   7
HETATM    7  C7  UNL     1      19.497  63.491  40.803  1.00  0.00     0.054 C 
HETATM    8  C8  UNL     1      19.333  62.844  39.442  1.00  0.00     0.045 C 
HETATM    9  C9  UNL     1      19.947  64.931  40.548  1.00  0.00     0.045 C 
BRANCH   7  10
HETATM   10  O1  UNL     1      20.472  62.897  41.567  1.00  0.00    -0.380 OA
BRANCH  10  11
HETATM   11  C10 UNL     1      21.754  63.339  41.263  1.00  0.00     0.181 C 
BRANCH  11  12
HETATM   12  C11 UNL     1      22.624  63.149  42.454  1.00  0.00     0.080 C 
BRANCH  12  13
HETATM   13  C12 UNL     1      21.979  63.733  43.672  1.00  0.00    -0.005 A 
HETATM   14  C13 UNL     1      21.610  63.083  44.822  1.00  0.00     0.028 A 
HETATM   15  C14 UNL     1      21.020  63.801  45.799  1.00  0.00     0.015 A 
HETATM   16  C15 UNL     1      20.837  65.141  45.556  1.00  0.00     0.122 A 
HETATM   17  C20 UNL     1      20.561  63.199  47.126  1.00  0.00     0.185 C 
HETATM   18  S1  UNL     1      21.489  65.338  43.991  1.00  0.00    -0.069 SA
HETATM   19  O2  UNL     1      20.259  66.153  46.361  1.00  0.00    -0.310 OA
HETATM   20  C16 UNL     1      20.007  66.017  47.755  1.00  0.00     0.297 C 
HETATM   21  C18 UNL     1      21.131  65.293  48.439  1.00  0.00     0.205 C 
HETATM   22  C19 UNL     1      21.209  63.845  48.279  1.00  0.00     0.185 C 
BRANCH  20  23
HETATM   23  O3  UNL     1      18.766  65.500  48.019  1.00  0.00    -0.363 OA
HETATM   24  C17 UNL     1      17.856  66.496  48.360  1.00  0.00     0.204 C 
ENDBRANCH  20  23
BRANCH  21  25
HETATM   25  O4  UNL     1      21.036  65.606  49.807  1.00  0.00    -0.388 OA
ATOM     26  H4  UNL     1      21.609  65.001  50.263  1.00  0.00     0.210 HD
ENDBRANCH  21  25
BRANCH  22  27
HETATM   27  O5  UNL     1      22.575  63.471  48.267  1.00  0.00    -0.390 OA
ATOM     28  H5  UNL     1      22.759  62.986  49.062  1.00  0.00     0.210 HD
ENDBRANCH  22  27
BRANCH  17  29
HETATM   29  O6  UNL     1      20.853  61.836  47.148  1.00  0.00    -0.388 OA
ATOM     30  H6  UNL     1      20.575  61.436  46.333  1.00  0.00     0.210 HD
ENDBRANCH  17  29
ENDBRANCH  12  13
BRANCH  12  31
HETATM   31  C21 UNL     1      24.059  63.538  42.275  1.00  0.00     0.152 C 
BRANCH  31  32
HETATM   32  O7  UNL     1      24.800  62.451  42.818  1.00  0.00    -0.393 OA
ATOM     33  H7  UNL     1      25.697  62.763  42.852  1.00  0.00     0.210 HD
ENDBRANCH  31  32
BRANCH  31  34
HETATM   34  C22 UNL     1      24.530  63.703  40.877  1.00  0.00     0.196 C 
BRANCH  34  35
HETATM   35  O8  UNL     1      25.650  64.450  40.673  1.00  0.00    -0.398 OA
ATOM     36  H8  UNL     1      26.054  64.411  39.814  1.00  0.00     0.209 HD
ENDBRANCH  34  35
ENDBRANCH  31  34
ENDBRANCH  12  31
ENDBRANCH  11  12
ENDBRANCH  10  11
ENDBRANCH   7  10
ENDBRANCH   6   7
ENDBRANCH   5   6
ENDBRANCH   4   5
TORSDOF 15
ENDMDL
MODEL 4
REMARK VINA RESULT: -7.708744766      1.573      3.012
REMARK  15 active torsions:
REMARK  status: ('A' for Active; 'I' for Inactive)
REMARK    1  A    between atoms: C4_4  and  C5_5 
REMARK    2  A    between atoms: C5_5  and  C6_6 
REMARK    3  A    between atoms: C6_6  and  C7_7 
REMARK    4  A    between atoms: C7_7  and  O1_10 
REMARK    5  A    between atoms: O1_10  and  C10_11 
REMARK    6  A    between atoms: C10_11  and  C11_12 
REMARK    7  A    between atoms: C11_12  and  C12_13 
REMARK    8  A    between atoms: C11_12  and  C21_31 
REMARK    9  A    between atoms: C16_19  and  O3_20 
REMARK   10  A    between atoms: C18_22  and  O4_23 
REMARK   11  A    between atoms: C19_25  and  O5_26 
REMARK   12  A    between atoms: C20_28  and  O6_29 
REMARK   13  A    between atoms: C21_31  and  O7_32 
REMARK   14  A    between atoms: C21_31  and  C22_34 
REMARK   15  A    between atoms: C22_34  and  O8_35 
ROOT
HETATM    1  C1  UNL     1      20.266  70.721  42.473  1.00  0.00     0.017 C 
HETATM    2  C2  UNL     1      20.042  69.997  43.426  1.00  0.00    -0.090 C 
HETATM    3  C3  UNL     1      19.790  69.126  44.536  1.00  0.00     0.059 C 
HETATM    4  C4  UNL     1      18.921  68.159  44.445  1.00  0.00    -0.018 C 
ENDROOT
BRANCH   4   5
HETATM    5  C5  UNL     1      18.637  67.243  45.568  1.00  0.00     0.030 C 
BRANCH   5   6
HETATM    6  C6  UNL     1      19.480  67.566  46.782  1.00  0.00     0.041 C 
BRANCH   6   7
HETATM    7  C7  UNL     1      19.153  66.580  47.878  1.00  0.00     0.054 C 
HETATM    8  C8  UNL     1      18.291  67.243  48.935  1.00  0.00     0.045 C 
HETATM    9  C9  UNL     1      18.290  65.493  47.234  1.00  0.00     0.045 C 
BRANCH   7  10
HETATM   10  O1  UNL     1      20.259  65.957  48.399  1.00  0.00    -0.380 OA
BRANCH  10  11
HETATM   11  C10 UNL     1      20.776  64.968  47.569  1.00  0.00     0.181 C 
BRANCH  11  12
HETATM   12  C11 UNL     1      21.864  65.553  46.742  1.00  0.00     0.080 C 
BRANCH  12  13
HETATM   13  C12 UNL     1      21.819  65.002  45.351  1.00  0.00    -0.005 A 
HETATM   14  C13 UNL     1      22.759  65.136  44.362  1.00  0.00     0.028 A 
HETATM   15  C14 UNL     1      22.510  64.572  43.163  1.00  0.00     0.015 A 
HETATM   16  C15 UNL     1      21.318  63.900  43.033  1.00  0.00     0.122 A 
HETATM   17  C20 UNL     1      23.472  64.649  41.980  1.00  0.00     0.185 C 
HETATM   18  S1  UNL     1      20.606  64.085  44.574  1.00  0.00    -0.069 SA
HETATM   19  O2  UNL     1      20.765  63.211  41.927  1.00  0.00    -0.310 OA
HETATM   20  C16 UNL     1      21.507  62.825  40.775  1.00  0.00     0.297 C 
HETATM   21  C18 UNL     1      22.872  62.327  41.154  1.00  0.00     0.205 C 
HETATM   22  C19 UNL     1      23.883  63.315  41.514  1.00  0.00     0.185 C 
BRANCH  20  23
HETATM   23  O3  UNL     1      21.512  63.790  39.803  1.00  0.00    -0.363 OA
HETATM   24  C17 UNL     1      20.241  63.995  39.275  1.00  0.00     0.204 C 
ENDBRANCH  20  23
BRANCH  21  25
HETATM   25  O4  UNL     1      23.334  61.561  40.070  1.00  0.00    -0.388 OA
ATOM     26  H4  UNL     1      22.644  60.942  39.861  1.00  0.00     0.210 HD
ENDBRANCH  21  25
BRANCH  22  27
HETATM   27  O5  UNL     1      24.719  62.753  42.511  1.00  0.00    -0.390 OA
ATOM     28  H5  UNL     1      24.200  62.618  43.294  1.00  0.00     0.210 HD
ENDBRANCH  22  27
BRANCH  17  29
HETATM   29  O6  UNL     1      24.607  65.370  42.345  1.00  0.00    -0.388 OA
ATOM     30  H6  UNL     1      25.068  65.659  41.565  1.00  0.00     0.210 HD
ENDBRANCH  17  29
ENDBRANCH  12  13
BRANCH  12  31
HETATM   31  C21 UNL     1      23.227  65.538  47.363  1.00  0.00     0.152 C 
BRANCH  31  32
HETATM   32  O7  UNL     1      23.190  66.570  48.342  1.00  0.00    -0.393 OA
ATOM     33  H7  UNL     1      23.989  66.457  48.843  1.00  0.00     0.210 HD
ENDBRANCH  31  32
BRANCH  31  34
HETATM   34  C22 UNL     1      23.612  64.298  48.083  1.00  0.00     0.196 C 
BRANCH  34  35
HETATM   35  O8  UNL     1      24.325  63.365  47.394  1.00  0.00    -0.398 OA
ATOM     36  H8  UNL     1      24.369  63.455  46.449  1.00  0.00     0.209 HD
ENDBRANCH  34  35
ENDBRANCH  31  34
ENDBRANCH  12  31
ENDBRANCH  11  12
ENDBRANCH  10  11
ENDBRANCH   7  10
ENDBRANCH   6   7
ENDBRANCH   5   6
ENDBRANCH   4   5
TORSDOF 15
ENDMDL
MODEL 5
REMARK VINA RESULT: -7.700352474      1.638      6.243
REMARK  15 active torsions:
REMARK  status: ('A' for Active; 'I' for Inactive)
REMARK    1  A    between atoms: C4_4  and  C5_5 
REMARK    2  A    between atoms: C5_5  and  C6_6 
REMARK    3  A    between atoms: C6_6  and  C7_7 
REMARK    4  A    between atoms: C7_7  and  O1_10 
REMARK    5  A    between atoms: O1_10  and  C10_11 
REMARK    6  A    between atoms: C10_11  and  C11_12 
REMARK    7  A    between atoms: C11_12  and  C12_13 
REMARK    8  A    between atoms: C11_12  and  C21_31 
REMARK    9  A    between atoms: C16_19  and  O3_20 
REMARK   10  A    between atoms: C18_22  and  O4_23 
REMARK   11  A    between atoms: C19_25  and  O5_26 
REMARK   12  A    between atoms: C20_28  and  O6_29 
REMARK   13  A    between atoms: C21_31  and  O7_32 
REMARK   14  A    between atoms: C21_31  and  C22_34 
REMARK   15  A    between atoms: C22_34  and  O8_35 
ROOT
HETATM    1  C1  UNL     1      14.422  65.590  46.968  1.00  0.00     0.017 C 
HETATM    2  C2  UNL     1      15.534  65.533  46.476  1.00  0.00    -0.090 C 
HETATM    3  C3  UNL     1      16.837  65.484  45.880  1.00  0.00     0.059 C 
HETATM    4  C4  UNL     1      17.007  65.004  44.681  1.00  0.00    -0.018 C 
ENDROOT
BRANCH   4   5
HETATM    5  C5  UNL     1      18.334  64.938  44.037  1.00  0.00     0.030 C 
BRANCH   5   6
HETATM    6  C6  UNL     1      18.605  63.570  43.450  1.00  0.00     0.041 C 
BRANCH   6   7
HETATM    7  C7  UNL     1      19.442  63.732  42.204  1.00  0.00     0.054 C 
HETATM    8  C8  UNL     1      18.587  63.515  40.970  1.00  0.00     0.045 C 
HETATM    9  C9  UNL     1      19.886  65.195  42.172  1.00  0.00     0.045 C 
BRANCH   7  10
HETATM   10  O1  UNL     1      20.583  62.967  42.209  1.00  0.00    -0.380 OA
BRANCH  10  11
HETATM   11  C10 UNL     1      21.748  63.718  42.101  1.00  0.00     0.181 C 
BRANCH  11  12
HETATM   12  C11 UNL     1      22.723  63.241  43.117  1.00  0.00     0.080 C 
BRANCH  12  13
HETATM   13  C12 UNL     1      22.280  63.631  44.492  1.00  0.00    -0.005 A 
HETATM   14  C13 UNL     1      22.341  64.870  45.077  1.00  0.00     0.028 A 
HETATM   15  C14 UNL     1      21.902  65.000  46.345  1.00  0.00     0.015 A 
HETATM   16  C15 UNL     1      21.423  63.864  46.952  1.00  0.00     0.122 A 
HETATM   17  C20 UNL     1      21.917  66.322  47.110  1.00  0.00     0.185 C 
HETATM   18  S1  UNL     1      21.606  62.677  45.738  1.00  0.00    -0.069 SA
HETATM   19  O2  UNL     1      20.899  63.666  48.252  1.00  0.00    -0.310 OA
HETATM   20  C16 UNL     1      20.487  64.719  49.116  1.00  0.00     0.297 C 
HETATM   21  C18 UNL     1      19.770  65.794  48.352  1.00  0.00     0.205 C 
HETATM   22  C19 UNL     1      20.571  66.717  47.556  1.00  0.00     0.185 C 
BRANCH  20  23
HETATM   23  O3  UNL     1      21.505  65.179  49.909  1.00  0.00    -0.363 OA
HETATM   24  C17 UNL     1      22.414  64.171  50.215  1.00  0.00     0.204 C 
ENDBRANCH  20  23
BRANCH  21  25
HETATM   25  O4  UNL     1      19.018  66.521  49.293  1.00  0.00    -0.388 OA
ATOM     26  H4  UNL     1      18.805  65.917  49.994  1.00  0.00     0.210 HD
ENDBRANCH  21  25
BRANCH  22  27
HETATM   27  O5  UNL     1      19.827  67.075  46.405  1.00  0.00    -0.390 OA
ATOM     28  H5  UNL     1      19.384  67.896  46.580  1.00  0.00     0.210 HD
ENDBRANCH  22  27
BRANCH  17  29
HETATM   29  O6  UNL     1      22.437  67.328  46.297  1.00  0.00    -0.388 OA
ATOM     30  H6  UNL     1      22.544  68.125  46.803  1.00  0.00     0.210 HD
ENDBRANCH  17  29
ENDBRANCH  12  13
BRANCH  12  31
HETATM   31  C21 UNL     1      24.160  63.548  42.827  1.00  0.00     0.152 C 
BRANCH  31  32
HETATM   32  O7  UNL     1      24.876  62.416  43.308  1.00  0.00    -0.393 OA
ATOM     33  H7  UNL     1      25.423  62.756  44.007  1.00  0.00     0.210 HD
ENDBRANCH  31  32
BRANCH  31  34
HETATM   34  C22 UNL     1      24.530  63.695  41.397  1.00  0.00     0.196 C 
BRANCH  34  35
HETATM   35  O8  UNL     1      25.661  64.395  41.106  1.00  0.00    -0.398 OA
ATOM     36  H8  UNL     1      25.959  64.394  40.204  1.00  0.00     0.209 HD
ENDBRANCH  34  35
ENDBRANCH  31  34
ENDBRANCH  12  31
ENDBRANCH  11  12
ENDBRANCH  10  11
ENDBRANCH   7  10
ENDBRANCH   6   7
ENDBRANCH   5   6
ENDBRANCH   4   5
TORSDOF 15
ENDMDL
