MODEL 1
REMARK VINA RESULT: -7.103536435      0.000      0.000
REMARK  14 active torsions:
REMARK  status: ('A' for Active; 'I' for Inactive)
REMARK    1  A    between atoms: C2_2  and  C4_4 
REMARK    2  A    between atoms: C4_4  and  C5_5 
REMARK    3  A    between atoms: C5_5  and  S1_6 
REMARK    4  A    between atoms: S1_6  and  C6_7 
REMARK    5  A    between atoms: C6_7  and  C7_8 
REMARK    6  A    between atoms: C9_11  and  C10_12 
REMARK    7  A    between atoms: C13_15  and  O1_16 
REMARK    8  A    between atoms: C14_18  and  O2_19 
REMARK    9  A    between atoms: O2_19  and  C15_20 
REMARK   10  A    between atoms: C16_22  and  C17_23 
REMARK   11  A    between atoms: C17_23  and  O4_24 
REMARK   12  A    between atoms: C18_26  and  O5_27 
REMARK   13  A    between atoms: C19_29  and  O6_30 
REMARK   14  A    between atoms: C20_32  and  O7_33 
ROOT
HETATM    1  C7  UNL     1      23.889  64.375  45.625  1.00  0.00     0.088 C 
HETATM    2  S2  UNL     1      25.374  63.315  45.754  1.00  0.00    -0.160 SA
HETATM    3  C8  UNL     1      26.452  64.185  46.966  1.00  0.00     0.082 C 
HETATM    4  C9  UNL     1      25.582  64.451  48.147  1.00  0.00     0.029 C 
HETATM    5  C13 UNL     1      24.446  65.411  47.804  1.00  0.00     0.153 C 
HETATM    6  C14 UNL     1      23.424  64.660  47.018  1.00  0.00     0.168 C 
ENDROOT
BRANCH   6   7
HETATM    7  O2  UNL     1      22.144  65.165  47.083  1.00  0.00    -0.349 OA
BRANCH   7   8
HETATM    8  C15 UNL     1      21.133  64.293  46.865  1.00  0.00     0.292 C 
HETATM    9  O3  UNL     1      19.909  64.993  46.739  1.00  0.00    -0.348 OA
HETATM   10  C16 UNL     1      19.808  66.003  47.701  1.00  0.00     0.179 C 
HETATM   11  C18 UNL     1      19.971  65.441  49.074  1.00  0.00     0.180 C 
HETATM   12  C19 UNL     1      19.885  63.937  49.022  1.00  0.00     0.183 C 
HETATM   13  C20 UNL     1      20.964  63.406  48.082  1.00  0.00     0.204 C 
BRANCH  10  14
HETATM   14  C17 UNL     1      18.405  66.581  47.539  1.00  0.00     0.198 C 
BRANCH  14  15
HETATM   15  O4  UNL     1      17.861  66.907  48.787  1.00  0.00    -0.398 OA
ATOM     16  H4  UNL     1      17.449  66.147  49.181  1.00  0.00     0.209 HD
ENDBRANCH  14  15
ENDBRANCH  10  14
BRANCH  11  17
HETATM   17  O5  UNL     1      21.148  65.854  49.706  1.00  0.00    -0.390 OA
ATOM     18  H5  UNL     1      21.062  66.687  50.155  1.00  0.00     0.210 HD
ENDBRANCH  11  17
BRANCH  12  19
HETATM   19  O6  UNL     1      20.099  63.424  50.297  1.00  0.00    -0.390 OA
ATOM     20  H6  UNL     1      20.917  62.939  50.304  1.00  0.00     0.210 HD
ENDBRANCH  12  19
BRANCH  13  21
HETATM   21  O7  UNL     1      20.676  62.090  47.708  1.00  0.00    -0.388 OA
ATOM     22  H7  UNL     1      20.985  61.475  48.363  1.00  0.00     0.210 HD
ENDBRANCH  13  21
ENDBRANCH   7   8
ENDBRANCH   6   7
BRANCH   1  23
HETATM   23  C6  UNL     1      24.320  65.587  44.844  1.00  0.00     0.091 C 
BRANCH  23  24
HETATM   24  S1  UNL     1      22.848  66.104  43.876  1.00  0.00    -0.168 SA
BRANCH  24  25
HETATM   25  C5  UNL     1      22.127  67.611  44.554  1.00  0.00     0.074 C 
BRANCH  25  26
HETATM   26  C4  UNL     1      20.649  67.668  44.224  1.00  0.00     0.014 C 
BRANCH  26  27
HETATM   27  C2  UNL     1      19.957  68.838  44.884  1.00  0.00    -0.022 C 
HETATM   28  C1  UNL     1      20.118  70.016  43.915  1.00  0.00     0.009 C 
HETATM   29  C3  UNL     1      20.671  69.256  46.155  1.00  0.00     0.009 C 
ENDBRANCH  26  27
ENDBRANCH  25  26
ENDBRANCH  24  25
ENDBRANCH  23  24
ENDBRANCH   1  23
BRANCH   5  30
HETATM   30  O1  UNL     1      23.973  65.863  49.029  1.00  0.00    -0.393 OA
ATOM     31  H1  UNL     1      23.213  66.393  48.820  1.00  0.00     0.210 HD
ENDBRANCH   5  30
BRANCH   4  32
HETATM   32  C10 UNL     1      26.325  64.859  49.380  1.00  0.00    -0.015 C 
HETATM   33  C11 UNL     1      26.364  63.672  50.312  1.00  0.00     0.010 C 
HETATM   34  C12 UNL     1      27.658  65.469  49.123  1.00  0.00     0.010 C 
ENDBRANCH   4  32
TORSDOF 14
ENDMDL
MODEL 2
REMARK VINA RESULT: -7.093240424      3.317      5.454
REMARK  14 active torsions:
REMARK  status: ('A' for Active; 'I' for Inactive)
REMARK    1  A    between atoms: C2_2  and  C4_4 
REMARK    2  A    between atoms: C4_4  and  C5_5 
REMARK    3  A    between atoms: C5_5  and  S1_6 
REMARK    4  A    between atoms: S1_6  and  C6_7 
REMARK    5  A    between atoms: C6_7  and  C7_8 
REMARK    6  A    between atoms: C9_11  and  C10_12 
REMARK    7  A    between atoms: C13_15  and  O1_16 
REMARK    8  A    between atoms: C14_18  and  O2_19 
REMARK    9  A    between atoms: O2_19  and  C15_20 
REMARK   10  A    between atoms: C16_22  and  C17_23 
REMARK   11  A    between atoms: C17_23  and  O4_24 
REMARK   12  A    between atoms: C18_26  and  O5_27 
REMARK   13  A    between atoms: C19_29  and  O6_30 
REMARK   14  A    between atoms: C20_32  and  O7_33 
ROOT
HETATM    1  C7  UNL     1      22.157  65.548  46.301  1.00  0.00     0.088 C 
HETATM    2  S2  UNL     1      22.886  66.540  47.655  1.00  0.00    -0.160 SA
HETATM    3  C8  UNL     1      23.671  65.295  48.760  1.00  0.00     0.082 C 
HETATM    4  C9  UNL     1      24.521  64.456  47.867  1.00  0.00     0.029 C 
HETATM    5  C13 UNL     1      23.679  63.676  46.860  1.00  0.00     0.153 C 
HETATM    6  C14 UNL     1      23.223  64.625  45.803  1.00  0.00     0.168 C 
ENDROOT
BRANCH   6   7
HETATM    7  O2  UNL     1      22.935  64.052  44.583  1.00  0.00    -0.349 OA
BRANCH   7   8
HETATM    8  C15 UNL     1      22.854  64.887  43.522  1.00  0.00     0.292 C 
HETATM    9  O3  UNL     1      22.347  64.192  42.398  1.00  0.00    -0.348 OA
HETATM   10  C16 UNL     1      22.928  62.925  42.288  1.00  0.00     0.179 C 
HETATM   11  C18 UNL     1      24.415  63.030  42.232  1.00  0.00     0.180 C 
HETATM   12  C19 UNL     1      24.816  64.465  42.002  1.00  0.00     0.183 C 
HETATM   13  C20 UNL     1      24.247  65.330  43.124  1.00  0.00     0.204 C 
BRANCH  10  14
HETATM   14  C17 UNL     1      22.399  62.346  40.978  1.00  0.00     0.198 C 
BRANCH  14  15
HETATM   15  O4  UNL     1      23.424  61.700  40.277  1.00  0.00    -0.398 OA
ATOM     16  H4  UNL     1      23.653  62.188  39.495  1.00  0.00     0.209 HD
ENDBRANCH  14  15
ENDBRANCH  10  14
BRANCH  11  17
HETATM   17  O5  UNL     1      25.051  62.508  43.363  1.00  0.00    -0.390 OA
ATOM     18  H5  UNL     1      25.930  62.194  43.190  1.00  0.00     0.210 HD
ENDBRANCH  11  17
BRANCH  12  19
HETATM   19  O6  UNL     1      26.204  64.559  42.014  1.00  0.00    -0.390 OA
ATOM     20  H6  UNL     1      26.455  65.424  42.317  1.00  0.00     0.210 HD
ENDBRANCH  12  19
BRANCH  13  21
HETATM   21  O7  UNL     1      24.258  66.677  42.751  1.00  0.00    -0.388 OA
ATOM     22  H7  UNL     1      25.023  67.120  43.100  1.00  0.00     0.210 HD
ENDBRANCH  13  21
ENDBRANCH   7   8
ENDBRANCH   6   7
BRANCH   1  23
HETATM   23  C6  UNL     1      20.958  64.862  46.899  1.00  0.00     0.091 C 
BRANCH  23  24
HETATM   24  S1  UNL     1      19.537  65.327  45.834  1.00  0.00    -0.168 SA
BRANCH  24  25
HETATM   25  C5  UNL     1      18.927  66.970  46.252  1.00  0.00     0.074 C 
BRANCH  25  26
HETATM   26  C4  UNL     1      18.993  67.870  45.034  1.00  0.00     0.014 C 
BRANCH  26  27
HETATM   27  C2  UNL     1      20.285  68.652  44.966  1.00  0.00    -0.022 C 
HETATM   28  C1  UNL     1      20.535  69.165  46.390  1.00  0.00     0.009 C 
HETATM   29  C3  UNL     1      20.134  69.892  44.107  1.00  0.00     0.009 C 
ENDBRANCH  26  27
ENDBRANCH  25  26
ENDBRANCH  24  25
ENDBRANCH  23  24
ENDBRANCH   1  23
BRANCH   5  30
HETATM   30  O1  UNL     1      24.520  62.681  46.380  1.00  0.00    -0.393 OA
ATOM     31  H1  UNL     1      24.451  61.974  47.010  1.00  0.00     0.210 HD
ENDBRANCH   5  30
BRANCH   4  32
HETATM   32  C10 UNL     1      25.501  63.586  48.589  1.00  0.00    -0.015 C 
HETATM   33  C11 UNL     1      26.880  64.161  48.369  1.00  0.00     0.010 C 
HETATM   34  C12 UNL     1      25.172  63.340  50.019  1.00  0.00     0.010 C 
ENDBRANCH   4  32
TORSDOF 14
ENDMDL
MODEL 3
REMARK VINA RESULT: -7.021253499      3.523      5.942
REMARK  14 active torsions:
REMARK  status: ('A' for Active; 'I' for Inactive)
REMARK    1  A    between atoms: C2_2  and  C4_4 
REMARK    2  A    between atoms: C4_4  and  C5_5 
REMARK    3  A    between atoms: C5_5  and  S1_6 
REMARK    4  A    between atoms: S1_6  and  C6_7 
REMARK    5  A    between atoms: C6_7  and  C7_8 
REMARK    6  A    between atoms: C9_11  and  C10_12 
REMARK    7  A    between atoms: C13_15  and  O1_16 
REMARK    8  A    between atoms: C14_18  and  O2_19 
REMARK    9  A    between atoms: O2_19  and  C15_20 
REMARK   10  A    between atoms: C16_22  and  C17_23 
REMARK   11  A    between atoms: C17_23  and  O4_24 
REMARK   12  A    between atoms: C18_26  and  O5_27 
REMARK   13  A    between atoms: C19_29  and  O6_30 
REMARK   14  A    between atoms: C20_32  and  O7_33 
ROOT
HETATM    1  C7  UNL     1      21.775  65.532  46.253  1.00  0.00     0.088 C 
HETATM    2  S2  UNL     1      22.322  66.592  47.639  1.00  0.00    -0.160 SA
HETATM    3  C8  UNL     1      23.178  65.436  48.788  1.00  0.00     0.082 C 
HETATM    4  C9  UNL     1      24.157  64.694  47.943  1.00  0.00     0.029 C 
HETATM    5  C13 UNL     1      23.457  63.832  46.896  1.00  0.00     0.153 C 
HETATM    6  C14 UNL     1      22.958  64.729  45.814  1.00  0.00     0.168 C 
ENDROOT
BRANCH   6   7
HETATM    7  O2  UNL     1      22.796  64.132  44.582  1.00  0.00    -0.349 OA
BRANCH   7   8
HETATM    8  C15 UNL     1      22.779  64.951  43.505  1.00  0.00     0.292 C 
HETATM    9  O3  UNL     1      22.309  64.246  42.371  1.00  0.00    -0.348 OA
HETATM   10  C16 UNL     1      22.869  62.967  42.307  1.00  0.00     0.179 C 
HETATM   11  C18 UNL     1      24.359  63.043  42.317  1.00  0.00     0.180 C 
HETATM   12  C19 UNL     1      24.798  64.466  42.083  1.00  0.00     0.183 C 
HETATM   13  C20 UNL     1      24.197  65.360  43.164  1.00  0.00     0.204 C 
BRANCH  10  14
HETATM   14  C17 UNL     1      22.388  62.377  40.984  1.00  0.00     0.198 C 
BRANCH  14  15
HETATM   15  O4  UNL     1      23.430  61.697  40.341  1.00  0.00    -0.398 OA
ATOM     16  H4  UNL     1      23.771  61.007  40.897  1.00  0.00     0.209 HD
ENDBRANCH  14  15
ENDBRANCH  10  14
BRANCH  11  17
HETATM   17  O5  UNL     1      24.933  62.528  43.484  1.00  0.00    -0.390 OA
ATOM     18  H5  UNL     1      25.167  63.198  44.116  1.00  0.00     0.210 HD
ENDBRANCH  11  17
BRANCH  12  19
HETATM   19  O6  UNL     1      26.186  64.533  42.156  1.00  0.00    -0.390 OA
ATOM     20  H6  UNL     1      26.433  65.265  42.709  1.00  0.00     0.210 HD
ENDBRANCH  12  19
BRANCH  13  21
HETATM   21  O7  UNL     1      24.252  66.700  42.771  1.00  0.00    -0.388 OA
ATOM     22  H7  UNL     1      23.509  67.185  43.112  1.00  0.00     0.210 HD
ENDBRANCH  13  21
ENDBRANCH   7   8
ENDBRANCH   6   7
BRANCH   1  23
HETATM   23  C6  UNL     1      20.626  64.721  46.790  1.00  0.00     0.091 C 
BRANCH  23  24
HETATM   24  S1  UNL     1      19.531  65.917  47.650  1.00  0.00    -0.168 SA
BRANCH  24  25
HETATM   25  C5  UNL     1      18.002  66.169  46.729  1.00  0.00     0.074 C 
BRANCH  25  26
HETATM   26  C4  UNL     1      16.810  65.942  47.638  1.00  0.00     0.014 C 
BRANCH  26  27
HETATM   27  C2  UNL     1      15.681  65.223  46.937  1.00  0.00    -0.022 C 
HETATM   28  C1  UNL     1      15.925  65.430  45.436  1.00  0.00     0.009 C 
HETATM   29  C3  UNL     1      14.345  65.880  47.226  1.00  0.00     0.009 C 
ENDBRANCH  26  27
ENDBRANCH  25  26
ENDBRANCH  24  25
ENDBRANCH  23  24
ENDBRANCH   1  23
BRANCH   5  30
HETATM   30  O1  UNL     1      24.423  62.933  46.463  1.00  0.00    -0.393 OA
ATOM     31  H1  UNL     1      25.161  63.471  46.200  1.00  0.00     0.210 HD
ENDBRANCH   5  30
BRANCH   4  32
HETATM   32  C10 UNL     1      25.186  63.932  48.717  1.00  0.00    -0.015 C 
HETATM   33  C11 UNL     1      26.474  64.721  48.677  1.00  0.00     0.010 C 
HETATM   34  C12 UNL     1      24.761  63.540  50.088  1.00  0.00     0.010 C 
ENDBRANCH   4  32
TORSDOF 14
ENDMDL
MODEL 4
REMARK VINA RESULT: -6.967522769      2.855      6.246
REMARK  14 active torsions:
REMARK  status: ('A' for Active; 'I' for Inactive)
REMARK    1  A    between atoms: C2_2  and  C4_4 
REMARK    2  A    between atoms: C4_4  and  C5_5 
REMARK    3  A    between atoms: C5_5  and  S1_6 
REMARK    4  A    between atoms: S1_6  and  C6_7 
REMARK    5  A    between atoms: C6_7  and  C7_8 
REMARK    6  A    between atoms: C9_11  and  C10_12 
REMARK    7  A    between atoms: C13_15  and  O1_16 
REMARK    8  A    between atoms: C14_18  and  O2_19 
REMARK    9  A    between atoms: O2_19  and  C15_20 
REMARK   10  A    between atoms: C16_22  and  C17_23 
REMARK   11  A    between atoms: C17_23  and  O4_24 
REMARK   12  A    between atoms: C18_26  and  O5_27 
REMARK   13  A    between atoms: C19_29  and  O6_30 
REMARK   14  A    between atoms: C20_32  and  O7_33 
ROOT
HETATM    1  C7  UNL     1      20.933  66.413  45.108  1.00  0.00     0.088 C 
HETATM    2  S2  UNL     1      19.565  67.529  44.632  1.00  0.00    -0.160 SA
HETATM    3  C8  UNL     1      18.040  66.575  45.023  1.00  0.00     0.082 C 
HETATM    4  C9  UNL     1      18.213  66.116  46.431  1.00  0.00     0.029 C 
HETATM    5  C13 UNL     1      19.383  65.145  46.565  1.00  0.00     0.153 C 
HETATM    6  C14 UNL     1      20.649  65.930  46.495  1.00  0.00     0.168 C 
ENDROOT
BRANCH   6   7
HETATM    7  O2  UNL     1      21.736  65.350  47.113  1.00  0.00    -0.349 OA
BRANCH   7   8
HETATM    8  C15 UNL     1      22.297  66.040  48.133  1.00  0.00     0.292 C 
HETATM    9  O3  UNL     1      23.552  66.557  47.733  1.00  0.00    -0.348 OA
HETATM   10  C16 UNL     1      24.278  65.609  47.007  1.00  0.00     0.179 C 
HETATM   11  C18 UNL     1      24.438  64.351  47.794  1.00  0.00     0.180 C 
HETATM   12  C19 UNL     1      24.044  64.595  49.229  1.00  0.00     0.183 C 
HETATM   13  C20 UNL     1      22.601  65.090  49.274  1.00  0.00     0.204 C 
BRANCH  10  14
HETATM   14  C17 UNL     1      25.644  66.243  46.758  1.00  0.00     0.198 C 
BRANCH  14  15
HETATM   15  O4  UNL     1      26.567  65.276  46.340  1.00  0.00    -0.398 OA
ATOM     16  H4  UNL     1      26.927  64.813  47.088  1.00  0.00     0.209 HD
ENDBRANCH  14  15
ENDBRANCH  10  14
BRANCH  11  17
HETATM   17  O5  UNL     1      23.734  63.268  47.259  1.00  0.00    -0.390 OA
ATOM     18  H5  UNL     1      23.485  62.622  47.910  1.00  0.00     0.210 HD
ENDBRANCH  11  17
BRANCH  12  19
HETATM   19  O6  UNL     1      24.138  63.402  49.938  1.00  0.00    -0.390 OA
ATOM     20  H6  UNL     1      25.026  63.302  50.263  1.00  0.00     0.210 HD
ENDBRANCH  12  19
BRANCH  13  21
HETATM   21  O7  UNL     1      22.331  65.687  50.509  1.00  0.00    -0.388 OA
ATOM     22  H7  UNL     1      21.910  65.072  51.099  1.00  0.00     0.210 HD
ENDBRANCH  13  21
ENDBRANCH   7   8
ENDBRANCH   6   7
BRANCH   1  23
HETATM   23  C6  UNL     1      20.963  65.334  44.059  1.00  0.00     0.091 C 
BRANCH  23  24
HETATM   24  S1  UNL     1      20.868  66.206  42.446  1.00  0.00    -0.168 SA
BRANCH  24  25
HETATM   25  C5  UNL     1      20.084  65.169  41.197  1.00  0.00     0.074 C 
BRANCH  25  26
HETATM   26  C4  UNL     1      19.625  63.867  41.822  1.00  0.00     0.014 C 
BRANCH  26  27
HETATM   27  C2  UNL     1      18.138  63.849  42.090  1.00  0.00    -0.022 C 
HETATM   28  C1  UNL     1      17.968  63.146  43.443  1.00  0.00     0.009 C 
HETATM   29  C3  UNL     1      17.407  62.980  41.085  1.00  0.00     0.009 C 
ENDBRANCH  26  27
ENDBRANCH  25  26
ENDBRANCH  24  25
ENDBRANCH  23  24
ENDBRANCH   1  23
BRANCH   5  30
HETATM   30  O1  UNL     1      19.193  64.517  47.789  1.00  0.00    -0.393 OA
ATOM     31  H1  UNL     1      18.316  64.154  47.747  1.00  0.00     0.210 HD
ENDBRANCH   5  30
BRANCH   4  32
HETATM   32  C10 UNL     1      16.962  65.598  47.068  1.00  0.00    -0.015 C 
HETATM   33  C11 UNL     1      16.622  66.507  48.226  1.00  0.00     0.010 C 
HETATM   34  C12 UNL     1      15.835  65.376  46.123  1.00  0.00     0.010 C 
ENDBRANCH   4  32
TORSDOF 14
ENDMDL
MODEL 5
REMARK VINA RESULT: -6.885741947      3.292      6.096
REMARK  14 active torsions:
REMARK  status: ('A' for Active; 'I' for Inactive)
REMARK    1  A    between atoms: C2_2  and  C4_4 
REMARK    2  A    between atoms: C4_4  and  C5_5 
REMARK    3  A    between atoms: C5_5  and  S1_6 
REMARK    4  A    between atoms: S1_6  and  C6_7 
REMARK    5  A    between atoms: C6_7  and  C7_8 
REMARK    6  A    between atoms: C9_11  and  C10_12 
REMARK    7  A    between atoms: C13_15  and  O1_16 
REMARK    8  A    between atoms: C14_18  and  O2_19 
REMARK    9  A    between atoms: O2_19  and  C15_20 
REMARK   10  A    between atoms: C16_22  and  C17_23 
REMARK   11  A    between atoms: C17_23  and  O4_24 
REMARK   12  A    between atoms: C18_26  and  O5_27 
REMARK   13  A    between atoms: C19_29  and  O6_30 
REMARK   14  A    between atoms: C20_32  and  O7_33 
ROOT
HETATM    1  C7  UNL     1      22.042  66.429  45.434  1.00  0.00     0.088 C 
HETATM    2  S2  UNL     1      21.478  67.267  46.958  1.00  0.00    -0.160 SA
HETATM    3  C8  UNL     1      20.953  65.894  48.066  1.00  0.00     0.082 C 
HETATM    4  C9  UNL     1      22.099  64.941  48.083  1.00  0.00     0.029 C 
HETATM    5  C13 UNL     1      22.338  64.325  46.707  1.00  0.00     0.153 C 
HETATM    6  C14 UNL     1      22.995  65.351  45.846  1.00  0.00     0.168 C 
ENDROOT
BRANCH   6   7
HETATM    7  O2  UNL     1      23.750  64.852  44.807  1.00  0.00    -0.349 OA
BRANCH   7   8
HETATM    8  C15 UNL     1      25.012  65.326  44.689  1.00  0.00     0.292 C 
HETATM    9  O3  UNL     1      25.274  65.669  43.341  1.00  0.00    -0.348 OA
HETATM   10  C16 UNL     1      24.773  64.698  42.469  1.00  0.00     0.179 C 
HETATM   11  C18 UNL     1      25.330  63.354  42.802  1.00  0.00     0.180 C 
HETATM   12  C19 UNL     1      26.481  63.503  43.763  1.00  0.00     0.183 C 
HETATM   13  C20 UNL     1      25.995  64.221  45.019  1.00  0.00     0.204 C 
BRANCH  10  14
HETATM   14  C17 UNL     1      25.237  65.121  41.077  1.00  0.00     0.198 C 
BRANCH  14  15
HETATM   15  O4  UNL     1      26.387  65.915  41.162  1.00  0.00    -0.398 OA
ATOM     16  H4  UNL     1      26.646  66.031  42.069  1.00  0.00     0.209 HD
ENDBRANCH  14  15
ENDBRANCH  10  14
BRANCH  11  17
HETATM   17  O5  UNL     1      24.372  62.466  43.302  1.00  0.00    -0.390 OA
ATOM     18  H5  UNL     1      24.337  62.445  44.252  1.00  0.00     0.210 HD
ENDBRANCH  11  17
BRANCH  12  19
HETATM   19  O6  UNL     1      26.950  62.241  44.113  1.00  0.00    -0.390 OA
ATOM     20  H6  UNL     1      26.806  62.102  45.042  1.00  0.00     0.210 HD
ENDBRANCH  12  19
BRANCH  13  21
HETATM   21  O7  UNL     1      27.082  64.718  45.745  1.00  0.00    -0.388 OA
ATOM     22  H7  UNL     1      27.210  64.223  46.546  1.00  0.00     0.210 HD
ENDBRANCH  13  21
ENDBRANCH   7   8
ENDBRANCH   6   7
BRANCH   1  23
HETATM   23  C6  UNL     1      20.793  65.938  44.752  1.00  0.00     0.091 C 
BRANCH  23  24
HETATM   24  S1  UNL     1      19.690  67.400  44.622  1.00  0.00    -0.168 SA
BRANCH  24  25
HETATM   25  C5  UNL     1      17.971  66.941  44.911  1.00  0.00     0.074 C 
BRANCH  25  26
HETATM   26  C4  UNL     1      17.836  66.283  46.270  1.00  0.00     0.014 C 
BRANCH  26  27
HETATM   27  C2  UNL     1      16.653  65.345  46.341  1.00  0.00    -0.022 C 
HETATM   28  C1  UNL     1      15.951  65.461  44.981  1.00  0.00     0.009 C 
HETATM   29  C3  UNL     1      15.637  65.813  47.364  1.00  0.00     0.009 C 
ENDBRANCH  26  27
ENDBRANCH  25  26
ENDBRANCH  24  25
ENDBRANCH  23  24
ENDBRANCH   1  23
BRANCH   5  30
HETATM   30  O1  UNL     1      23.136  63.214  46.942  1.00  0.00    -0.393 OA
ATOM     31  H1  UNL     1      23.919  63.555  47.359  1.00  0.00     0.210 HD
ENDBRANCH   5  30
BRANCH   4  32
HETATM   32  C10 UNL     1      22.030  63.913  49.167  1.00  0.00    -0.015 C 
HETATM   33  C11 UNL     1      22.954  64.349  50.280  1.00  0.00     0.010 C 
HETATM   34  C12 UNL     1      20.651  63.587  49.621  1.00  0.00     0.010 C 
ENDBRANCH   4  32
TORSDOF 14
ENDMDL
