MODEL 1
REMARK VINA RESULT: -8.017750074      0.000      0.000
REMARK  15 active torsions:
REMARK  status: ('A' for Active; 'I' for Inactive)
REMARK    1  A    between atoms: C2_2  and  C3_3 
REMARK    2  A    between atoms: C3_3  and  O1_4 
REMARK    3  A    between atoms: O1_4  and  O2_5 
REMARK    4  A    between atoms: C4_7  and  C5_8 
REMARK    5  A    between atoms: C5_8  and  C6_9 
REMARK    6  A    between atoms: C11_14  and  O3_15 
REMARK    7  A    between atoms: O3_15  and  C12_16 
REMARK    8  A    between atoms: C15_20  and  O5_21 
REMARK    9  A    between atoms: O5_21  and  C16_22 
REMARK   10  A    between atoms: C16_22  and  C17_23 
REMARK   11  A    between atoms: C18_25  and  C19_26 
REMARK   12  A    between atoms: C19_26  and  O7_27 
REMARK   13  A    between atoms: C20_29  and  O8_30 
REMARK   14  A    between atoms: C21_32  and  O9_33 
REMARK   15  A    between atoms: C22_35  and  O10_36 
ROOT
HETATM    1  C12 UNL     1      22.792  66.066  48.777  1.00  0.00     0.202 C 
HETATM    2  C13 UNL     1      22.850  65.456  50.140  1.00  0.00     0.034 C 
HETATM    3  C14 UNL     1      23.486  64.311  50.050  1.00  0.00     0.137 C 
HETATM    4  O4  UNL     1      23.874  64.086  48.716  1.00  0.00    -0.330 OA
HETATM    5  C15 UNL     1      23.865  65.370  48.067  1.00  0.00     0.297 C 
ENDROOT
BRANCH   5   6
HETATM    6  O5  UNL     1      25.103  65.869  48.062  1.00  0.00    -0.355 OA
BRANCH   6   7
HETATM    7  C16 UNL     1      25.822  65.859  46.905  1.00  0.00     0.205 C 
BRANCH   7   8
HETATM    8  C17 UNL     1      26.456  64.508  46.648  1.00  0.00     0.177 C 
HETATM    9  O6  UNL     1      26.561  64.370  45.265  1.00  0.00    -0.371 OA
HETATM   10  C18 UNL     1      27.060  63.118  44.909  1.00  0.00     0.177 C 
HETATM   11  C20 UNL     1      28.203  62.683  45.767  1.00  0.00     0.180 C 
HETATM   12  C21 UNL     1      28.824  63.887  46.423  1.00  0.00     0.180 C 
HETATM   13  C22 UNL     1      27.812  64.524  47.322  1.00  0.00     0.180 C 
BRANCH  10  14
HETATM   14  C19 UNL     1      27.541  63.229  43.479  1.00  0.00     0.198 C 
BRANCH  14  15
HETATM   15  O7  UNL     1      27.747  64.531  43.094  1.00  0.00    -0.398 OA
ATOM     16  H7  UNL     1      27.514  64.682  42.185  1.00  0.00     0.209 HD
ENDBRANCH  14  15
ENDBRANCH  10  14
BRANCH  11  17
HETATM   17  O8  UNL     1      29.192  61.992  45.097  1.00  0.00    -0.390 OA
ATOM     18  H8  UNL     1      29.687  61.388  45.638  1.00  0.00     0.210 HD
ENDBRANCH  11  17
BRANCH  12  19
HETATM   19  O9  UNL     1      29.371  64.780  45.521  1.00  0.00    -0.390 OA
ATOM     20  H9  UNL     1      30.075  65.302  45.889  1.00  0.00     0.210 HD
ENDBRANCH  12  19
BRANCH  13  21
HETATM   21  O10 UNL     1      28.239  65.846  47.551  1.00  0.00    -0.390 OA
ATOM     22  H10 UNL     1      29.038  66.029  47.072  1.00  0.00     0.210 HD
ENDBRANCH  13  21
ENDBRANCH   7   8
ENDBRANCH   6   7
ENDBRANCH   5   6
BRANCH   1  23
HETATM   23  O3  UNL     1      21.541  65.722  48.276  1.00  0.00    -0.364 OA
BRANCH  23  24
HETATM   24  C11 UNL     1      21.484  65.448  46.959  1.00  0.00     0.188 C 
HETATM   25  C3  UNL     1      20.118  64.660  46.676  1.00  0.00     0.152 C 
HETATM   26  C4  UNL     1      19.257  65.733  47.124  1.00  0.00    -0.018 C 
HETATM   27  C9  UNL     1      19.770  66.849  46.221  1.00  0.00     0.009 C 
HETATM   28  C10 UNL     1      21.074  66.667  46.138  1.00  0.00     0.009 C 
BRANCH  25  29
HETATM   29  C2  UNL     1      20.309  64.396  45.213  1.00  0.00     0.045 C 
HETATM   30  C1  UNL     1      19.498  63.425  44.495  1.00  0.00     0.009 C 
ENDBRANCH  25  29
BRANCH  25  31
HETATM   31  O1  UNL     1      20.155  63.527  47.440  1.00  0.00    -0.224 OA
BRANCH  31  32
HETATM   32  O2  UNL     1      21.350  62.975  47.499  1.00  0.00    -0.249 OA
ATOM     33  H2  UNL     1      21.361  62.151  47.971  1.00  0.00     0.253 HD
ENDBRANCH  31  32
ENDBRANCH  25  31
BRANCH  26  34
HETATM   34  C5  UNL     1      17.879  65.791  47.371  1.00  0.00     0.012 C 
BRANCH  34  35
HETATM   35  C6  UNL     1      16.767  65.701  46.731  1.00  0.00    -0.087 C 
HETATM   36  C7  UNL     1      15.452  65.742  47.577  1.00  0.00     0.043 C 
HETATM   37  C8  UNL     1      16.479  65.536  45.306  1.00  0.00     0.043 C 
ENDBRANCH  34  35
ENDBRANCH  26  34
ENDBRANCH  23  24
ENDBRANCH   1  23
TORSDOF 15
ENDMDL
MODEL 2
REMARK VINA RESULT: -7.810736970      1.792      3.155
REMARK  15 active torsions:
REMARK  status: ('A' for Active; 'I' for Inactive)
REMARK    1  A    between atoms: C2_2  and  C3_3 
REMARK    2  A    between atoms: C3_3  and  O1_4 
REMARK    3  A    between atoms: O1_4  and  O2_5 
REMARK    4  A    between atoms: C4_7  and  C5_8 
REMARK    5  A    between atoms: C5_8  and  C6_9 
REMARK    6  A    between atoms: C11_14  and  O3_15 
REMARK    7  A    between atoms: O3_15  and  C12_16 
REMARK    8  A    between atoms: C15_20  and  O5_21 
REMARK    9  A    between atoms: O5_21  and  C16_22 
REMARK   10  A    between atoms: C16_22  and  C17_23 
REMARK   11  A    between atoms: C18_25  and  C19_26 
REMARK   12  A    between atoms: C19_26  and  O7_27 
REMARK   13  A    between atoms: C20_29  and  O8_30 
REMARK   14  A    between atoms: C21_32  and  O9_33 
REMARK   15  A    between atoms: C22_35  and  O10_36 
ROOT
HETATM    1  C12 UNL     1      22.336  65.058  47.353  1.00  0.00     0.202 C 
HETATM    2  C13 UNL     1      23.076  65.629  46.186  1.00  0.00     0.034 C 
HETATM    3  C14 UNL     1      24.031  66.404  46.646  1.00  0.00     0.137 C 
HETATM    4  O4  UNL     1      24.001  66.410  48.053  1.00  0.00    -0.330 OA
HETATM    5  C15 UNL     1      23.287  65.228  48.451  1.00  0.00     0.297 C 
ENDROOT
BRANCH   5   6
HETATM    6  O5  UNL     1      24.161  64.261  48.739  1.00  0.00    -0.355 OA
BRANCH   6   7
HETATM    7  C16 UNL     1      25.262  64.558  49.484  1.00  0.00     0.205 C 
BRANCH   7   8
HETATM    8  C17 UNL     1      26.489  63.819  48.992  1.00  0.00     0.177 C 
HETATM    9  O6  UNL     1      26.139  63.217  47.784  1.00  0.00    -0.371 OA
HETATM   10  C18 UNL     1      27.176  62.436  47.278  1.00  0.00     0.177 C 
HETATM   11  C20 UNL     1      28.511  63.097  47.395  1.00  0.00     0.180 C 
HETATM   12  C21 UNL     1      28.323  64.583  47.544  1.00  0.00     0.180 C 
HETATM   13  C22 UNL     1      27.583  64.852  48.816  1.00  0.00     0.180 C 
BRANCH  10  14
HETATM   14  C19 UNL     1      26.876  62.204  45.813  1.00  0.00     0.198 C 
BRANCH  14  15
HETATM   15  O7  UNL     1      27.279  60.963  45.384  1.00  0.00    -0.398 OA
ATOM     16  H7  UNL     1      27.374  60.919  44.440  1.00  0.00     0.209 HD
ENDBRANCH  14  15
ENDBRANCH  10  14
BRANCH  11  17
HETATM   17  O8  UNL     1      29.358  62.868  46.330  1.00  0.00    -0.390 OA
ATOM     18  H8  UNL     1      29.440  63.599  45.728  1.00  0.00     0.210 HD
ENDBRANCH  11  17
BRANCH  12  19
HETATM   19  O9  UNL     1      27.726  65.171  46.445  1.00  0.00    -0.390 OA
ATOM     20  H9  UNL     1      27.208  65.937  46.664  1.00  0.00     0.210 HD
ENDBRANCH  12  19
BRANCH  13  21
HETATM   21  O10 UNL     1      27.034  66.144  48.707  1.00  0.00    -0.390 OA
ATOM     22  H10 UNL     1      26.510  66.353  49.471  1.00  0.00     0.210 HD
ENDBRANCH  13  21
ENDBRANCH   7   8
ENDBRANCH   6   7
ENDBRANCH   5   6
BRANCH   1  23
HETATM   23  O3  UNL     1      21.221  65.874  47.511  1.00  0.00    -0.364 OA
BRANCH  23  24
HETATM   24  C11 UNL     1      20.029  65.249  47.550  1.00  0.00     0.188 C 
HETATM   25  C3  UNL     1      18.889  66.336  47.265  1.00  0.00     0.152 C 
HETATM   26  C4  UNL     1      19.366  66.677  45.942  1.00  0.00    -0.018 C 
HETATM   27  C9  UNL     1      19.358  65.287  45.315  1.00  0.00     0.009 C 
HETATM   28  C10 UNL     1      19.751  64.465  46.271  1.00  0.00     0.009 C 
BRANCH  25  29
HETATM   29  C2  UNL     1      17.689  65.455  47.439  1.00  0.00     0.045 C 
HETATM   30  C1  UNL     1      16.343  66.001  47.533  1.00  0.00     0.009 C 
ENDBRANCH  25  29
BRANCH  25  31
HETATM   31  O1  UNL     1      19.006  67.290  48.237  1.00  0.00    -0.224 OA
BRANCH  31  32
HETATM   32  O2  UNL     1      19.059  66.791  49.455  1.00  0.00    -0.249 OA
ATOM     33  H2  UNL     1      19.719  67.201  50.001  1.00  0.00     0.253 HD
ENDBRANCH  31  32
ENDBRANCH  25  31
BRANCH  26  34
HETATM   34  C5  UNL     1      19.019  67.702  45.053  1.00  0.00     0.012 C 
BRANCH  34  35
HETATM   35  C6  UNL     1      19.519  68.779  44.560  1.00  0.00    -0.087 C 
HETATM   36  C7  UNL     1      20.522  69.575  45.459  1.00  0.00     0.043 C 
HETATM   37  C8  UNL     1      19.307  69.450  43.277  1.00  0.00     0.043 C 
ENDBRANCH  34  35
ENDBRANCH  26  34
ENDBRANCH  23  24
ENDBRANCH   1  23
TORSDOF 15
ENDMDL
MODEL 3
REMARK VINA RESULT: -7.788971399      1.833      2.975
REMARK  15 active torsions:
REMARK  status: ('A' for Active; 'I' for Inactive)
REMARK    1  A    between atoms: C2_2  and  C3_3 
REMARK    2  A    between atoms: C3_3  and  O1_4 
REMARK    3  A    between atoms: O1_4  and  O2_5 
REMARK    4  A    between atoms: C4_7  and  C5_8 
REMARK    5  A    between atoms: C5_8  and  C6_9 
REMARK    6  A    between atoms: C11_14  and  O3_15 
REMARK    7  A    between atoms: O3_15  and  C12_16 
REMARK    8  A    between atoms: C15_20  and  O5_21 
REMARK    9  A    between atoms: O5_21  and  C16_22 
REMARK   10  A    between atoms: C16_22  and  C17_23 
REMARK   11  A    between atoms: C18_25  and  C19_26 
REMARK   12  A    between atoms: C19_26  and  O7_27 
REMARK   13  A    between atoms: C20_29  and  O8_30 
REMARK   14  A    between atoms: C21_32  and  O9_33 
REMARK   15  A    between atoms: C22_35  and  O10_36 
ROOT
HETATM    1  C12 UNL     1      22.675  66.349  48.410  1.00  0.00     0.202 C 
HETATM    2  C13 UNL     1      22.797  65.810  49.798  1.00  0.00     0.034 C 
HETATM    3  C14 UNL     1      23.434  64.664  49.737  1.00  0.00     0.137 C 
HETATM    4  O4  UNL     1      23.762  64.372  48.400  1.00  0.00    -0.330 OA
HETATM    5  C15 UNL     1      23.717  65.621  47.688  1.00  0.00     0.297 C 
ENDROOT
BRANCH   5   6
HETATM    6  O5  UNL     1      24.951  66.122  47.601  1.00  0.00    -0.355 OA
BRANCH   6   7
HETATM    7  C16 UNL     1      25.856  65.528  46.775  1.00  0.00     0.205 C 
BRANCH   7   8
HETATM    8  C17 UNL     1      27.161  65.238  47.486  1.00  0.00     0.177 C 
HETATM    9  O6  UNL     1      27.092  65.873  48.726  1.00  0.00    -0.371 OA
HETATM   10  C18 UNL     1      28.283  65.741  49.439  1.00  0.00     0.177 C 
HETATM   11  C20 UNL     1      28.854  64.362  49.364  1.00  0.00     0.180 C 
HETATM   12  C21 UNL     1      27.769  63.390  48.989  1.00  0.00     0.180 C 
HETATM   13  C22 UNL     1      27.261  63.733  47.624  1.00  0.00     0.180 C 
BRANCH  10  14
HETATM   14  C19 UNL     1      27.966  66.057  50.884  1.00  0.00     0.198 C 
BRANCH  14  15
HETATM   15  O7  UNL     1      27.958  67.408  51.136  1.00  0.00    -0.398 OA
ATOM     16  H7  UNL     1      27.328  67.648  51.805  1.00  0.00     0.209 HD
ENDBRANCH  14  15
ENDBRANCH  10  14
BRANCH  11  17
HETATM   17  O8  UNL     1      29.449  63.925  50.530  1.00  0.00    -0.390 OA
ATOM     18  H8  UNL     1      30.355  63.655  50.433  1.00  0.00     0.210 HD
ENDBRANCH  11  17
BRANCH  12  19
HETATM   19  O9  UNL     1      26.758  63.309  49.927  1.00  0.00    -0.390 OA
ATOM     20  H9  UNL     1      25.894  63.466  49.565  1.00  0.00     0.210 HD
ENDBRANCH  12  19
BRANCH  13  21
HETATM   21  O10 UNL     1      25.993  63.136  47.493  1.00  0.00    -0.390 OA
ATOM     22  H10 UNL     1      25.949  62.609  46.704  1.00  0.00     0.210 HD
ENDBRANCH  13  21
ENDBRANCH   7   8
ENDBRANCH   6   7
ENDBRANCH   5   6
BRANCH   1  23
HETATM   23  O3  UNL     1      21.403  65.977  47.985  1.00  0.00    -0.364 OA
BRANCH  23  24
HETATM   24  C11 UNL     1      21.296  65.596  46.698  1.00  0.00     0.188 C 
HETATM   25  C3  UNL     1      19.965  64.716  46.551  1.00  0.00     0.152 C 
HETATM   26  C4  UNL     1      19.067  65.774  46.962  1.00  0.00    -0.018 C 
HETATM   27  C9  UNL     1      19.469  66.841  45.949  1.00  0.00     0.009 C 
HETATM   28  C10 UNL     1      20.776  66.723  45.809  1.00  0.00     0.009 C 
BRANCH  25  29
HETATM   29  C2  UNL     1      20.097  64.348  45.104  1.00  0.00     0.045 C 
HETATM   30  C1  UNL     1      19.283  63.304  44.500  1.00  0.00     0.009 C 
ENDBRANCH  25  29
BRANCH  25  31
HETATM   31  O1  UNL     1      20.105  63.652  47.397  1.00  0.00    -0.224 OA
BRANCH  31  32
HETATM   32  O2  UNL     1      21.305  63.110  47.360  1.00  0.00    -0.249 OA
ATOM     33  H2  UNL     1      21.447  62.462  48.039  1.00  0.00     0.253 HD
ENDBRANCH  31  32
ENDBRANCH  25  31
BRANCH  26  34
HETATM   34  C5  UNL     1      17.703  65.778  47.279  1.00  0.00     0.012 C 
BRANCH  34  35
HETATM   35  C6  UNL     1      16.564  65.647  46.695  1.00  0.00    -0.087 C 
HETATM   36  C7  UNL     1      15.287  65.752  47.592  1.00  0.00     0.043 C 
HETATM   37  C8  UNL     1      16.214  65.383  45.299  1.00  0.00     0.043 C 
ENDBRANCH  34  35
ENDBRANCH  26  34
ENDBRANCH  23  24
ENDBRANCH   1  23
TORSDOF 15
ENDMDL
MODEL 4
REMARK VINA RESULT: -7.702814708      1.285      2.107
REMARK  15 active torsions:
REMARK  status: ('A' for Active; 'I' for Inactive)
REMARK    1  A    between atoms: C2_2  and  C3_3 
REMARK    2  A    between atoms: C3_3  and  O1_4 
REMARK    3  A    between atoms: O1_4  and  O2_5 
REMARK    4  A    between atoms: C4_7  and  C5_8 
REMARK    5  A    between atoms: C5_8  and  C6_9 
REMARK    6  A    between atoms: C11_14  and  O3_15 
REMARK    7  A    between atoms: O3_15  and  C12_16 
REMARK    8  A    between atoms: C15_20  and  O5_21 
REMARK    9  A    between atoms: O5_21  and  C16_22 
REMARK   10  A    between atoms: C16_22  and  C17_23 
REMARK   11  A    between atoms: C18_25  and  C19_26 
REMARK   12  A    between atoms: C19_26  and  O7_27 
REMARK   13  A    between atoms: C20_29  and  O8_30 
REMARK   14  A    between atoms: C21_32  and  O9_33 
REMARK   15  A    between atoms: C22_35  and  O10_36 
ROOT
HETATM    1  C12 UNL     1      22.638  66.069  48.741  1.00  0.00     0.202 C 
HETATM    2  C13 UNL     1      22.720  65.379  50.064  1.00  0.00     0.034 C 
HETATM    3  C14 UNL     1      23.326  64.228  49.888  1.00  0.00     0.137 C 
HETATM    4  O4  UNL     1      23.668  64.073  48.532  1.00  0.00    -0.330 OA
HETATM    5  C15 UNL     1      23.672  65.392  47.959  1.00  0.00     0.297 C 
ENDROOT
BRANCH   5   6
HETATM    6  O5  UNL     1      24.920  65.862  47.945  1.00  0.00    -0.355 OA
BRANCH   6   7
HETATM    7  C16 UNL     1      25.497  66.189  46.755  1.00  0.00     0.205 C 
BRANCH   7   8
HETATM    8  C17 UNL     1      26.419  65.096  46.258  1.00  0.00     0.177 C 
HETATM    9  O6  UNL     1      26.769  64.330  47.369  1.00  0.00    -0.371 OA
HETATM   10  C18 UNL     1      27.690  63.335  47.039  1.00  0.00     0.177 C 
HETATM   11  C20 UNL     1      27.360  62.642  45.758  1.00  0.00     0.180 C 
HETATM   12  C21 UNL     1      25.900  62.835  45.444  1.00  0.00     0.180 C 
HETATM   13  C22 UNL     1      25.639  64.293  45.237  1.00  0.00     0.180 C 
BRANCH  10  14
HETATM   14  C19 UNL     1      27.660  62.322  48.162  1.00  0.00     0.198 C 
BRANCH  14  15
HETATM   15  O7  UNL     1      28.824  61.597  48.246  1.00  0.00    -0.398 OA
ATOM     16  H7  UNL     1      29.503  62.055  48.727  1.00  0.00     0.209 HD
ENDBRANCH  14  15
ENDBRANCH  10  14
BRANCH  11  17
HETATM   17  O8  UNL     1      27.632  61.288  45.753  1.00  0.00    -0.390 OA
ATOM     18  H8  UNL     1      28.437  61.047  46.197  1.00  0.00     0.210 HD
ENDBRANCH  11  17
BRANCH  12  19
HETATM   19  O9  UNL     1      25.059  62.272  46.384  1.00  0.00    -0.390 OA
ATOM     20  H9  UNL     1      25.184  61.335  46.488  1.00  0.00     0.210 HD
ENDBRANCH  12  19
BRANCH  13  21
HETATM   21  O10 UNL     1      24.255  64.491  45.401  1.00  0.00    -0.390 OA
ATOM     22  H10 UNL     1      23.825  63.678  45.638  1.00  0.00     0.210 HD
ENDBRANCH  13  21
ENDBRANCH   7   8
ENDBRANCH   6   7
ENDBRANCH   5   6
BRANCH   1  23
HETATM   23  O3  UNL     1      21.364  65.784  48.260  1.00  0.00    -0.364 OA
BRANCH  23  24
HETATM   24  C11 UNL     1      21.272  65.522  46.942  1.00  0.00     0.188 C 
HETATM   25  C3  UNL     1      19.918  64.704  46.693  1.00  0.00     0.152 C 
HETATM   26  C4  UNL     1      19.045  65.751  47.179  1.00  0.00    -0.018 C 
HETATM   27  C9  UNL     1      19.503  66.889  46.273  1.00  0.00     0.009 C 
HETATM   28  C10 UNL     1      20.808  66.740  46.148  1.00  0.00     0.009 C 
BRANCH  25  29
HETATM   29  C2  UNL     1      20.069  64.461  45.221  1.00  0.00     0.045 C 
HETATM   30  C1  UNL     1      19.253  63.483  44.517  1.00  0.00     0.009 C 
ENDBRANCH  25  29
BRANCH  25  31
HETATM   31  O1  UNL     1      20.005  63.565  47.443  1.00  0.00    -0.224 OA
BRANCH  31  32
HETATM   32  O2  UNL     1      21.191  62.994  47.388  1.00  0.00    -0.249 OA
ATOM     33  H2  UNL     1      21.907  63.596  47.550  1.00  0.00     0.253 HD
ENDBRANCH  31  32
ENDBRANCH  25  31
BRANCH  26  34
HETATM   34  C5  UNL     1      17.675  65.774  47.470  1.00  0.00     0.012 C 
BRANCH  34  35
HETATM   35  C6  UNL     1      16.546  65.683  46.860  1.00  0.00    -0.087 C 
HETATM   36  C7  UNL     1      15.254  65.748  47.740  1.00  0.00     0.043 C 
HETATM   37  C8  UNL     1      16.218  65.498  45.446  1.00  0.00     0.043 C 
ENDBRANCH  34  35
ENDBRANCH  26  34
ENDBRANCH  23  24
ENDBRANCH   1  23
TORSDOF 15
ENDMDL
MODEL 5
REMARK VINA RESULT: -7.662684545      1.577      2.108
REMARK  15 active torsions:
REMARK  status: ('A' for Active; 'I' for Inactive)
REMARK    1  A    between atoms: C2_2  and  C3_3 
REMARK    2  A    between atoms: C3_3  and  O1_4 
REMARK    3  A    between atoms: O1_4  and  O2_5 
REMARK    4  A    between atoms: C4_7  and  C5_8 
REMARK    5  A    between atoms: C5_8  and  C6_9 
REMARK    6  A    between atoms: C11_14  and  O3_15 
REMARK    7  A    between atoms: O3_15  and  C12_16 
REMARK    8  A    between atoms: C15_20  and  O5_21 
REMARK    9  A    between atoms: O5_21  and  C16_22 
REMARK   10  A    between atoms: C16_22  and  C17_23 
REMARK   11  A    between atoms: C18_25  and  C19_26 
REMARK   12  A    between atoms: C19_26  and  O7_27 
REMARK   13  A    between atoms: C20_29  and  O8_30 
REMARK   14  A    between atoms: C21_32  and  O9_33 
REMARK   15  A    between atoms: C22_35  and  O10_36 
ROOT
HETATM    1  C12 UNL     1      22.799  66.183  48.496  1.00  0.00     0.202 C 
HETATM    2  C13 UNL     1      22.903  65.682  49.900  1.00  0.00     0.034 C 
HETATM    3  C14 UNL     1      23.536  64.532  49.878  1.00  0.00     0.137 C 
HETATM    4  O4  UNL     1      23.878  64.202  48.554  1.00  0.00    -0.330 OA
HETATM    5  C15 UNL     1      23.847  65.431  47.807  1.00  0.00     0.297 C 
ENDROOT
BRANCH   5   6
HETATM    6  O5  UNL     1      25.084  65.925  47.721  1.00  0.00    -0.355 OA
BRANCH   6   7
HETATM    7  C16 UNL     1      25.714  65.941  46.513  1.00  0.00     0.205 C 
BRANCH   7   8
HETATM    8  C17 UNL     1      25.126  64.923  45.559  1.00  0.00     0.177 C 
HETATM    9  O6  UNL     1      24.721  65.623  44.423  1.00  0.00    -0.371 OA
HETATM   10  C18 UNL     1      24.085  64.790  43.504  1.00  0.00     0.177 C 
HETATM   11  C20 UNL     1      24.778  63.478  43.334  1.00  0.00     0.180 C 
HETATM   12  C21 UNL     1      26.208  63.603  43.789  1.00  0.00     0.180 C 
HETATM   13  C22 UNL     1      26.224  63.926  45.250  1.00  0.00     0.180 C 
BRANCH  10  14
HETATM   14  C19 UNL     1      24.089  65.517  42.178  1.00  0.00     0.198 C 
BRANCH  14  15
HETATM   15  O7  UNL     1      25.045  66.502  42.122  1.00  0.00    -0.398 OA
ATOM     16  H7  UNL     1      25.925  66.162  42.233  1.00  0.00     0.209 HD
ENDBRANCH  14  15
ENDBRANCH  10  14
BRANCH  11  17
HETATM   17  O8  UNL     1      24.772  62.990  42.043  1.00  0.00    -0.390 OA
ATOM     18  H8  UNL     1      23.905  62.844  41.681  1.00  0.00     0.210 HD
ENDBRANCH  11  17
BRANCH  12  19
HETATM   19  O9  UNL     1      26.944  64.498  43.037  1.00  0.00    -0.390 OA
ATOM     20  H9  UNL     1      27.648  64.909  43.525  1.00  0.00     0.210 HD
ENDBRANCH  12  19
BRANCH  13  21
HETATM   21  O10 UNL     1      27.489  64.474  45.536  1.00  0.00    -0.390 OA
ATOM     22  H10 UNL     1      28.160  63.802  45.512  1.00  0.00     0.210 HD
ENDBRANCH  13  21
ENDBRANCH   7   8
ENDBRANCH   6   7
ENDBRANCH   5   6
BRANCH   1  23
HETATM   23  O3  UNL     1      21.532  65.805  48.066  1.00  0.00    -0.364 OA
BRANCH  23  24
HETATM   24  C11 UNL     1      21.425  65.452  46.771  1.00  0.00     0.188 C 
HETATM   25  C3  UNL     1      20.057  64.638  46.590  1.00  0.00     0.152 C 
HETATM   26  C4  UNL     1      19.203  65.729  47.008  1.00  0.00    -0.018 C 
HETATM   27  C9  UNL     1      19.669  66.794  46.020  1.00  0.00     0.009 C 
HETATM   28  C10 UNL     1      20.971  66.617  45.896  1.00  0.00     0.009 C 
BRANCH  25  29
HETATM   29  C2  UNL     1      20.193  64.289  45.139  1.00  0.00     0.045 C 
HETATM   30  C1  UNL     1      19.344  63.290  44.507  1.00  0.00     0.009 C 
ENDBRANCH  25  29
BRANCH  25  31
HETATM   31  O1  UNL     1      20.135  63.553  47.419  1.00  0.00    -0.224 OA
BRANCH  31  32
HETATM   32  O2  UNL     1      21.329  62.998  47.441  1.00  0.00    -0.249 OA
ATOM     33  H2  UNL     1      21.364  62.161  46.993  1.00  0.00     0.253 HD
ENDBRANCH  31  32
ENDBRANCH  25  31
BRANCH  26  34
HETATM   34  C5  UNL     1      17.836  65.792  47.306  1.00  0.00     0.012 C 
BRANCH  34  35
HETATM   35  C6  UNL     1      16.701  65.691  46.710  1.00  0.00    -0.087 C 
HETATM   36  C7  UNL     1      15.419  65.747  47.605  1.00  0.00     0.043 C 
HETATM   37  C8  UNL     1      16.358  65.500  45.300  1.00  0.00     0.043 C 
ENDBRANCH  34  35
ENDBRANCH  26  34
ENDBRANCH  23  24
ENDBRANCH   1  23
TORSDOF 15
ENDMDL
