MODEL 1
REMARK VINA RESULT: -7.842831986      0.000      0.000
REMARK  14 active torsions:
REMARK  status: ('A' for Active; 'I' for Inactive)
REMARK    1  A    between atoms: C2_2  and  C3_3 
REMARK    2  A    between atoms: C3_3  and  C4_4 
REMARK    3  A    between atoms: C4_4  and  C5_5 
REMARK    4  A    between atoms: C8_8  and  O1_9 
REMARK    5  A    between atoms: C9_11  and  S1_12 
REMARK    6  A    between atoms: S1_12  and  C10_13 
REMARK    7  A    between atoms: C10_13  and  C11_14 
REMARK    8  A    between atoms: C12_16  and  C13_17 
REMARK    9  A    between atoms: C13_17  and  N1_18 
REMARK   10  A    between atoms: C15_20  and  O3_21 
REMARK   11  A    between atoms: C16_23  and  O4_24 
REMARK   12  A    between atoms: C17_26  and  O5_27 
REMARK   13  A    between atoms: C18_29  and  C19_30 
REMARK   14  A    between atoms: C19_30  and  O6_31 
ROOT
HETATM    1  C11 UNL     1      22.294  66.750  46.101  1.00  0.00     0.087 A 
HETATM    2  O2  UNL     1      22.725  66.139  45.024  1.00  0.00    -0.294 OA
HETATM    3  C12 UNL     1      22.126  66.582  43.963  1.00  0.00     0.163 A 
HETATM    4  N2  UNL     1      21.266  67.520  44.347  1.00  0.00    -0.337 N 
ATOM      5  H2  UNL     1      20.649  68.051  43.732  1.00  0.00     0.168 HD
HETATM    6  C20 UNL     1      21.346  67.650  45.673  1.00  0.00     0.038 A 
HETATM    7  C21 UNL     1      20.547  68.601  46.536  1.00  0.00     0.071 C 
ENDROOT
BRANCH   3   8
HETATM    8  C13 UNL     1      22.340  66.141  42.581  1.00  0.00     0.143 C 
BRANCH   8   9
HETATM    9  N1  UNL     1      22.342  64.764  42.333  1.00  0.00    -0.374 N 
HETATM   10  C14 UNL     1      21.173  64.026  42.637  1.00  0.00     0.157 C 
HETATM   11  C15 UNL     1      20.975  62.929  41.646  1.00  0.00     0.167 C 
HETATM   12  C16 UNL     1      22.214  62.095  41.429  1.00  0.00     0.179 C 
HETATM   13  C17 UNL     1      23.466  62.900  41.394  1.00  0.00     0.174 C 
HETATM   14  C18 UNL     1      23.502  63.997  42.472  1.00  0.00     0.138 C 
BRANCH  11  15
HETATM   15  O3  UNL     1      20.444  63.431  40.485  1.00  0.00    -0.391 OA
ATOM     16  H3  UNL     1      20.146  62.722  39.928  1.00  0.00     0.210 HD
ENDBRANCH  11  15
BRANCH  12  17
HETATM   17  O4  UNL     1      22.078  61.436  40.210  1.00  0.00    -0.390 OA
ATOM     18  H4  UNL     1      21.228  61.012  40.201  1.00  0.00     0.210 HD
ENDBRANCH  12  17
BRANCH  13  19
HETATM   19  O5  UNL     1      23.683  63.473  40.125  1.00  0.00    -0.391 OA
ATOM     20  H5  UNL     1      24.129  64.309  40.188  1.00  0.00     0.210 HD
ENDBRANCH  13  19
BRANCH  14  21
HETATM   21  C19 UNL     1      24.811  64.725  42.322  1.00  0.00     0.192 C 
BRANCH  21  22
HETATM   22  O6  UNL     1      25.811  63.742  42.226  1.00  0.00    -0.399 OA
ATOM     23  H6  UNL     1      26.501  64.108  41.685  1.00  0.00     0.209 HD
ENDBRANCH  21  22
ENDBRANCH  14  21
ENDBRANCH   8   9
ENDBRANCH   3   8
BRANCH   1  24
HETATM   24  C10 UNL     1      22.705  66.556  47.511  1.00  0.00     0.143 C 
BRANCH  24  25
HETATM   25  S1  UNL     1      22.560  64.867  48.077  1.00  0.00    -0.128 SA
BRANCH  25  26
HETATM   26  C9  UNL     1      21.221  64.640  49.269  1.00  0.00     0.212 C 
HETATM   27  C8  UNL     1      20.680  63.229  49.256  1.00  0.00     0.157 C 
HETATM   28  C7  UNL     1      20.128  62.960  47.897  1.00  0.00     0.037 C 
HETATM   29  C6  UNL     1      19.640  64.169  47.178  1.00  0.00     0.034 C 
HETATM   30  C5  UNL     1      19.419  65.377  47.994  1.00  0.00     0.123 C 
HETATM   31  O7  UNL     1      20.193  65.507  49.118  1.00  0.00    -0.368 OA
BRANCH  27  32
HETATM   32  O1  UNL     1      19.687  63.132  50.208  1.00  0.00    -0.392 OA
ATOM     33  H1  UNL     1      19.420  63.997  50.499  1.00  0.00     0.210 HD
ENDBRANCH  27  32
BRANCH  30  34
HETATM   34  C4  UNL     1      17.980  65.625  48.386  1.00  0.00     0.032 C 
BRANCH  34  35
HETATM   35  C3  UNL     1      16.997  65.514  47.286  1.00  0.00     0.002 C 
BRANCH  35  36
HETATM   36  C2  UNL     1      15.556  65.520  47.753  1.00  0.00    -0.004 C 
HETATM   37  C1  UNL     1      14.594  65.112  46.689  1.00  0.00     0.005 C 
ENDBRANCH  35  36
ENDBRANCH  34  35
ENDBRANCH  30  34
ENDBRANCH  25  26
ENDBRANCH  24  25
ENDBRANCH   1  24
TORSDOF 14
ENDMDL
MODEL 2
REMARK VINA RESULT: -7.840854165      4.213      6.437
REMARK  14 active torsions:
REMARK  status: ('A' for Active; 'I' for Inactive)
REMARK    1  A    between atoms: C2_2  and  C3_3 
REMARK    2  A    between atoms: C3_3  and  C4_4 
REMARK    3  A    between atoms: C4_4  and  C5_5 
REMARK    4  A    between atoms: C8_8  and  O1_9 
REMARK    5  A    between atoms: C9_11  and  S1_12 
REMARK    6  A    between atoms: S1_12  and  C10_13 
REMARK    7  A    between atoms: C10_13  and  C11_14 
REMARK    8  A    between atoms: C12_16  and  C13_17 
REMARK    9  A    between atoms: C13_17  and  N1_18 
REMARK   10  A    between atoms: C15_20  and  O3_21 
REMARK   11  A    between atoms: C16_23  and  O4_24 
REMARK   12  A    between atoms: C17_26  and  O5_27 
REMARK   13  A    between atoms: C18_29  and  C19_30 
REMARK   14  A    between atoms: C19_30  and  O6_31 
ROOT
HETATM    1  C11 UNL     1      22.081  65.441  48.562  1.00  0.00     0.087 A 
HETATM    2  O2  UNL     1      23.324  65.177  48.886  1.00  0.00    -0.294 OA
HETATM    3  C12 UNL     1      23.421  64.019  49.460  1.00  0.00     0.163 A 
HETATM    4  N2  UNL     1      22.202  63.494  49.522  1.00  0.00    -0.337 N 
ATOM      5  H2  UNL     1      21.962  62.587  49.922  1.00  0.00     0.168 HD
HETATM    6  C20 UNL     1      21.343  64.355  48.970  1.00  0.00     0.038 A 
HETATM    7  C21 UNL     1      19.849  64.170  48.825  1.00  0.00     0.071 C 
ENDROOT
BRANCH   3   8
HETATM    8  C13 UNL     1      24.644  63.383  49.960  1.00  0.00     0.143 C 
BRANCH   8   9
HETATM    9  N1  UNL     1      25.808  63.526  49.196  1.00  0.00    -0.374 N 
HETATM   10  C14 UNL     1      25.789  63.073  47.855  1.00  0.00     0.157 C 
HETATM   11  C15 UNL     1      26.624  63.958  46.992  1.00  0.00     0.167 C 
HETATM   12  C16 UNL     1      28.000  64.211  47.559  1.00  0.00     0.179 C 
HETATM   13  C17 UNL     1      28.002  64.410  49.034  1.00  0.00     0.174 C 
HETATM   14  C18 UNL     1      27.078  63.424  49.771  1.00  0.00     0.138 C 
BRANCH  11  15
HETATM   15  O3  UNL     1      25.937  65.107  46.691  1.00  0.00    -0.391 OA
ATOM     16  H3  UNL     1      26.372  65.858  47.077  1.00  0.00     0.210 HD
ENDBRANCH  11  15
BRANCH  12  17
HETATM   17  O4  UNL     1      28.504  65.362  46.958  1.00  0.00    -0.390 OA
ATOM     18  H4  UNL     1      28.079  66.111  47.358  1.00  0.00     0.210 HD
ENDBRANCH  12  17
BRANCH  13  19
HETATM   19  O5  UNL     1      27.662  65.732  49.383  1.00  0.00    -0.391 OA
ATOM     20  H5  UNL     1      26.801  65.781  49.781  1.00  0.00     0.210 HD
ENDBRANCH  13  19
BRANCH  14  21
HETATM   21  C19 UNL     1      27.177  63.735  51.240  1.00  0.00     0.192 C 
BRANCH  21  22
HETATM   22  O6  UNL     1      28.542  63.909  51.524  1.00  0.00    -0.399 OA
ATOM     23  H6  UNL     1      28.737  63.356  52.272  1.00  0.00     0.209 HD
ENDBRANCH  21  22
ENDBRANCH  14  21
ENDBRANCH   8   9
ENDBRANCH   3   8
BRANCH   1  24
HETATM   24  C10 UNL     1      21.526  66.642  47.895  1.00  0.00     0.143 C 
BRANCH  24  25
HETATM   25  S1  UNL     1      21.892  66.728  46.148  1.00  0.00    -0.128 SA
BRANCH  25  26
HETATM   26  C9  UNL     1      20.794  65.696  45.151  1.00  0.00     0.212 C 
HETATM   27  C8  UNL     1      20.587  66.260  43.764  1.00  0.00     0.157 C 
HETATM   28  C7  UNL     1      19.949  67.601  43.903  1.00  0.00     0.037 C 
HETATM   29  C6  UNL     1      19.118  67.766  45.127  1.00  0.00     0.034 C 
HETATM   30  C5  UNL     1      18.731  66.530  45.833  1.00  0.00     0.123 C 
HETATM   31  O7  UNL     1      19.587  65.466  45.718  1.00  0.00    -0.368 OA
BRANCH  27  32
HETATM   32  O1  UNL     1      19.764  65.403  43.062  1.00  0.00    -0.392 OA
ATOM     33  H1  UNL     1      20.141  65.201  42.213  1.00  0.00     0.210 HD
ENDBRANCH  27  32
BRANCH  30  34
HETATM   34  C4  UNL     1      17.332  66.040  45.537  1.00  0.00     0.032 C 
BRANCH  34  35
HETATM   35  C3  UNL     1      16.609  65.456  46.688  1.00  0.00     0.002 C 
BRANCH  35  36
HETATM   36  C2  UNL     1      15.202  65.002  46.358  1.00  0.00    -0.004 C 
HETATM   37  C1  UNL     1      14.198  65.418  47.380  1.00  0.00     0.005 C 
ENDBRANCH  35  36
ENDBRANCH  34  35
ENDBRANCH  30  34
ENDBRANCH  25  26
ENDBRANCH  24  25
ENDBRANCH   1  24
TORSDOF 14
ENDMDL
MODEL 3
REMARK VINA RESULT: -7.705931450      2.658      6.714
REMARK  14 active torsions:
REMARK  status: ('A' for Active; 'I' for Inactive)
REMARK    1  A    between atoms: C2_2  and  C3_3 
REMARK    2  A    between atoms: C3_3  and  C4_4 
REMARK    3  A    between atoms: C4_4  and  C5_5 
REMARK    4  A    between atoms: C8_8  and  O1_9 
REMARK    5  A    between atoms: C9_11  and  S1_12 
REMARK    6  A    between atoms: S1_12  and  C10_13 
REMARK    7  A    between atoms: C10_13  and  C11_14 
REMARK    8  A    between atoms: C12_16  and  C13_17 
REMARK    9  A    between atoms: C13_17  and  N1_18 
REMARK   10  A    between atoms: C15_20  and  O3_21 
REMARK   11  A    between atoms: C16_23  and  O4_24 
REMARK   12  A    between atoms: C17_26  and  O5_27 
REMARK   13  A    between atoms: C18_29  and  C19_30 
REMARK   14  A    between atoms: C19_30  and  O6_31 
ROOT
HETATM    1  C11 UNL     1      24.020  63.857  43.917  1.00  0.00     0.087 A 
HETATM    2  O2  UNL     1      23.191  64.763  44.379  1.00  0.00    -0.294 OA
HETATM    3  C12 UNL     1      23.625  65.271  45.490  1.00  0.00     0.163 A 
HETATM    4  N2  UNL     1      24.783  64.685  45.777  1.00  0.00    -0.337 N 
ATOM      5  H2  UNL     1      25.364  64.879  46.593  1.00  0.00     0.168 HD
HETATM    6  C20 UNL     1      25.058  63.799  44.817  1.00  0.00     0.038 A 
HETATM    7  C21 UNL     1      26.275  62.904  44.738  1.00  0.00     0.071 C 
ENDROOT
BRANCH   3   8
HETATM    8  C13 UNL     1      22.974  66.306  46.299  1.00  0.00     0.143 C 
BRANCH   8   9
HETATM    9  N1  UNL     1      21.719  66.009  46.842  1.00  0.00    -0.374 N 
HETATM   10  C14 UNL     1      21.571  64.804  47.571  1.00  0.00     0.157 C 
HETATM   11  C15 UNL     1      20.617  64.990  48.702  1.00  0.00     0.167 C 
HETATM   12  C16 UNL     1      19.322  65.643  48.283  1.00  0.00     0.179 C 
HETATM   13  C17 UNL     1      19.508  66.737  47.291  1.00  0.00     0.174 C 
HETATM   14  C18 UNL     1      20.536  66.387  46.201  1.00  0.00     0.138 C 
BRANCH  11  15
HETATM   15  O3  UNL     1      21.239  65.630  49.744  1.00  0.00    -0.391 OA
ATOM     16  H3  UNL     1      21.442  66.526  49.502  1.00  0.00     0.210 HD
ENDBRANCH  11  15
BRANCH  12  17
HETATM   17  O4  UNL     1      18.724  66.177  49.422  1.00  0.00    -0.390 OA
ATOM     18  H4  UNL     1      18.692  67.121  49.320  1.00  0.00     0.210 HD
ENDBRANCH  12  17
BRANCH  13  19
HETATM   19  O5  UNL     1      19.867  67.949  47.911  1.00  0.00    -0.391 OA
ATOM     20  H5  UNL     1      20.655  67.858  48.434  1.00  0.00     0.210 HD
ENDBRANCH  13  19
BRANCH  14  21
HETATM   21  C19 UNL     1      20.623  67.570  45.275  1.00  0.00     0.192 C 
BRANCH  21  22
HETATM   22  O6  UNL     1      19.309  68.029  45.082  1.00  0.00    -0.399 OA
ATOM     23  H6  UNL     1      18.904  67.438  44.457  1.00  0.00     0.209 HD
ENDBRANCH  21  22
ENDBRANCH  14  21
ENDBRANCH   8   9
ENDBRANCH   3   8
BRANCH   1  24
HETATM   24  C10 UNL     1      23.915  63.037  42.688  1.00  0.00     0.143 C 
BRANCH  24  25
HETATM   25  S1  UNL     1      22.756  63.681  41.490  1.00  0.00    -0.128 SA
BRANCH  25  26
HETATM   26  C9  UNL     1      21.237  62.708  41.391  1.00  0.00     0.212 C 
HETATM   27  C8  UNL     1      20.207  63.350  40.490  1.00  0.00     0.157 C 
HETATM   28  C7  UNL     1      19.857  64.681  41.066  1.00  0.00     0.037 C 
HETATM   29  C6  UNL     1      20.015  64.776  42.543  1.00  0.00     0.034 C 
HETATM   30  C5  UNL     1      20.128  63.503  43.277  1.00  0.00     0.123 C 
HETATM   31  O7  UNL     1      20.669  62.446  42.592  1.00  0.00    -0.368 OA
BRANCH  27  32
HETATM   32  O1  UNL     1      19.094  62.536  40.447  1.00  0.00    -0.392 OA
ATOM     33  H1  UNL     1      19.142  61.871  41.125  1.00  0.00     0.210 HD
ENDBRANCH  27  32
BRANCH  30  34
HETATM   34  C4  UNL     1      18.849  63.031  43.932  1.00  0.00     0.032 C 
BRANCH  34  35
HETATM   35  C3  UNL     1      17.727  63.994  43.893  1.00  0.00     0.002 C 
BRANCH  35  36
HETATM   36  C2  UNL     1      16.534  63.509  43.095  1.00  0.00    -0.004 C 
HETATM   37  C1  UNL     1      16.523  62.031  42.899  1.00  0.00     0.005 C 
ENDBRANCH  35  36
ENDBRANCH  34  35
ENDBRANCH  30  34
ENDBRANCH  25  26
ENDBRANCH  24  25
ENDBRANCH   1  24
TORSDOF 14
ENDMDL
MODEL 4
REMARK VINA RESULT: -7.696401662      2.086      3.254
REMARK  14 active torsions:
REMARK  status: ('A' for Active; 'I' for Inactive)
REMARK    1  A    between atoms: C2_2  and  C3_3 
REMARK    2  A    between atoms: C3_3  and  C4_4 
REMARK    3  A    between atoms: C4_4  and  C5_5 
REMARK    4  A    between atoms: C8_8  and  O1_9 
REMARK    5  A    between atoms: C9_11  and  S1_12 
REMARK    6  A    between atoms: S1_12  and  C10_13 
REMARK    7  A    between atoms: C10_13  and  C11_14 
REMARK    8  A    between atoms: C12_16  and  C13_17 
REMARK    9  A    between atoms: C13_17  and  N1_18 
REMARK   10  A    between atoms: C15_20  and  O3_21 
REMARK   11  A    between atoms: C16_23  and  O4_24 
REMARK   12  A    between atoms: C17_26  and  O5_27 
REMARK   13  A    between atoms: C18_29  and  C19_30 
REMARK   14  A    between atoms: C19_30  and  O6_31 
ROOT
HETATM    1  C11 UNL     1      24.609  64.172  47.050  1.00  0.00     0.087 A 
HETATM    2  O2  UNL     1      24.061  63.633  45.988  1.00  0.00    -0.294 OA
HETATM    3  C12 UNL     1      24.940  63.438  45.056  1.00  0.00     0.163 A 
HETATM    4  N2  UNL     1      26.114  63.863  45.512  1.00  0.00    -0.337 N 
ATOM      5  H2  UNL     1      26.997  63.840  45.002  1.00  0.00     0.168 HD
HETATM    6  C20 UNL     1      25.943  64.326  46.753  1.00  0.00     0.038 A 
HETATM    7  C21 UNL     1      27.010  64.909  47.653  1.00  0.00     0.071 C 
ENDROOT
BRANCH   3   8
HETATM    8  C13 UNL     1      24.706  62.858  43.730  1.00  0.00     0.143 C 
BRANCH   8   9
HETATM    9  N1  UNL     1      24.096  63.670  42.766  1.00  0.00    -0.374 N 
HETATM   10  C14 UNL     1      24.730  64.885  42.413  1.00  0.00     0.157 C 
HETATM   11  C15 UNL     1      24.529  65.179  40.965  1.00  0.00     0.167 C 
HETATM   12  C16 UNL     1      23.087  65.065  40.533  1.00  0.00     0.179 C 
HETATM   13  C17 UNL     1      22.374  63.917  41.155  1.00  0.00     0.174 C 
HETATM   14  C18 UNL     1      22.705  63.746  42.648  1.00  0.00     0.138 C 
BRANCH  11  15
HETATM   15  O3  UNL     1      25.388  64.424  40.206  1.00  0.00    -0.391 OA
ATOM     16  H3  UNL     1      24.957  64.143  39.407  1.00  0.00     0.210 HD
ENDBRANCH  11  15
BRANCH  12  17
HETATM   17  O4  UNL     1      23.067  64.900  39.150  1.00  0.00    -0.390 OA
ATOM     18  H4  UNL     1      22.342  64.326  38.935  1.00  0.00     0.210 HD
ENDBRANCH  12  17
BRANCH  13  19
HETATM   19  O5  UNL     1      22.628  62.711  40.471  1.00  0.00    -0.391 OA
ATOM     20  H5  UNL     1      23.355  62.235  40.855  1.00  0.00     0.210 HD
ENDBRANCH  13  19
BRANCH  14  21
HETATM   21  C19 UNL     1      21.923  62.560  43.145  1.00  0.00     0.192 C 
BRANCH  21  22
HETATM   22  O6  UNL     1      20.680  62.594  42.490  1.00  0.00    -0.399 OA
ATOM     23  H6  UNL     1      20.864  62.617  41.558  1.00  0.00     0.209 HD
ENDBRANCH  21  22
ENDBRANCH  14  21
ENDBRANCH   8   9
ENDBRANCH   3   8
BRANCH   1  24
HETATM   24  C10 UNL     1      23.975  64.558  48.333  1.00  0.00     0.143 C 
BRANCH  24  25
HETATM   25  S1  UNL     1      22.437  65.446  48.137  1.00  0.00    -0.128 SA
BRANCH  25  26
HETATM   26  C9  UNL     1      21.096  64.751  49.128  1.00  0.00     0.212 C 
HETATM   27  C8  UNL     1      20.701  63.368  48.663  1.00  0.00     0.157 C 
HETATM   28  C7  UNL     1      20.217  63.477  47.257  1.00  0.00     0.037 C 
HETATM   29  C6  UNL     1      19.630  64.799  46.906  1.00  0.00     0.034 C 
HETATM   30  C5  UNL     1      19.265  65.678  48.032  1.00  0.00     0.123 C 
HETATM   31  O7  UNL     1      19.990  65.529  49.185  1.00  0.00    -0.368 OA
BRANCH  27  32
HETATM   32  O1  UNL     1      19.697  62.900  49.485  1.00  0.00    -0.392 OA
ATOM     33  H1  UNL     1      20.058  62.361  50.179  1.00  0.00     0.210 HD
ENDBRANCH  27  32
BRANCH  30  34
HETATM   34  C4  UNL     1      17.797  65.667  48.397  1.00  0.00     0.032 C 
BRANCH  34  35
HETATM   35  C3  UNL     1      16.864  65.487  47.262  1.00  0.00     0.002 C 
BRANCH  35  36
HETATM   36  C2  UNL     1      15.405  65.493  47.667  1.00  0.00    -0.004 C 
HETATM   37  C1  UNL     1      14.491  65.073  46.566  1.00  0.00     0.005 C 
ENDBRANCH  35  36
ENDBRANCH  34  35
ENDBRANCH  30  34
ENDBRANCH  25  26
ENDBRANCH  24  25
ENDBRANCH   1  24
TORSDOF 14
ENDMDL
MODEL 5
REMARK VINA RESULT: -7.650424805      1.362      2.247
REMARK  14 active torsions:
REMARK  status: ('A' for Active; 'I' for Inactive)
REMARK    1  A    between atoms: C2_2  and  C3_3 
REMARK    2  A    between atoms: C3_3  and  C4_4 
REMARK    3  A    between atoms: C4_4  and  C5_5 
REMARK    4  A    between atoms: C8_8  and  O1_9 
REMARK    5  A    between atoms: C9_11  and  S1_12 
REMARK    6  A    between atoms: S1_12  and  C10_13 
REMARK    7  A    between atoms: C10_13  and  C11_14 
REMARK    8  A    between atoms: C12_16  and  C13_17 
REMARK    9  A    between atoms: C13_17  and  N1_18 
REMARK   10  A    between atoms: C15_20  and  O3_21 
REMARK   11  A    between atoms: C16_23  and  O4_24 
REMARK   12  A    between atoms: C17_26  and  O5_27 
REMARK   13  A    between atoms: C18_29  and  C19_30 
REMARK   14  A    between atoms: C19_30  and  O6_31 
ROOT
HETATM    1  C11 UNL     1      21.617  66.335  45.547  1.00  0.00     0.087 A 
HETATM    2  O2  UNL     1      21.802  65.444  44.604  1.00  0.00    -0.294 OA
HETATM    3  C12 UNL     1      20.993  65.640  43.609  1.00  0.00     0.163 A 
HETATM    4  N2  UNL     1      20.244  66.699  43.901  1.00  0.00    -0.337 N 
ATOM      5  H2  UNL     1      19.514  67.095  43.309  1.00  0.00     0.168 HD
HETATM    6  C20 UNL     1      20.607  67.156  45.102  1.00  0.00     0.038 A 
HETATM    7  C21 UNL     1      20.020  68.345  45.830  1.00  0.00     0.071 C 
ENDROOT
BRANCH   3   8
HETATM    8  C13 UNL     1      20.903  64.851  42.378  1.00  0.00     0.143 C 
BRANCH   8   9
HETATM    9  N1  UNL     1      21.949  64.968  41.455  1.00  0.00    -0.374 N 
HETATM   10  C14 UNL     1      22.038  66.156  40.689  1.00  0.00     0.157 C 
HETATM   11  C15 UNL     1      23.465  66.517  40.448  1.00  0.00     0.167 C 
HETATM   12  C16 UNL     1      24.288  65.362  39.930  1.00  0.00     0.179 C 
HETATM   13  C17 UNL     1      23.959  64.065  40.580  1.00  0.00     0.174 C 
HETATM   14  C18 UNL     1      22.446  63.857  40.767  1.00  0.00     0.138 C 
BRANCH  11  15
HETATM   15  O3  UNL     1      23.997  67.109  41.565  1.00  0.00    -0.391 OA
ATOM     16  H3  UNL     1      24.524  66.483  42.048  1.00  0.00     0.210 HD
ENDBRANCH  11  15
BRANCH  12  17
HETATM   17  O4  UNL     1      25.629  65.651  40.174  1.00  0.00    -0.390 OA
ATOM     18  H4  UNL     1      26.135  65.331  39.437  1.00  0.00     0.210 HD
ENDBRANCH  12  17
BRANCH  13  19
HETATM   19  O5  UNL     1      24.615  63.920  41.819  1.00  0.00    -0.391 OA
ATOM     20  H5  UNL     1      24.848  63.015  41.990  1.00  0.00     0.210 HD
ENDBRANCH  13  19
BRANCH  14  21
HETATM   21  C19 UNL     1      22.258  62.519  41.429  1.00  0.00     0.192 C 
BRANCH  21  22
HETATM   22  O6  UNL     1      22.990  61.588  40.671  1.00  0.00    -0.399 OA
ATOM     23  H6  UNL     1      23.866  61.567  41.040  1.00  0.00     0.209 HD
ENDBRANCH  21  22
ENDBRANCH  14  21
ENDBRANCH   8   9
ENDBRANCH   3   8
BRANCH   1  24
HETATM   24  C10 UNL     1      22.318  66.479  46.844  1.00  0.00     0.143 C 
BRANCH  24  25
HETATM   25  S1  UNL     1      22.452  64.952  47.763  1.00  0.00    -0.128 SA
BRANCH  25  26
HETATM   26  C9  UNL     1      21.226  64.820  49.084  1.00  0.00     0.212 C 
HETATM   27  C8  UNL     1      20.756  63.397  49.284  1.00  0.00     0.157 C 
HETATM   28  C7  UNL     1      20.111  62.944  48.018  1.00  0.00     0.037 C 
HETATM   29  C6  UNL     1      19.508  64.036  47.206  1.00  0.00     0.034 C 
HETATM   30  C5  UNL     1      19.294  65.325  47.889  1.00  0.00     0.123 C 
HETATM   31  O7  UNL     1      20.148  65.621  48.920  1.00  0.00    -0.368 OA
BRANCH  27  32
HETATM   32  O1  UNL     1      19.848  63.379  50.322  1.00  0.00    -0.392 OA
ATOM     33  H1  UNL     1      19.670  64.262  50.625  1.00  0.00     0.210 HD
ENDBRANCH  27  32
BRANCH  30  34
HETATM   34  C4  UNL     1      17.880  65.561  48.371  1.00  0.00     0.032 C 
BRANCH  34  35
HETATM   35  C3  UNL     1      16.851  65.618  47.309  1.00  0.00     0.002 C 
BRANCH  35  36
HETATM   36  C2  UNL     1      15.432  65.507  47.828  1.00  0.00    -0.004 C 
HETATM   37  C1  UNL     1      14.447  65.153  46.766  1.00  0.00     0.005 C 
ENDBRANCH  35  36
ENDBRANCH  34  35
ENDBRANCH  30  34
ENDBRANCH  25  26
ENDBRANCH  24  25
ENDBRANCH   1  24
TORSDOF 14
ENDMDL
