MODEL 1
REMARK VINA RESULT: -7.422691516      0.000      0.000
REMARK  14 active torsions:
REMARK  status: ('A' for Active; 'I' for Inactive)
REMARK    1  A    between atoms: O1_1  and  C1_3 
REMARK    2  A    between atoms: C1_3  and  C2_4 
REMARK    3  A    between atoms: C4_6  and  C5_7 
REMARK    4  A    between atoms: C5_7  and  S1_8 
REMARK    5  A    between atoms: S1_8  and  C6_9 
REMARK    6  A    between atoms: C6_9  and  C7_10 
REMARK    7  A    between atoms: C8_12  and  C9_13 
REMARK    8  A    between atoms: C9_13  and  O3_14 
REMARK    9  A    between atoms: C10_16  and  O4_17 
REMARK   10  A    between atoms: C11_19  and  O5_20 
REMARK   11  A    between atoms: C12_22  and  O6_23 
REMARK   12  A    between atoms: C13_26  and  C14_27 
REMARK   13  A    between atoms: C14_27  and  S2_28 
REMARK   14  A    between atoms: S2_28  and  C15_29 
ROOT
HETATM    1  S1  UNL     1      22.570  65.540  44.973  1.00  0.00    -0.164 SA
ENDROOT
BRANCH   1   2
HETATM    2  C5  UNL     1      23.543  65.917  46.420  1.00  0.00     0.105 C 
BRANCH   2   3
HETATM    3  C4  UNL     1      23.019  65.306  47.676  1.00  0.00     0.131 C 
HETATM    4  C3  UNL     1      22.369  63.976  47.519  1.00  0.00     0.042 C 
HETATM    5  C2  UNL     1      21.456  63.991  48.794  1.00  0.00     0.041 C 
HETATM    6  C13 UNL     1      21.011  65.398  48.705  1.00  0.00     0.137 C 
HETATM    7  O7  UNL     1      22.124  66.153  48.332  1.00  0.00    -0.379 OA
BRANCH   5   8
HETATM    8  C1  UNL     1      20.473  62.902  48.710  1.00  0.00     0.171 C 
BRANCH   8   9
HETATM    9  O1  UNL     1      19.708  62.786  49.846  1.00  0.00    -0.400 OA
ATOM     10  H1  UNL     1      19.870  61.979  50.319  1.00  0.00     0.209 HD
ENDBRANCH   8   9
ENDBRANCH   5   8
BRANCH   6  11
HETATM   11  C14 UNL     1      19.913  65.732  47.778  1.00  0.00     0.112 C 
BRANCH  11  12
HETATM   12  S2  UNL     1      18.314  66.100  48.461  1.00  0.00    -0.120 SA
BRANCH  12  13
HETATM   13  C15 UNL     1      16.971  65.647  47.346  1.00  0.00     0.041 A 
HETATM   14  C16 UNL     1      15.664  65.507  47.737  1.00  0.00     0.026 A 
HETATM   15  C17 UNL     1      14.772  65.163  46.782  1.00  0.00     0.009 A 
HETATM   16  C18 UNL     1      15.259  64.988  45.512  1.00  0.00     0.051 A 
HETATM   17  S3  UNL     1      16.922  65.304  45.692  1.00  0.00    -0.095 SA
ENDBRANCH  12  13
ENDBRANCH  11  12
ENDBRANCH   6  11
ENDBRANCH   2   3
ENDBRANCH   1   2
BRANCH   1  18
HETATM   18  C6  UNL     1      23.475  65.054  43.520  1.00  0.00     0.108 C 
BRANCH  18  19
HETATM   19  C7  UNL     1      22.594  64.335  42.485  1.00  0.00     0.162 C 
HETATM   20  O2  UNL     1      21.387  64.078  43.057  1.00  0.00    -0.372 OA
HETATM   21  C8  UNL     1      20.550  63.227  42.386  1.00  0.00     0.176 C 
HETATM   22  C10 UNL     1      21.155  62.688  41.109  1.00  0.00     0.180 C 
HETATM   23  C11 UNL     1      22.491  62.072  41.455  1.00  0.00     0.180 C 
HETATM   24  C12 UNL     1      23.373  63.147  42.033  1.00  0.00     0.179 C 
BRANCH  21  25
HETATM   25  C9  UNL     1      19.161  63.774  42.162  1.00  0.00     0.198 C 
BRANCH  25  26
HETATM   26  O3  UNL     1      18.515  62.879  41.296  1.00  0.00    -0.398 OA
ATOM     27  H3  UNL     1      17.703  62.631  41.721  1.00  0.00     0.209 HD
ENDBRANCH  25  26
ENDBRANCH  21  25
BRANCH  22  28
HETATM   28  O4  UNL     1      21.248  63.637  40.107  1.00  0.00    -0.390 OA
ATOM     29  H4  UNL     1      21.906  63.430  39.455  1.00  0.00     0.210 HD
ENDBRANCH  22  28
BRANCH  23  30
HETATM   30  O5  UNL     1      23.088  61.500  40.321  1.00  0.00    -0.390 OA
ATOM     31  H5  UNL     1      22.945  60.561  40.299  1.00  0.00     0.210 HD
ENDBRANCH  23  30
BRANCH  24  32
HETATM   32  O6  UNL     1      24.157  62.606  43.070  1.00  0.00    -0.390 OA
ATOM     33  H6  UNL     1      25.074  62.547  42.829  1.00  0.00     0.210 HD
ENDBRANCH  24  32
ENDBRANCH  18  19
ENDBRANCH   1  18
TORSDOF 14
ENDMDL
MODEL 2
REMARK VINA RESULT: -7.412825616      1.637      2.250
REMARK  14 active torsions:
REMARK  status: ('A' for Active; 'I' for Inactive)
REMARK    1  A    between atoms: O1_1  and  C1_3 
REMARK    2  A    between atoms: C1_3  and  C2_4 
REMARK    3  A    between atoms: C4_6  and  C5_7 
REMARK    4  A    between atoms: C5_7  and  S1_8 
REMARK    5  A    between atoms: S1_8  and  C6_9 
REMARK    6  A    between atoms: C6_9  and  C7_10 
REMARK    7  A    between atoms: C8_12  and  C9_13 
REMARK    8  A    between atoms: C9_13  and  O3_14 
REMARK    9  A    between atoms: C10_16  and  O4_17 
REMARK   10  A    between atoms: C11_19  and  O5_20 
REMARK   11  A    between atoms: C12_22  and  O6_23 
REMARK   12  A    between atoms: C13_26  and  C14_27 
REMARK   13  A    between atoms: C14_27  and  S2_28 
REMARK   14  A    between atoms: S2_28  and  C15_29 
ROOT
HETATM    1  S1  UNL     1      25.030  64.273  46.017  1.00  0.00    -0.164 SA
ENDROOT
BRANCH   1   2
HETATM    2  C5  UNL     1      23.637  65.382  46.126  1.00  0.00     0.105 C 
BRANCH   2   3
HETATM    3  C4  UNL     1      22.910  65.314  47.427  1.00  0.00     0.131 C 
HETATM    4  C3  UNL     1      22.502  63.950  47.862  1.00  0.00     0.042 C 
HETATM    5  C2  UNL     1      21.313  64.334  48.809  1.00  0.00     0.041 C 
HETATM    6  C13 UNL     1      20.719  65.392  47.965  1.00  0.00     0.137 C 
HETATM    7  O7  UNL     1      21.777  66.129  47.432  1.00  0.00    -0.379 OA
BRANCH   5   8
HETATM    8  C1  UNL     1      20.536  63.132  49.138  1.00  0.00     0.171 C 
BRANCH   8   9
HETATM    9  O1  UNL     1      19.752  63.293  50.256  1.00  0.00    -0.400 OA
ATOM     10  H1  UNL     1      18.984  63.826  50.094  1.00  0.00     0.209 HD
ENDBRANCH   8   9
ENDBRANCH   5   8
BRANCH   6  11
HETATM   11  C14 UNL     1      19.844  64.992  46.846  1.00  0.00     0.112 C 
BRANCH  11  12
HETATM   12  S2  UNL     1      18.692  66.185  46.207  1.00  0.00    -0.120 SA
BRANCH  12  13
HETATM   13  C15 UNL     1      16.993  65.583  46.239  1.00  0.00     0.041 A 
HETATM   14  C16 UNL     1      16.248  65.449  47.382  1.00  0.00     0.026 A 
HETATM   15  C17 UNL     1      14.987  64.984  47.243  1.00  0.00     0.009 A 
HETATM   16  C18 UNL     1      14.572  64.691  45.969  1.00  0.00     0.051 A 
HETATM   17  S3  UNL     1      15.936  65.068  45.024  1.00  0.00    -0.095 SA
ENDBRANCH  12  13
ENDBRANCH  11  12
ENDBRANCH   6  11
ENDBRANCH   2   3
ENDBRANCH   1   2
BRANCH   1  18
HETATM   18  C6  UNL     1      24.933  63.005  44.774  1.00  0.00     0.108 C 
BRANCH  18  19
HETATM   19  C7  UNL     1      24.305  63.506  43.463  1.00  0.00     0.162 C 
HETATM   20  O2  UNL     1      23.759  62.441  42.816  1.00  0.00    -0.372 OA
HETATM   21  C8  UNL     1      23.371  62.634  41.518  1.00  0.00     0.176 C 
HETATM   22  C10 UNL     1      23.659  64.032  41.017  1.00  0.00     0.180 C 
HETATM   23  C11 UNL     1      25.124  64.315  41.256  1.00  0.00     0.180 C 
HETATM   24  C12 UNL     1      25.387  64.231  42.737  1.00  0.00     0.179 C 
BRANCH  21  25
HETATM   25  C9  UNL     1      21.949  62.217  41.229  1.00  0.00     0.198 C 
BRANCH  25  26
HETATM   26  O3  UNL     1      22.016  61.259  40.205  1.00  0.00    -0.398 OA
ATOM     27  H3  UNL     1      21.129  61.144  39.886  1.00  0.00     0.209 HD
ENDBRANCH  25  26
ENDBRANCH  21  25
BRANCH  22  28
HETATM   28  O4  UNL     1      22.831  64.991  41.571  1.00  0.00    -0.390 OA
ATOM     29  H4  UNL     1      22.754  64.919  42.515  1.00  0.00     0.210 HD
ENDBRANCH  22  28
BRANCH  23  30
HETATM   30  O5  UNL     1      25.477  65.580  40.763  1.00  0.00    -0.390 OA
ATOM     31  H5  UNL     1      25.880  65.511  39.905  1.00  0.00     0.210 HD
ENDBRANCH  23  30
BRANCH  24  32
HETATM   32  O6  UNL     1      26.651  63.650  42.958  1.00  0.00    -0.390 OA
ATOM     33  H6  UNL     1      26.991  63.229  42.177  1.00  0.00     0.210 HD
ENDBRANCH  24  32
ENDBRANCH  18  19
ENDBRANCH   1  18
TORSDOF 14
ENDMDL
MODEL 3
REMARK VINA RESULT: -7.321214178      2.437      3.694
REMARK  14 active torsions:
REMARK  status: ('A' for Active; 'I' for Inactive)
REMARK    1  A    between atoms: O1_1  and  C1_3 
REMARK    2  A    between atoms: C1_3  and  C2_4 
REMARK    3  A    between atoms: C4_6  and  C5_7 
REMARK    4  A    between atoms: C5_7  and  S1_8 
REMARK    5  A    between atoms: S1_8  and  C6_9 
REMARK    6  A    between atoms: C6_9  and  C7_10 
REMARK    7  A    between atoms: C8_12  and  C9_13 
REMARK    8  A    between atoms: C9_13  and  O3_14 
REMARK    9  A    between atoms: C10_16  and  O4_17 
REMARK   10  A    between atoms: C11_19  and  O5_20 
REMARK   11  A    between atoms: C12_22  and  O6_23 
REMARK   12  A    between atoms: C13_26  and  C14_27 
REMARK   13  A    between atoms: C14_27  and  S2_28 
REMARK   14  A    between atoms: S2_28  and  C15_29 
ROOT
HETATM    1  S1  UNL     1      23.535  65.806  46.569  1.00  0.00    -0.164 SA
ENDROOT
BRANCH   1   2
HETATM    2  C5  UNL     1      22.516  66.037  48.015  1.00  0.00     0.105 C 
BRANCH   2   3
HETATM    3  C4  UNL     1      21.596  64.897  48.295  1.00  0.00     0.131 C 
HETATM    4  C3  UNL     1      21.902  63.633  47.570  1.00  0.00     0.042 C 
HETATM    5  C2  UNL     1      20.480  62.974  47.603  1.00  0.00     0.041 C 
HETATM    6  C13 UNL     1      19.689  64.189  47.315  1.00  0.00     0.137 C 
HETATM    7  O7  UNL     1      20.264  65.230  48.044  1.00  0.00    -0.379 OA
BRANCH   5   8
HETATM    8  C1  UNL     1      20.443  61.834  46.677  1.00  0.00     0.171 C 
BRANCH   8   9
HETATM    9  O1  UNL     1      20.445  60.621  47.324  1.00  0.00    -0.400 OA
ATOM     10  H1  UNL     1      21.228  60.112  47.149  1.00  0.00     0.209 HD
ENDBRANCH   8   9
ENDBRANCH   5   8
BRANCH   6  11
HETATM   11  C14 UNL     1      19.571  64.636  45.914  1.00  0.00     0.112 C 
BRANCH  11  12
HETATM   12  S2  UNL     1      18.435  65.951  45.540  1.00  0.00    -0.120 SA
BRANCH  12  13
HETATM   13  C15 UNL     1      16.721  65.487  45.857  1.00  0.00     0.041 A 
HETATM   14  C16 UNL     1      16.151  65.463  47.103  1.00  0.00     0.026 A 
HETATM   15  C17 UNL     1      14.853  65.094  47.178  1.00  0.00     0.009 A 
HETATM   16  C18 UNL     1      14.230  64.778  45.998  1.00  0.00     0.051 A 
HETATM   17  S3  UNL     1      15.459  65.005  44.842  1.00  0.00    -0.095 SA
ENDBRANCH  12  13
ENDBRANCH  11  12
ENDBRANCH   6  11
ENDBRANCH   2   3
ENDBRANCH   1   2
BRANCH   1  18
HETATM   18  C6  UNL     1      25.149  65.112  46.845  1.00  0.00     0.108 C 
BRANCH  18  19
HETATM   19  C7  UNL     1      25.577  64.144  45.730  1.00  0.00     0.162 C 
HETATM   20  O2  UNL     1      24.545  64.019  44.853  1.00  0.00    -0.372 OA
HETATM   21  C8  UNL     1      24.634  63.014  43.927  1.00  0.00     0.176 C 
HETATM   22  C10 UNL     1      25.889  62.183  44.076  1.00  0.00     0.180 C 
HETATM   23  C11 UNL     1      25.951  61.693  45.504  1.00  0.00     0.180 C 
HETATM   24  C12 UNL     1      26.013  62.892  46.413  1.00  0.00     0.179 C 
BRANCH  21  25
HETATM   25  C9  UNL     1      24.426  63.467  42.502  1.00  0.00     0.198 C 
BRANCH  25  26
HETATM   26  O3  UNL     1      23.764  62.419  41.844  1.00  0.00    -0.398 OA
ATOM     27  H3  UNL     1      24.255  61.629  42.033  1.00  0.00     0.209 HD
ENDBRANCH  25  26
ENDBRANCH  21  25
BRANCH  22  28
HETATM   28  O4  UNL     1      27.035  62.853  43.690  1.00  0.00    -0.390 OA
ATOM     29  H4  UNL     1      27.019  63.129  42.781  1.00  0.00     0.210 HD
ENDBRANCH  22  28
BRANCH  23  30
HETATM   30  O5  UNL     1      27.066  60.865  45.702  1.00  0.00    -0.390 OA
ATOM     31  H5  UNL     1      26.986  60.375  46.512  1.00  0.00     0.210 HD
ENDBRANCH  23  30
BRANCH  24  32
HETATM   32  O6  UNL     1      25.262  62.640  47.578  1.00  0.00    -0.390 OA
ATOM     33  H6  UNL     1      25.817  62.517  48.339  1.00  0.00     0.210 HD
ENDBRANCH  24  32
ENDBRANCH  18  19
ENDBRANCH   1  18
TORSDOF 14
ENDMDL
MODEL 4
REMARK VINA RESULT: -7.290365129      2.914      5.592
REMARK  14 active torsions:
REMARK  status: ('A' for Active; 'I' for Inactive)
REMARK    1  A    between atoms: O1_1  and  C1_3 
REMARK    2  A    between atoms: C1_3  and  C2_4 
REMARK    3  A    between atoms: C4_6  and  C5_7 
REMARK    4  A    between atoms: C5_7  and  S1_8 
REMARK    5  A    between atoms: S1_8  and  C6_9 
REMARK    6  A    between atoms: C6_9  and  C7_10 
REMARK    7  A    between atoms: C8_12  and  C9_13 
REMARK    8  A    between atoms: C9_13  and  O3_14 
REMARK    9  A    between atoms: C10_16  and  O4_17 
REMARK   10  A    between atoms: C11_19  and  O5_20 
REMARK   11  A    between atoms: C12_22  and  O6_23 
REMARK   12  A    between atoms: C13_26  and  C14_27 
REMARK   13  A    between atoms: C14_27  and  S2_28 
REMARK   14  A    between atoms: S2_28  and  C15_29 
ROOT
HETATM    1  S1  UNL     1      21.753  63.827  44.146  1.00  0.00    -0.164 SA
ENDROOT
BRANCH   1   2
HETATM    2  C5  UNL     1      22.732  65.302  44.370  1.00  0.00     0.105 C 
BRANCH   2   3
HETATM    3  C4  UNL     1      21.938  66.565  44.336  1.00  0.00     0.131 C 
HETATM    4  C3  UNL     1      21.921  67.345  45.604  1.00  0.00     0.042 C 
HETATM    5  C2  UNL     1      20.587  68.140  45.391  1.00  0.00     0.041 C 
HETATM    6  C13 UNL     1      19.785  67.037  44.822  1.00  0.00     0.137 C 
HETATM    7  O7  UNL     1      20.618  66.339  43.947  1.00  0.00    -0.379 OA
BRANCH   5   8
HETATM    8  C1  UNL     1      20.181  68.770  46.655  1.00  0.00     0.171 C 
BRANCH   8   9
HETATM    9  O1  UNL     1      20.880  68.293  47.738  1.00  0.00    -0.400 OA
ATOM     10  H1  UNL     1      20.384  68.338  48.546  1.00  0.00     0.209 HD
ENDBRANCH   8   9
ENDBRANCH   5   8
BRANCH   6  11
HETATM   11  C14 UNL     1      19.183  66.055  45.745  1.00  0.00     0.112 C 
BRANCH  11  12
HETATM   12  S2  UNL     1      17.982  64.915  45.099  1.00  0.00    -0.120 SA
BRANCH  12  13
HETATM   13  C15 UNL     1      16.382  65.068  45.917  1.00  0.00     0.041 A 
HETATM   14  C16 UNL     1      15.180  64.847  45.297  1.00  0.00     0.026 A 
HETATM   15  C17 UNL     1      14.065  65.001  46.045  1.00  0.00     0.009 A 
HETATM   16  C18 UNL     1      14.244  65.363  47.356  1.00  0.00     0.051 A 
HETATM   17  S3  UNL     1      15.937  65.475  47.496  1.00  0.00    -0.095 SA
ENDBRANCH  12  13
ENDBRANCH  11  12
ENDBRANCH   6  11
ENDBRANCH   2   3
ENDBRANCH   1   2
BRANCH   1  18
HETATM   18  C6  UNL     1      21.536  62.801  45.582  1.00  0.00     0.108 C 
BRANCH  18  19
HETATM   19  C7  UNL     1      21.617  63.594  46.897  1.00  0.00     0.162 C 
HETATM   20  O2  UNL     1      22.887  63.503  47.373  1.00  0.00    -0.372 OA
HETATM   21  C8  UNL     1      23.103  63.932  48.656  1.00  0.00     0.176 C 
HETATM   22  C10 UNL     1      21.841  64.413  49.337  1.00  0.00     0.180 C 
HETATM   23  C11 UNL     1      20.812  63.311  49.235  1.00  0.00     0.180 C 
HETATM   24  C12 UNL     1      20.544  63.047  47.777  1.00  0.00     0.179 C 
BRANCH  21  25
HETATM   25  C9  UNL     1      24.230  64.926  48.794  1.00  0.00     0.198 C 
BRANCH  25  26
HETATM   26  O3  UNL     1      24.167  65.759  47.667  1.00  0.00    -0.398 OA
ATOM     27  H3  UNL     1      25.060  65.867  47.361  1.00  0.00     0.209 HD
ENDBRANCH  25  26
ENDBRANCH  21  25
BRANCH  22  28
HETATM   28  O4  UNL     1      21.382  65.621  48.844  1.00  0.00    -0.390 OA
ATOM     29  H4  UNL     1      20.886  66.121  49.481  1.00  0.00     0.210 HD
ENDBRANCH  22  28
BRANCH  23  30
HETATM   30  O5  UNL     1      19.628  63.668  49.898  1.00  0.00    -0.390 OA
ATOM     31  H5  UNL     1      19.128  62.897  50.140  1.00  0.00     0.210 HD
ENDBRANCH  23  30
BRANCH  24  32
HETATM   32  O6  UNL     1      20.352  61.666  47.576  1.00  0.00    -0.390 OA
ATOM     33  H6  UNL     1      20.319  61.189  48.397  1.00  0.00     0.210 HD
ENDBRANCH  24  32
ENDBRANCH  18  19
ENDBRANCH   1  18
TORSDOF 14
ENDMDL
MODEL 5
REMARK VINA RESULT: -7.273103532      3.248      7.042
REMARK  14 active torsions:
REMARK  status: ('A' for Active; 'I' for Inactive)
REMARK    1  A    between atoms: O1_1  and  C1_3 
REMARK    2  A    between atoms: C1_3  and  C2_4 
REMARK    3  A    between atoms: C4_6  and  C5_7 
REMARK    4  A    between atoms: C5_7  and  S1_8 
REMARK    5  A    between atoms: S1_8  and  C6_9 
REMARK    6  A    between atoms: C6_9  and  C7_10 
REMARK    7  A    between atoms: C8_12  and  C9_13 
REMARK    8  A    between atoms: C9_13  and  O3_14 
REMARK    9  A    between atoms: C10_16  and  O4_17 
REMARK   10  A    between atoms: C11_19  and  O5_20 
REMARK   11  A    between atoms: C12_22  and  O6_23 
REMARK   12  A    between atoms: C13_26  and  C14_27 
REMARK   13  A    between atoms: C14_27  and  S2_28 
REMARK   14  A    between atoms: S2_28  and  C15_29 
ROOT
HETATM    1  S1  UNL     1      20.186  64.692  45.240  1.00  0.00    -0.164 SA
ENDROOT
BRANCH   1   2
HETATM    2  C5  UNL     1      19.465  65.988  46.232  1.00  0.00     0.105 C 
BRANCH   2   3
HETATM    3  C4  UNL     1      18.028  66.250  45.932  1.00  0.00     0.131 C 
HETATM    4  C3  UNL     1      17.052  65.503  46.773  1.00  0.00     0.042 C 
HETATM    5  C2  UNL     1      15.818  65.528  45.806  1.00  0.00     0.041 C 
HETATM    6  C13 UNL     1      16.545  65.261  44.547  1.00  0.00     0.137 C 
HETATM    7  O7  UNL     1      17.724  66.006  44.592  1.00  0.00    -0.379 OA
BRANCH   5   8
HETATM    8  C1  UNL     1      14.799  64.583  46.282  1.00  0.00     0.171 C 
BRANCH   8   9
HETATM    9  O1  UNL     1      13.544  64.860  45.793  1.00  0.00    -0.400 OA
ATOM     10  H1  UNL     1      12.853  64.638  46.405  1.00  0.00     0.209 HD
ENDBRANCH   8   9
ENDBRANCH   5   8
BRANCH   6  11
HETATM   11  C14 UNL     1      16.910  63.867  44.226  1.00  0.00     0.112 C 
BRANCH  11  12
HETATM   12  S2  UNL     1      16.402  63.202  42.658  1.00  0.00    -0.120 SA
BRANCH  12  13
HETATM   13  C15 UNL     1      17.758  63.131  41.472  1.00  0.00     0.041 A 
HETATM   14  C16 UNL     1      17.622  62.706  40.176  1.00  0.00     0.026 A 
HETATM   15  C17 UNL     1      18.734  62.710  39.408  1.00  0.00     0.009 A 
HETATM   16  C18 UNL     1      19.894  63.141  39.999  1.00  0.00     0.051 A 
HETATM   17  S3  UNL     1      19.400  63.518  41.583  1.00  0.00    -0.095 SA
ENDBRANCH  12  13
ENDBRANCH  11  12
ENDBRANCH   6  11
ENDBRANCH   2   3
ENDBRANCH   1   2
BRANCH   1  18
HETATM   18  C6  UNL     1      21.409  63.676  46.039  1.00  0.00     0.108 C 
BRANCH  18  19
HETATM   19  C7  UNL     1      21.604  64.037  47.521  1.00  0.00     0.162 C 
HETATM   20  O2  UNL     1      22.894  63.769  47.860  1.00  0.00    -0.372 OA
HETATM   21  C8  UNL     1      23.203  63.788  49.193  1.00  0.00     0.176 C 
HETATM   22  C10 UNL     1      22.008  64.081  50.072  1.00  0.00     0.180 C 
HETATM   23  C11 UNL     1      20.922  63.091  49.720  1.00  0.00     0.180 C 
HETATM   24  C12 UNL     1      20.559  63.284  48.271  1.00  0.00     0.179 C 
BRANCH  21  25
HETATM   25  C9  UNL     1      24.384  64.661  49.542  1.00  0.00     0.198 C 
BRANCH  25  26
HETATM   26  O3  UNL     1      24.862  65.187  48.332  1.00  0.00    -0.398 OA
ATOM     27  H3  UNL     1      24.936  66.126  48.458  1.00  0.00     0.209 HD
ENDBRANCH  25  26
ENDBRANCH  21  25
BRANCH  22  28
HETATM   28  O4  UNL     1      21.582  65.394  49.993  1.00  0.00    -0.390 OA
ATOM     29  H4  UNL     1      21.360  65.767  50.838  1.00  0.00     0.210 HD
ENDBRANCH  22  28
BRANCH  23  30
HETATM   30  O5  UNL     1      19.797  63.269  50.539  1.00  0.00    -0.390 OA
ATOM     31  H5  UNL     1      19.685  62.532  51.128  1.00  0.00     0.210 HD
ENDBRANCH  23  30
BRANCH  24  32
HETATM   32  O6  UNL     1      20.287  62.033  47.683  1.00  0.00    -0.390 OA
ATOM     33  H6  UNL     1      19.521  62.063  47.122  1.00  0.00     0.210 HD
ENDBRANCH  24  32
ENDBRANCH  18  19
ENDBRANCH   1  18
TORSDOF 14
ENDMDL
