MODEL 1
REMARK VINA RESULT: -8.023146820      0.000      0.000
REMARK  13 active torsions:
REMARK  status: ('A' for Active; 'I' for Inactive)
REMARK    1  A    between atoms: C2_2  and  C3_3 
REMARK    2  A    between atoms: C3_3  and  C4_4 
REMARK    3  A    between atoms: C4_4  and  C5_5 
REMARK    4  A    between atoms: C5_5  and  O1_6 
REMARK    5  A    between atoms: O1_6  and  C6_7 
REMARK    6  A    between atoms: C6_7  and  O2_9 
REMARK    7  A    between atoms: O2_9  and  C8_10 
REMARK    8  A    between atoms: C13_15  and  N1_16 
REMARK       I    between atoms: N1_16  and  C14_18 
REMARK    9  A    between atoms: C15_21  and  O4_22 
REMARK   10  A    between atoms: O4_22  and  C16_23 
REMARK   11  A    between atoms: C19_27  and  O6_28 
REMARK   12  A    between atoms: C20_30  and  O7_31 
REMARK   13  A    between atoms: C21_33  and  O8_34 
ROOT
HETATM    1  C8  UNL     1      21.708  65.058  47.015  1.00  0.00     0.267 C 
HETATM    2  C9  UNL     1      21.118  65.868  45.828  1.00  0.00     0.072 C 
HETATM    3  C10 UNL     1      22.170  66.230  44.831  1.00  0.00    -0.018 C 
HETATM    4  C11 UNL     1      21.476  66.739  43.568  1.00  0.00     0.017 C 
HETATM    5  C12 UNL     1      23.007  67.368  45.356  1.00  0.00     0.017 C 
HETATM    6  C13 UNL     1      23.027  65.061  44.427  1.00  0.00     0.149 C 
HETATM    7  C15 UNL     1      23.414  64.216  45.634  1.00  0.00     0.289 C 
HETATM    8  O9  UNL     1      22.374  63.942  46.481  1.00  0.00    -0.329 OA
ENDROOT
BRANCH   7   9
HETATM    9  O4  UNL     1      23.780  62.968  45.090  1.00  0.00    -0.327 OA
BRANCH   9  10
HETATM   10  C16 UNL     1      25.022  62.526  45.486  1.00  0.00     0.294 C 
HETATM   11  O5  UNL     1      25.519  63.421  46.400  1.00  0.00    -0.351 OA
HETATM   12  C17 UNL     1      26.755  63.158  46.928  1.00  0.00     0.152 C 
HETATM   13  C18 UNL     1      27.239  64.476  47.550  1.00  0.00     0.042 C 
HETATM   14  C19 UNL     1      27.807  62.791  45.908  1.00  0.00     0.178 C 
HETATM   15  C20 UNL     1      27.269  61.840  44.864  1.00  0.00     0.183 C 
HETATM   16  C21 UNL     1      26.002  62.474  44.321  1.00  0.00     0.204 C 
BRANCH  14  17
HETATM   17  O6  UNL     1      28.340  63.890  45.272  1.00  0.00    -0.390 OA
ATOM     18  H6  UNL     1      28.999  63.659  44.628  1.00  0.00     0.210 HD
ENDBRANCH  14  17
BRANCH  15  19
HETATM   19  O7  UNL     1      27.059  60.558  45.355  1.00  0.00    -0.390 OA
ATOM     20  H7  UNL     1      26.890  59.921  44.671  1.00  0.00     0.210 HD
ENDBRANCH  15  19
BRANCH  16  21
HETATM   21  O8  UNL     1      26.349  63.758  43.875  1.00  0.00    -0.388 OA
ATOM     22  H8  UNL     1      26.723  63.739  43.002  1.00  0.00     0.210 HD
ENDBRANCH  16  21
ENDBRANCH   9  10
ENDBRANCH   7   9
BRANCH   6  23
HETATM   23  N1  UNL     1      22.376  64.244  43.414  1.00  0.00    -0.335 N 
HETATM   24  C14 UNL     1      22.986  63.983  42.156  1.00  0.00     0.329 C 
HETATM   25  N2  UNL     1      22.346  63.187  41.177  1.00  0.00    -0.040 NA
HETATM   26  O3  UNL     1      24.114  64.477  41.931  1.00  0.00    -0.251 OA
ATOM     27  H1  UNL     1      21.458  63.846  43.613  1.00  0.00     0.164 HD
ENDBRANCH   6  23
BRANCH   1  28
HETATM   28  O2  UNL     1      20.764  64.698  47.780  1.00  0.00    -0.332 OA
BRANCH  28  29
HETATM   29  C6  UNL     1      19.847  64.350  48.519  1.00  0.00     0.258 C 
HETATM   30  C7  UNL     1      20.194  63.238  49.550  1.00  0.00     0.071 C 
BRANCH  29  31
HETATM   31  O1  UNL     1      19.197  65.389  49.219  1.00  0.00    -0.362 OA
BRANCH  31  32
HETATM   32  C5  UNL     1      18.517  66.288  48.485  1.00  0.00     0.171 C 
BRANCH  32  33
HETATM   33  C4  UNL     1      17.543  65.651  47.557  1.00  0.00     0.026 C 
BRANCH  33  34
HETATM   34  C3  UNL     1      16.101  65.826  48.026  1.00  0.00     0.002 C 
BRANCH  34  35
HETATM   35  C2  UNL     1      15.231  65.100  46.997  1.00  0.00    -0.004 C 
HETATM   36  C1  UNL     1      13.789  65.507  47.250  1.00  0.00     0.005 C 
ENDBRANCH  34  35
ENDBRANCH  33  34
ENDBRANCH  32  33
ENDBRANCH  31  32
ENDBRANCH  29  31
ENDBRANCH  28  29
ENDBRANCH   1  28
TORSDOF 13
ENDMDL
MODEL 2
REMARK VINA RESULT: -7.951366958      2.903      4.155
REMARK  13 active torsions:
REMARK  status: ('A' for Active; 'I' for Inactive)
REMARK    1  A    between atoms: C2_2  and  C3_3 
REMARK    2  A    between atoms: C3_3  and  C4_4 
REMARK    3  A    between atoms: C4_4  and  C5_5 
REMARK    4  A    between atoms: C5_5  and  O1_6 
REMARK    5  A    between atoms: O1_6  and  C6_7 
REMARK    6  A    between atoms: C6_7  and  O2_9 
REMARK    7  A    between atoms: O2_9  and  C8_10 
REMARK    8  A    between atoms: C13_15  and  N1_16 
REMARK       I    between atoms: N1_16  and  C14_18 
REMARK    9  A    between atoms: C15_21  and  O4_22 
REMARK   10  A    between atoms: O4_22  and  C16_23 
REMARK   11  A    between atoms: C19_27  and  O6_28 
REMARK   12  A    between atoms: C20_30  and  O7_31 
REMARK   13  A    between atoms: C21_33  and  O8_34 
ROOT
HETATM    1  C8  UNL     1      18.416  66.143  46.358  1.00  0.00     0.267 C 
HETATM    2  C9  UNL     1      18.447  67.330  45.356  1.00  0.00     0.072 C 
HETATM    3  C10 UNL     1      19.811  67.931  45.256  1.00  0.00    -0.018 C 
HETATM    4  C11 UNL     1      19.834  68.865  44.046  1.00  0.00     0.017 C 
HETATM    5  C12 UNL     1      20.088  68.782  46.468  1.00  0.00     0.017 C 
HETATM    6  C13 UNL     1      20.893  66.907  45.048  1.00  0.00     0.149 C 
HETATM    7  C15 UNL     1      20.686  65.693  45.945  1.00  0.00     0.289 C 
HETATM    8  O9  UNL     1      19.401  65.222  45.961  1.00  0.00    -0.329 OA
ENDROOT
BRANCH   7   9
HETATM    9  O4  UNL     1      21.441  64.670  45.337  1.00  0.00    -0.327 OA
BRANCH   9  10
HETATM   10  C16 UNL     1      22.352  64.069  46.177  1.00  0.00     0.294 C 
HETATM   11  O5  UNL     1      22.193  64.608  47.429  1.00  0.00    -0.351 OA
HETATM   12  C17 UNL     1      23.008  64.136  48.424  1.00  0.00     0.152 C 
HETATM   13  C18 UNL     1      22.932  65.169  49.558  1.00  0.00     0.042 C 
HETATM   14  C19 UNL     1      24.470  64.063  48.052  1.00  0.00     0.178 C 
HETATM   15  C20 UNL     1      24.669  63.513  46.658  1.00  0.00     0.183 C 
HETATM   16  C21 UNL     1      23.787  64.343  45.744  1.00  0.00     0.204 C 
BRANCH  14  17
HETATM   17  O6  UNL     1      25.106  65.280  48.142  1.00  0.00    -0.390 OA
ATOM     18  H6  UNL     1      26.013  65.203  48.413  1.00  0.00     0.210 HD
ENDBRANCH  14  17
BRANCH  15  19
HETATM   19  O7  UNL     1      24.405  62.153  46.568  1.00  0.00    -0.390 OA
ATOM     20  H7  UNL     1      23.476  61.953  46.585  1.00  0.00     0.210 HD
ENDBRANCH  15  19
BRANCH  16  21
HETATM   21  O8  UNL     1      24.143  65.685  45.942  1.00  0.00    -0.388 OA
ATOM     22  H8  UNL     1      24.717  65.791  46.692  1.00  0.00     0.210 HD
ENDBRANCH  16  21
ENDBRANCH   9  10
ENDBRANCH   7   9
BRANCH   6  23
HETATM   23  N1  UNL     1      20.990  66.504  43.653  1.00  0.00    -0.335 N 
HETATM   24  C14 UNL     1      22.203  66.622  42.921  1.00  0.00     0.329 C 
HETATM   25  N2  UNL     1      22.289  66.229  41.565  1.00  0.00    -0.040 NA
HETATM   26  O3  UNL     1      23.207  67.085  43.510  1.00  0.00    -0.251 OA
ATOM     27  H1  UNL     1      20.164  66.127  43.188  1.00  0.00     0.164 HD
ENDBRANCH   6  23
BRANCH   1  28
HETATM   28  O2  UNL     1      17.266  65.612  46.336  1.00  0.00    -0.332 OA
BRANCH  28  29
HETATM   29  C6  UNL     1      16.151  65.096  46.312  1.00  0.00     0.258 C 
HETATM   30  C7  UNL     1      15.219  65.441  47.508  1.00  0.00     0.071 C 
BRANCH  29  31
HETATM   31  O1  UNL     1      15.410  65.292  45.127  1.00  0.00    -0.362 OA
BRANCH  31  32
HETATM   32  C5  UNL     1      15.899  64.741  44.001  1.00  0.00     0.171 C 
BRANCH  32  33
HETATM   33  C4  UNL     1      16.007  63.259  44.090  1.00  0.00     0.026 C 
BRANCH  33  34
HETATM   34  C3  UNL     1      17.017  62.693  43.096  1.00  0.00     0.002 C 
BRANCH  34  35
HETATM   35  C2  UNL     1      16.398  62.882  41.710  1.00  0.00    -0.004 C 
HETATM   36  C1  UNL     1      17.528  62.837  40.695  1.00  0.00     0.005 C 
ENDBRANCH  34  35
ENDBRANCH  33  34
ENDBRANCH  32  33
ENDBRANCH  31  32
ENDBRANCH  29  31
ENDBRANCH  28  29
ENDBRANCH   1  28
TORSDOF 13
ENDMDL
MODEL 3
REMARK VINA RESULT: -7.829610628      1.490      1.909
REMARK  13 active torsions:
REMARK  status: ('A' for Active; 'I' for Inactive)
REMARK    1  A    between atoms: C2_2  and  C3_3 
REMARK    2  A    between atoms: C3_3  and  C4_4 
REMARK    3  A    between atoms: C4_4  and  C5_5 
REMARK    4  A    between atoms: C5_5  and  O1_6 
REMARK    5  A    between atoms: O1_6  and  C6_7 
REMARK    6  A    between atoms: C6_7  and  O2_9 
REMARK    7  A    between atoms: O2_9  and  C8_10 
REMARK    8  A    between atoms: C13_15  and  N1_16 
REMARK       I    between atoms: N1_16  and  C14_18 
REMARK    9  A    between atoms: C15_21  and  O4_22 
REMARK   10  A    between atoms: O4_22  and  C16_23 
REMARK   11  A    between atoms: C19_27  and  O6_28 
REMARK   12  A    between atoms: C20_30  and  O7_31 
REMARK   13  A    between atoms: C21_33  and  O8_34 
ROOT
HETATM    1  C8  UNL     1      21.604  64.675  46.212  1.00  0.00     0.267 C 
HETATM    2  C9  UNL     1      20.982  65.243  44.907  1.00  0.00     0.072 C 
HETATM    3  C10 UNL     1      22.033  65.639  43.922  1.00  0.00    -0.018 C 
HETATM    4  C11 UNL     1      21.356  65.887  42.575  1.00  0.00     0.017 C 
HETATM    5  C12 UNL     1      22.665  66.942  44.338  1.00  0.00     0.017 C 
HETATM    6  C13 UNL     1      23.072  64.572  43.708  1.00  0.00     0.149 C 
HETATM    7  C15 UNL     1      23.497  63.941  45.027  1.00  0.00     0.289 C 
HETATM    8  O9  UNL     1      22.456  63.616  45.853  1.00  0.00    -0.329 OA
ENDROOT
BRANCH   7   9
HETATM    9  O4  UNL     1      24.071  62.706  44.661  1.00  0.00    -0.327 OA
BRANCH   9  10
HETATM   10  C16 UNL     1      25.278  62.445  45.272  1.00  0.00     0.294 C 
HETATM   11  O5  UNL     1      25.526  63.455  46.168  1.00  0.00    -0.351 OA
HETATM   12  C17 UNL     1      26.687  63.379  46.892  1.00  0.00     0.152 C 
HETATM   13  C18 UNL     1      26.921  64.786  47.461  1.00  0.00     0.042 C 
HETATM   14  C19 UNL     1      27.918  63.073  46.071  1.00  0.00     0.178 C 
HETATM   15  C20 UNL     1      27.655  61.994  45.045  1.00  0.00     0.183 C 
HETATM   16  C21 UNL     1      26.427  62.433  44.271  1.00  0.00     0.204 C 
BRANCH  14  17
HETATM   17  O6  UNL     1      28.420  64.182  45.428  1.00  0.00    -0.390 OA
ATOM     18  H6  UNL     1      28.906  64.756  46.008  1.00  0.00     0.210 HD
ENDBRANCH  14  17
BRANCH  15  19
HETATM   19  O7  UNL     1      27.513  60.733  45.609  1.00  0.00    -0.390 OA
ATOM     20  H7  UNL     1      27.110  60.106  45.020  1.00  0.00     0.210 HD
ENDBRANCH  15  19
BRANCH  16  21
HETATM   21  O8  UNL     1      26.696  63.715  43.772  1.00  0.00    -0.388 OA
ATOM     22  H8  UNL     1      26.031  64.001  43.156  1.00  0.00     0.210 HD
ENDBRANCH  16  21
ENDBRANCH   9  10
ENDBRANCH   7   9
BRANCH   6  23
HETATM   23  N1  UNL     1      22.610  63.553  42.777  1.00  0.00    -0.335 N 
HETATM   24  C14 UNL     1      23.410  63.117  41.685  1.00  0.00     0.329 C 
HETATM   25  N2  UNL     1      22.954  62.126  40.784  1.00  0.00    -0.040 NA
HETATM   26  O3  UNL     1      24.542  63.634  41.537  1.00  0.00    -0.251 OA
ATOM     27  H1  UNL     1      21.687  63.140  42.911  1.00  0.00     0.164 HD
ENDBRANCH   6  23
BRANCH   1  28
HETATM   28  O2  UNL     1      20.675  64.270  46.972  1.00  0.00    -0.332 OA
BRANCH  28  29
HETATM   29  C6  UNL     1      19.776  63.878  47.711  1.00  0.00     0.258 C 
HETATM   30  C7  UNL     1      20.199  63.527  49.166  1.00  0.00     0.071 C 
BRANCH  29  31
HETATM   31  O1  UNL     1      18.639  64.711  47.790  1.00  0.00    -0.362 OA
BRANCH  31  32
HETATM   32  C5  UNL     1      18.833  65.968  48.229  1.00  0.00     0.171 C 
BRANCH  32  33
HETATM   33  C4  UNL     1      18.759  66.974  47.134  1.00  0.00     0.026 C 
BRANCH  33  34
HETATM   34  C3  UNL     1      19.929  67.954  47.171  1.00  0.00     0.002 C 
BRANCH  34  35
HETATM   35  C2  UNL     1      19.902  68.696  45.834  1.00  0.00    -0.004 C 
HETATM   36  C1  UNL     1      18.888  67.997  44.943  1.00  0.00     0.005 C 
ENDBRANCH  34  35
ENDBRANCH  33  34
ENDBRANCH  32  33
ENDBRANCH  31  32
ENDBRANCH  29  31
ENDBRANCH  28  29
ENDBRANCH   1  28
TORSDOF 13
ENDMDL
MODEL 4
REMARK VINA RESULT: -7.819815314      2.349      3.675
REMARK  13 active torsions:
REMARK  status: ('A' for Active; 'I' for Inactive)
REMARK    1  A    between atoms: C2_2  and  C3_3 
REMARK    2  A    between atoms: C3_3  and  C4_4 
REMARK    3  A    between atoms: C4_4  and  C5_5 
REMARK    4  A    between atoms: C5_5  and  O1_6 
REMARK    5  A    between atoms: O1_6  and  C6_7 
REMARK    6  A    between atoms: C6_7  and  O2_9 
REMARK    7  A    between atoms: O2_9  and  C8_10 
REMARK    8  A    between atoms: C13_15  and  N1_16 
REMARK       I    between atoms: N1_16  and  C14_18 
REMARK    9  A    between atoms: C15_21  and  O4_22 
REMARK   10  A    between atoms: O4_22  and  C16_23 
REMARK   11  A    between atoms: C19_27  and  O6_28 
REMARK   12  A    between atoms: C20_30  and  O7_31 
REMARK   13  A    between atoms: C21_33  and  O8_34 
ROOT
HETATM    1  C8  UNL     1      21.907  65.106  47.515  1.00  0.00     0.267 C 
HETATM    2  C9  UNL     1      21.701  65.092  45.976  1.00  0.00     0.072 C 
HETATM    3  C10 UNL     1      22.938  65.507  45.250  1.00  0.00    -0.018 C 
HETATM    4  C11 UNL     1      22.759  65.172  43.769  1.00  0.00     0.017 C 
HETATM    5  C12 UNL     1      23.114  67.001  45.341  1.00  0.00     0.017 C 
HETATM    6  C13 UNL     1      24.170  64.782  45.723  1.00  0.00     0.149 C 
HETATM    7  C15 UNL     1      24.204  64.683  47.242  1.00  0.00     0.289 C 
HETATM    8  O9  UNL     1      23.018  64.294  47.804  1.00  0.00    -0.329 OA
ENDROOT
BRANCH   7   9
HETATM    9  O4  UNL     1      25.098  63.626  47.509  1.00  0.00    -0.327 OA
BRANCH   9  10
HETATM   10  C16 UNL     1      26.191  63.991  48.263  1.00  0.00     0.294 C 
HETATM   11  O5  UNL     1      27.036  62.912  48.334  1.00  0.00    -0.351 OA
HETATM   12  C17 UNL     1      28.198  63.071  49.041  1.00  0.00     0.152 C 
HETATM   13  C18 UNL     1      28.718  61.654  49.323  1.00  0.00     0.042 C 
HETATM   14  C19 UNL     1      28.021  63.706  50.401  1.00  0.00     0.178 C 
HETATM   15  C20 UNL     1      27.058  64.870  50.356  1.00  0.00     0.183 C 
HETATM   16  C21 UNL     1      25.797  64.354  49.690  1.00  0.00     0.204 C 
BRANCH  14  17
HETATM   17  O6  UNL     1      27.590  62.812  51.355  1.00  0.00    -0.390 OA
ATOM     18  H6  UNL     1      28.281  62.550  51.953  1.00  0.00     0.210 HD
ENDBRANCH  14  17
BRANCH  15  19
HETATM   19  O7  UNL     1      27.585  65.985  49.718  1.00  0.00    -0.390 OA
ATOM     20  H7  UNL     1      27.901  65.798  48.843  1.00  0.00     0.210 HD
ENDBRANCH  15  19
BRANCH  16  21
HETATM   21  O8  UNL     1      25.382  63.229  50.417  1.00  0.00    -0.388 OA
ATOM     22  H8  UNL     1      25.932  62.474  50.243  1.00  0.00     0.210 HD
ENDBRANCH  16  21
ENDBRANCH   9  10
ENDBRANCH   7   9
BRANCH   6  23
HETATM   23  N1  UNL     1      24.281  63.462  45.119  1.00  0.00    -0.335 N 
HETATM   24  C14 UNL     1      25.489  63.012  44.520  1.00  0.00     0.329 C 
HETATM   25  N2  UNL     1      25.588  61.727  43.935  1.00  0.00    -0.040 NA
HETATM   26  O3  UNL     1      26.475  63.783  44.522  1.00  0.00    -0.251 OA
ATOM     27  H1  UNL     1      23.469  62.844  45.127  1.00  0.00     0.164 HD
ENDBRANCH   6  23
BRANCH   1  28
HETATM   28  O2  UNL     1      20.863  64.659  48.077  1.00  0.00    -0.332 OA
BRANCH  28  29
HETATM   29  C6  UNL     1      19.852  64.224  48.622  1.00  0.00     0.258 C 
HETATM   30  C7  UNL     1      20.089  63.217  49.783  1.00  0.00     0.071 C 
BRANCH  29  31
HETATM   31  O1  UNL     1      18.938  65.195  49.084  1.00  0.00    -0.362 OA
BRANCH  31  32
HETATM   32  C5  UNL     1      18.082  65.707  48.180  1.00  0.00     0.171 C 
BRANCH  32  33
HETATM   33  C4  UNL     1      18.610  66.935  47.524  1.00  0.00     0.026 C 
BRANCH  33  34
HETATM   34  C3  UNL     1      18.604  66.823  46.002  1.00  0.00     0.002 C 
BRANCH  34  35
HETATM   35  C2  UNL     1      19.376  68.039  45.485  1.00  0.00    -0.004 C 
HETATM   36  C1  UNL     1      20.156  68.616  46.655  1.00  0.00     0.005 C 
ENDBRANCH  34  35
ENDBRANCH  33  34
ENDBRANCH  32  33
ENDBRANCH  31  32
ENDBRANCH  29  31
ENDBRANCH  28  29
ENDBRANCH   1  28
TORSDOF 13
ENDMDL
MODEL 5
REMARK VINA RESULT: -7.768293915      3.001      5.959
REMARK  13 active torsions:
REMARK  status: ('A' for Active; 'I' for Inactive)
REMARK    1  A    between atoms: C2_2  and  C3_3 
REMARK    2  A    between atoms: C3_3  and  C4_4 
REMARK    3  A    between atoms: C4_4  and  C5_5 
REMARK    4  A    between atoms: C5_5  and  O1_6 
REMARK    5  A    between atoms: O1_6  and  C6_7 
REMARK    6  A    between atoms: C6_7  and  O2_9 
REMARK    7  A    between atoms: O2_9  and  C8_10 
REMARK    8  A    between atoms: C13_15  and  N1_16 
REMARK       I    between atoms: N1_16  and  C14_18 
REMARK    9  A    between atoms: C15_21  and  O4_22 
REMARK   10  A    between atoms: O4_22  and  C16_23 
REMARK   11  A    between atoms: C19_27  and  O6_28 
REMARK   12  A    between atoms: C20_30  and  O7_31 
REMARK   13  A    between atoms: C21_33  and  O8_34 
ROOT
HETATM    1  C8  UNL     1      19.783  64.847  42.208  1.00  0.00     0.267 C 
HETATM    2  C9  UNL     1      21.027  65.569  41.621  1.00  0.00     0.072 C 
HETATM    3  C10 UNL     1      21.746  66.363  42.661  1.00  0.00    -0.018 C 
HETATM    4  C11 UNL     1      23.103  66.778  42.094  1.00  0.00     0.017 C 
HETATM    5  C12 UNL     1      20.990  67.634  42.954  1.00  0.00     0.017 C 
HETATM    6  C13 UNL     1      22.011  65.583  43.921  1.00  0.00     0.149 C 
HETATM    7  C15 UNL     1      20.795  64.762  44.328  1.00  0.00     0.289 C 
HETATM    8  O9  UNL     1      20.214  64.072  43.298  1.00  0.00    -0.329 OA
ENDROOT
BRANCH   7   9
HETATM    9  O4  UNL     1      21.309  63.769  45.188  1.00  0.00    -0.327 OA
BRANCH   9  10
HETATM   10  C16 UNL     1      20.624  63.646  46.376  1.00  0.00     0.294 C 
HETATM   11  O5  UNL     1      19.681  64.642  46.427  1.00  0.00    -0.351 OA
HETATM   12  C17 UNL     1      18.881  64.691  47.538  1.00  0.00     0.152 C 
HETATM   13  C18 UNL     1      18.252  66.092  47.543  1.00  0.00     0.042 C 
HETATM   14  C19 UNL     1      19.623  64.585  48.849  1.00  0.00     0.178 C 
HETATM   15  C20 UNL     1      20.698  63.524  48.802  1.00  0.00     0.183 C 
HETATM   16  C21 UNL     1      21.543  63.827  47.578  1.00  0.00     0.204 C 
BRANCH  14  17
HETATM   17  O6  UNL     1      20.195  65.776  49.238  1.00  0.00    -0.390 OA
ATOM     18  H6  UNL     1      21.124  65.698  49.416  1.00  0.00     0.210 HD
ENDBRANCH  14  17
BRANCH  15  19
HETATM   19  O7  UNL     1      20.186  62.233  48.795  1.00  0.00    -0.390 OA
ATOM     20  H7  UNL     1      20.862  61.565  48.774  1.00  0.00     0.210 HD
ENDBRANCH  15  19
BRANCH  16  21
HETATM   21  O8  UNL     1      21.981  65.153  47.704  1.00  0.00    -0.388 OA
ATOM     22  H8  UNL     1      22.126  65.392  48.612  1.00  0.00     0.210 HD
ENDBRANCH  16  21
ENDBRANCH   9  10
ENDBRANCH   7   9
BRANCH   6  23
HETATM   23  N1  UNL     1      23.184  64.732  43.787  1.00  0.00    -0.335 N 
HETATM   24  C14 UNL     1      24.247  64.767  44.732  1.00  0.00     0.329 C 
HETATM   25  N2  UNL     1      25.384  63.937  44.595  1.00  0.00    -0.040 NA
HETATM   26  O3  UNL     1      24.152  65.556  45.700  1.00  0.00    -0.251 OA
ATOM     27  H1  UNL     1      23.245  64.093  42.995  1.00  0.00     0.164 HD
ENDBRANCH   6  23
BRANCH   1  28
HETATM   28  O2  UNL     1      19.266  64.117  41.311  1.00  0.00    -0.332 OA
BRANCH  28  29
HETATM   29  C6  UNL     1      18.765  63.411  40.439  1.00  0.00     0.258 C 
HETATM   30  C7  UNL     1      19.766  62.716  39.473  1.00  0.00     0.071 C 
BRANCH  29  31
HETATM   31  O1  UNL     1      17.860  62.428  40.892  1.00  0.00    -0.362 OA
BRANCH  31  32
HETATM   32  C5  UNL     1      16.769  62.858  41.552  1.00  0.00     0.171 C 
BRANCH  32  33
HETATM   33  C4  UNL     1      16.658  62.274  42.916  1.00  0.00     0.026 C 
BRANCH  33  34
HETATM   34  C3  UNL     1      16.921  63.307  44.008  1.00  0.00     0.002 C 
BRANCH  34  35
HETATM   35  C2  UNL     1      15.951  64.460  43.744  1.00  0.00    -0.004 C 
HETATM   36  C1  UNL     1      15.394  64.905  45.086  1.00  0.00     0.005 C 
ENDBRANCH  34  35
ENDBRANCH  33  34
ENDBRANCH  32  33
ENDBRANCH  31  32
ENDBRANCH  29  31
ENDBRANCH  28  29
ENDBRANCH   1  28
TORSDOF 13
ENDMDL
