MODEL 1
REMARK VINA RESULT: -7.636708584      0.000      0.000
REMARK  14 active torsions:
REMARK  status: ('A' for Active; 'I' for Inactive)
REMARK    1  A    between atoms: C2_2  and  C3_3 
REMARK    2  A    between atoms: C3_3  and  O1_4 
REMARK    3  A    between atoms: O1_4  and  C4_5 
REMARK    4  A    between atoms: C6_7  and  O2_8 
REMARK    5  A    between atoms: C8_10  and  O3_11 
REMARK    6  A    between atoms: C10_13  and  O4_14 
REMARK    7  A    between atoms: C11_16  and  C12_17 
REMARK    8  A    between atoms: C14_19  and  C15_20 
REMARK    9  A    between atoms: C15_20  and  O5_21 
REMARK   10  A    between atoms: O5_21  and  C16_22 
REMARK   11  A    between atoms: C18_24  and  O6_25 
REMARK   12  A    between atoms: C19_27  and  O7_28 
REMARK   13  A    between atoms: C20_30  and  O8_31 
REMARK   14  A    between atoms: C21_33  and  O9_34 
ROOT
HETATM    1  C12 UNL     1      21.791  64.087  44.218  1.00  0.00     0.062 C 
HETATM    2  C13 UNL     1      23.103  64.833  44.216  1.00  0.00     0.074 C 
HETATM    3  C14 UNL     1      23.664  64.402  42.810  1.00  0.00     0.040 C 
HETATM    4  C22 UNL     1      22.743  63.336  42.463  1.00  0.00     0.182 C 
HETATM    5  O10 UNL     1      21.459  63.893  42.932  1.00  0.00    -0.354 OA
ENDROOT
BRANCH   1   6
HETATM    6  C11 UNL     1      20.846  64.492  45.224  1.00  0.00     0.063 A 
HETATM    7  C4  UNL     1      19.885  65.504  45.079  1.00  0.00     0.087 A 
HETATM    8  C5  UNL     1      18.904  65.710  46.056  1.00  0.00     0.077 A 
HETATM    9  C6  UNL     1      18.851  64.928  47.183  1.00  0.00     0.107 A 
HETATM   10  C8  UNL     1      19.791  63.922  47.349  1.00  0.00     0.136 A 
HETATM   11  C10 UNL     1      20.747  63.727  46.393  1.00  0.00     0.117 A 
BRANCH   7  12
HETATM   12  O1  UNL     1      20.006  66.242  43.944  1.00  0.00    -0.350 OA
BRANCH  12  13
HETATM   13  C3  UNL     1      20.329  67.544  43.689  1.00  0.00     0.175 C 
BRANCH  13  14
HETATM   14  C2  UNL     1      19.337  68.616  43.929  1.00  0.00     0.022 C 
HETATM   15  C1  UNL     1      19.702  69.947  43.314  1.00  0.00     0.007 C 
ENDBRANCH  13  14
ENDBRANCH  12  13
ENDBRANCH   7  12
BRANCH   9  16
HETATM   16  O2  UNL     1      17.906  65.090  48.162  1.00  0.00    -0.353 OA
HETATM   17  C7  UNL     1      16.744  65.821  47.999  1.00  0.00     0.210 C 
ENDBRANCH   9  16
BRANCH  10  18
HETATM   18  O3  UNL     1      19.723  63.120  48.516  1.00  0.00    -0.351 OA
HETATM   19  C9  UNL     1      20.596  63.586  49.561  1.00  0.00     0.210 C 
ENDBRANCH  10  18
BRANCH  11  20
HETATM   20  O4  UNL     1      21.644  62.707  46.634  1.00  0.00    -0.357 OA
ATOM     21  H4  UNL     1      22.438  62.720  46.113  1.00  0.00     0.217 HD
ENDBRANCH  11  20
ENDBRANCH   1   6
BRANCH   3  22
HETATM   22  C15 UNL     1      25.111  64.325  42.923  1.00  0.00     0.175 C 
BRANCH  22  23
HETATM   23  O5  UNL     1      25.822  63.749  43.832  1.00  0.00    -0.383 OA
BRANCH  23  24
HETATM   24  C16 UNL     1      25.996  62.502  44.209  1.00  0.00     0.155 C 
HETATM   25  C17 UNL     1      24.963  62.171  45.274  1.00  0.00     0.069 C 
HETATM   26  C18 UNL     1      25.472  62.466  46.659  1.00  0.00     0.152 C 
HETATM   27  C19 UNL     1      26.588  63.457  46.746  1.00  0.00     0.178 C 
HETATM   28  C20 UNL     1      27.768  63.126  45.893  1.00  0.00     0.180 C 
HETATM   29  C21 UNL     1      27.390  62.187  44.801  1.00  0.00     0.178 C 
BRANCH  26  30
HETATM   30  O6  UNL     1      24.404  63.042  47.390  1.00  0.00    -0.393 OA
ATOM     31  H6  UNL     1      24.202  62.456  48.109  1.00  0.00     0.210 HD
ENDBRANCH  26  30
BRANCH  27  32
HETATM   32  O7  UNL     1      26.123  64.731  46.498  1.00  0.00    -0.390 OA
ATOM     33  H7  UNL     1      26.572  65.362  47.049  1.00  0.00     0.210 HD
ENDBRANCH  27  32
BRANCH  28  34
HETATM   34  O8  UNL     1      28.722  62.489  46.680  1.00  0.00    -0.390 OA
ATOM     35  H8  UNL     1      28.604  62.761  47.583  1.00  0.00     0.210 HD
ENDBRANCH  28  34
BRANCH  29  36
HETATM   36  O9  UNL     1      27.237  60.933  45.374  1.00  0.00    -0.390 OA
ATOM     37  H9  UNL     1      27.263  60.337  44.634  1.00  0.00     0.210 HD
ENDBRANCH  29  36
ENDBRANCH  23  24
ENDBRANCH  22  23
ENDBRANCH   3  22
TORSDOF 14
ENDMDL
MODEL 2
REMARK VINA RESULT: -7.542943054      3.884      7.161
REMARK  14 active torsions:
REMARK  status: ('A' for Active; 'I' for Inactive)
REMARK    1  A    between atoms: C2_2  and  C3_3 
REMARK    2  A    between atoms: C3_3  and  O1_4 
REMARK    3  A    between atoms: O1_4  and  C4_5 
REMARK    4  A    between atoms: C6_7  and  O2_8 
REMARK    5  A    between atoms: C8_10  and  O3_11 
REMARK    6  A    between atoms: C10_13  and  O4_14 
REMARK    7  A    between atoms: C11_16  and  C12_17 
REMARK    8  A    between atoms: C14_19  and  C15_20 
REMARK    9  A    between atoms: C15_20  and  O5_21 
REMARK   10  A    between atoms: O5_21  and  C16_22 
REMARK   11  A    between atoms: C18_24  and  O6_25 
REMARK   12  A    between atoms: C19_27  and  O7_28 
REMARK   13  A    between atoms: C20_30  and  O8_31 
REMARK   14  A    between atoms: C21_33  and  O9_34 
ROOT
HETATM    1  C12 UNL     1      20.149  63.428  42.152  1.00  0.00     0.062 C 
HETATM    2  C13 UNL     1      20.097  64.826  42.718  1.00  0.00     0.074 C 
HETATM    3  C14 UNL     1      21.215  64.720  43.821  1.00  0.00     0.040 C 
HETATM    4  C22 UNL     1      21.444  63.288  43.842  1.00  0.00     0.182 C 
HETATM    5  O10 UNL     1      21.382  62.959  42.405  1.00  0.00    -0.354 OA
ENDROOT
BRANCH   1   6
HETATM    6  C11 UNL     1      19.476  63.238  40.896  1.00  0.00     0.063 A 
HETATM    7  C4  UNL     1      18.135  62.853  40.740  1.00  0.00     0.087 A 
HETATM    8  C5  UNL     1      17.528  62.856  39.479  1.00  0.00     0.077 A 
HETATM    9  C6  UNL     1      18.223  63.236  38.359  1.00  0.00     0.107 A 
HETATM   10  C8  UNL     1      19.550  63.619  38.487  1.00  0.00     0.136 A 
HETATM   11  C10 UNL     1      20.138  63.612  39.721  1.00  0.00     0.117 A 
BRANCH   7  12
HETATM   12  O1  UNL     1      17.514  62.482  41.891  1.00  0.00    -0.350 OA
BRANCH  12  13
HETATM   13  C3  UNL     1      16.471  62.988  42.611  1.00  0.00     0.175 C 
BRANCH  13  14
HETATM   14  C2  UNL     1      16.725  63.727  43.869  1.00  0.00     0.022 C 
HETATM   15  C1  UNL     1      15.657  64.736  44.221  1.00  0.00     0.007 C 
ENDBRANCH  13  14
ENDBRANCH  12  13
ENDBRANCH   7  12
BRANCH   9  16
HETATM   16  O2  UNL     1      17.668  63.259  37.105  1.00  0.00    -0.353 OA
HETATM   17  C7  UNL     1      16.991  64.344  36.582  1.00  0.00     0.210 C 
ENDBRANCH   9  16
BRANCH  10  18
HETATM   18  O3  UNL     1      20.256  64.012  37.322  1.00  0.00    -0.351 OA
HETATM   19  C9  UNL     1      20.373  65.441  37.199  1.00  0.00     0.210 C 
ENDBRANCH  10  18
BRANCH  11  20
HETATM   20  O4  UNL     1      21.459  64.007  39.763  1.00  0.00    -0.357 OA
ATOM     21  H4  UNL     1      21.981  63.637  40.465  1.00  0.00     0.217 HD
ENDBRANCH  11  20
ENDBRANCH   1   6
BRANCH   3  22
HETATM   22  C15 UNL     1      20.817  65.574  44.929  1.00  0.00     0.175 C 
BRANCH  22  23
HETATM   23  O5  UNL     1      20.427  65.236  46.111  1.00  0.00    -0.383 OA
BRANCH  23  24
HETATM   24  C16 UNL     1      20.132  65.900  47.205  1.00  0.00     0.155 C 
HETATM   25  C17 UNL     1      21.421  66.439  47.805  1.00  0.00     0.069 C 
HETATM   26  C18 UNL     1      22.033  65.470  48.780  1.00  0.00     0.152 C 
HETATM   27  C19 UNL     1      21.629  64.039  48.618  1.00  0.00     0.178 C 
HETATM   28  C20 UNL     1      20.154  63.815  48.626  1.00  0.00     0.180 C 
HETATM   29  C21 UNL     1      19.421  65.070  48.301  1.00  0.00     0.178 C 
BRANCH  26  30
HETATM   30  O6  UNL     1      23.434  65.488  48.573  1.00  0.00    -0.393 OA
ATOM     31  H6  UNL     1      23.746  64.595  48.659  1.00  0.00     0.210 HD
ENDBRANCH  26  30
BRANCH  27  32
HETATM   32  O7  UNL     1      22.220  63.495  47.497  1.00  0.00    -0.390 OA
ATOM     33  H7  UNL     1      22.831  62.810  47.743  1.00  0.00     0.210 HD
ENDBRANCH  27  32
BRANCH  28  34
HETATM   34  O8  UNL     1      19.769  63.427  49.906  1.00  0.00    -0.390 OA
ATOM     35  H8  UNL     1      19.105  64.030  50.220  1.00  0.00     0.210 HD
ENDBRANCH  28  34
BRANCH  29  36
HETATM   36  O9  UNL     1      19.477  65.880  49.426  1.00  0.00    -0.390 OA
ATOM     37  H9  UNL     1      18.737  66.468  49.324  1.00  0.00     0.210 HD
ENDBRANCH  29  36
ENDBRANCH  23  24
ENDBRANCH  22  23
ENDBRANCH   3  22
TORSDOF 14
ENDMDL
MODEL 3
REMARK VINA RESULT: -7.486365803      2.459      3.568
REMARK  14 active torsions:
REMARK  status: ('A' for Active; 'I' for Inactive)
REMARK    1  A    between atoms: C2_2  and  C3_3 
REMARK    2  A    between atoms: C3_3  and  O1_4 
REMARK    3  A    between atoms: O1_4  and  C4_5 
REMARK    4  A    between atoms: C6_7  and  O2_8 
REMARK    5  A    between atoms: C8_10  and  O3_11 
REMARK    6  A    between atoms: C10_13  and  O4_14 
REMARK    7  A    between atoms: C11_16  and  C12_17 
REMARK    8  A    between atoms: C14_19  and  C15_20 
REMARK    9  A    between atoms: C15_20  and  O5_21 
REMARK   10  A    between atoms: O5_21  and  C16_22 
REMARK   11  A    between atoms: C18_24  and  O6_25 
REMARK   12  A    between atoms: C19_27  and  O7_28 
REMARK   13  A    between atoms: C20_30  and  O8_31 
REMARK   14  A    between atoms: C21_33  and  O9_34 
ROOT
HETATM    1  C12 UNL     1      20.862  64.276  44.983  1.00  0.00     0.062 C 
HETATM    2  C13 UNL     1      21.553  63.823  46.246  1.00  0.00     0.074 C 
HETATM    3  C14 UNL     1      23.048  64.140  45.873  1.00  0.00     0.040 C 
HETATM    4  C22 UNL     1      22.924  64.414  44.453  1.00  0.00     0.182 C 
HETATM    5  O10 UNL     1      21.667  65.186  44.412  1.00  0.00    -0.354 OA
ENDROOT
BRANCH   1   6
HETATM    6  C11 UNL     1      19.435  64.432  45.074  1.00  0.00     0.063 A 
HETATM    7  C4  UNL     1      18.771  65.493  45.708  1.00  0.00     0.087 A 
HETATM    8  C5  UNL     1      17.383  65.640  45.599  1.00  0.00     0.077 A 
HETATM    9  C6  UNL     1      16.631  64.754  44.869  1.00  0.00     0.107 A 
HETATM   10  C8  UNL     1      17.266  63.697  44.233  1.00  0.00     0.136 A 
HETATM   11  C10 UNL     1      18.620  63.557  44.345  1.00  0.00     0.117 A 
BRANCH   7  12
HETATM   12  O1  UNL     1      19.578  66.323  46.420  1.00  0.00    -0.350 OA
BRANCH  12  13
HETATM   13  C3  UNL     1      19.591  67.669  46.646  1.00  0.00     0.175 C 
BRANCH  13  14
HETATM   14  C2  UNL     1      20.340  68.568  45.739  1.00  0.00     0.022 C 
HETATM   15  C1  UNL     1      19.619  68.891  44.452  1.00  0.00     0.007 C 
ENDBRANCH  13  14
ENDBRANCH  12  13
ENDBRANCH   7  12
BRANCH   9  16
HETATM   16  O2  UNL     1      15.272  64.862  44.730  1.00  0.00    -0.353 OA
HETATM   17  C7  UNL     1      14.385  64.828  45.789  1.00  0.00     0.210 C 
ENDBRANCH   9  16
BRANCH  10  18
HETATM   18  O3  UNL     1      16.479  62.791  43.479  1.00  0.00    -0.351 OA
HETATM   19  C9  UNL     1      16.341  63.185  42.102  1.00  0.00     0.210 C 
ENDBRANCH  10  18
BRANCH  11  20
HETATM   20  O4  UNL     1      19.174  62.480  43.684  1.00  0.00    -0.357 OA
ATOM     21  H4  UNL     1      19.701  61.894  44.213  1.00  0.00     0.217 HD
ENDBRANCH  11  20
ENDBRANCH   1   6
BRANCH   3  22
HETATM   22  C15 UNL     1      23.881  63.136  46.515  1.00  0.00     0.175 C 
BRANCH  22  23
HETATM   23  O5  UNL     1      25.058  63.267  47.026  1.00  0.00    -0.383 OA
BRANCH  23  24
HETATM   24  C16 UNL     1      26.169  63.848  46.635  1.00  0.00     0.155 C 
HETATM   25  C17 UNL     1      27.293  62.826  46.685  1.00  0.00     0.069 C 
HETATM   26  C18 UNL     1      27.985  62.820  48.022  1.00  0.00     0.152 C 
HETATM   27  C19 UNL     1      27.195  63.367  49.168  1.00  0.00     0.178 C 
HETATM   28  C20 UNL     1      26.662  64.742  48.943  1.00  0.00     0.180 C 
HETATM   29  C21 UNL     1      26.607  65.062  47.489  1.00  0.00     0.178 C 
BRANCH  26  30
HETATM   30  O6  UNL     1      28.245  61.469  48.359  1.00  0.00    -0.393 OA
ATOM     31  H6  UNL     1      27.459  61.120  48.761  1.00  0.00     0.210 HD
ENDBRANCH  26  30
BRANCH  27  32
HETATM   32  O7  UNL     1      26.196  62.487  49.528  1.00  0.00    -0.390 OA
ATOM     33  H7  UNL     1      25.344  62.896  49.435  1.00  0.00     0.210 HD
ENDBRANCH  27  32
BRANCH  28  34
HETATM   34  O8  UNL     1      27.524  65.658  49.538  1.00  0.00    -0.390 OA
ATOM     35  H8  UNL     1      28.359  65.628  49.087  1.00  0.00     0.210 HD
ENDBRANCH  28  34
BRANCH  29  36
HETATM   36  O9  UNL     1      27.907  65.313  47.075  1.00  0.00    -0.390 OA
ATOM     37  H9  UNL     1      28.393  65.408  47.887  1.00  0.00     0.210 HD
ENDBRANCH  29  36
ENDBRANCH  23  24
ENDBRANCH  22  23
ENDBRANCH   3  22
TORSDOF 14
ENDMDL
MODEL 4
REMARK VINA RESULT: -7.485645036      3.797      7.064
REMARK  14 active torsions:
REMARK  status: ('A' for Active; 'I' for Inactive)
REMARK    1  A    between atoms: C2_2  and  C3_3 
REMARK    2  A    between atoms: C3_3  and  O1_4 
REMARK    3  A    between atoms: O1_4  and  C4_5 
REMARK    4  A    between atoms: C6_7  and  O2_8 
REMARK    5  A    between atoms: C8_10  and  O3_11 
REMARK    6  A    between atoms: C10_13  and  O4_14 
REMARK    7  A    between atoms: C11_16  and  C12_17 
REMARK    8  A    between atoms: C14_19  and  C15_20 
REMARK    9  A    between atoms: C15_20  and  O5_21 
REMARK   10  A    between atoms: O5_21  and  C16_22 
REMARK   11  A    between atoms: C18_24  and  O6_25 
REMARK   12  A    between atoms: C19_27  and  O7_28 
REMARK   13  A    between atoms: C20_30  and  O8_31 
REMARK   14  A    between atoms: C21_33  and  O9_34 
ROOT
HETATM    1  C12 UNL     1      20.252  63.407  42.202  1.00  0.00     0.062 C 
HETATM    2  C13 UNL     1      20.226  64.807  42.762  1.00  0.00     0.074 C 
HETATM    3  C14 UNL     1      21.380  64.701  43.827  1.00  0.00     0.040 C 
HETATM    4  C22 UNL     1      21.602  63.268  43.848  1.00  0.00     0.182 C 
HETATM    5  O10 UNL     1      21.489  62.932  42.415  1.00  0.00    -0.354 OA
ENDROOT
BRANCH   1   6
HETATM    6  C11 UNL     1      19.535  63.215  40.970  1.00  0.00     0.063 A 
HETATM    7  C4  UNL     1      18.185  62.847  40.861  1.00  0.00     0.087 A 
HETATM    8  C5  UNL     1      17.538  62.846  39.620  1.00  0.00     0.077 A 
HETATM    9  C6  UNL     1      18.201  63.206  38.474  1.00  0.00     0.107 A 
HETATM   10  C8  UNL     1      19.536  63.573  38.557  1.00  0.00     0.136 A 
HETATM   11  C10 UNL     1      20.164  63.570  39.770  1.00  0.00     0.117 A 
BRANCH   7  12
HETATM   12  O1  UNL     1      17.598  62.494  42.035  1.00  0.00    -0.350 OA
BRANCH  12  13
HETATM   13  C3  UNL     1      16.561  63.000  42.765  1.00  0.00     0.175 C 
BRANCH  13  14
HETATM   14  C2  UNL     1      16.826  63.919  43.895  1.00  0.00     0.022 C 
HETATM   15  C1  UNL     1      15.675  64.838  44.229  1.00  0.00     0.007 C 
ENDBRANCH  13  14
ENDBRANCH  12  13
ENDBRANCH   7  12
BRANCH   9  16
HETATM   16  O2  UNL     1      17.607  63.226  37.239  1.00  0.00    -0.353 OA
HETATM   17  C7  UNL     1      16.987  64.337  36.700  1.00  0.00     0.210 C 
ENDBRANCH   9  16
BRANCH  10  18
HETATM   18  O3  UNL     1      20.210  63.946  37.366  1.00  0.00    -0.351 OA
HETATM   19  C9  UNL     1      20.384  65.369  37.248  1.00  0.00     0.210 C 
ENDBRANCH  10  18
BRANCH  11  20
HETATM   20  O4  UNL     1      21.491  63.947  39.766  1.00  0.00    -0.357 OA
ATOM     21  H4  UNL     1      22.037  63.552  40.435  1.00  0.00     0.217 HD
ENDBRANCH  11  20
ENDBRANCH   1   6
BRANCH   3  22
HETATM   22  C15 UNL     1      21.023  65.562  44.944  1.00  0.00     0.175 C 
BRANCH  22  23
HETATM   23  O5  UNL     1      20.086  65.409  45.817  1.00  0.00    -0.383 OA
BRANCH  23  24
HETATM   24  C16 UNL     1      19.567  64.372  46.433  1.00  0.00     0.155 C 
HETATM   25  C17 UNL     1      18.568  64.873  47.464  1.00  0.00     0.069 C 
HETATM   26  C18 UNL     1      19.215  65.110  48.802  1.00  0.00     0.152 C 
HETATM   27  C19 UNL     1      20.694  65.329  48.781  1.00  0.00     0.178 C 
HETATM   28  C20 UNL     1      21.463  64.250  48.094  1.00  0.00     0.180 C 
HETATM   29  C21 UNL     1      20.587  63.473  47.173  1.00  0.00     0.178 C 
BRANCH  26  30
HETATM   30  O6  UNL     1      18.668  66.305  49.332  1.00  0.00    -0.393 OA
ATOM     31  H6  UNL     1      17.896  66.067  49.830  1.00  0.00     0.210 HD
ENDBRANCH  26  30
BRANCH  27  32
HETATM   32  O7  UNL     1      20.990  66.573  48.265  1.00  0.00    -0.390 OA
ATOM     33  H7  UNL     1      20.364  66.811  47.592  1.00  0.00     0.210 HD
ENDBRANCH  27  32
BRANCH  28  34
HETATM   34  O8  UNL     1      21.947  63.366  49.054  1.00  0.00    -0.390 OA
ATOM     35  H8  UNL     1      22.896  63.385  49.034  1.00  0.00     0.210 HD
ENDBRANCH  28  34
BRANCH  29  36
HETATM   36  O9  UNL     1      19.798  62.646  47.960  1.00  0.00    -0.390 OA
ATOM     37  H9  UNL     1      20.288  61.833  48.003  1.00  0.00     0.210 HD
ENDBRANCH  29  36
ENDBRANCH  23  24
ENDBRANCH  22  23
ENDBRANCH   3  22
TORSDOF 14
ENDMDL
MODEL 5
REMARK VINA RESULT: -7.422767977      2.191      2.814
REMARK  14 active torsions:
REMARK  status: ('A' for Active; 'I' for Inactive)
REMARK    1  A    between atoms: C2_2  and  C3_3 
REMARK    2  A    between atoms: C3_3  and  O1_4 
REMARK    3  A    between atoms: O1_4  and  C4_5 
REMARK    4  A    between atoms: C6_7  and  O2_8 
REMARK    5  A    between atoms: C8_10  and  O3_11 
REMARK    6  A    between atoms: C10_13  and  O4_14 
REMARK    7  A    between atoms: C11_16  and  C12_17 
REMARK    8  A    between atoms: C14_19  and  C15_20 
REMARK    9  A    between atoms: C15_20  and  O5_21 
REMARK   10  A    between atoms: O5_21  and  C16_22 
REMARK   11  A    between atoms: C18_24  and  O6_25 
REMARK   12  A    between atoms: C19_27  and  O7_28 
REMARK   13  A    between atoms: C20_30  and  O8_31 
REMARK   14  A    between atoms: C21_33  and  O9_34 
ROOT
HETATM    1  C12 UNL     1      20.887  65.065  44.090  1.00  0.00     0.062 C 
HETATM    2  C13 UNL     1      21.803  65.124  45.287  1.00  0.00     0.074 C 
HETATM    3  C14 UNL     1      23.151  65.533  44.584  1.00  0.00     0.040 C 
HETATM    4  C22 UNL     1      22.801  65.342  43.189  1.00  0.00     0.182 C 
HETATM    5  O10 UNL     1      21.422  65.869  43.158  1.00  0.00    -0.354 OA
ENDROOT
BRANCH   1   6
HETATM    6  C11 UNL     1      19.479  65.026  44.383  1.00  0.00     0.063 A 
HETATM    7  C4  UNL     1      18.734  66.079  44.938  1.00  0.00     0.087 A 
HETATM    8  C5  UNL     1      17.339  66.000  45.032  1.00  0.00     0.077 A 
HETATM    9  C6  UNL     1      16.660  64.895  44.584  1.00  0.00     0.107 A 
HETATM   10  C8  UNL     1      17.375  63.843  44.032  1.00  0.00     0.136 A 
HETATM   11  C10 UNL     1      18.736  63.924  43.946  1.00  0.00     0.117 A 
BRANCH   7  12
HETATM   12  O1  UNL     1      19.475  67.134  45.367  1.00  0.00    -0.350 OA
BRANCH  12  13
HETATM   13  C3  UNL     1      19.604  68.430  44.959  1.00  0.00     0.175 C 
BRANCH  13  14
HETATM   14  C2  UNL     1      19.177  68.827  43.598  1.00  0.00     0.022 C 
HETATM   15  C1  UNL     1      19.623  70.211  43.188  1.00  0.00     0.007 C 
ENDBRANCH  13  14
ENDBRANCH  12  13
ENDBRANCH   7  12
BRANCH   9  16
HETATM   16  O2  UNL     1      15.296  64.777  44.650  1.00  0.00    -0.353 OA
HETATM   17  C7  UNL     1      14.581  64.757  45.833  1.00  0.00     0.210 C 
ENDBRANCH   9  16
BRANCH  10  18
HETATM   18  O3  UNL     1      16.661  62.708  43.571  1.00  0.00    -0.351 OA
HETATM   19  C9  UNL     1      16.324  62.793  42.174  1.00  0.00     0.210 C 
ENDBRANCH  10  18
BRANCH  11  20
HETATM   20  O4  UNL     1      19.372  62.835  43.386  1.00  0.00    -0.357 OA
ATOM     21  H4  UNL     1      19.036  62.543  42.547  1.00  0.00     0.217 HD
ENDBRANCH  11  20
ENDBRANCH   1   6
BRANCH   3  22
HETATM   22  C15 UNL     1      24.236  64.907  45.323  1.00  0.00     0.175 C 
BRANCH  22  23
HETATM   23  O5  UNL     1      25.050  63.984  44.937  1.00  0.00    -0.383 OA
BRANCH  23  24
HETATM   24  C16 UNL     1      25.135  62.689  45.144  1.00  0.00     0.155 C 
HETATM   25  C17 UNL     1      25.165  62.440  46.643  1.00  0.00     0.069 C 
HETATM   26  C18 UNL     1      26.571  62.431  47.181  1.00  0.00     0.152 C 
HETATM   27  C19 UNL     1      27.591  63.145  46.352  1.00  0.00     0.178 C 
HETATM   28  C20 UNL     1      27.649  62.694  44.931  1.00  0.00     0.180 C 
HETATM   29  C21 UNL     1      26.386  62.012  44.535  1.00  0.00     0.178 C 
BRANCH  26  30
HETATM   30  O6  UNL     1      26.556  63.113  48.422  1.00  0.00    -0.393 OA
ATOM     31  H6  UNL     1      26.403  62.467  49.100  1.00  0.00     0.210 HD
ENDBRANCH  26  30
BRANCH  27  32
HETATM   32  O7  UNL     1      27.419  64.510  46.446  1.00  0.00    -0.390 OA
ATOM     33  H7  UNL     1      26.546  64.755  46.163  1.00  0.00     0.210 HD
ENDBRANCH  27  32
BRANCH  28  34
HETATM   34  O8  UNL     1      28.681  61.769  44.798  1.00  0.00    -0.390 OA
ATOM     35  H8  UNL     1      28.343  60.905  45.001  1.00  0.00     0.210 HD
ENDBRANCH  28  34
BRANCH  29  36
HETATM   36  O9  UNL     1      26.402  60.751  45.115  1.00  0.00    -0.390 OA
ATOM     37  H9  UNL     1      26.921  60.228  44.515  1.00  0.00     0.210 HD
ENDBRANCH  29  36
ENDBRANCH  23  24
ENDBRANCH  22  23
ENDBRANCH   3  22
TORSDOF 14
ENDMDL
