MODEL 1
REMARK VINA RESULT: -7.684765542      0.000      0.000
REMARK  13 active torsions:
REMARK  status: ('A' for Active; 'I' for Inactive)
REMARK    1  A    between atoms: C2_2  and  C3_3 
REMARK    2  A    between atoms: C3_3  and  C4_4 
REMARK    3  A    between atoms: C4_4  and  C5_5 
REMARK    4  A    between atoms: C5_5  and  C6_6 
REMARK    5  A    between atoms: C8_9  and  N1_10 
REMARK    6  A    between atoms: C9_11  and  C10_12 
REMARK    7  A    between atoms: C10_12  and  O1_13 
REMARK    8  A    between atoms: C11_15  and  O2_16 
REMARK    9  A    between atoms: C12_18  and  O3_19 
REMARK   10  A    between atoms: C13_21  and  O4_22 
REMARK   11  A    between atoms: C14_24  and  C15_25 
REMARK   12  A    between atoms: C15_25  and  O5_26 
REMARK   13  A    between atoms: O5_26  and  S2_27 
ROOT
HETATM    1  C6  UNL     1      20.259  67.572  44.486  1.00  0.00    -0.028 A 
HETATM    2  C7  UNL     1      21.485  67.640  43.876  1.00  0.00     0.060 A 
HETATM    3  S1  UNL     1      22.391  66.461  44.695  1.00  0.00    -0.082 SA
HETATM    4  C8  UNL     1      21.196  65.907  45.798  1.00  0.00     0.094 A 
HETATM    5  C16 UNL     1      20.112  66.671  45.485  1.00  0.00     0.085 A 
HETATM    6  C17 UNL     1      18.864  66.474  46.260  1.00  0.00     0.103 C 
HETATM    7  N2  UNL     1      17.891  66.300  46.867  1.00  0.00    -0.191 NA
ENDROOT
BRANCH   1   8
HETATM    8  C5  UNL     1      19.091  68.444  44.016  1.00  0.00     0.041 C 
BRANCH   8   9
HETATM    9  C4  UNL     1      19.618  69.812  43.689  1.00  0.00     0.005 C 
BRANCH   9  10
HETATM   10  C3  UNL     1      19.455  70.171  42.240  1.00  0.00    -0.000 C 
BRANCH  10  11
HETATM   11  C2  UNL     1      17.972  70.293  41.861  1.00  0.00    -0.005 C 
HETATM   12  C1  UNL     1      17.946  70.231  40.342  1.00  0.00     0.005 C 
ENDBRANCH  10  11
ENDBRANCH   9  10
ENDBRANCH   8   9
ENDBRANCH   1   8
BRANCH   4  13
HETATM   13  N1  UNL     1      21.397  64.882  46.784  1.00  0.00    -0.355 N 
HETATM   14  C9  UNL     1      21.752  65.401  48.114  1.00  0.00     0.140 C 
HETATM   15  C11 UNL     1      20.935  64.764  49.180  1.00  0.00     0.174 C 
HETATM   16  C12 UNL     1      20.711  63.293  49.026  1.00  0.00     0.179 C 
HETATM   17  C13 UNL     1      20.330  62.901  47.622  1.00  0.00     0.174 C 
HETATM   18  C14 UNL     1      21.311  63.483  46.617  1.00  0.00     0.142 C 
BRANCH  14  19
HETATM   19  C10 UNL     1      23.239  65.115  48.273  1.00  0.00     0.192 C 
BRANCH  19  20
HETATM   20  O1  UNL     1      23.677  65.495  49.545  1.00  0.00    -0.399 OA
ATOM     21  H1  UNL     1      24.261  64.839  49.906  1.00  0.00     0.209 HD
ENDBRANCH  19  20
ENDBRANCH  14  19
BRANCH  15  22
HETATM   22  O2  UNL     1      19.749  65.483  49.405  1.00  0.00    -0.391 OA
ATOM     23  H2  UNL     1      19.016  64.897  49.545  1.00  0.00     0.210 HD
ENDBRANCH  15  22
BRANCH  16  24
HETATM   24  O3  UNL     1      19.660  62.940  49.883  1.00  0.00    -0.390 OA
ATOM     25  H3  UNL     1      19.805  63.387  50.708  1.00  0.00     0.210 HD
ENDBRANCH  16  24
BRANCH  17  26
HETATM   26  O4  UNL     1      20.342  61.497  47.594  1.00  0.00    -0.391 OA
ATOM     27  H4  UNL     1      19.610  61.239  47.047  1.00  0.00     0.210 HD
ENDBRANCH  17  26
BRANCH  18  28
HETATM   28  C15 UNL     1      21.037  62.951  45.258  1.00  0.00     0.221 C 
BRANCH  28  29
HETATM   29  O5  UNL     1      19.658  62.852  45.074  1.00  0.00    -0.255 OA
BRANCH  29  30
HETATM   30  S2  UNL     1      19.237  63.093  43.468  1.00  0.00     0.251 S 
HETATM   31  O6  UNL     1      18.947  64.534  43.168  1.00  0.00    -0.572 OA
HETATM   32  O7  UNL     1      17.970  62.328  43.107  1.00  0.00    -0.572 OA
HETATM   33  O8  UNL     1      20.449  62.539  42.448  1.00  0.00    -0.572 OA
ENDBRANCH  29  30
ENDBRANCH  28  29
ENDBRANCH  18  28
ENDBRANCH   4  13
TORSDOF 13
ENDMDL
MODEL 2
REMARK VINA RESULT: -7.560934262      1.245      1.925
REMARK  13 active torsions:
REMARK  status: ('A' for Active; 'I' for Inactive)
REMARK    1  A    between atoms: C2_2  and  C3_3 
REMARK    2  A    between atoms: C3_3  and  C4_4 
REMARK    3  A    between atoms: C4_4  and  C5_5 
REMARK    4  A    between atoms: C5_5  and  C6_6 
REMARK    5  A    between atoms: C8_9  and  N1_10 
REMARK    6  A    between atoms: C9_11  and  C10_12 
REMARK    7  A    between atoms: C10_12  and  O1_13 
REMARK    8  A    between atoms: C11_15  and  O2_16 
REMARK    9  A    between atoms: C12_18  and  O3_19 
REMARK   10  A    between atoms: C13_21  and  O4_22 
REMARK   11  A    between atoms: C14_24  and  C15_25 
REMARK   12  A    between atoms: C15_25  and  O5_26 
REMARK   13  A    between atoms: O5_26  and  S2_27 
ROOT
HETATM    1  C6  UNL     1      19.890  67.815  44.087  1.00  0.00    -0.028 A 
HETATM    2  C7  UNL     1      18.574  67.892  44.465  1.00  0.00     0.060 A 
HETATM    3  S1  UNL     1      18.477  66.795  45.756  1.00  0.00    -0.082 SA
HETATM    4  C8  UNL     1      20.107  66.257  45.789  1.00  0.00     0.094 A 
HETATM    5  C16 UNL     1      20.684  66.963  44.776  1.00  0.00     0.085 A 
HETATM    6  C17 UNL     1      22.122  66.742  44.495  1.00  0.00     0.103 C 
HETATM    7  N2  UNL     1      23.252  66.569  44.294  1.00  0.00    -0.191 NA
ENDROOT
BRANCH   1   8
HETATM    8  C5  UNL     1      20.446  68.697  42.965  1.00  0.00     0.041 C 
BRANCH   8   9
HETATM    9  C4  UNL     1      19.694  69.998  42.964  1.00  0.00     0.005 C 
BRANCH   9  10
HETATM   10  C3  UNL     1      19.166  70.367  41.608  1.00  0.00    -0.000 C 
BRANCH  10  11
HETATM   11  C2  UNL     1      17.633  70.446  41.610  1.00  0.00    -0.005 C 
HETATM   12  C1  UNL     1      17.230  70.360  40.147  1.00  0.00     0.005 C 
ENDBRANCH  10  11
ENDBRANCH   9  10
ENDBRANCH   8   9
ENDBRANCH   1   8
BRANCH   4  13
HETATM   13  N1  UNL     1      20.635  65.281  46.703  1.00  0.00    -0.355 N 
HETATM   14  C9  UNL     1      20.957  65.828  48.031  1.00  0.00     0.140 C 
HETATM   15  C11 UNL     1      20.413  64.971  49.116  1.00  0.00     0.174 C 
HETATM   16  C12 UNL     1      20.547  63.496  48.901  1.00  0.00     0.179 C 
HETATM   17  C13 UNL     1      20.160  63.070  47.509  1.00  0.00     0.174 C 
HETATM   18  C14 UNL     1      20.882  63.912  46.469  1.00  0.00     0.142 C 
BRANCH  14  19
HETATM   19  C10 UNL     1      22.477  65.916  48.068  1.00  0.00     0.192 C 
BRANCH  19  20
HETATM   20  O1  UNL     1      22.918  66.219  49.360  1.00  0.00    -0.399 OA
ATOM     21  H1  UNL     1      23.784  65.858  49.509  1.00  0.00     0.209 HD
ENDBRANCH  19  20
ENDBRANCH  14  19
BRANCH  15  22
HETATM   22  O2  UNL     1      19.109  65.363  49.462  1.00  0.00    -0.391 OA
ATOM     23  H2  UNL     1      18.464  64.788  49.069  1.00  0.00     0.210 HD
ENDBRANCH  15  22
BRANCH  16  24
HETATM   24  O3  UNL     1      19.689  62.863  49.810  1.00  0.00    -0.390 OA
ATOM     25  H3  UNL     1      19.277  62.139  49.353  1.00  0.00     0.210 HD
ENDBRANCH  16  24
BRANCH  17  26
HETATM   26  O4  UNL     1      20.515  61.715  47.405  1.00  0.00    -0.391 OA
ATOM     27  H4  UNL     1      21.229  61.678  46.779  1.00  0.00     0.210 HD
ENDBRANCH  17  26
BRANCH  18  28
HETATM   28  C15 UNL     1      20.637  63.375  45.106  1.00  0.00     0.221 C 
BRANCH  28  29
HETATM   29  O5  UNL     1      19.387  62.758  45.075  1.00  0.00    -0.255 OA
BRANCH  29  30
HETATM   30  S2  UNL     1      18.654  62.937  43.575  1.00  0.00     0.251 S 
HETATM   31  O6  UNL     1      19.623  62.749  42.446  1.00  0.00    -0.572 OA
HETATM   32  O7  UNL     1      18.079  64.337  43.404  1.00  0.00    -0.572 OA
HETATM   33  O8  UNL     1      17.378  61.860  43.407  1.00  0.00    -0.572 OA
ENDBRANCH  29  30
ENDBRANCH  28  29
ENDBRANCH  18  28
ENDBRANCH   4  13
TORSDOF 13
ENDMDL
MODEL 3
REMARK VINA RESULT: -7.532947789      1.618      2.156
REMARK  13 active torsions:
REMARK  status: ('A' for Active; 'I' for Inactive)
REMARK    1  A    between atoms: C2_2  and  C3_3 
REMARK    2  A    between atoms: C3_3  and  C4_4 
REMARK    3  A    between atoms: C4_4  and  C5_5 
REMARK    4  A    between atoms: C5_5  and  C6_6 
REMARK    5  A    between atoms: C8_9  and  N1_10 
REMARK    6  A    between atoms: C9_11  and  C10_12 
REMARK    7  A    between atoms: C10_12  and  O1_13 
REMARK    8  A    between atoms: C11_15  and  O2_16 
REMARK    9  A    between atoms: C12_18  and  O3_19 
REMARK   10  A    between atoms: C13_21  and  O4_22 
REMARK   11  A    between atoms: C14_24  and  C15_25 
REMARK   12  A    between atoms: C15_25  and  O5_26 
REMARK   13  A    between atoms: O5_26  and  S2_27 
ROOT
HETATM    1  C6  UNL     1      19.854  67.872  44.177  1.00  0.00    -0.028 A 
HETATM    2  C7  UNL     1      18.513  67.824  44.466  1.00  0.00     0.060 A 
HETATM    3  S1  UNL     1      18.420  66.639  45.677  1.00  0.00    -0.082 SA
HETATM    4  C8  UNL     1      20.083  66.226  45.793  1.00  0.00     0.094 A 
HETATM    5  C16 UNL     1      20.667  67.040  44.868  1.00  0.00     0.085 A 
HETATM    6  C17 UNL     1      22.133  66.949  44.676  1.00  0.00     0.103 C 
HETATM    7  N2  UNL     1      23.284  66.876  44.545  1.00  0.00    -0.191 NA
ENDROOT
BRANCH   1   8
HETATM    8  C5  UNL     1      20.409  68.867  43.154  1.00  0.00     0.041 C 
BRANCH   8   9
HETATM    9  C4  UNL     1      19.482  70.047  43.083  1.00  0.00     0.005 C 
BRANCH   9  10
HETATM   10  C3  UNL     1      19.060  70.377  41.681  1.00  0.00    -0.000 C 
BRANCH  10  11
HETATM   11  C2  UNL     1      17.530  70.412  41.553  1.00  0.00    -0.005 C 
HETATM   12  C1  UNL     1      17.258  70.375  40.059  1.00  0.00     0.005 C 
ENDBRANCH  10  11
ENDBRANCH   9  10
ENDBRANCH   8   9
ENDBRANCH   1   8
BRANCH   4  13
HETATM   13  N1  UNL     1      20.626  65.235  46.680  1.00  0.00    -0.355 N 
HETATM   14  C9  UNL     1      20.849  65.725  48.049  1.00  0.00     0.140 C 
HETATM   15  C11 UNL     1      20.308  64.778  49.059  1.00  0.00     0.174 C 
HETATM   16  C12 UNL     1      20.545  63.329  48.774  1.00  0.00     0.179 C 
HETATM   17  C13 UNL     1      20.255  62.957  47.343  1.00  0.00     0.174 C 
HETATM   18  C14 UNL     1      20.971  63.898  46.387  1.00  0.00     0.142 C 
BRANCH  14  19
HETATM   19  C10 UNL     1      22.357  65.904  48.170  1.00  0.00     0.192 C 
BRANCH  19  20
HETATM   20  O1  UNL     1      22.701  66.296  49.467  1.00  0.00    -0.399 OA
ATOM     21  H1  UNL     1      22.236  65.771  50.108  1.00  0.00     0.209 HD
ENDBRANCH  19  20
ENDBRANCH  14  19
BRANCH  15  22
HETATM   22  O2  UNL     1      18.967  65.071  49.357  1.00  0.00    -0.391 OA
ATOM     23  H2  UNL     1      18.463  64.275  49.478  1.00  0.00     0.210 HD
ENDBRANCH  15  22
BRANCH  16  24
HETATM   24  O3  UNL     1      19.686  62.595  49.603  1.00  0.00    -0.390 OA
ATOM     25  H3  UNL     1      18.954  62.310  49.069  1.00  0.00     0.210 HD
ENDBRANCH  16  24
BRANCH  17  26
HETATM   26  O4  UNL     1      20.700  61.635  47.187  1.00  0.00    -0.391 OA
ATOM     27  H4  UNL     1      20.779  61.493  46.252  1.00  0.00     0.210 HD
ENDBRANCH  17  26
BRANCH  18  28
HETATM   28  C15 UNL     1      20.828  63.423  44.987  1.00  0.00     0.221 C 
BRANCH  28  29
HETATM   29  O5  UNL     1      22.037  62.872  44.565  1.00  0.00    -0.255 OA
BRANCH  29  30
HETATM   30  S2  UNL     1      22.189  62.939  42.895  1.00  0.00     0.251 S 
HETATM   31  O6  UNL     1      21.953  64.320  42.360  1.00  0.00    -0.572 OA
HETATM   32  O7  UNL     1      21.163  62.045  42.210  1.00  0.00    -0.572 OA
HETATM   33  O8  UNL     1      23.704  62.400  42.415  1.00  0.00    -0.572 OA
ENDBRANCH  29  30
ENDBRANCH  28  29
ENDBRANCH  18  28
ENDBRANCH   4  13
TORSDOF 13
ENDMDL
MODEL 4
REMARK VINA RESULT: -7.510555997      3.234      5.638
REMARK  13 active torsions:
REMARK  status: ('A' for Active; 'I' for Inactive)
REMARK    1  A    between atoms: C2_2  and  C3_3 
REMARK    2  A    between atoms: C3_3  and  C4_4 
REMARK    3  A    between atoms: C4_4  and  C5_5 
REMARK    4  A    between atoms: C5_5  and  C6_6 
REMARK    5  A    between atoms: C8_9  and  N1_10 
REMARK    6  A    between atoms: C9_11  and  C10_12 
REMARK    7  A    between atoms: C10_12  and  O1_13 
REMARK    8  A    between atoms: C11_15  and  O2_16 
REMARK    9  A    between atoms: C12_18  and  O3_19 
REMARK   10  A    between atoms: C13_21  and  O4_22 
REMARK   11  A    between atoms: C14_24  and  C15_25 
REMARK   12  A    between atoms: C15_25  and  O5_26 
REMARK   13  A    between atoms: O5_26  and  S2_27 
ROOT
HETATM    1  C6  UNL     1      17.334  65.387  44.700  1.00  0.00    -0.028 A 
HETATM    2  C7  UNL     1      17.802  66.558  45.241  1.00  0.00     0.060 A 
HETATM    3  S1  UNL     1      19.475  66.296  45.345  1.00  0.00    -0.082 SA
HETATM    4  C8  UNL     1      19.549  64.704  44.703  1.00  0.00     0.094 A 
HETATM    5  C16 UNL     1      18.245  64.425  44.423  1.00  0.00     0.085 A 
HETATM    6  C17 UNL     1      17.916  63.098  43.852  1.00  0.00     0.103 C 
HETATM    7  N2  UNL     1      17.675  62.060  43.394  1.00  0.00    -0.191 NA
ENDROOT
BRANCH   1   8
HETATM    8  C5  UNL     1      15.849  65.201  44.376  1.00  0.00     0.041 C 
BRANCH   8   9
HETATM    9  C4  UNL     1      15.205  64.445  45.503  1.00  0.00     0.005 C 
BRANCH   9  10
HETATM   10  C3  UNL     1      14.147  65.241  46.212  1.00  0.00    -0.000 C 
BRANCH  10  11
HETATM   11  C2  UNL     1      14.288  65.120  47.736  1.00  0.00    -0.005 C 
HETATM   12  C1  UNL     1      15.629  65.756  48.060  1.00  0.00     0.005 C 
ENDBRANCH  10  11
ENDBRANCH   9  10
ENDBRANCH   8   9
ENDBRANCH   1   8
BRANCH   4  13
HETATM   13  N1  UNL     1      20.752  63.933  44.550  1.00  0.00    -0.355 N 
HETATM   14  C9  UNL     1      21.450  64.173  43.277  1.00  0.00     0.140 C 
HETATM   15  C11 UNL     1      22.903  64.399  43.490  1.00  0.00     0.174 C 
HETATM   16  C12 UNL     1      23.552  63.507  44.502  1.00  0.00     0.179 C 
HETATM   17  C13 UNL     1      22.744  63.369  45.766  1.00  0.00     0.174 C 
HETATM   18  C14 UNL     1      21.305  62.994  45.447  1.00  0.00     0.142 C 
BRANCH  14  19
HETATM   19  C10 UNL     1      21.173  62.938  42.430  1.00  0.00     0.192 C 
BRANCH  19  20
HETATM   20  O1  UNL     1      21.782  63.058  41.177  1.00  0.00    -0.399 OA
ATOM     21  H1  UNL     1      22.552  62.504  41.126  1.00  0.00     0.209 HD
ENDBRANCH  19  20
ENDBRANCH  14  19
BRANCH  15  22
HETATM   22  O2  UNL     1      23.177  65.761  43.698  1.00  0.00    -0.391 OA
ATOM     23  H2  UNL     1      22.923  66.279  42.944  1.00  0.00     0.210 HD
ENDBRANCH  15  22
BRANCH  16  24
HETATM   24  O3  UNL     1      24.789  64.079  44.830  1.00  0.00    -0.390 OA
ATOM     25  H3  UNL     1      24.730  64.382  45.728  1.00  0.00     0.210 HD
ENDBRANCH  16  24
BRANCH  17  26
HETATM   26  O4  UNL     1      23.376  62.371  46.524  1.00  0.00    -0.391 OA
ATOM     27  H4  UNL     1      24.265  62.672  46.667  1.00  0.00     0.210 HD
ENDBRANCH  17  26
BRANCH  18  28
HETATM   28  C15 UNL     1      20.560  62.687  46.694  1.00  0.00     0.221 C 
BRANCH  28  29
HETATM   29  O5  UNL     1      21.177  63.331  47.766  1.00  0.00    -0.255 OA
BRANCH  29  30
HETATM   30  S2  UNL     1      20.048  64.056  48.774  1.00  0.00     0.251 S 
HETATM   31  O6  UNL     1      18.728  64.260  48.092  1.00  0.00    -0.572 OA
HETATM   32  O7  UNL     1      20.508  65.440  49.215  1.00  0.00    -0.572 OA
HETATM   33  O8  UNL     1      19.827  63.147  50.167  1.00  0.00    -0.572 OA
ENDBRANCH  29  30
ENDBRANCH  28  29
ENDBRANCH  18  28
ENDBRANCH   4  13
TORSDOF 13
ENDMDL
MODEL 5
REMARK VINA RESULT: -7.391552071      3.011      4.542
REMARK  13 active torsions:
REMARK  status: ('A' for Active; 'I' for Inactive)
REMARK    1  A    between atoms: C2_2  and  C3_3 
REMARK    2  A    between atoms: C3_3  and  C4_4 
REMARK    3  A    between atoms: C4_4  and  C5_5 
REMARK    4  A    between atoms: C5_5  and  C6_6 
REMARK    5  A    between atoms: C8_9  and  N1_10 
REMARK    6  A    between atoms: C9_11  and  C10_12 
REMARK    7  A    between atoms: C10_12  and  O1_13 
REMARK    8  A    between atoms: C11_15  and  O2_16 
REMARK    9  A    between atoms: C12_18  and  O3_19 
REMARK   10  A    between atoms: C13_21  and  O4_22 
REMARK   11  A    between atoms: C14_24  and  C15_25 
REMARK   12  A    between atoms: C15_25  and  O5_26 
REMARK   13  A    between atoms: O5_26  and  S2_27 
ROOT
HETATM    1  C6  UNL     1      17.857  65.309  44.721  1.00  0.00    -0.028 A 
HETATM    2  C7  UNL     1      17.724  66.655  44.950  1.00  0.00     0.060 A 
HETATM    3  S1  UNL     1      19.256  67.104  45.524  1.00  0.00    -0.082 SA
HETATM    4  C8  UNL     1      20.036  65.575  45.465  1.00  0.00     0.094 A 
HETATM    5  C16 UNL     1      19.060  64.751  44.991  1.00  0.00     0.085 A 
HETATM    6  C17 UNL     1      19.375  63.313  44.817  1.00  0.00     0.103 C 
HETATM    7  N2  UNL     1      19.640  62.193  44.674  1.00  0.00    -0.191 NA
ENDROOT
BRANCH   1   8
HETATM    8  C5  UNL     1      16.706  64.487  44.133  1.00  0.00     0.041 C 
BRANCH   8   9
HETATM    9  C4  UNL     1      15.408  65.097  44.579  1.00  0.00     0.005 C 
BRANCH   9  10
HETATM   10  C3  UNL     1      14.797  64.383  45.750  1.00  0.00    -0.000 C 
BRANCH  10  11
HETATM   11  C2  UNL     1      14.346  65.375  46.832  1.00  0.00    -0.005 C 
HETATM   12  C1  UNL     1      15.544  65.523  47.756  1.00  0.00     0.005 C 
ENDBRANCH  10  11
ENDBRANCH   9  10
ENDBRANCH   8   9
ENDBRANCH   1   8
BRANCH   4  13
HETATM   13  N1  UNL     1      21.396  65.328  45.856  1.00  0.00    -0.355 N 
HETATM   14  C9  UNL     1      21.568  65.118  47.302  1.00  0.00     0.140 C 
HETATM   15  C11 UNL     1      22.403  63.921  47.580  1.00  0.00     0.174 C 
HETATM   16  C12 UNL     1      23.591  63.743  46.689  1.00  0.00     0.179 C 
HETATM   17  C13 UNL     1      23.271  63.963  45.233  1.00  0.00     0.174 C 
HETATM   18  C14 UNL     1      22.544  65.284  45.036  1.00  0.00     0.142 C 
BRANCH  14  19
HETATM   19  C10 UNL     1      22.203  66.401  47.821  1.00  0.00     0.192 C 
BRANCH  19  20
HETATM   20  O1  UNL     1      22.637  66.234  49.139  1.00  0.00    -0.399 OA
ATOM     21  H1  UNL     1      23.538  66.520  49.232  1.00  0.00     0.209 HD
ENDBRANCH  19  20
ENDBRANCH  14  19
BRANCH  15  22
HETATM   22  O2  UNL     1      21.610  62.765  47.681  1.00  0.00    -0.391 OA
ATOM     23  H2  UNL     1      20.702  62.955  47.476  1.00  0.00     0.210 HD
ENDBRANCH  15  22
BRANCH  16  24
HETATM   24  O3  UNL     1      24.039  62.425  46.847  1.00  0.00    -0.390 OA
ATOM     25  H3  UNL     1      24.483  62.179  46.044  1.00  0.00     0.210 HD
ENDBRANCH  16  24
BRANCH  17  26
HETATM   26  O4  UNL     1      24.502  63.951  44.558  1.00  0.00    -0.391 OA
ATOM     27  H4  UNL     1      24.774  64.858  44.492  1.00  0.00     0.210 HD
ENDBRANCH  17  26
BRANCH  18  28
HETATM   28  C15 UNL     1      22.389  65.579  43.589  1.00  0.00     0.221 C 
BRANCH  28  29
HETATM   29  O5  UNL     1      22.075  64.401  42.912  1.00  0.00    -0.255 OA
BRANCH  29  30
HETATM   30  S2  UNL     1      23.157  64.107  41.663  1.00  0.00     0.251 S 
HETATM   31  O6  UNL     1      24.241  65.142  41.598  1.00  0.00    -0.572 OA
HETATM   32  O7  UNL     1      22.462  64.144  40.309  1.00  0.00    -0.572 OA
HETATM   33  O8  UNL     1      23.844  62.584  41.819  1.00  0.00    -0.572 OA
ENDBRANCH  29  30
ENDBRANCH  28  29
ENDBRANCH  18  28
ENDBRANCH   4  13
TORSDOF 13
ENDMDL
