MODEL 1
REMARK VINA RESULT: -7.619623872      0.000      0.000
REMARK  14 active torsions:
REMARK  status: ('A' for Active; 'I' for Inactive)
REMARK    1  A    between atoms: C4_4  and  O1_5 
REMARK    2  A    between atoms: C5_8  and  O3_9 
REMARK    3  A    between atoms: C7_12  and  O4_13 
REMARK    4  A    between atoms: O4_13  and  C8_14 
REMARK    5  A    between atoms: C11_17  and  C12_18 
REMARK    6  A    between atoms: C11_17  and  C15_26 
REMARK    7  A    between atoms: C12_18  and  O5_19 
REMARK    8  A    between atoms: O5_19  and  C13_20 
REMARK    9  A    between atoms: C13_20  and  C14_21 
REMARK   10  A    between atoms: C14_21  and  N1_22 
REMARK   11  A    between atoms: C15_26  and  N2_27 
REMARK   12  A    between atoms: C18_32  and  C19_33 
REMARK   13  A    between atoms: C19_33  and  O8_34 
REMARK   14  A    between atoms: C20_37  and  O10_38 
ROOT
HETATM    1  C1  UNL     1      26.636  62.648  47.158  1.00  0.00     0.025 C 
HETATM    2  C2  UNL     1      25.848  63.660  47.473  1.00  0.00     0.003 C 
HETATM    3  C3  UNL     1      25.133  63.535  48.735  1.00  0.00     0.046 A 
HETATM    4  C4  UNL     1      25.631  62.943  49.886  1.00  0.00     0.197 A 
HETATM    5  O2  UNL     1      24.705  63.032  50.807  1.00  0.00    -0.263 OA
HETATM    6  C5  UNL     1      23.632  63.652  50.318  1.00  0.00     0.195 A 
HETATM    7  C6  UNL     1      23.859  63.993  48.995  1.00  0.00     0.047 A 
HETATM    8  C7  UNL     1      22.934  64.687  48.086  1.00  0.00     0.192 C 
HETATM    9  C18 UNL     1      23.554  65.401  46.939  1.00  0.00     0.182 C 
HETATM   10  O9  UNL     1      24.867  65.744  47.015  1.00  0.00    -0.347 OA
HETATM   11  C20 UNL     1      25.770  64.811  46.498  1.00  0.00     0.292 C 
ENDROOT
BRANCH   8  12
HETATM   12  O4  UNL     1      22.106  63.689  47.511  1.00  0.00    -0.373 OA
BRANCH  12  13
HETATM   13  C8  UNL     1      20.808  63.733  47.935  1.00  0.00     0.122 C 
HETATM   14  C9  UNL     1      20.463  65.089  48.572  1.00  0.00     0.033 C 
HETATM   15  C10 UNL     1      18.956  65.343  48.431  1.00  0.00     0.016 C 
HETATM   16  C11 UNL     1      18.719  65.836  47.051  1.00  0.00     0.003 C 
HETATM   17  C16 UNL     1      19.705  65.073  46.146  1.00  0.00     0.016 C 
HETATM   18  C17 UNL     1      19.922  63.682  46.681  1.00  0.00     0.033 C 
BRANCH  16  19
HETATM   19  C12 UNL     1      17.340  65.384  46.597  1.00  0.00     0.179 C 
BRANCH  19  20
HETATM   20  O5  UNL     1      16.539  65.076  47.660  1.00  0.00    -0.389 OA
BRANCH  20  21
HETATM   21  C13 UNL     1      15.190  65.067  47.443  1.00  0.00     0.194 C 
BRANCH  21  22
HETATM   22  C14 UNL     1      14.807  64.721  46.029  1.00  0.00     0.255 C 
BRANCH  22  23
HETATM   23  N1  UNL     1      13.379  65.022  45.821  1.00  0.00    -0.077 N 
ATOM     24  H13 UNL     1      12.792  64.639  46.563  1.00  0.00     0.274 HD
ATOM     25  H12 UNL     1      13.169  66.010  45.964  1.00  0.00     0.274 HD
ATOM     26  H11 UNL     1      13.096  64.697  44.898  1.00  0.00     0.274 HD
ENDBRANCH  22  23
ENDBRANCH  21  22
ENDBRANCH  20  21
ENDBRANCH  19  20
ENDBRANCH  16  19
BRANCH  16  27
HETATM   27  C15 UNL     1      18.944  67.289  46.828  1.00  0.00     0.213 C 
BRANCH  27  28
HETATM   28  N2  UNL     1      19.060  67.703  45.458  1.00  0.00    -0.155 N 
HETATM   29  O6  UNL     1      18.122  67.637  44.655  1.00  0.00    -0.537 OA
HETATM   30  O7  UNL     1      20.262  68.187  45.008  1.00  0.00    -0.537 OA
ENDBRANCH  27  28
ENDBRANCH  16  27
ENDBRANCH  12  13
ENDBRANCH   8  12
BRANCH   9  31
HETATM   31  C19 UNL     1      22.792  66.717  46.698  1.00  0.00     0.199 C 
BRANCH  31  32
HETATM   32  O8  UNL     1      23.070  67.099  45.386  1.00  0.00    -0.398 OA
ATOM     33  H8  UNL     1      22.865  68.025  45.326  1.00  0.00     0.209 HD
ENDBRANCH  31  32
ENDBRANCH   9  31
BRANCH   6  34
HETATM   34  O3  UNL     1      22.468  63.925  50.996  1.00  0.00    -0.340 OA
ATOM     35  H3  UNL     1      21.837  64.603  50.784  1.00  0.00     0.220 HD
ENDBRANCH   6  34
BRANCH   4  36
HETATM   36  O1  UNL     1      26.879  62.374  49.996  1.00  0.00    -0.340 OA
ATOM     37  H1  UNL     1      27.167  61.606  49.518  1.00  0.00     0.220 HD
ENDBRANCH   4  36
BRANCH  11  38
HETATM   38  O10 UNL     1      25.403  64.365  45.234  1.00  0.00    -0.367 OA
ATOM     39  H10 UNL     1      24.704  64.901  44.876  1.00  0.00     0.213 HD
ENDBRANCH  11  38
TORSDOF 14
ENDMDL
MODEL 2
REMARK VINA RESULT: -7.596131161      4.188      7.859
REMARK  14 active torsions:
REMARK  status: ('A' for Active; 'I' for Inactive)
REMARK    1  A    between atoms: C4_4  and  O1_5 
REMARK    2  A    between atoms: C5_8  and  O3_9 
REMARK    3  A    between atoms: C7_12  and  O4_13 
REMARK    4  A    between atoms: O4_13  and  C8_14 
REMARK    5  A    between atoms: C11_17  and  C12_18 
REMARK    6  A    between atoms: C11_17  and  C15_26 
REMARK    7  A    between atoms: C12_18  and  O5_19 
REMARK    8  A    between atoms: O5_19  and  C13_20 
REMARK    9  A    between atoms: C13_20  and  C14_21 
REMARK   10  A    between atoms: C14_21  and  N1_22 
REMARK   11  A    between atoms: C15_26  and  N2_27 
REMARK   12  A    between atoms: C18_32  and  C19_33 
REMARK   13  A    between atoms: C19_33  and  O8_34 
REMARK   14  A    between atoms: C20_37  and  O10_38 
ROOT
HETATM    1  C1  UNL     1      18.770  66.794  47.458  1.00  0.00     0.025 C 
HETATM    2  C2  UNL     1      18.496  65.707  46.761  1.00  0.00     0.003 C 
HETATM    3  C3  UNL     1      19.286  64.528  47.090  1.00  0.00     0.046 A 
HETATM    4  C4  UNL     1      19.722  64.182  48.360  1.00  0.00     0.197 A 
HETATM    5  O2  UNL     1      20.388  63.061  48.254  1.00  0.00    -0.263 OA
HETATM    6  C5  UNL     1      20.407  62.657  46.985  1.00  0.00     0.195 A 
HETATM    7  C6  UNL     1      19.714  63.565  46.201  1.00  0.00     0.047 A 
HETATM    8  C7  UNL     1      19.496  63.499  44.748  1.00  0.00     0.192 C 
HETATM    9  C18 UNL     1      18.323  64.248  44.227  1.00  0.00     0.182 C 
HETATM   10  O9  UNL     1      17.316  64.564  45.083  1.00  0.00    -0.347 OA
HETATM   11  C20 UNL     1      17.417  65.809  45.708  1.00  0.00     0.292 C 
ENDROOT
BRANCH   8  12
HETATM   12  O4  UNL     1      20.631  64.098  44.141  1.00  0.00    -0.373 OA
BRANCH  12  13
HETATM   13  C8  UNL     1      21.475  63.206  43.543  1.00  0.00     0.122 C 
HETATM   14  C9  UNL     1      21.661  63.512  42.049  1.00  0.00     0.033 C 
HETATM   15  C10 UNL     1      23.021  62.970  41.588  1.00  0.00     0.016 C 
HETATM   16  C11 UNL     1      24.052  63.953  42.005  1.00  0.00     0.003 C 
HETATM   17  C16 UNL     1      23.593  64.508  43.366  1.00  0.00     0.016 C 
HETATM   18  C17 UNL     1      22.872  63.436  44.141  1.00  0.00     0.033 C 
BRANCH  16  19
HETATM   19  C12 UNL     1      25.347  63.212  42.299  1.00  0.00     0.179 C 
BRANCH  19  20
HETATM   20  O5  UNL     1      26.147  63.920  43.152  1.00  0.00    -0.389 OA
BRANCH  20  21
HETATM   21  C13 UNL     1      27.051  63.212  43.893  1.00  0.00     0.194 C 
BRANCH  21  22
HETATM   22  C14 UNL     1      26.441  62.068  44.658  1.00  0.00     0.255 C 
BRANCH  22  23
HETATM   23  N1  UNL     1      27.503  61.338  45.373  1.00  0.00    -0.077 N 
ATOM     24  H13 UNL     1      27.593  60.374  45.050  1.00  0.00     0.274 HD
ATOM     25  H12 UNL     1      28.436  61.664  45.118  1.00  0.00     0.274 HD
ATOM     26  H11 UNL     1      27.335  61.394  46.377  1.00  0.00     0.274 HD
ENDBRANCH  22  23
ENDBRANCH  21  22
ENDBRANCH  20  21
ENDBRANCH  19  20
ENDBRANCH  16  19
BRANCH  16  27
HETATM   27  C15 UNL     1      24.254  65.114  41.097  1.00  0.00     0.213 C 
BRANCH  27  28
HETATM   28  N2  UNL     1      24.088  64.850  39.696  1.00  0.00    -0.155 N 
HETATM   29  O6  UNL     1      24.972  64.337  38.999  1.00  0.00    -0.537 OA
HETATM   30  O7  UNL     1      22.903  65.186  39.091  1.00  0.00    -0.537 OA
ENDBRANCH  27  28
ENDBRANCH  16  27
ENDBRANCH  12  13
ENDBRANCH   8  12
BRANCH   9  31
HETATM   31  C19 UNL     1      17.670  63.430  43.097  1.00  0.00     0.199 C 
BRANCH  31  32
HETATM   32  O8  UNL     1      17.843  62.088  43.430  1.00  0.00    -0.398 OA
ATOM     33  H8  UNL     1      17.226  61.597  42.899  1.00  0.00     0.209 HD
ENDBRANCH  31  32
ENDBRANCH   9  31
BRANCH   6  34
HETATM   34  O3  UNL     1      21.011  61.523  46.499  1.00  0.00    -0.340 OA
ATOM     35  H3  UNL     1      21.392  61.412  45.635  1.00  0.00     0.220 HD
ENDBRANCH   6  34
BRANCH   4  36
HETATM   36  O1  UNL     1      19.477  64.915  49.498  1.00  0.00    -0.340 OA
ATOM     37  H1  UNL     1      20.106  65.055  50.196  1.00  0.00     0.220 HD
ENDBRANCH   4  36
BRANCH  11  38
HETATM   38  O10 UNL     1      17.698  66.830  44.809  1.00  0.00    -0.367 OA
ATOM     39  H10 UNL     1      16.937  67.031  44.276  1.00  0.00     0.213 HD
ENDBRANCH  11  38
TORSDOF 14
ENDMDL
MODEL 3
REMARK VINA RESULT: -7.562733764      3.971      5.922
REMARK  14 active torsions:
REMARK  status: ('A' for Active; 'I' for Inactive)
REMARK    1  A    between atoms: C4_4  and  O1_5 
REMARK    2  A    between atoms: C5_8  and  O3_9 
REMARK    3  A    between atoms: C7_12  and  O4_13 
REMARK    4  A    between atoms: O4_13  and  C8_14 
REMARK    5  A    between atoms: C11_17  and  C12_18 
REMARK    6  A    between atoms: C11_17  and  C15_26 
REMARK    7  A    between atoms: C12_18  and  O5_19 
REMARK    8  A    between atoms: O5_19  and  C13_20 
REMARK    9  A    between atoms: C13_20  and  C14_21 
REMARK   10  A    between atoms: C14_21  and  N1_22 
REMARK   11  A    between atoms: C15_26  and  N2_27 
REMARK   12  A    between atoms: C18_32  and  C19_33 
REMARK   13  A    between atoms: C19_33  and  O8_34 
REMARK   14  A    between atoms: C20_37  and  O10_38 
ROOT
HETATM    1  C1  UNL     1      22.003  67.337  47.095  1.00  0.00     0.025 C 
HETATM    2  C2  UNL     1      20.856  66.894  47.578  1.00  0.00     0.003 C 
HETATM    3  C3  UNL     1      20.937  65.687  48.389  1.00  0.00     0.046 A 
HETATM    4  C4  UNL     1      21.974  65.366  49.252  1.00  0.00     0.197 A 
HETATM    5  O2  UNL     1      21.684  64.216  49.805  1.00  0.00    -0.263 OA
HETATM    6  C5  UNL     1      20.514  63.771  49.350  1.00  0.00     0.195 A 
HETATM    7  C6  UNL     1      19.997  64.680  48.441  1.00  0.00     0.047 A 
HETATM    8  C7  UNL     1      18.728  64.574  47.704  1.00  0.00     0.192 C 
HETATM    9  C18 UNL     1      18.142  65.852  47.223  1.00  0.00     0.182 C 
HETATM   10  O9  UNL     1      18.524  67.013  47.819  1.00  0.00    -0.347 OA
HETATM   11  C20 UNL     1      19.608  67.670  47.233  1.00  0.00     0.292 C 
ENDROOT
BRANCH   8  12
HETATM   12  O4  UNL     1      19.000  63.815  46.536  1.00  0.00    -0.373 OA
BRANCH  12  13
HETATM   13  C8  UNL     1      19.048  64.558  45.391  1.00  0.00     0.122 C 
HETATM   14  C9  UNL     1      20.468  64.609  44.804  1.00  0.00     0.033 C 
HETATM   15  C10 UNL     1      20.381  64.849  43.291  1.00  0.00     0.016 C 
HETATM   16  C11 UNL     1      20.072  63.544  42.655  1.00  0.00     0.003 C 
HETATM   17  C16 UNL     1      19.123  62.808  43.619  1.00  0.00     0.016 C 
HETATM   18  C17 UNL     1      18.240  63.801  44.327  1.00  0.00     0.033 C 
BRANCH  16  19
HETATM   19  C12 UNL     1      19.247  63.790  41.402  1.00  0.00     0.179 C 
BRANCH  19  20
HETATM   20  O5  UNL     1      18.368  62.770  41.173  1.00  0.00    -0.389 OA
BRANCH  20  21
HETATM   21  C13 UNL     1      17.724  62.759  39.967  1.00  0.00     0.194 C 
BRANCH  21  22
HETATM   22  C14 UNL     1      18.584  63.215  38.819  1.00  0.00     0.255 C 
BRANCH  22  23
HETATM   23  N1  UNL     1      19.267  62.050  38.227  1.00  0.00    -0.077 N 
ATOM     24  H13 UNL     1      18.713  61.196  38.308  1.00  0.00     0.274 HD
ATOM     25  H12 UNL     1      19.306  62.102  37.209  1.00  0.00     0.274 HD
ATOM     26  H11 UNL     1      20.192  61.951  38.645  1.00  0.00     0.274 HD
ENDBRANCH  22  23
ENDBRANCH  21  22
ENDBRANCH  20  21
ENDBRANCH  19  20
ENDBRANCH  16  19
BRANCH  16  27
HETATM   27  C15 UNL     1      21.234  62.648  42.404  1.00  0.00     0.213 C 
BRANCH  27  28
HETATM   28  N2  UNL     1      21.666  62.549  41.039  1.00  0.00    -0.155 N 
HETATM   29  O6  UNL     1      21.440  61.559  40.333  1.00  0.00    -0.537 OA
HETATM   30  O7  UNL     1      22.368  63.589  40.486  1.00  0.00    -0.537 OA
ENDBRANCH  27  28
ENDBRANCH  16  27
ENDBRANCH  12  13
ENDBRANCH   8  12
BRANCH   9  31
HETATM   31  C19 UNL     1      16.611  65.789  47.374  1.00  0.00     0.199 C 
BRANCH  31  32
HETATM   32  O8  UNL     1      16.327  66.173  48.684  1.00  0.00    -0.398 OA
ATOM     33  H8  UNL     1      15.760  65.501  49.044  1.00  0.00     0.209 HD
ENDBRANCH  31  32
ENDBRANCH   9  31
BRANCH   6  34
HETATM   34  O3  UNL     1      19.891  62.600  49.708  1.00  0.00    -0.340 OA
ATOM     35  H3  UNL     1      19.774  61.832  49.160  1.00  0.00     0.220 HD
ENDBRANCH   6  34
BRANCH   4  36
HETATM   36  O1  UNL     1      23.089  66.145  49.459  1.00  0.00    -0.340 OA
ATOM     37  H1  UNL     1      23.093  66.968  49.932  1.00  0.00     0.220 HD
ENDBRANCH   4  36
BRANCH  11  38
HETATM   38  O10 UNL     1      19.467  67.794  45.855  1.00  0.00    -0.367 OA
ATOM     39  H10 UNL     1      18.708  68.323  45.639  1.00  0.00     0.213 HD
ENDBRANCH  11  38
TORSDOF 14
ENDMDL
MODEL 4
REMARK VINA RESULT: -7.516965627      4.456      6.939
REMARK  14 active torsions:
REMARK  status: ('A' for Active; 'I' for Inactive)
REMARK    1  A    between atoms: C4_4  and  O1_5 
REMARK    2  A    between atoms: C5_8  and  O3_9 
REMARK    3  A    between atoms: C7_12  and  O4_13 
REMARK    4  A    between atoms: O4_13  and  C8_14 
REMARK    5  A    between atoms: C11_17  and  C12_18 
REMARK    6  A    between atoms: C11_17  and  C15_26 
REMARK    7  A    between atoms: C12_18  and  O5_19 
REMARK    8  A    between atoms: O5_19  and  C13_20 
REMARK    9  A    between atoms: C13_20  and  C14_21 
REMARK   10  A    between atoms: C14_21  and  N1_22 
REMARK   11  A    between atoms: C15_26  and  N2_27 
REMARK   12  A    between atoms: C18_32  and  C19_33 
REMARK   13  A    between atoms: C19_33  and  O8_34 
REMARK   14  A    between atoms: C20_37  and  O10_38 
ROOT
HETATM    1  C1  UNL     1      21.483  63.600  49.867  1.00  0.00     0.025 C 
HETATM    2  C2  UNL     1      22.392  64.375  49.306  1.00  0.00     0.003 C 
HETATM    3  C3  UNL     1      21.899  65.293  48.289  1.00  0.00     0.046 A 
HETATM    4  C4  UNL     1      20.673  65.940  48.316  1.00  0.00     0.197 A 
HETATM    5  O2  UNL     1      20.596  66.683  47.242  1.00  0.00    -0.263 OA
HETATM    6  C5  UNL     1      21.707  66.557  46.518  1.00  0.00     0.195 A 
HETATM    7  C6  UNL     1      22.571  65.677  47.148  1.00  0.00     0.047 A 
HETATM    8  C7  UNL     1      23.903  65.257  46.686  1.00  0.00     0.192 C 
HETATM    9  C18 UNL     1      24.833  64.760  47.733  1.00  0.00     0.182 C 
HETATM   10  O9  UNL     1      24.606  65.106  49.028  1.00  0.00    -0.347 OA
HETATM   11  C20 UNL     1      23.822  64.218  49.767  1.00  0.00     0.292 C 
ENDROOT
BRANCH   8  12
HETATM   12  O4  UNL     1      23.700  64.163  45.805  1.00  0.00    -0.373 OA
BRANCH  12  13
HETATM   13  C8  UNL     1      24.342  64.289  44.607  1.00  0.00     0.122 C 
HETATM   14  C9  UNL     1      24.463  62.940  43.880  1.00  0.00     0.033 C 
HETATM   15  C10 UNL     1      24.562  63.188  42.368  1.00  0.00     0.016 C 
HETATM   16  C11 UNL     1      23.185  63.430  41.870  1.00  0.00     0.003 C 
HETATM   17  C16 UNL     1      22.457  64.213  42.978  1.00  0.00     0.016 C 
HETATM   18  C17 UNL     1      23.428  65.117  43.691  1.00  0.00     0.033 C 
BRANCH  16  19
HETATM   19  C12 UNL     1      23.250  64.386  40.690  1.00  0.00     0.179 C 
BRANCH  19  20
HETATM   20  O5  UNL     1      24.218  64.018  39.799  1.00  0.00    -0.389 OA
BRANCH  20  21
HETATM   21  C13 UNL     1      24.945  65.019  39.217  1.00  0.00     0.194 C 
BRANCH  21  22
HETATM   22  C14 UNL     1      24.178  65.799  38.183  1.00  0.00     0.255 C 
BRANCH  22  23
HETATM   23  N1  UNL     1      24.567  65.341  36.837  1.00  0.00    -0.077 N 
ATOM     24  H13 UNL     1      25.012  64.422  36.855  1.00  0.00     0.274 HD
ATOM     25  H12 UNL     1      23.759  65.099  36.263  1.00  0.00     0.274 HD
ATOM     26  H11 UNL     1      25.157  66.046  36.397  1.00  0.00     0.274 HD
ENDBRANCH  22  23
ENDBRANCH  21  22
ENDBRANCH  20  21
ENDBRANCH  19  20
ENDBRANCH  16  19
BRANCH  16  27
HETATM   27  C15 UNL     1      22.374  62.218  41.576  1.00  0.00     0.213 C 
BRANCH  27  28
HETATM   28  N2  UNL     1      21.063  62.455  41.040  1.00  0.00    -0.155 N 
HETATM   29  O6  UNL     1      20.111  62.828  41.735  1.00  0.00    -0.537 OA
HETATM   30  O7  UNL     1      20.846  62.254  39.701  1.00  0.00    -0.537 OA
ENDBRANCH  27  28
ENDBRANCH  16  27
ENDBRANCH  12  13
ENDBRANCH   8  12
BRANCH   9  31
HETATM   31  C19 UNL     1      26.257  65.251  47.412  1.00  0.00     0.199 C 
BRANCH  31  32
HETATM   32  O8  UNL     1      26.845  65.580  48.633  1.00  0.00    -0.398 OA
ATOM     33  H8  UNL     1      26.965  66.523  48.628  1.00  0.00     0.209 HD
ENDBRANCH  31  32
ENDBRANCH   9  31
BRANCH   6  34
HETATM   34  O3  UNL     1      21.981  67.188  45.328  1.00  0.00    -0.340 OA
ATOM     35  H3  UNL     1      22.753  67.063  44.788  1.00  0.00     0.220 HD
ENDBRANCH   6  34
BRANCH   4  36
HETATM   36  O1  UNL     1      19.735  65.796  49.312  1.00  0.00    -0.340 OA
ATOM     37  H1  UNL     1      18.971  65.234  49.258  1.00  0.00     0.220 HD
ENDBRANCH   4  36
BRANCH  11  38
HETATM   38  O10 UNL     1      24.244  62.901  49.629  1.00  0.00    -0.367 OA
ATOM     39  H10 UNL     1      25.159  62.811  49.872  1.00  0.00     0.213 HD
ENDBRANCH  11  38
TORSDOF 14
ENDMDL
MODEL 5
REMARK VINA RESULT: -7.472167541      4.302      7.169
REMARK  14 active torsions:
REMARK  status: ('A' for Active; 'I' for Inactive)
REMARK    1  A    between atoms: C4_4  and  O1_5 
REMARK    2  A    between atoms: C5_8  and  O3_9 
REMARK    3  A    between atoms: C7_12  and  O4_13 
REMARK    4  A    between atoms: O4_13  and  C8_14 
REMARK    5  A    between atoms: C11_17  and  C12_18 
REMARK    6  A    between atoms: C11_17  and  C15_26 
REMARK    7  A    between atoms: C12_18  and  O5_19 
REMARK    8  A    between atoms: O5_19  and  C13_20 
REMARK    9  A    between atoms: C13_20  and  C14_21 
REMARK   10  A    between atoms: C14_21  and  N1_22 
REMARK   11  A    between atoms: C15_26  and  N2_27 
REMARK   12  A    between atoms: C18_32  and  C19_33 
REMARK   13  A    between atoms: C19_33  and  O8_34 
REMARK   14  A    between atoms: C20_37  and  O10_38 
ROOT
HETATM    1  C1  UNL     1      22.693  65.489  39.654  1.00  0.00     0.025 C 
HETATM    2  C2  UNL     1      23.207  64.628  40.513  1.00  0.00     0.003 C 
HETATM    3  C3  UNL     1      22.244  63.823  41.252  1.00  0.00     0.046 A 
HETATM    4  C4  UNL     1      21.046  63.338  40.748  1.00  0.00     0.197 A 
HETATM    5  O2  UNL     1      20.466  62.655  41.702  1.00  0.00    -0.263 OA
HETATM    6  C5  UNL     1      21.221  62.668  42.799  1.00  0.00     0.195 A 
HETATM    7  C6  UNL     1      22.370  63.404  42.560  1.00  0.00     0.047 A 
HETATM    8  C7  UNL     1      23.468  63.669  43.503  1.00  0.00     0.192 C 
HETATM    9  C18 UNL     1      24.785  63.999  42.899  1.00  0.00     0.182 C 
HETATM   10  O9  UNL     1      25.026  63.631  41.613  1.00  0.00    -0.347 OA
HETATM   11  C20 UNL     1      24.711  64.581  40.638  1.00  0.00     0.292 C 
ENDROOT
BRANCH   8  12
HETATM   12  O4  UNL     1      23.092  64.815  44.249  1.00  0.00    -0.373 OA
BRANCH  12  13
HETATM   13  C8  UNL     1      23.645  64.870  45.497  1.00  0.00     0.122 C 
HETATM   14  C9  UNL     1      23.066  66.028  46.326  1.00  0.00     0.033 C 
HETATM   15  C10 UNL     1      23.182  65.687  47.818  1.00  0.00     0.016 C 
HETATM   16  C11 UNL     1      22.059  64.775  48.150  1.00  0.00     0.003 C 
HETATM   17  C16 UNL     1      21.858  63.872  46.919  1.00  0.00     0.016 C 
HETATM   18  C17 UNL     1      23.183  63.613  46.250  1.00  0.00     0.033 C 
BRANCH  16  19
HETATM   19  C12 UNL     1      22.501  63.834  49.260  1.00  0.00     0.179 C 
BRANCH  19  20
HETATM   20  O5  UNL     1      23.702  64.212  49.789  1.00  0.00    -0.389 OA
BRANCH  20  21
HETATM   21  C13 UNL     1      24.498  63.227  50.301  1.00  0.00     0.194 C 
BRANCH  21  22
HETATM   22  C14 UNL     1      25.969  63.460  50.077  1.00  0.00     0.255 C 
BRANCH  22  23
HETATM   23  N1  UNL     1      26.703  63.191  51.326  1.00  0.00    -0.077 N 
ATOM     24  H13 UNL     1      27.285  63.980  51.610  1.00  0.00     0.274 HD
ATOM     25  H12 UNL     1      26.086  63.167  52.139  1.00  0.00     0.274 HD
ATOM     26  H11 UNL     1      27.241  62.331  51.224  1.00  0.00     0.274 HD
ENDBRANCH  22  23
ENDBRANCH  21  22
ENDBRANCH  20  21
ENDBRANCH  19  20
ENDBRANCH  16  19
BRANCH  16  27
HETATM   27  C15 UNL     1      20.753  65.425  48.442  1.00  0.00     0.213 C 
BRANCH  27  28
HETATM   28  N2  UNL     1      19.653  64.538  48.697  1.00  0.00    -0.155 N 
HETATM   29  O6  UNL     1      18.665  64.463  47.957  1.00  0.00    -0.537 OA
HETATM   30  O7  UNL     1      19.687  63.739  49.812  1.00  0.00    -0.537 OA
ENDBRANCH  27  28
ENDBRANCH  16  27
ENDBRANCH  12  13
ENDBRANCH   8  12
BRANCH   9  31
HETATM   31  C19 UNL     1      25.898  63.343  43.737  1.00  0.00     0.199 C 
BRANCH  31  32
HETATM   32  O8  UNL     1      27.103  63.667  43.114  1.00  0.00    -0.398 OA
ATOM     33  H8  UNL     1      27.717  62.977  43.341  1.00  0.00     0.209 HD
ENDBRANCH  31  32
ENDBRANCH   9  31
BRANCH   6  34
HETATM   34  O3  UNL     1      20.933  62.058  43.996  1.00  0.00    -0.340 OA
ATOM     35  H3  UNL     1      20.569  61.187  44.112  1.00  0.00     0.220 HD
ENDBRANCH   6  34
BRANCH   4  36
HETATM   36  O1  UNL     1      20.589  63.559  39.470  1.00  0.00    -0.340 OA
ATOM     37  H1  UNL     1      19.842  64.103  39.250  1.00  0.00     0.220 HD
ENDBRANCH   4  36
BRANCH  11  38
HETATM   38  O10 UNL     1      25.221  65.838  40.943  1.00  0.00    -0.367 OA
ATOM     39  H10 UNL     1      25.378  66.340  40.151  1.00  0.00     0.213 HD
ENDBRANCH  11  38
TORSDOF 14
ENDMDL
