MODEL 1
REMARK VINA RESULT: -8.959685498      0.000      0.000
REMARK  8 active torsions:
REMARK  status: ('A' for Active; 'I' for Inactive)
REMARK    1  A    between atoms: C4_8  and  O1_9 
REMARK    2  A    between atoms: C4_8  and  C5_11 
REMARK       I    between atoms: C5_11  and  N3_13 
REMARK    3  A    between atoms: N3_13  and  C6_14 
REMARK    4  A    between atoms: C6_14  and  C7_15 
REMARK    5  A    between atoms: C7_15  and  C8_16 
REMARK    6  A    between atoms: C8_16  and  N4_17 
REMARK    7  A    between atoms: C12_24  and  C13_25 
REMARK    8  A    between atoms: C15_30  and  N8_31 
ROOT
HETATM    1  N4  UNL     1     126.529  41.821  19.453  1.00  0.00    -0.226 N 
ATOM      2  H4  UNL     1     125.543  42.080  19.427  1.00  0.00     0.177 HD
HETATM    3  C9  UNL     1     126.671  40.713  18.911  1.00  0.00     0.678 A 
HETATM    4  N5  UNL     1     125.558  40.080  18.409  1.00  0.00    -0.202 N 
ATOM      5  H5  UNL     1     124.661  40.555  18.507  1.00  0.00     0.183 HD
HETATM    6  C10 UNL     1     125.563  38.919  17.818  1.00  0.00     0.108 A 
HETATM    7  C11 UNL     1     126.761  38.245  17.666  1.00  0.00     0.049 A 
HETATM    8  C12 UNL     1     127.920  38.817  18.146  1.00  0.00     0.067 A 
HETATM    9  N11 UNL     1     127.829  40.022  18.746  1.00  0.00    -0.191 N 
ATOM     10  H11 UNL     1     128.688  40.443  19.101  1.00  0.00     0.184 HD
ENDROOT
BRANCH   1  11
HETATM   11  C8  UNL     1     127.238  42.827  20.080  1.00  0.00     0.144 C 
BRANCH  11  12
HETATM   12  C7  UNL     1     126.621  43.096  21.466  1.00  0.00     0.080 C 
BRANCH  12  13
HETATM   13  C6  UNL     1     125.287  43.835  21.205  1.00  0.00     0.161 C 
BRANCH  13  14
HETATM   14  N3  UNL     1     124.292  43.229  20.636  1.00  0.00    -0.384 NA
HETATM   15  C5  UNL     1     123.216  42.574  20.020  1.00  0.00     0.356 C 
HETATM   16  O2  UNL     1     123.210  41.986  18.934  1.00  0.00    -0.251 OA
BRANCH  15  17
HETATM   17  C4  UNL     1     121.923  42.633  20.831  1.00  0.00     0.334 C 
HETATM   18  N2  UNL     1     121.858  44.015  21.336  1.00  0.00    -0.029 N 
HETATM   19  C3  UNL     1     120.651  44.142  22.143  1.00  0.00     0.256 C 
ATOM     20  H22 UNL     1     121.910  44.710  20.591  1.00  0.00     0.281 HD
ATOM     21  H21 UNL     1     122.701  44.292  21.839  1.00  0.00     0.281 HD
HETATM   22  C2  UNL     1     119.414  43.755  21.411  1.00  0.00     0.144 C 
HETATM   23  N1  UNL     1     119.526  42.848  20.336  1.00  0.00    -0.410 N 
HETATM   24  C1  UNL     1     118.507  41.814  20.429  1.00  0.00     0.143 C 
HETATM   25  C17 UNL     1     120.788  42.372  19.918  1.00  0.00     0.197 C 
BRANCH  17  26
HETATM   26  O1  UNL     1     121.989  41.757  21.873  1.00  0.00    -0.356 OA
ATOM     27  H1  UNL     1     122.230  40.894  21.560  1.00  0.00     0.213 HD
ENDBRANCH  17  26
ENDBRANCH  15  17
ENDBRANCH  13  14
ENDBRANCH  12  13
ENDBRANCH  11  12
ENDBRANCH   1  11
BRANCH   8  28
HETATM   28  C13 UNL     1     129.225  38.139  17.931  1.00  0.00     0.077 A 
HETATM   29  C14 UNL     1     130.231  38.786  17.272  1.00  0.00     0.148 A 
HETATM   30  N6  UNL     1     130.097  40.047  16.600  1.00  0.00    -0.081 NA
HETATM   31  N7  UNL     1     131.462  38.201  17.170  1.00  0.00    -0.178 N 
HETATM   32  C15 UNL     1     131.734  37.013  17.685  1.00  0.00     0.678 A 
ATOM     33  H7  UNL     1     132.201  38.700  16.676  1.00  0.00     0.185 HD
HETATM   34  N9  UNL     1     130.759  36.371  18.330  1.00  0.00    -0.176 N 
HETATM   35  C16 UNL     1     129.509  36.905  18.466  1.00  0.00     0.130 A 
ATOM     36  H9  UNL     1     130.953  35.454  18.733  1.00  0.00     0.186 HD
HETATM   37  N10 UNL     1     128.637  36.251  19.133  1.00  0.00    -0.384 N 
ATOM     38 2H10 UNL     1     127.703  36.650  19.234  1.00  0.00     0.157 HD
ATOM     39 1H10 UNL     1     128.847  35.335  19.530  1.00  0.00     0.157 HD
BRANCH  32  40
HETATM   40  N8  UNL     1     132.928  36.501  17.562  1.00  0.00    -0.234 N 
ATOM     41  H82 UNL     1     133.370  36.384  16.650  1.00  0.00     0.174 HD
ATOM     42  H81 UNL     1     133.447  36.201  18.387  1.00  0.00     0.174 HD
ENDBRANCH  32  40
ENDBRANCH   8  28
TORSDOF 8
ENDMDL
MODEL 2
REMARK VINA RESULT: -8.763491695      1.455      2.187
REMARK  8 active torsions:
REMARK  status: ('A' for Active; 'I' for Inactive)
REMARK    1  A    between atoms: C4_8  and  O1_9 
REMARK    2  A    between atoms: C4_8  and  C5_11 
REMARK       I    between atoms: C5_11  and  N3_13 
REMARK    3  A    between atoms: N3_13  and  C6_14 
REMARK    4  A    between atoms: C6_14  and  C7_15 
REMARK    5  A    between atoms: C7_15  and  C8_16 
REMARK    6  A    between atoms: C8_16  and  N4_17 
REMARK    7  A    between atoms: C12_24  and  C13_25 
REMARK    8  A    between atoms: C15_30  and  N8_31 
ROOT
HETATM    1  N4  UNL     1     126.168  41.590  20.452  1.00  0.00    -0.226 N 
ATOM      2  H4  UNL     1     125.277  41.632  20.947  1.00  0.00     0.177 HD
HETATM    3  C9  UNL     1     126.122  40.676  19.613  1.00  0.00     0.678 A 
HETATM    4  N5  UNL     1     124.967  39.938  19.508  1.00  0.00    -0.202 N 
ATOM      5  H5  UNL     1     124.195  40.178  20.130  1.00  0.00     0.183 HD
HETATM    6  C10 UNL     1     124.782  38.954  18.674  1.00  0.00     0.108 A 
HETATM    7  C11 UNL     1     125.805  38.599  17.814  1.00  0.00     0.049 A 
HETATM    8  C12 UNL     1     126.995  39.294  17.861  1.00  0.00     0.067 A 
HETATM    9  N11 UNL     1     127.106  40.299  18.755  1.00  0.00    -0.191 N 
ATOM     10  H11 UNL     1     127.988  40.811  18.788  1.00  0.00     0.184 HD
ENDROOT
BRANCH   1  11
HETATM   11  C8  UNL     1     127.003  42.571  20.950  1.00  0.00     0.144 C 
BRANCH  11  12
HETATM   12  C7  UNL     1     126.434  43.955  20.584  1.00  0.00     0.080 C 
BRANCH  12  13
HETATM   13  C6  UNL     1     125.014  44.011  21.197  1.00  0.00     0.161 C 
BRANCH  13  14
HETATM   14  N3  UNL     1     124.012  43.440  20.605  1.00  0.00    -0.384 NA
HETATM   15  C5  UNL     1     122.929  42.822  19.965  1.00  0.00     0.356 C 
HETATM   16  O2  UNL     1     122.894  42.346  18.826  1.00  0.00    -0.251 OA
BRANCH  15  17
HETATM   17  C4  UNL     1     121.666  42.765  20.823  1.00  0.00     0.334 C 
HETATM   18  N2  UNL     1     121.513  44.129  21.358  1.00  0.00    -0.029 N 
HETATM   19  C3  UNL     1     120.332  44.146  22.211  1.00  0.00     0.256 C 
ATOM     20  H22 UNL     1     121.483  44.838  20.627  1.00  0.00     0.281 HD
ATOM     21  H21 UNL     1     122.351  44.462  21.836  1.00  0.00     0.281 HD
HETATM   22  C2  UNL     1     119.101  43.676  21.516  1.00  0.00     0.144 C 
HETATM   23  N1  UNL     1     119.244  42.800  20.420  1.00  0.00    -0.410 N 
HETATM   24  C1  UNL     1     118.312  41.688  20.529  1.00  0.00     0.143 C 
HETATM   25  C17 UNL     1     120.522  42.432  19.947  1.00  0.00     0.197 C 
BRANCH  17  26
HETATM   26  O1  UNL     1     121.839  41.878  21.844  1.00  0.00    -0.356 OA
ATOM     27  H1  UNL     1     122.617  41.354  21.693  1.00  0.00     0.213 HD
ENDBRANCH  17  26
ENDBRANCH  15  17
ENDBRANCH  13  14
ENDBRANCH  12  13
ENDBRANCH  11  12
ENDBRANCH   1  11
BRANCH   8  28
HETATM   28  C13 UNL     1     128.080  38.971  16.898  1.00  0.00     0.077 A 
HETATM   29  C14 UNL     1     128.593  37.706  16.845  1.00  0.00     0.148 A 
HETATM   30  N6  UNL     1     128.288  36.655  17.773  1.00  0.00    -0.081 NA
HETATM   31  N7  UNL     1     129.513  37.387  15.887  1.00  0.00    -0.178 N 
HETATM   32  C15 UNL     1     129.944  38.259  14.990  1.00  0.00     0.678 A 
ATOM     33  H7  UNL     1     129.883  36.437  15.862  1.00  0.00     0.185 HD
HETATM   34  N9  UNL     1     129.451  39.497  15.032  1.00  0.00    -0.176 N 
HETATM   35  C16 UNL     1     128.528  39.876  15.965  1.00  0.00     0.130 A 
ATOM     36  H9  UNL     1     129.773  40.182  14.348  1.00  0.00     0.186 HD
HETATM   37  N10 UNL     1     128.070  41.068  15.919  1.00  0.00    -0.384 N 
ATOM     38 2H10 UNL     1     127.380  41.351  16.616  1.00  0.00     0.157 HD
ATOM     39 1H10 UNL     1     128.402  41.740  15.227  1.00  0.00     0.157 HD
BRANCH  32  40
HETATM   40  N8  UNL     1     130.822  37.900  14.094  1.00  0.00    -0.234 N 
ATOM     41  H82 UNL     1     131.817  37.838  14.311  1.00  0.00     0.174 HD
ATOM     42  H81 UNL     1     130.525  37.676  13.144  1.00  0.00     0.174 HD
ENDBRANCH  32  40
ENDBRANCH   8  28
TORSDOF 8
ENDMDL
MODEL 3
REMARK VINA RESULT: -8.697165141      1.431      1.662
REMARK  8 active torsions:
REMARK  status: ('A' for Active; 'I' for Inactive)
REMARK    1  A    between atoms: C4_8  and  O1_9 
REMARK    2  A    between atoms: C4_8  and  C5_11 
REMARK       I    between atoms: C5_11  and  N3_13 
REMARK    3  A    between atoms: N3_13  and  C6_14 
REMARK    4  A    between atoms: C6_14  and  C7_15 
REMARK    5  A    between atoms: C7_15  and  C8_16 
REMARK    6  A    between atoms: C8_16  and  N4_17 
REMARK    7  A    between atoms: C12_24  and  C13_25 
REMARK    8  A    between atoms: C15_30  and  N8_31 
ROOT
HETATM    1  N4  UNL     1     126.417  41.752  20.263  1.00  0.00    -0.226 N 
ATOM      2  H4  UNL     1     125.559  41.805  20.811  1.00  0.00     0.177 HD
HETATM    3  C9  UNL     1     126.328  40.807  19.462  1.00  0.00     0.678 A 
HETATM    4  N5  UNL     1     125.176  40.056  19.457  1.00  0.00    -0.202 N 
ATOM      5  H5  UNL     1     124.443  40.313  20.118  1.00  0.00     0.183 HD
HETATM    6  C10 UNL     1     124.950  39.041  18.674  1.00  0.00     0.108 A 
HETATM    7  C11 UNL     1     125.921  38.662  17.764  1.00  0.00     0.049 A 
HETATM    8  C12 UNL     1     127.104  39.368  17.711  1.00  0.00     0.067 A 
HETATM    9  N11 UNL     1     127.260  40.406  18.558  1.00  0.00    -0.191 N 
ATOM     10  H11 UNL     1     128.137  40.926  18.517  1.00  0.00     0.184 HD
ENDROOT
BRANCH   1  11
HETATM   11  C8  UNL     1     127.271  42.758  20.671  1.00  0.00     0.144 C 
BRANCH  11  12
HETATM   12  C7  UNL     1     126.486  44.079  20.776  1.00  0.00     0.080 C 
BRANCH  12  13
HETATM   13  C6  UNL     1     125.154  43.731  21.483  1.00  0.00     0.161 C 
BRANCH  13  14
HETATM   14  N3  UNL     1     124.140  43.285  20.809  1.00  0.00    -0.384 NA
HETATM   15  C5  UNL     1     123.045  42.803  20.080  1.00  0.00     0.356 C 
HETATM   16  O2  UNL     1     123.024  42.432  18.902  1.00  0.00    -0.251 OA
BRANCH  15  17
HETATM   17  C4  UNL     1     121.748  42.760  20.886  1.00  0.00     0.334 C 
HETATM   18  N2  UNL     1     121.597  44.120  21.429  1.00  0.00    -0.029 N 
HETATM   19  C3  UNL     1     120.383  44.150  22.234  1.00  0.00     0.256 C 
ATOM     20  H22 UNL     1     121.609  44.838  20.705  1.00  0.00     0.281 HD
ATOM     21  H21 UNL     1     122.420  44.434  21.943  1.00  0.00     0.281 HD
HETATM   22  C2  UNL     1     119.173  43.709  21.486  1.00  0.00     0.144 C 
HETATM   23  N1  UNL     1     119.344  42.842  20.387  1.00  0.00    -0.410 N 
HETATM   24  C1  UNL     1     118.390  41.745  20.446  1.00  0.00     0.143 C 
HETATM   25  C17 UNL     1     120.634  42.456  19.961  1.00  0.00     0.197 C 
BRANCH  17  26
HETATM   26  O1  UNL     1     121.865  41.860  21.904  1.00  0.00    -0.356 OA
ATOM     27  H1  UNL     1     121.230  41.162  21.797  1.00  0.00     0.213 HD
ENDBRANCH  17  26
ENDBRANCH  15  17
ENDBRANCH  13  14
ENDBRANCH  12  13
ENDBRANCH  11  12
ENDBRANCH   1  11
BRANCH   8  28
HETATM   28  C13 UNL     1     128.129  39.018  16.693  1.00  0.00     0.077 A 
HETATM   29  C14 UNL     1     128.589  39.972  15.830  1.00  0.00     0.148 A 
HETATM   30  N6  UNL     1     128.043  41.293  15.697  1.00  0.00    -0.081 NA
HETATM   31  N7  UNL     1     129.607  39.674  14.969  1.00  0.00    -0.178 N 
HETATM   32  C15 UNL     1     130.181  38.482  14.925  1.00  0.00     0.678 A 
ATOM     33  H7  UNL     1     129.938  40.399  14.333  1.00  0.00     0.185 HD
HETATM   34  N9  UNL     1     129.740  37.543  15.762  1.00  0.00    -0.176 N 
HETATM   35  C16 UNL     1     128.727  37.781  16.647  1.00  0.00     0.130 A 
ATOM     36  H9  UNL     1     130.172  36.619  15.740  1.00  0.00     0.186 HD
HETATM   37  N10 UNL     1     128.385  36.845  17.447  1.00  0.00    -0.384 N 
ATOM     38 2H10 UNL     1     127.628  37.023  18.108  1.00  0.00     0.157 HD
ATOM     39 1H10 UNL     1     128.828  35.927  17.413  1.00  0.00     0.157 HD
BRANCH  32  40
HETATM   40  N8  UNL     1     131.152  38.252  14.084  1.00  0.00    -0.234 N 
ATOM     41  H82 UNL     1     130.993  38.211  13.078  1.00  0.00     0.174 HD
ATOM     42  H81 UNL     1     132.102  38.101  14.425  1.00  0.00     0.174 HD
ENDBRANCH  32  40
ENDBRANCH   8  28
TORSDOF 8
ENDMDL
MODEL 4
REMARK VINA RESULT: -8.495459415      1.118      1.582
REMARK  8 active torsions:
REMARK  status: ('A' for Active; 'I' for Inactive)
REMARK    1  A    between atoms: C4_8  and  O1_9 
REMARK    2  A    between atoms: C4_8  and  C5_11 
REMARK       I    between atoms: C5_11  and  N3_13 
REMARK    3  A    between atoms: N3_13  and  C6_14 
REMARK    4  A    between atoms: C6_14  and  C7_15 
REMARK    5  A    between atoms: C7_15  and  C8_16 
REMARK    6  A    between atoms: C8_16  and  N4_17 
REMARK    7  A    between atoms: C12_24  and  C13_25 
REMARK    8  A    between atoms: C15_30  and  N8_31 
ROOT
HETATM    1  N4  UNL     1     127.246  42.112  19.271  1.00  0.00    -0.226 N 
ATOM      2  H4  UNL     1     126.292  42.471  19.227  1.00  0.00     0.177 HD
HETATM    3  C9  UNL     1     127.278  40.988  18.743  1.00  0.00     0.678 A 
HETATM    4  N5  UNL     1     126.113  40.468  18.231  1.00  0.00    -0.202 N 
ATOM      5  H5  UNL     1     125.269  41.035  18.311  1.00  0.00     0.183 HD
HETATM    6  C10 UNL     1     126.004  39.306  17.653  1.00  0.00     0.108 A 
HETATM    7  C11 UNL     1     127.128  38.508  17.526  1.00  0.00     0.049 A 
HETATM    8  C12 UNL     1     128.334  38.963  18.017  1.00  0.00     0.067 A 
HETATM    9  N11 UNL     1     128.360  40.178  18.603  1.00  0.00    -0.191 N 
ATOM     10  H11 UNL     1     129.254  40.512  18.965  1.00  0.00     0.184 HD
ENDROOT
BRANCH   1  11
HETATM   11  C8  UNL     1     128.048  43.046  19.897  1.00  0.00     0.144 C 
BRANCH  11  12
HETATM   12  C7  UNL     1     127.183  43.912  20.832  1.00  0.00     0.080 C 
BRANCH  12  13
HETATM   13  C6  UNL     1     126.485  42.929  21.803  1.00  0.00     0.161 C 
BRANCH  13  14
HETATM   14  N3  UNL     1     125.431  42.269  21.438  1.00  0.00    -0.384 NA
HETATM   15  C5  UNL     1     124.292  41.556  21.043  1.00  0.00     0.356 C 
HETATM   16  O2  UNL     1     124.135  40.330  21.023  1.00  0.00    -0.251 OA
BRANCH  15  17
HETATM   17  C4  UNL     1     123.141  42.450  20.585  1.00  0.00     0.334 C 
HETATM   18  N2  UNL     1     122.808  41.972  19.232  1.00  0.00    -0.029 N 
HETATM   19  C3  UNL     1     121.724  42.799  18.718  1.00  0.00     0.256 C 
ATOM     20  H22 UNL     1     122.591  40.976  19.208  1.00  0.00     0.281 HD
ATOM     21  H21 UNL     1     123.617  41.950  18.611  1.00  0.00     0.281 HD
HETATM   22  C2  UNL     1     120.533  42.825  19.612  1.00  0.00     0.144 C 
HETATM   23  N1  UNL     1     120.721  42.574  20.987  1.00  0.00    -0.410 N 
HETATM   24  C1  UNL     1     120.005  43.554  21.789  1.00  0.00     0.143 C 
HETATM   25  C17 UNL     1     121.994  42.237  21.495  1.00  0.00     0.197 C 
BRANCH  17  26
HETATM   26  O1  UNL     1     123.555  43.748  20.534  1.00  0.00    -0.356 OA
ATOM     27  H1  UNL     1     123.051  44.276  21.142  1.00  0.00     0.213 HD
ENDBRANCH  17  26
ENDBRANCH  15  17
ENDBRANCH  13  14
ENDBRANCH  12  13
ENDBRANCH  11  12
ENDBRANCH   1  11
BRANCH   8  28
HETATM   28  C13 UNL     1     129.563  38.150  17.828  1.00  0.00     0.077 A 
HETATM   29  C14 UNL     1     130.633  38.674  17.159  1.00  0.00     0.148 A 
HETATM   30  N6  UNL     1     130.630  39.923  16.453  1.00  0.00    -0.081 NA
HETATM   31  N7  UNL     1     131.798  37.964  17.081  1.00  0.00    -0.178 N 
HETATM   32  C15 UNL     1     131.946  36.769  17.629  1.00  0.00     0.678 A 
ATOM     33  H7  UNL     1     132.586  38.372  16.578  1.00  0.00     0.185 HD
HETATM   34  N9  UNL     1     130.908  36.247  18.283  1.00  0.00    -0.176 N 
HETATM   35  C16 UNL     1     129.718  36.909  18.397  1.00  0.00     0.130 A 
ATOM     36  H9  UNL     1     131.005  35.326  18.712  1.00  0.00     0.186 HD
HETATM   37  N10 UNL     1     128.781  36.365  19.075  1.00  0.00    -0.384 N 
ATOM     38 2H10 UNL     1     127.893  36.859  19.160  1.00  0.00     0.157 HD
ATOM     39 1H10 UNL     1     128.896  35.443  19.498  1.00  0.00     0.157 HD
BRANCH  32  40
HETATM   40  N8  UNL     1     133.082  36.135  17.526  1.00  0.00    -0.234 N 
ATOM     41  H82 UNL     1     133.415  35.509  18.259  1.00  0.00     0.174 HD
ATOM     42  H81 UNL     1     133.668  36.260  16.701  1.00  0.00     0.174 HD
ENDBRANCH  32  40
ENDBRANCH   8  28
TORSDOF 8
ENDMDL
MODEL 5
REMARK VINA RESULT: -8.434951304      1.045      1.674
REMARK  8 active torsions:
REMARK  status: ('A' for Active; 'I' for Inactive)
REMARK    1  A    between atoms: C4_8  and  O1_9 
REMARK    2  A    between atoms: C4_8  and  C5_11 
REMARK       I    between atoms: C5_11  and  N3_13 
REMARK    3  A    between atoms: N3_13  and  C6_14 
REMARK    4  A    between atoms: C6_14  and  C7_15 
REMARK    5  A    between atoms: C7_15  and  C8_16 
REMARK    6  A    between atoms: C8_16  and  N4_17 
REMARK    7  A    between atoms: C12_24  and  C13_25 
REMARK    8  A    between atoms: C15_30  and  N8_31 
ROOT
HETATM    1  N4  UNL     1     127.003  41.998  19.239  1.00  0.00    -0.226 N 
ATOM      2  H4  UNL     1     126.035  42.316  19.217  1.00  0.00     0.177 HD
HETATM    3  C9  UNL     1     127.064  40.855  18.756  1.00  0.00     0.678 A 
HETATM    4  N5  UNL     1     125.904  40.267  18.311  1.00  0.00    -0.202 N 
ATOM      5  H5  UNL     1     125.040  40.802  18.400  1.00  0.00     0.183 HD
HETATM    6  C10 UNL     1     125.823  39.078  17.785  1.00  0.00     0.108 A 
HETATM    7  C11 UNL     1     126.974  38.323  17.647  1.00  0.00     0.049 A 
HETATM    8  C12 UNL     1     128.177  38.846  18.073  1.00  0.00     0.067 A 
HETATM    9  N11 UNL     1     128.174  40.085  18.608  1.00  0.00    -0.191 N 
ATOM     10  H11 UNL     1     129.065  40.469  18.922  1.00  0.00     0.184 HD
ENDROOT
BRANCH   1  11
HETATM   11  C8  UNL     1     127.788  42.989  19.796  1.00  0.00     0.144 C 
BRANCH  11  12
HETATM   12  C7  UNL     1     126.897  43.937  20.622  1.00  0.00     0.080 C 
BRANCH  12  13
HETATM   13  C6  UNL     1     126.144  43.043  21.636  1.00  0.00     0.161 C 
BRANCH  13  14
HETATM   14  N3  UNL     1     125.037  42.453  21.308  1.00  0.00    -0.384 NA
HETATM   15  C5  UNL     1     123.841  41.814  20.954  1.00  0.00     0.356 C 
HETATM   16  O2  UNL     1     123.650  40.606  20.784  1.00  0.00    -0.251 OA
BRANCH  15  17
HETATM   17  C4  UNL     1     122.671  42.777  20.762  1.00  0.00     0.334 C 
HETATM   18  N2  UNL     1     121.596  42.236  21.612  1.00  0.00    -0.029 N 
HETATM   19  C3  UNL     1     120.430  43.097  21.462  1.00  0.00     0.256 C 
ATOM     20  H22 UNL     1     121.881  42.123  22.584  1.00  0.00     0.281 HD
ATOM     21  H21 UNL     1     121.392  41.256  21.415  1.00  0.00     0.281 HD
HETATM   22  C2  UNL     1     120.715  44.527  21.763  1.00  0.00     0.144 C 
HETATM   23  N1  UNL     1     122.038  44.993  21.610  1.00  0.00    -0.410 N 
HETATM   24  C1  UNL     1     122.055  46.256  20.888  1.00  0.00     0.143 C 
HETATM   25  C17 UNL     1     123.080  44.112  21.249  1.00  0.00     0.197 C 
BRANCH  17  26
HETATM   26  O1  UNL     1     122.279  42.776  19.456  1.00  0.00    -0.356 OA
ATOM     27  H1  UNL     1     123.029  42.635  18.890  1.00  0.00     0.213 HD
ENDBRANCH  17  26
ENDBRANCH  15  17
ENDBRANCH  13  14
ENDBRANCH  12  13
ENDBRANCH  11  12
ENDBRANCH   1  11
BRANCH   8  28
HETATM   28  C13 UNL     1     129.432  38.077  17.870  1.00  0.00     0.077 A 
HETATM   29  C14 UNL     1     130.473  38.635  17.185  1.00  0.00     0.148 A 
HETATM   30  N6  UNL     1     130.417  39.881  16.476  1.00  0.00    -0.081 NA
HETATM   31  N7  UNL     1     131.661  37.967  17.094  1.00  0.00    -0.178 N 
HETATM   32  C15 UNL     1     131.859  36.780  17.644  1.00  0.00     0.678 A 
ATOM     33  H7  UNL     1     132.428  38.401  16.580  1.00  0.00     0.185 HD
HETATM   34  N9  UNL     1     130.849  36.224  18.314  1.00  0.00    -0.176 N 
HETATM   35  C16 UNL     1     129.638  36.843  18.441  1.00  0.00     0.130 A 
ATOM     36  H9  UNL     1     130.985  35.309  18.744  1.00  0.00     0.186 HD
HETATM   37  N10 UNL     1     128.730  36.269  19.133  1.00  0.00    -0.384 N 
ATOM     38 2H10 UNL     1     127.826  36.732  19.229  1.00  0.00     0.157 HD
ATOM     39 1H10 UNL     1     128.883  35.354  19.557  1.00  0.00     0.157 HD
BRANCH  32  40
HETATM   40  N8  UNL     1     133.015  36.186  17.528  1.00  0.00    -0.234 N 
ATOM     41  H82 UNL     1     133.716  36.228  18.268  1.00  0.00     0.174 HD
ATOM     42  H81 UNL     1     133.244  35.665  16.681  1.00  0.00     0.174 HD
ENDBRANCH  32  40
ENDBRANCH   8  28
TORSDOF 8
ENDMDL
