MODEL 1
REMARK VINA RESULT: -9.502741860      0.000      0.000
REMARK  9 active torsions:
REMARK  status: ('A' for Active; 'I' for Inactive)
REMARK    1  A    between atoms: N1_1  and  C1_4 
REMARK    2  A    between atoms: C5_16  and  N5_17 
REMARK    3  A    between atoms: C6_19  and  C7_20 
REMARK    4  A    between atoms: C7_20  and  C8_21 
REMARK    5  A    between atoms: C8_21  and  N6_22 
REMARK    6  A    between atoms: C11_25  and  N7_26 
REMARK    7  A    between atoms: C11_25  and  C12_30 
REMARK    8  A    between atoms: C12_30  and  N8_31 
REMARK    9  A    between atoms: N8_31  and  C13_33 
ROOT
HETATM    1  N5  UNL     1     128.887  38.357  17.586  1.00  0.00    -0.351 N 
ATOM      2  H5  UNL     1     129.605  38.084  18.257  1.00  0.00     0.166 HD
HETATM    3  C6  UNL     1     127.710  38.347  18.237  1.00  0.00     0.064 C 
ENDROOT
BRANCH   3   4
HETATM    4  C7  UNL     1     126.536  38.925  17.508  1.00  0.00     0.065 C 
BRANCH   4   5
HETATM    5  C8  UNL     1     125.306  39.008  18.401  1.00  0.00     0.132 C 
BRANCH   5   6
HETATM    6  N6  UNL     1     125.242  40.201  19.161  1.00  0.00    -0.373 N 
HETATM    7  C9  UNL     1     125.448  41.407  18.516  1.00  0.00     0.065 C 
HETATM    8  C10 UNL     1     125.044  42.668  19.167  1.00  0.00     0.085 C 
HETATM    9  C11 UNL     1     123.907  42.457  20.135  1.00  0.00     0.148 C 
HETATM   10  C14 UNL     1     124.358  41.398  21.115  1.00  0.00     0.085 C 
HETATM   11  C15 UNL     1     124.731  40.122  20.452  1.00  0.00     0.065 C 
BRANCH   9  12
HETATM   12  N7  UNL     1     123.709  43.702  20.861  1.00  0.00    -0.068 N 
ATOM     13  H73 UNL     1     124.463  44.373  20.711  1.00  0.00     0.275 HD
ATOM     14  H72 UNL     1     122.949  44.266  20.480  1.00  0.00     0.275 HD
ATOM     15  H71 UNL     1     123.575  43.469  21.844  1.00  0.00     0.275 HD
ENDBRANCH   9  12
BRANCH   9  16
HETATM   16  C12 UNL     1     122.639  41.997  19.465  1.00  0.00     0.177 C 
BRANCH  16  17
HETATM   17  N8  UNL     1     121.664  43.058  19.347  1.00  0.00    -0.221 N 
ATOM     18  H8  UNL     1     121.944  43.926  18.891  1.00  0.00     0.177 HD
BRANCH  17  19
HETATM   19  C13 UNL     1     120.458  42.960  19.789  1.00  0.00     0.709 A 
HETATM   20  N9  UNL     1     119.484  42.101  19.480  1.00  0.00    -0.115 N 
HETATM   21  N10 UNL     1     118.438  42.403  20.199  1.00  0.00    -0.213 N 
ATOM     22  H9  UNL     1     119.547  41.341  18.802  1.00  0.00     0.207 HD
HETATM   23  N11 UNL     1     118.722  43.428  20.953  1.00  0.00    -0.213 N 
ATOM     24  H10 UNL     1     117.542  41.916  20.175  1.00  0.00     0.210 HD
HETATM   25  N12 UNL     1     119.953  43.788  20.722  1.00  0.00    -0.115 N 
ATOM     26  H11 UNL     1     118.086  43.874  21.615  1.00  0.00     0.210 HD
ATOM     27  H12 UNL     1     120.446  44.561  21.170  1.00  0.00     0.207 HD
ENDBRANCH  17  19
ENDBRANCH  16  17
ENDBRANCH   9  16
ENDBRANCH   5   6
ENDBRANCH   4   5
ENDBRANCH   3   4
BRANCH   1  28
HETATM   28  C5  UNL     1     129.452  38.561  16.512  1.00  0.00     0.176 A 
HETATM   29  C4  UNL     1     130.753  38.010  16.386  1.00  0.00     0.290 A 
HETATM   30  N4  UNL     1     131.496  38.139  15.296  1.00  0.00    -0.314 N 
HETATM   31  O1  UNL     1     131.205  37.377  17.360  1.00  0.00    -0.264 OA
HETATM   32  C3  UNL     1     131.039  38.822  14.215  1.00  0.00     0.125 A 
ATOM     33  H4  UNL     1     132.424  37.719  15.269  1.00  0.00     0.169 HD
HETATM   34  C2  UNL     1     131.785  38.971  13.072  1.00  0.00     0.145 A 
HETATM   35  C16 UNL     1     129.773  39.353  14.348  1.00  0.00     0.153 A 
HETATM   36  N2  UNL     1     131.226  39.676  12.044  1.00  0.00    -0.175 N 
HETATM   37  N3  UNL     1     132.957  38.484  12.938  1.00  0.00    -0.383 N 
HETATM   38  C1  UNL     1     130.009  40.191  12.163  1.00  0.00     0.679 A 
ATOM     39  H2  UNL     1     131.749  39.808  11.179  1.00  0.00     0.186 HD
HETATM   40  N14 UNL     1     129.284  40.044  13.276  1.00  0.00    -0.174 N 
ATOM     41  H14 UNL     1     128.352  40.455  13.327  1.00  0.00     0.186 HD
ATOM     42  H32 UNL     1     133.511  38.595  12.089  1.00  0.00     0.157 HD
ATOM     43  H31 UNL     1     133.374  37.958  13.706  1.00  0.00     0.157 HD
HETATM   44  N13 UNL     1     129.013  39.226  15.452  1.00  0.00    -0.322 N 
ATOM     45  H13 UNL     1     128.085  39.649  15.473  1.00  0.00     0.169 HD
BRANCH  38  46
HETATM   46  N1  UNL     1     129.533  40.845  11.164  1.00  0.00    -0.234 N 
ATOM     47  H12 UNL     1     129.572  40.447  10.226  1.00  0.00     0.174 HD
ATOM     48  H11 UNL     1     129.122  41.761  11.345  1.00  0.00     0.174 HD
ENDBRANCH  38  46
ENDBRANCH   1  28
TORSDOF 9
ENDMDL
MODEL 2
REMARK VINA RESULT: -9.131250273      2.291      3.610
REMARK  9 active torsions:
REMARK  status: ('A' for Active; 'I' for Inactive)
REMARK    1  A    between atoms: N1_1  and  C1_4 
REMARK    2  A    between atoms: C5_16  and  N5_17 
REMARK    3  A    between atoms: C6_19  and  C7_20 
REMARK    4  A    between atoms: C7_20  and  C8_21 
REMARK    5  A    between atoms: C8_21  and  N6_22 
REMARK    6  A    between atoms: C11_25  and  N7_26 
REMARK    7  A    between atoms: C11_25  and  C12_30 
REMARK    8  A    between atoms: C12_30  and  N8_31 
REMARK    9  A    between atoms: N8_31  and  C13_33 
ROOT
HETATM    1  N5  UNL     1     128.694  39.169  16.471  1.00  0.00    -0.351 N 
ATOM      2  H5  UNL     1     128.868  39.470  15.512  1.00  0.00     0.166 HD
HETATM    3  C6  UNL     1     127.379  39.330  16.706  1.00  0.00     0.064 C 
ENDROOT
BRANCH   3   4
HETATM    4  C7  UNL     1     126.851  38.750  17.982  1.00  0.00     0.065 C 
BRANCH   4   5
HETATM    5  C8  UNL     1     125.411  39.174  18.237  1.00  0.00     0.132 C 
BRANCH   5   6
HETATM    6  N6  UNL     1     125.300  40.303  19.086  1.00  0.00    -0.373 N 
HETATM    7  C9  UNL     1     125.472  41.561  18.539  1.00  0.00     0.065 C 
HETATM    8  C10 UNL     1     125.020  42.754  19.281  1.00  0.00     0.085 C 
HETATM    9  C11 UNL     1     123.880  42.431  20.215  1.00  0.00     0.148 C 
HETATM   10  C14 UNL     1     124.356  41.314  21.115  1.00  0.00     0.085 C 
HETATM   11  C15 UNL     1     124.779  40.107  20.361  1.00  0.00     0.065 C 
BRANCH   9  12
HETATM   12  N7  UNL     1     123.633  43.609  21.032  1.00  0.00    -0.068 N 
ATOM     13  H73 UNL     1     123.644  43.408  22.032  1.00  0.00     0.275 HD
ATOM     14  H72 UNL     1     124.410  44.270  21.019  1.00  0.00     0.275 HD
ATOM     15  H71 UNL     1     122.755  44.023  20.721  1.00  0.00     0.275 HD
ENDBRANCH   9  12
BRANCH   9  16
HETATM   16  C12 UNL     1     122.635  41.984  19.495  1.00  0.00     0.177 C 
BRANCH  16  17
HETATM   17  N8  UNL     1     121.660  43.044  19.373  1.00  0.00    -0.221 N 
ATOM     18  H8  UNL     1     121.943  43.913  18.920  1.00  0.00     0.177 HD
BRANCH  17  19
HETATM   19  C13 UNL     1     120.452  42.945  19.807  1.00  0.00     0.709 A 
HETATM   20  N9  UNL     1     119.485  42.074  19.503  1.00  0.00    -0.115 N 
HETATM   21  N10 UNL     1     118.432  42.380  20.209  1.00  0.00    -0.213 N 
ATOM     22  H9  UNL     1     119.558  41.306  18.836  1.00  0.00     0.207 HD
HETATM   23  N11 UNL     1     118.703  43.418  20.951  1.00  0.00    -0.213 N 
ATOM     24  H10 UNL     1     117.539  41.887  20.185  1.00  0.00     0.210 HD
HETATM   25  N12 UNL     1     119.933  43.782  20.724  1.00  0.00    -0.115 N 
ATOM     26  H11 UNL     1     118.059  43.869  21.602  1.00  0.00     0.210 HD
ATOM     27  H12 UNL     1     120.419  44.565  21.165  1.00  0.00     0.207 HD
ENDBRANCH  17  19
ENDBRANCH  16  17
ENDBRANCH   9  16
ENDBRANCH   5   6
ENDBRANCH   4   5
ENDBRANCH   3   4
BRANCH   1  28
HETATM   28  C5  UNL     1     129.773  38.809  16.940  1.00  0.00     0.176 A 
HETATM   29  C4  UNL     1     130.202  37.509  16.570  1.00  0.00     0.290 A 
HETATM   30  N4  UNL     1     131.338  36.970  16.989  1.00  0.00    -0.314 N 
HETATM   31  O1  UNL     1     129.459  36.853  15.813  1.00  0.00    -0.264 OA
HETATM   32  C3  UNL     1     132.173  37.652  17.814  1.00  0.00     0.125 A 
ATOM     33  H4  UNL     1     131.589  36.029  16.686  1.00  0.00     0.169 HD
HETATM   34  C2  UNL     1     133.357  37.121  18.263  1.00  0.00     0.145 A 
HETATM   35  C16 UNL     1     131.747  38.915  18.167  1.00  0.00     0.153 A 
HETATM   36  N2  UNL     1     134.121  37.895  19.088  1.00  0.00    -0.175 N 
HETATM   37  N3  UNL     1     133.761  35.953  17.942  1.00  0.00    -0.383 N 
HETATM   38  C1  UNL     1     133.720  39.112  19.434  1.00  0.00     0.679 A 
ATOM     39  H2  UNL     1     135.007  37.536  19.442  1.00  0.00     0.186 HD
HETATM   40  N14 UNL     1     132.567  39.628  18.995  1.00  0.00    -0.174 N 
ATOM     41  H14 UNL     1     132.295  40.567  19.284  1.00  0.00     0.186 HD
ATOM     42  H32 UNL     1     134.640  35.559  18.276  1.00  0.00     0.157 HD
ATOM     43  H31 UNL     1     133.190  35.374  17.327  1.00  0.00     0.157 HD
HETATM   44  N13 UNL     1     130.594  39.468  17.746  1.00  0.00    -0.322 N 
ATOM     45  H13 UNL     1     130.349  40.410  18.052  1.00  0.00     0.169 HD
BRANCH  38  46
HETATM   46  N1  UNL     1     134.478  39.797  20.213  1.00  0.00    -0.234 N 
ATOM     47  H12 UNL     1     135.347  39.396  20.564  1.00  0.00     0.174 HD
ATOM     48  H11 UNL     1     134.180  40.741  20.462  1.00  0.00     0.174 HD
ENDBRANCH  38  46
ENDBRANCH   1  28
TORSDOF 9
ENDMDL
MODEL 3
REMARK VINA RESULT: -8.994130915      2.299     10.720
REMARK  9 active torsions:
REMARK  status: ('A' for Active; 'I' for Inactive)
REMARK    1  A    between atoms: N1_1  and  C1_4 
REMARK    2  A    between atoms: C5_16  and  N5_17 
REMARK    3  A    between atoms: C6_19  and  C7_20 
REMARK    4  A    between atoms: C7_20  and  C8_21 
REMARK    5  A    between atoms: C8_21  and  N6_22 
REMARK    6  A    between atoms: C11_25  and  N7_26 
REMARK    7  A    between atoms: C11_25  and  C12_30 
REMARK    8  A    between atoms: C12_30  and  N8_31 
REMARK    9  A    between atoms: N8_31  and  C13_33 
ROOT
HETATM    1  N5  UNL     1     124.892  42.734  18.604  1.00  0.00    -0.351 N 
ATOM      2  H5  UNL     1     125.216  43.637  18.259  1.00  0.00     0.166 HD
HETATM    3  C6  UNL     1     125.788  41.813  18.205  1.00  0.00     0.064 C 
ENDROOT
BRANCH   3   4
HETATM    4  C7  UNL     1     125.637  40.438  18.779  1.00  0.00     0.065 C 
BRANCH   4   5
HETATM    5  C8  UNL     1     126.138  39.369  17.817  1.00  0.00     0.132 C 
BRANCH   5   6
HETATM    6  N6  UNL     1     127.449  38.921  18.109  1.00  0.00    -0.373 N 
HETATM    7  C9  UNL     1     127.630  37.601  18.481  1.00  0.00     0.065 C 
HETATM    8  C10 UNL     1     128.978  37.005  18.444  1.00  0.00     0.085 C 
HETATM    9  C11 UNL     1     129.860  37.680  17.423  1.00  0.00     0.148 C 
HETATM   10  C14 UNL     1     129.869  39.154  17.761  1.00  0.00     0.085 C 
HETATM   11  C15 UNL     1     128.510  39.752  17.765  1.00  0.00     0.065 C 
BRANCH   9  12
HETATM   12  N7  UNL     1     131.208  37.160  17.591  1.00  0.00    -0.068 N 
ATOM     13  H73 UNL     1     131.849  37.479  16.865  1.00  0.00     0.275 HD
ATOM     14  H72 UNL     1     131.693  37.568  18.389  1.00  0.00     0.275 HD
ATOM     15  H71 UNL     1     131.143  36.143  17.643  1.00  0.00     0.275 HD
ENDBRANCH   9  12
BRANCH   9  16
HETATM   16  C12 UNL     1     129.368  37.505  16.010  1.00  0.00     0.177 C 
BRANCH  16  17
HETATM   17  N8  UNL     1     130.453  37.414  15.059  1.00  0.00    -0.221 N 
ATOM     18  H8  UNL     1     131.131  36.660  15.166  1.00  0.00     0.177 HD
BRANCH  17  19
HETATM   19  C13 UNL     1     130.605  38.240  14.082  1.00  0.00     0.709 A 
HETATM   20  N9  UNL     1     130.388  39.556  14.012  1.00  0.00    -0.115 N 
HETATM   21  N10 UNL     1     130.693  39.950  12.806  1.00  0.00    -0.213 N 
ATOM     22  H9  UNL     1     130.045  40.148  14.768  1.00  0.00     0.207 HD
HETATM   23  N11 UNL     1     131.096  38.923  12.112  1.00  0.00    -0.213 N 
ATOM     24  H10 UNL     1     130.626  40.908  12.462  1.00  0.00     0.210 HD
HETATM   25  N12 UNL     1     131.052  37.864  12.870  1.00  0.00    -0.115 N 
ATOM     26  H11 UNL     1     131.396  38.945  11.136  1.00  0.00     0.210 HD
ATOM     27  H12 UNL     1     131.312  36.916  12.593  1.00  0.00     0.207 HD
ENDBRANCH  17  19
ENDBRANCH  16  17
ENDBRANCH   9  16
ENDBRANCH   5   6
ENDBRANCH   4   5
ENDBRANCH   3   4
BRANCH   1  28
HETATM   28  C5  UNL     1     123.842  42.932  19.214  1.00  0.00     0.176 A 
HETATM   29  C4  UNL     1     123.917  43.859  20.284  1.00  0.00     0.290 A 
HETATM   30  N4  UNL     1     122.878  44.183  21.041  1.00  0.00    -0.314 N 
HETATM   31  O1  UNL     1     125.024  44.385  20.511  1.00  0.00    -0.264 OA
HETATM   32  C3  UNL     1     121.657  43.631  20.825  1.00  0.00     0.125 A 
ATOM     33  H4  UNL     1     122.999  44.857  21.796  1.00  0.00     0.169 HD
HETATM   34  C2  UNL     1     120.563  43.948  21.591  1.00  0.00     0.145 A 
HETATM   35  C16 UNL     1     121.595  42.731  19.782  1.00  0.00     0.153 A 
HETATM   36  N2  UNL     1     119.382  43.334  21.285  1.00  0.00    -0.175 N 
HETATM   37  N3  UNL     1     120.608  44.779  22.559  1.00  0.00    -0.383 N 
HETATM   38  C1  UNL     1     119.312  42.467  20.284  1.00  0.00     0.679 A 
ATOM     39  H2  UNL     1     118.547  43.544  21.832  1.00  0.00     0.186 HD
HETATM   40  N14 UNL     1     120.378  42.159  19.538  1.00  0.00    -0.174 N 
ATOM     41  H14 UNL     1     120.282  41.488  18.777  1.00  0.00     0.186 HD
ATOM     42  H32 UNL     1     119.795  45.014  23.128  1.00  0.00     0.157 HD
ATOM     43  H31 UNL     1     121.490  45.237  22.788  1.00  0.00     0.157 HD
HETATM   44  N13 UNL     1     122.646  42.397  19.010  1.00  0.00    -0.322 N 
ATOM     45  H13 UNL     1     122.519  41.722  18.256  1.00  0.00     0.169 HD
BRANCH  38  46
HETATM   46  N1  UNL     1     118.175  41.919  20.040  1.00  0.00    -0.234 N 
ATOM     47  H12 UNL     1     117.668  41.439  20.784  1.00  0.00     0.174 HD
ATOM     48  H11 UNL     1     117.808  41.981  19.090  1.00  0.00     0.174 HD
ENDBRANCH  38  46
ENDBRANCH   1  28
TORSDOF 9
ENDMDL
MODEL 4
REMARK VINA RESULT: -8.952706082      3.288     11.048
REMARK  9 active torsions:
REMARK  status: ('A' for Active; 'I' for Inactive)
REMARK    1  A    between atoms: N1_1  and  C1_4 
REMARK    2  A    between atoms: C5_16  and  N5_17 
REMARK    3  A    between atoms: C6_19  and  C7_20 
REMARK    4  A    between atoms: C7_20  and  C8_21 
REMARK    5  A    between atoms: C8_21  and  N6_22 
REMARK    6  A    between atoms: C11_25  and  N7_26 
REMARK    7  A    between atoms: C11_25  and  C12_30 
REMARK    8  A    between atoms: C12_30  and  N8_31 
REMARK    9  A    between atoms: N8_31  and  C13_33 
ROOT
HETATM    1  N5  UNL     1     123.871  43.550  18.079  1.00  0.00    -0.351 N 
ATOM      2  H5  UNL     1     123.667  44.201  17.321  1.00  0.00     0.166 HD
HETATM    3  C6  UNL     1     125.099  43.050  17.854  1.00  0.00     0.064 C 
ENDROOT
BRANCH   3   4
HETATM    4  C7  UNL     1     125.702  42.233  18.955  1.00  0.00     0.065 C 
BRANCH   4   5
HETATM    5  C8  UNL     1     127.127  41.810  18.626  1.00  0.00     0.132 C 
BRANCH   5   6
HETATM    6  N6  UNL     1     127.196  40.714  17.732  1.00  0.00    -0.373 N 
HETATM    7  C9  UNL     1     128.048  40.800  16.646  1.00  0.00     0.065 C 
HETATM    8  C10 UNL     1     128.421  39.579  15.906  1.00  0.00     0.085 C 
HETATM    9  C11 UNL     1     128.356  38.353  16.782  1.00  0.00     0.148 C 
HETATM   10  C14 UNL     1     126.957  38.299  17.354  1.00  0.00     0.085 C 
HETATM   11  C15 UNL     1     126.603  39.519  18.124  1.00  0.00     0.065 C 
BRANCH   9  12
HETATM   12  N7  UNL     1     128.550  37.191  15.930  1.00  0.00    -0.068 N 
ATOM     13  H73 UNL     1     127.725  36.594  15.878  1.00  0.00     0.275 HD
ATOM     14  H72 UNL     1     128.605  37.430  14.940  1.00  0.00     0.275 HD
ATOM     15  H71 UNL     1     129.377  36.697  16.264  1.00  0.00     0.275 HD
ENDBRANCH   9  12
BRANCH   9  16
HETATM   16  C12 UNL     1     129.347  38.384  17.915  1.00  0.00     0.177 C 
BRANCH  16  17
HETATM   17  N8  UNL     1     130.697  38.626  17.457  1.00  0.00    -0.221 N 
ATOM     18  H8  UNL     1     130.880  39.466  16.908  1.00  0.00     0.177 HD
BRANCH  17  19
HETATM   19  C13 UNL     1     131.680  37.833  17.708  1.00  0.00     0.709 A 
HETATM   20  N9  UNL     1     132.646  37.906  18.628  1.00  0.00    -0.115 N 
HETATM   21  N10 UNL     1     133.413  36.859  18.491  1.00  0.00    -0.213 N 
ATOM     22  H9  UNL     1     132.763  38.649  19.316  1.00  0.00     0.207 HD
HETATM   23  N11 UNL     1     132.960  36.126  17.512  1.00  0.00    -0.213 N 
ATOM     24  H10 UNL     1     134.234  36.648  19.058  1.00  0.00     0.210 HD
HETATM   25  N12 UNL     1     131.900  36.699  17.017  1.00  0.00    -0.115 N 
ATOM     26  H11 UNL     1     133.369  35.248  17.188  1.00  0.00     0.210 HD
ATOM     27  H12 UNL     1     131.336  36.350  16.241  1.00  0.00     0.207 HD
ENDBRANCH  17  19
ENDBRANCH  16  17
ENDBRANCH   9  16
ENDBRANCH   5   6
ENDBRANCH   4   5
ENDBRANCH   3   4
BRANCH   1  28
HETATM   28  C5  UNL     1     122.892  43.544  18.825  1.00  0.00     0.176 A 
HETATM   29  C4  UNL     1     122.907  44.502  19.869  1.00  0.00     0.290 A 
HETATM   30  N4  UNL     1     121.932  44.626  20.758  1.00  0.00    -0.314 N 
HETATM   31  O1  UNL     1     123.896  45.258  19.941  1.00  0.00    -0.264 OA
HETATM   32  C3  UNL     1     120.839  43.822  20.714  1.00  0.00     0.125 A 
ATOM     33  H4  UNL     1     122.004  45.337  21.486  1.00  0.00     0.169 HD
HETATM   34  C2  UNL     1     119.813  43.928  21.619  1.00  0.00     0.145 A 
HETATM   35  C16 UNL     1     120.835  42.894  19.694  1.00  0.00     0.153 A 
HETATM   36  N2  UNL     1     118.760  43.069  21.481  1.00  0.00    -0.175 N 
HETATM   37  N3  UNL     1     119.807  44.784  22.567  1.00  0.00    -0.383 N 
HETATM   38  C1  UNL     1     118.746  42.172  20.503  1.00  0.00     0.679 A 
ATOM     39  H2  UNL     1     117.979  43.117  22.134  1.00  0.00     0.186 HD
HETATM   40  N14 UNL     1     119.746  42.070  19.622  1.00  0.00    -0.174 N 
ATOM     41  H14 UNL     1     119.697  41.368  18.884  1.00  0.00     0.186 HD
ATOM     42  H32 UNL     1     119.044  44.862  23.240  1.00  0.00     0.157 HD
ATOM     43  H31 UNL     1     120.593  45.425  22.671  1.00  0.00     0.157 HD
HETATM   44  N13 UNL     1     121.821  42.762  18.788  1.00  0.00    -0.322 N 
ATOM     45  H13 UNL     1     121.744  42.049  18.063  1.00  0.00     0.169 HD
BRANCH  38  46
HETATM   46  N1  UNL     1     117.731  41.388  20.419  1.00  0.00    -0.234 N 
ATOM     47  H12 UNL     1     117.165  41.195  21.245  1.00  0.00     0.174 HD
ATOM     48  H11 UNL     1     117.520  40.975  19.511  1.00  0.00     0.174 HD
ENDBRANCH  38  46
ENDBRANCH   1  28
TORSDOF 9
ENDMDL
MODEL 5
REMARK VINA RESULT: -8.900771580      3.180      4.551
REMARK  9 active torsions:
REMARK  status: ('A' for Active; 'I' for Inactive)
REMARK    1  A    between atoms: N1_1  and  C1_4 
REMARK    2  A    between atoms: C5_16  and  N5_17 
REMARK    3  A    between atoms: C6_19  and  C7_20 
REMARK    4  A    between atoms: C7_20  and  C8_21 
REMARK    5  A    between atoms: C8_21  and  N6_22 
REMARK    6  A    between atoms: C11_25  and  N7_26 
REMARK    7  A    between atoms: C11_25  and  C12_30 
REMARK    8  A    between atoms: C12_30  and  N8_31 
REMARK    9  A    between atoms: N8_31  and  C13_33 
ROOT
HETATM    1  N5  UNL     1     127.072  41.380  17.126  1.00  0.00    -0.351 N 
ATOM      2  H5  UNL     1     126.771  41.269  16.158  1.00  0.00     0.166 HD
HETATM    3  C6  UNL     1     126.707  42.615  17.516  1.00  0.00     0.064 C 
ENDROOT
BRANCH   3   4
HETATM    4  C7  UNL     1     126.852  42.928  18.973  1.00  0.00     0.065 C 
BRANCH   4   5
HETATM    5  C8  UNL     1     125.520  42.829  19.704  1.00  0.00     0.132 C 
BRANCH   5   6
HETATM    6  N6  UNL     1     124.890  44.084  19.895  1.00  0.00    -0.373 N 
HETATM    7  C9  UNL     1     123.929  44.486  18.986  1.00  0.00     0.065 C 
HETATM    8  C10 UNL     1     123.007  45.586  19.329  1.00  0.00     0.085 C 
HETATM    9  C11 UNL     1     122.802  45.699  20.819  1.00  0.00     0.148 C 
HETATM   10  C14 UNL     1     124.173  45.855  21.438  1.00  0.00     0.085 C 
HETATM   11  C15 UNL     1     125.083  44.727  21.113  1.00  0.00     0.065 C 
BRANCH   9  12
HETATM   12  N7  UNL     1     122.042  46.914  21.069  1.00  0.00    -0.068 N 
ATOM     13  H73 UNL     1     122.633  47.707  21.317  1.00  0.00     0.275 HD
ATOM     14  H72 UNL     1     121.636  47.308  20.221  1.00  0.00     0.275 HD
ATOM     15  H71 UNL     1     121.344  46.701  21.781  1.00  0.00     0.275 HD
ENDBRANCH   9  12
BRANCH   9  16
HETATM   16  C12 UNL     1     122.130  44.490  21.416  1.00  0.00     0.177 C 
BRANCH  16  17
HETATM   17  N8  UNL     1     120.695  44.518  21.242  1.00  0.00    -0.221 N 
ATOM     18  H8  UNL     1     120.176  45.312  21.617  1.00  0.00     0.177 HD
BRANCH  17  19
HETATM   19  C13 UNL     1     120.040  43.588  20.638  1.00  0.00     0.709 A 
HETATM   20  N9  UNL     1     120.440  42.682  19.742  1.00  0.00    -0.115 N 
HETATM   21  N10 UNL     1     119.408  41.950  19.422  1.00  0.00    -0.213 N 
ATOM     22  H9  UNL     1     121.385  42.579  19.374  1.00  0.00     0.207 HD
HETATM   23  N11 UNL     1     118.368  42.367  20.089  1.00  0.00    -0.213 N 
ATOM     24  H10 UNL     1     119.414  41.176  18.757  1.00  0.00     0.210 HD
HETATM   25  N12 UNL     1     118.728  43.368  20.841  1.00  0.00    -0.115 N 
ATOM     26  H11 UNL     1     117.428  41.973  20.032  1.00  0.00     0.210 HD
ATOM     27  H12 UNL     1     118.122  43.893  21.472  1.00  0.00     0.207 HD
ENDBRANCH  17  19
ENDBRANCH  16  17
ENDBRANCH   9  16
ENDBRANCH   5   6
ENDBRANCH   4   5
ENDBRANCH   3   4
BRANCH   1  28
HETATM   28  C5  UNL     1     127.621  40.331  17.459  1.00  0.00     0.176 A 
HETATM   29  C4  UNL     1     126.770  39.336  18.003  1.00  0.00     0.290 A 
HETATM   30  N4  UNL     1     127.201  38.151  18.411  1.00  0.00    -0.314 N 
HETATM   31  O1  UNL     1     125.556  39.607  18.095  1.00  0.00    -0.264 OA
HETATM   32  C3  UNL     1     128.515  37.819  18.328  1.00  0.00     0.125 A 
ATOM     33  H4  UNL     1     126.536  37.479  18.793  1.00  0.00     0.169 HD
HETATM   34  C2  UNL     1     128.991  36.600  18.742  1.00  0.00     0.145 A 
HETATM   35  C16 UNL     1     129.334  38.793  17.798  1.00  0.00     0.153 A 
HETATM   36  N2  UNL     1     130.331  36.371  18.611  1.00  0.00    -0.175 N 
HETATM   37  N3  UNL     1     128.242  35.691  19.234  1.00  0.00    -0.383 N 
HETATM   38  C1  UNL     1     131.128  37.302  18.102  1.00  0.00     0.679 A 
ATOM     39  H2  UNL     1     130.722  35.477  18.906  1.00  0.00     0.186 HD
HETATM   40  N14 UNL     1     130.662  38.489  17.699  1.00  0.00    -0.174 N 
ATOM     41  H14 UNL     1     131.308  39.177  17.313  1.00  0.00     0.186 HD
ATOM     42  H32 UNL     1     128.596  34.785  19.541  1.00  0.00     0.157 HD
ATOM     43  H31 UNL     1     127.242  35.862  19.332  1.00  0.00     0.157 HD
HETATM   44  N13 UNL     1     128.902  39.998  17.381  1.00  0.00    -0.322 N 
ATOM     45  H13 UNL     1     129.572  40.667  17.000  1.00  0.00     0.169 HD
BRANCH  38  46
HETATM   46  N1  UNL     1     132.381  37.033  18.001  1.00  0.00    -0.234 N 
ATOM     47  H12 UNL     1     133.075  37.686  18.363  1.00  0.00     0.174 HD
ATOM     48  H11 UNL     1     132.647  36.156  17.552  1.00  0.00     0.174 HD
ENDBRANCH  38  46
ENDBRANCH   1  28
TORSDOF 9
ENDMDL
