MODEL 1
REMARK VINA RESULT: -8.346952244      0.000      0.000
REMARK  11 active torsions:
REMARK  status: ('A' for Active; 'I' for Inactive)
REMARK       I    between atoms: C2_2  and  N1_4 
REMARK    1  A    between atoms: N1_4  and  C3_6 
REMARK    2  A    between atoms: C3_6  and  C4_7 
REMARK    3  A    between atoms: C4_7  and  N2_8 
REMARK    4  A    between atoms: N2_8  and  C5_10 
REMARK    5  A    between atoms: C6_13  and  C7_14 
REMARK    6  A    between atoms: C7_14  and  O2_15 
REMARK    7  A    between atoms: C7_14  and  N4_17 
REMARK    8  A    between atoms: N4_17  and  N5_19 
REMARK    9  A    between atoms: C10_26  and  N8_27 
REMARK   10  A    between atoms: C11_32  and  N10_33 
REMARK   11  A    between atoms: N10_33  and  C12_35 
ROOT
HETATM    1  C5  UNL     1     128.188  39.117  17.314  1.00  0.00     0.679 A 
HETATM    2  N3  UNL     1     129.148  38.286  17.708  1.00  0.00    -0.185 N 
ATOM      3  H3  UNL     1     129.057  37.859  18.629  1.00  0.00     0.184 HD
HETATM    4  C6  UNL     1     130.258  37.961  16.961  1.00  0.00     0.131 A 
HETATM    5  C9  UNL     1     130.375  38.531  15.730  1.00  0.00     0.112 A 
HETATM    6  N7  UNL     1     131.401  38.259  14.907  1.00  0.00    -0.187 N 
ATOM      7  H7  UNL     1     132.136  37.618  15.206  1.00  0.00     0.184 HD
HETATM    8  C10 UNL     1     131.463  38.832  13.682  1.00  0.00     0.678 A 
HETATM    9  N9  UNL     1     130.495  39.678  13.279  1.00  0.00    -0.175 N 
ATOM     10  H9  UNL     1     130.554  40.104  12.354  1.00  0.00     0.186 HD
HETATM   11  C11 UNL     1     129.460  39.968  14.072  1.00  0.00     0.148 A 
HETATM   12  C16 UNL     1     129.352  39.404  15.338  1.00  0.00     0.123 A 
HETATM   13  N12 UNL     1     128.283  39.693  16.109  1.00  0.00    -0.186 N 
ATOM     14  H12 UNL     1     127.563  40.335  15.780  1.00  0.00     0.184 HD
ENDROOT
BRANCH   1  15
HETATM   15  N2  UNL     1     127.166  39.363  18.103  1.00  0.00    -0.224 N 
ATOM     16  H2  UNL     1     127.293  39.917  18.949  1.00  0.00     0.177 HD
BRANCH  15  17
HETATM   17  C4  UNL     1     125.876  38.849  17.766  1.00  0.00     0.157 C 
BRANCH  17  18
HETATM   18  C3  UNL     1     124.849  39.046  18.838  1.00  0.00     0.143 C 
BRANCH  18  19
HETATM   19  N1  UNL     1     125.435  39.645  20.036  1.00  0.00    -0.360 N 
HETATM   20  C2  UNL     1     124.735  40.651  20.754  1.00  0.00     0.213 C 
HETATM   21  C1  UNL     1     125.341  41.251  21.969  1.00  0.00     0.117 C 
HETATM   22  O1  UNL     1     123.603  41.061  20.399  1.00  0.00    -0.274 OA
ATOM     23  H1  UNL     1     126.352  39.338  20.358  1.00  0.00     0.162 HD
ENDBRANCH  18  19
ENDBRANCH  17  18
ENDBRANCH  15  17
ENDBRANCH   1  15
BRANCH   4  24
HETATM   24  C7  UNL     1     131.211  37.035  17.505  1.00  0.00     0.185 C 
BRANCH  24  25
HETATM   25  O2  UNL     1     130.669  36.129  18.270  1.00  0.00    -0.343 OA
ATOM     26  H2  UNL     1     130.383  35.358  17.793  1.00  0.00     0.219 HD
ENDBRANCH  24  25
BRANCH  24  27
HETATM   27  N4  UNL     1     132.592  36.930  17.376  1.00  0.00    -0.278 N 
ATOM     28  H4  UNL     1     132.994  36.681  16.473  1.00  0.00     0.189 HD
BRANCH  27  29
HETATM   29  N5  UNL     1     133.439  37.163  18.467  1.00  0.00    -0.297 N 
HETATM   30  C8  UNL     1     133.726  38.304  18.925  1.00  0.00     0.207 C 
HETATM   31  N6  UNL     1     134.589  38.432  20.027  1.00  0.00    -0.095 NA
ATOM     32  H5  UNL     1     133.855  36.351  18.923  1.00  0.00     0.187 HD
ENDBRANCH  27  29
ENDBRANCH  24  27
ENDBRANCH   4  24
BRANCH  11  33
HETATM   33  N10 UNL     1     128.524  40.777  13.699  1.00  0.00    -0.346 N 
ATOM     34  H10 UNL     1     127.712  40.918  14.300  1.00  0.00     0.163 HD
BRANCH  33  35
HETATM   35  C12 UNL     1     128.613  41.481  12.448  1.00  0.00     0.285 C 
HETATM   36  C13 UNL     1     129.007  42.904  12.645  1.00  0.00     0.056 C 
HETATM   37  C14 UNL     1     127.790  43.711  12.343  1.00  0.00     0.031 C 
HETATM   38  C15 UNL     1     126.934  42.793  11.503  1.00  0.00     0.235 C 
HETATM   39  N11 UNL     1     127.305  41.452  11.830  1.00  0.00    -0.054 N 
ATOM     40 2H11 UNL     1     127.265  40.826  11.025  1.00  0.00     0.279 HD
ATOM     41 1H11 UNL     1     126.608  40.981  12.407  1.00  0.00     0.279 HD
ENDBRANCH  33  35
ENDBRANCH  11  33
BRANCH   8  42
HETATM   42  N8  UNL     1     132.464  38.538  12.937  1.00  0.00    -0.234 N 
ATOM     43  H82 UNL     1     133.394  38.372  13.321  1.00  0.00     0.174 HD
ATOM     44  H81 UNL     1     132.304  38.475  11.932  1.00  0.00     0.174 HD
ENDBRANCH   8  42
TORSDOF 11
ENDMDL
MODEL 2
REMARK VINA RESULT: -8.259955044      1.571      1.984
REMARK  11 active torsions:
REMARK  status: ('A' for Active; 'I' for Inactive)
REMARK       I    between atoms: C2_2  and  N1_4 
REMARK    1  A    between atoms: N1_4  and  C3_6 
REMARK    2  A    between atoms: C3_6  and  C4_7 
REMARK    3  A    between atoms: C4_7  and  N2_8 
REMARK    4  A    between atoms: N2_8  and  C5_10 
REMARK    5  A    between atoms: C6_13  and  C7_14 
REMARK    6  A    between atoms: C7_14  and  O2_15 
REMARK    7  A    between atoms: C7_14  and  N4_17 
REMARK    8  A    between atoms: N4_17  and  N5_19 
REMARK    9  A    between atoms: C10_26  and  N8_27 
REMARK   10  A    between atoms: C11_32  and  N10_33 
REMARK   11  A    between atoms: N10_33  and  C12_35 
ROOT
HETATM    1  C5  UNL     1     127.330  40.384  17.176  1.00  0.00     0.679 A 
HETATM    2  N3  UNL     1     127.745  39.194  17.602  1.00  0.00    -0.185 N 
ATOM      3  H3  UNL     1     127.391  38.863  18.499  1.00  0.00     0.184 HD
HETATM    4  C6  UNL     1     128.618  38.377  16.919  1.00  0.00     0.131 A 
HETATM    5  C9  UNL     1     129.086  38.822  15.721  1.00  0.00     0.112 A 
HETATM    6  N7  UNL     1     129.917  38.093  14.958  1.00  0.00    -0.187 N 
ATOM      7  H7  UNL     1     130.232  37.178  15.282  1.00  0.00     0.184 HD
HETATM    8  C10 UNL     1     130.338  38.566  13.763  1.00  0.00     0.678 A 
HETATM    9  N9  UNL     1     129.926  39.773  13.327  1.00  0.00    -0.175 N 
ATOM     10  H9  UNL     1     130.250  40.119  12.424  1.00  0.00     0.186 HD
HETATM   11  C11 UNL     1     129.097  40.522  14.059  1.00  0.00     0.148 A 
HETATM   12  C16 UNL     1     128.637  40.078  15.294  1.00  0.00     0.123 A 
HETATM   13  N12 UNL     1     127.780  40.843  16.002  1.00  0.00    -0.186 N 
ATOM     14  H12 UNL     1     127.481  41.752  15.649  1.00  0.00     0.184 HD
ENDROOT
BRANCH   1  15
HETATM   15  N2  UNL     1     126.493  41.088  17.903  1.00  0.00    -0.224 N 
ATOM     16  H2  UNL     1     126.566  42.105  17.929  1.00  0.00     0.177 HD
BRANCH  15  17
HETATM   17  C4  UNL     1     125.480  40.420  18.658  1.00  0.00     0.157 C 
BRANCH  17  18
HETATM   18  C3  UNL     1     124.981  41.208  19.829  1.00  0.00     0.143 C 
BRANCH  18  19
HETATM   19  N1  UNL     1     123.743  41.917  19.509  1.00  0.00    -0.360 N 
HETATM   20  C2  UNL     1     122.707  42.029  20.473  1.00  0.00     0.213 C 
HETATM   21  C1  UNL     1     121.455  42.751  20.135  1.00  0.00     0.117 C 
HETATM   22  O1  UNL     1     122.807  41.534  21.623  1.00  0.00    -0.274 OA
ATOM     23  H1  UNL     1     123.624  42.334  18.586  1.00  0.00     0.162 HD
ENDBRANCH  18  19
ENDBRANCH  17  18
ENDBRANCH  15  17
ENDBRANCH   1  15
BRANCH   4  24
HETATM   24  C7  UNL     1     128.969  37.108  17.491  1.00  0.00     0.185 C 
BRANCH  24  25
HETATM   25  O2  UNL     1     128.359  36.103  16.928  1.00  0.00    -0.343 OA
ATOM     26  H2  UNL     1     128.286  35.343  17.494  1.00  0.00     0.219 HD
ENDBRANCH  24  25
BRANCH  24  27
HETATM   27  N4  UNL     1     129.823  36.754  18.530  1.00  0.00    -0.278 N 
ATOM     28  H4  UNL     1     129.497  36.828  19.494  1.00  0.00     0.189 HD
BRANCH  27  29
HETATM   29  N5  UNL     1     131.122  36.299  18.275  1.00  0.00    -0.297 N 
HETATM   30  C8  UNL     1     132.010  36.959  17.666  1.00  0.00     0.207 C 
HETATM   31  N6  UNL     1     133.288  36.412  17.459  1.00  0.00    -0.095 NA
ATOM     32  H5  UNL     1     131.370  35.366  18.605  1.00  0.00     0.187 HD
ENDBRANCH  27  29
ENDBRANCH  24  27
ENDBRANCH   4  24
BRANCH  11  33
HETATM   33  N10 UNL     1     128.692  41.681  13.655  1.00  0.00    -0.346 N 
ATOM     34  H10 UNL     1     128.495  42.412  14.338  1.00  0.00     0.163 HD
BRANCH  33  35
HETATM   35  C12 UNL     1     128.515  41.952  12.253  1.00  0.00     0.285 C 
HETATM   36  C13 UNL     1     128.661  43.404  11.953  1.00  0.00     0.056 C 
HETATM   37  C14 UNL     1     127.292  43.893  11.622  1.00  0.00     0.031 C 
HETATM   38  C15 UNL     1     126.532  42.644  11.242  1.00  0.00     0.235 C 
HETATM   39  N11 UNL     1     127.176  41.544  11.889  1.00  0.00    -0.054 N 
ATOM     40 2H11 UNL     1     127.164  40.695  11.324  1.00  0.00     0.279 HD
ATOM     41 1H11 UNL     1     126.643  41.190  12.684  1.00  0.00     0.279 HD
ENDBRANCH  33  35
ENDBRANCH  11  33
BRANCH   8  42
HETATM   42  N8  UNL     1     131.131  37.830  13.076  1.00  0.00    -0.234 N 
ATOM     43  H82 UNL     1     131.731  37.128  13.510  1.00  0.00     0.174 HD
ATOM     44  H81 UNL     1     131.148  37.966  12.065  1.00  0.00     0.174 HD
ENDBRANCH   8  42
TORSDOF 11
ENDMDL
MODEL 3
REMARK VINA RESULT: -8.248872746      1.782      2.135
REMARK  11 active torsions:
REMARK  status: ('A' for Active; 'I' for Inactive)
REMARK       I    between atoms: C2_2  and  N1_4 
REMARK    1  A    between atoms: N1_4  and  C3_6 
REMARK    2  A    between atoms: C3_6  and  C4_7 
REMARK    3  A    between atoms: C4_7  and  N2_8 
REMARK    4  A    between atoms: N2_8  and  C5_10 
REMARK    5  A    between atoms: C6_13  and  C7_14 
REMARK    6  A    between atoms: C7_14  and  O2_15 
REMARK    7  A    between atoms: C7_14  and  N4_17 
REMARK    8  A    between atoms: N4_17  and  N5_19 
REMARK    9  A    between atoms: C10_26  and  N8_27 
REMARK   10  A    between atoms: C11_32  and  N10_33 
REMARK   11  A    between atoms: N10_33  and  C12_35 
ROOT
HETATM    1  C5  UNL     1     127.815  40.185  16.713  1.00  0.00     0.679 A 
HETATM    2  N3  UNL     1     128.608  39.133  16.902  1.00  0.00    -0.185 N 
ATOM      3  H3  UNL     1     128.514  38.622  17.779  1.00  0.00     0.184 HD
HETATM    4  C6  UNL     1     129.546  38.686  15.999  1.00  0.00     0.131 A 
HETATM    5  C9  UNL     1     129.665  39.371  14.829  1.00  0.00     0.112 A 
HETATM    6  N7  UNL     1     130.526  39.002  13.865  1.00  0.00    -0.187 N 
ATOM      7  H7  UNL     1     131.131  38.193  14.008  1.00  0.00     0.184 HD
HETATM    8  C10 UNL     1     130.594  39.699  12.708  1.00  0.00     0.678 A 
HETATM    9  N9  UNL     1     129.798  40.768  12.511  1.00  0.00    -0.175 N 
ATOM     10  H9  UNL     1     129.859  41.286  11.635  1.00  0.00     0.186 HD
HETATM   11  C11 UNL     1     128.928  41.160  13.447  1.00  0.00     0.148 A 
HETATM   12  C16 UNL     1     128.822  40.475  14.652  1.00  0.00     0.123 A 
HETATM   13  N12 UNL     1     127.918  40.875  15.571  1.00  0.00    -0.186 N 
ATOM     14  H12 UNL     1     127.325  41.686  15.397  1.00  0.00     0.184 HD
ENDROOT
BRANCH   1  15
HETATM   15  N2  UNL     1     126.950  40.531  17.638  1.00  0.00    -0.224 N 
ATOM     16  H2  UNL     1     126.968  41.472  18.031  1.00  0.00     0.177 HD
BRANCH  15  17
HETATM   17  C4  UNL     1     125.983  39.581  18.091  1.00  0.00     0.157 C 
BRANCH  17  18
HETATM   18  C3  UNL     1     125.294  39.978  19.360  1.00  0.00     0.143 C 
BRANCH  18  19
HETATM   19  N1  UNL     1     125.959  41.115  19.996  1.00  0.00    -0.360 N 
HETATM   20  C2  UNL     1     125.719  41.416  21.363  1.00  0.00     0.213 C 
HETATM   21  C1  UNL     1     126.401  42.573  21.996  1.00  0.00     0.117 C 
HETATM   22  O1  UNL     1     124.942  40.732  22.073  1.00  0.00    -0.274 OA
ATOM     23  H1  UNL     1     126.599  41.695  19.454  1.00  0.00     0.162 HD
ENDBRANCH  18  19
ENDBRANCH  17  18
ENDBRANCH  15  17
ENDBRANCH   1  15
BRANCH   4  24
HETATM   24  C7  UNL     1     130.325  37.525  16.328  1.00  0.00     0.185 C 
BRANCH  24  25
HETATM   25  O2  UNL     1     130.262  36.590  15.422  1.00  0.00    -0.343 OA
ATOM     26  H2  UNL     1     131.089  36.442  14.978  1.00  0.00     0.219 HD
ENDBRANCH  24  25
BRANCH  24  27
HETATM   27  N4  UNL     1     131.118  37.212  17.426  1.00  0.00    -0.278 N 
ATOM     28  H4  UNL     1     132.079  37.551  17.463  1.00  0.00     0.189 HD
BRANCH  27  29
HETATM   29  N5  UNL     1     130.619  36.439  18.482  1.00  0.00    -0.297 N 
HETATM   30  C8  UNL     1     129.396  36.331  18.780  1.00  0.00     0.207 C 
HETATM   31  N6  UNL     1     128.995  35.528  19.861  1.00  0.00    -0.095 NA
ATOM     32  H5  UNL     1     131.292  35.926  19.051  1.00  0.00     0.187 HD
ENDBRANCH  27  29
ENDBRANCH  24  27
ENDBRANCH   4  24
BRANCH  11  33
HETATM   33  N10 UNL     1     128.158  42.182  13.273  1.00  0.00    -0.346 N 
ATOM     34  H10 UNL     1     127.709  42.617  14.080  1.00  0.00     0.163 HD
BRANCH  33  35
HETATM   35  C12 UNL     1     127.923  42.714  11.957  1.00  0.00     0.285 C 
HETATM   36  C13 UNL     1     127.691  44.184  11.993  1.00  0.00     0.056 C 
HETATM   37  C14 UNL     1     126.243  44.377  11.692  1.00  0.00     0.031 C 
HETATM   38  C15 UNL     1     125.834  43.099  10.998  1.00  0.00     0.235 C 
HETATM   39  N11 UNL     1     126.737  42.077  11.428  1.00  0.00    -0.054 N 
ATOM     40 2H11 UNL     1     126.948  41.405  10.691  1.00  0.00     0.279 HD
ATOM     41 1H11 UNL     1     126.310  41.429  12.090  1.00  0.00     0.279 HD
ENDBRANCH  33  35
ENDBRANCH  11  33
BRANCH   8  42
HETATM   42  N8  UNL     1     131.434  39.305  11.823  1.00  0.00    -0.234 N 
ATOM     43  H82 UNL     1     131.925  38.414  11.901  1.00  0.00     0.174 HD
ATOM     44  H81 UNL     1     131.602  39.916  11.024  1.00  0.00     0.174 HD
ENDBRANCH   8  42
TORSDOF 11
ENDMDL
MODEL 4
REMARK VINA RESULT: -8.232518998      2.923      6.883
REMARK  11 active torsions:
REMARK  status: ('A' for Active; 'I' for Inactive)
REMARK       I    between atoms: C2_2  and  N1_4 
REMARK    1  A    between atoms: N1_4  and  C3_6 
REMARK    2  A    between atoms: C3_6  and  C4_7 
REMARK    3  A    between atoms: C4_7  and  N2_8 
REMARK    4  A    between atoms: N2_8  and  C5_10 
REMARK    5  A    between atoms: C6_13  and  C7_14 
REMARK    6  A    between atoms: C7_14  and  O2_15 
REMARK    7  A    between atoms: C7_14  and  N4_17 
REMARK    8  A    between atoms: N4_17  and  N5_19 
REMARK    9  A    between atoms: C10_26  and  N8_27 
REMARK   10  A    between atoms: C11_32  and  N10_33 
REMARK   11  A    between atoms: N10_33  and  C12_35 
ROOT
HETATM    1  C5  UNL     1     128.616  41.346  15.288  1.00  0.00     0.679 A 
HETATM    2  N3  UNL     1     129.487  40.435  14.860  1.00  0.00    -0.185 N 
ATOM      3  H3  UNL     1     130.084  40.684  14.072  1.00  0.00     0.184 HD
HETATM    4  C6  UNL     1     129.639  39.180  15.405  1.00  0.00     0.131 A 
HETATM    5  C9  UNL     1     128.842  38.852  16.458  1.00  0.00     0.112 A 
HETATM    6  N7  UNL     1     128.929  37.667  17.084  1.00  0.00    -0.187 N 
ATOM      7  H7  UNL     1     129.599  36.970  16.760  1.00  0.00     0.184 HD
HETATM    8  C10 UNL     1     128.131  37.394  18.143  1.00  0.00     0.678 A 
HETATM    9  N9  UNL     1     127.244  38.310  18.578  1.00  0.00    -0.175 N 
ATOM     10  H9  UNL     1     126.648  38.093  19.377  1.00  0.00     0.186 HD
HETATM   11  C11 UNL     1     127.134  39.500  17.981  1.00  0.00     0.148 A 
HETATM   12  C16 UNL     1     127.932  39.826  16.890  1.00  0.00     0.123 A 
HETATM   13  N12 UNL     1     127.820  41.044  16.320  1.00  0.00    -0.186 N 
ATOM     14  H12 UNL     1     127.142  41.721  16.670  1.00  0.00     0.184 HD
ENDROOT
BRANCH   1  15
HETATM   15  N2  UNL     1     128.548  42.518  14.699  1.00  0.00    -0.224 N 
ATOM     16  H2  UNL     1     128.098  43.303  15.169  1.00  0.00     0.177 HD
BRANCH  15  17
HETATM   17  C4  UNL     1     129.108  42.686  13.395  1.00  0.00     0.157 C 
BRANCH  17  18
HETATM   18  C3  UNL     1     128.132  42.452  12.284  1.00  0.00     0.143 C 
BRANCH  18  19
HETATM   19  N1  UNL     1     127.274  43.617  12.072  1.00  0.00    -0.360 N 
HETATM   20  C2  UNL     1     126.180  43.551  11.169  1.00  0.00     0.213 C 
HETATM   21  C1  UNL     1     125.317  44.741  10.963  1.00  0.00     0.117 C 
HETATM   22  O1  UNL     1     125.905  42.508  10.527  1.00  0.00    -0.274 OA
ATOM     23  H1  UNL     1     127.464  44.483  12.576  1.00  0.00     0.162 HD
ENDBRANCH  18  19
ENDBRANCH  17  18
ENDBRANCH  15  17
ENDBRANCH   1  15
BRANCH   4  24
HETATM   24  C7  UNL     1     130.631  38.301  14.852  1.00  0.00     0.185 C 
BRANCH  24  25
HETATM   25  O2  UNL     1     131.465  37.842  15.742  1.00  0.00    -0.343 OA
ATOM     26  H2  UNL     1     132.190  38.432  15.917  1.00  0.00     0.219 HD
ENDBRANCH  24  25
BRANCH  24  27
HETATM   27  N4  UNL     1     130.872  37.861  13.555  1.00  0.00    -0.278 N 
ATOM     28  H4  UNL     1     130.818  36.864  13.346  1.00  0.00     0.189 HD
BRANCH  27  29
HETATM   29  N5  UNL     1     131.186  38.763  12.531  1.00  0.00    -0.297 N 
HETATM   30  C8  UNL     1     130.338  39.409  11.855  1.00  0.00     0.207 C 
HETATM   31  N6  UNL     1     130.755  40.294  10.847  1.00  0.00    -0.095 NA
ATOM     32  H5  UNL     1     132.172  38.908  12.316  1.00  0.00     0.187 HD
ENDBRANCH  27  29
ENDBRANCH  24  27
ENDBRANCH   4  24
BRANCH  11  33
HETATM   33  N10 UNL     1     126.289  40.389  18.387  1.00  0.00    -0.346 N 
ATOM     34  H10 UNL     1     126.260  41.301  17.931  1.00  0.00     0.163 HD
BRANCH  33  35
HETATM   35  C12 UNL     1     125.389  40.109  19.474  1.00  0.00     0.285 C 
HETATM   36  C13 UNL     1     124.018  40.620  19.196  1.00  0.00     0.056 C 
HETATM   37  C14 UNL     1     123.823  41.785  20.107  1.00  0.00     0.031 C 
HETATM   38  C15 UNL     1     124.844  41.576  21.201  1.00  0.00     0.235 C 
HETATM   39  N11 UNL     1     125.896  40.779  20.651  1.00  0.00    -0.054 N 
ATOM     40 2H11 UNL     1     126.293  40.131  21.331  1.00  0.00     0.279 HD
ATOM     41 1H11 UNL     1     126.741  41.319  20.463  1.00  0.00     0.279 HD
ENDBRANCH  33  35
ENDBRANCH  11  33
BRANCH   8  42
HETATM   42  N8  UNL     1     128.255  36.248  18.702  1.00  0.00    -0.234 N 
ATOM     43  H82 UNL     1     129.029  36.033  19.332  1.00  0.00     0.174 HD
ATOM     44  H81 UNL     1     127.547  35.542  18.499  1.00  0.00     0.174 HD
ENDBRANCH   8  42
TORSDOF 11
ENDMDL
MODEL 5
REMARK VINA RESULT: -8.083291498      2.224      3.079
REMARK  11 active torsions:
REMARK  status: ('A' for Active; 'I' for Inactive)
REMARK       I    between atoms: C2_2  and  N1_4 
REMARK    1  A    between atoms: N1_4  and  C3_6 
REMARK    2  A    between atoms: C3_6  and  C4_7 
REMARK    3  A    between atoms: C4_7  and  N2_8 
REMARK    4  A    between atoms: N2_8  and  C5_10 
REMARK    5  A    between atoms: C6_13  and  C7_14 
REMARK    6  A    between atoms: C7_14  and  O2_15 
REMARK    7  A    between atoms: C7_14  and  N4_17 
REMARK    8  A    between atoms: N4_17  and  N5_19 
REMARK    9  A    between atoms: C10_26  and  N8_27 
REMARK   10  A    between atoms: C11_32  and  N10_33 
REMARK   11  A    between atoms: N10_33  and  C12_35 
ROOT
HETATM    1  C5  UNL     1     130.694  41.221  17.142  1.00  0.00     0.679 A 
HETATM    2  N3  UNL     1     131.179  40.061  17.578  1.00  0.00    -0.185 N 
ATOM      3  H3  UNL     1     131.396  39.982  18.571  1.00  0.00     0.184 HD
HETATM    4  C6  UNL     1     131.408  38.960  16.785  1.00  0.00     0.131 A 
HETATM    5  C9  UNL     1     131.114  39.069  15.460  1.00  0.00     0.112 A 
HETATM    6  N7  UNL     1     131.270  38.046  14.603  1.00  0.00    -0.187 N 
ATOM      7  H7  UNL     1     131.637  37.155  14.938  1.00  0.00     0.184 HD
HETATM    8  C10 UNL     1     130.942  38.193  13.299  1.00  0.00     0.678 A 
HETATM    9  N9  UNL     1     130.455  39.367  12.850  1.00  0.00    -0.175 N 
ATOM     10  H9  UNL     1     130.212  39.466  11.864  1.00  0.00     0.186 HD
HETATM   11  C11 UNL     1     130.284  40.403  13.676  1.00  0.00     0.148 A 
HETATM   12  C16 UNL     1     130.607  40.299  15.024  1.00  0.00     0.123 A 
HETATM   13  N12 UNL     1     130.401  41.352  15.843  1.00  0.00    -0.186 N 
ATOM     14  H12 UNL     1     130.029  42.229  15.479  1.00  0.00     0.184 HD
ENDROOT
BRANCH   1  15
HETATM   15  N2  UNL     1     130.511  42.214  17.982  1.00  0.00    -0.224 N 
ATOM     16  H2  UNL     1     130.946  43.120  17.808  1.00  0.00     0.177 HD
BRANCH  15  17
HETATM   17  C4  UNL     1     129.697  42.018  19.140  1.00  0.00     0.157 C 
BRANCH  17  18
HETATM   18  C3  UNL     1     128.237  42.250  18.899  1.00  0.00     0.143 C 
BRANCH  18  19
HETATM   19  N1  UNL     1     127.487  40.996  18.915  1.00  0.00    -0.360 N 
HETATM   20  C2  UNL     1     127.096  40.376  17.698  1.00  0.00     0.213 C 
HETATM   21  C1  UNL     1     126.334  39.102  17.727  1.00  0.00     0.117 C 
HETATM   22  O1  UNL     1     127.374  40.868  16.577  1.00  0.00    -0.274 OA
ATOM     23  H1  UNL     1     127.242  40.563  19.805  1.00  0.00     0.162 HD
ENDBRANCH  18  19
ENDBRANCH  17  18
ENDBRANCH  15  17
ENDBRANCH   1  15
BRANCH   4  24
HETATM   24  C7  UNL     1     131.921  37.764  17.393  1.00  0.00     0.185 C 
BRANCH  24  25
HETATM   25  O2  UNL     1     132.945  37.264  16.759  1.00  0.00    -0.343 OA
ATOM     26  H2  UNL     1     133.610  37.910  16.551  1.00  0.00     0.219 HD
ENDBRANCH  24  25
BRANCH  24  27
HETATM   27  N4  UNL     1     131.528  37.042  18.514  1.00  0.00    -0.278 N 
ATOM     28  H4  UNL     1     132.102  37.074  19.357  1.00  0.00     0.189 HD
BRANCH  27  29
HETATM   29  N5  UNL     1     130.358  36.273  18.506  1.00  0.00    -0.297 N 
HETATM   30  C8  UNL     1     129.208  36.716  18.231  1.00  0.00     0.207 C 
HETATM   31  N6  UNL     1     128.093  35.861  18.250  1.00  0.00    -0.095 NA
ATOM     32  H5  UNL     1     130.441  35.284  18.738  1.00  0.00     0.187 HD
ENDBRANCH  27  29
ENDBRANCH  24  27
ENDBRANCH   4  24
BRANCH  11  33
HETATM   33  N10 UNL     1     129.818  41.533  13.260  1.00  0.00    -0.346 N 
ATOM     34  H10 UNL     1     129.866  42.352  13.868  1.00  0.00     0.163 HD
BRANCH  33  35
HETATM   35  C12 UNL     1     129.232  41.654  11.952  1.00  0.00     0.285 C 
HETATM   36  C13 UNL     1     129.590  42.948  11.308  1.00  0.00     0.056 C 
HETATM   37  C14 UNL     1     128.340  43.762  11.301  1.00  0.00     0.031 C 
HETATM   38  C15 UNL     1     127.234  42.745  11.452  1.00  0.00     0.235 C 
HETATM   39  N11 UNL     1     127.795  41.603  12.105  1.00  0.00    -0.054 N 
ATOM     40 2H11 UNL     1     127.395  40.725  11.773  1.00  0.00     0.279 HD
ATOM     41 1H11 UNL     1     127.505  41.527  13.080  1.00  0.00     0.279 HD
ENDBRANCH  33  35
ENDBRANCH  11  33
BRANCH   8  42
HETATM   42  N8  UNL     1     131.111  37.186  12.524  1.00  0.00    -0.234 N 
ATOM     43  H82 UNL     1     131.409  37.293  11.554  1.00  0.00     0.174 HD
ATOM     44  H81 UNL     1     130.938  36.258  12.909  1.00  0.00     0.174 HD
ENDBRANCH   8  42
TORSDOF 11
ENDMDL
