MODEL 1
REMARK VINA RESULT: -8.410503347      0.000      0.000
REMARK  10 active torsions:
REMARK  status: ('A' for Active; 'I' for Inactive)
REMARK    1  A    between atoms: N1_1  and  C1_4 
REMARK    2  A    between atoms: C4_9  and  N3_10 
REMARK    3  A    between atoms: N3_10  and  C5_12 
REMARK    4  A    between atoms: C6_15  and  C7_16 
REMARK    5  A    between atoms: C7_16  and  N5_17 
REMARK    6  A    between atoms: C7_16  and  C8_21 
REMARK    7  A    between atoms: C8_21  and  N6_22 
REMARK    8  A    between atoms: C10_29  and  N10_30 
REMARK    9  A    between atoms: N10_30  and  C11_32 
REMARK   10  A    between atoms: C14_35  and  C15_36 
ROOT
HETATM    1  C5  UNL     1     124.297  42.441  19.251  1.00  0.00     0.712 A 
HETATM    2  N4  UNL     1     125.141  43.082  20.069  1.00  0.00    -0.177 N 
ATOM      3  H4  UNL     1     124.933  44.042  20.342  1.00  0.00     0.185 HD
HETATM    4  C6  UNL     1     126.258  42.495  20.540  1.00  0.00     0.145 A 
HETATM    5  N9  UNL     1     126.510  41.212  20.156  1.00  0.00    -0.177 N 
ATOM      6  H9  UNL     1     127.351  40.749  20.501  1.00  0.00     0.185 HD
HETATM    7  C10 UNL     1     125.690  40.543  19.342  1.00  0.00     0.698 A 
HETATM    8  N12 UNL     1     124.591  41.156  18.894  1.00  0.00    -0.021 N 
ATOM      9  H12 UNL     1     123.958  40.654  18.271  1.00  0.00     0.203 HD
ENDROOT
BRANCH   1  10
HETATM   10  N3  UNL     1     123.233  43.041  18.818  1.00  0.00    -0.021 N 
ATOM     11  H3  UNL     1     123.241  43.479  17.897  1.00  0.00     0.203 HD
BRANCH  10  12
HETATM   12  C4  UNL     1     122.049  43.096  19.614  1.00  0.00     0.698 A 
HETATM   13  N2  UNL     1     122.058  43.805  20.756  1.00  0.00    -0.201 N 
HETATM   14  C3  UNL     1     121.005  43.911  21.554  1.00  0.00     0.110 A 
ATOM     15  H2  UNL     1     122.917  44.285  21.022  1.00  0.00     0.183 HD
HETATM   16  C2  UNL     1     119.841  43.250  21.178  1.00  0.00     0.066 A 
HETATM   17  C1  UNL     1     119.853  42.528  19.999  1.00  0.00     0.116 A 
HETATM   18  N13 UNL     1     120.938  42.452  19.230  1.00  0.00    -0.176 N 
ATOM     19  H13 UNL     1     120.924  41.913  18.365  1.00  0.00     0.186 HD
BRANCH  17  20
HETATM   20  N1  UNL     1     118.788  41.917  19.644  1.00  0.00    -0.385 N 
ATOM     21  H12 UNL     1     117.919  42.441  19.547  1.00  0.00     0.157 HD
ATOM     22  H11 UNL     1     118.837  40.914  19.465  1.00  0.00     0.157 HD
ENDBRANCH  17  20
ENDBRANCH  10  12
ENDBRANCH   1  10
BRANCH   4  23
HETATM   23  C7  UNL     1     127.167  43.244  21.445  1.00  0.00     0.269 C 
BRANCH  23  24
HETATM   24  N5  UNL     1     127.065  42.735  22.793  1.00  0.00    -0.067 N 
ATOM     25  H53 UNL     1     126.133  42.372  22.993  1.00  0.00     0.275 HD
ATOM     26  H52 UNL     1     127.593  41.870  22.914  1.00  0.00     0.275 HD
ATOM     27  H51 UNL     1     127.347  43.449  23.464  1.00  0.00     0.275 HD
ENDBRANCH  23  24
BRANCH  23  28
HETATM   28  C8  UNL     1     126.729  44.709  21.395  1.00  0.00     0.162 C 
BRANCH  28  29
HETATM   29  N6  UNL     1     126.184  45.141  22.643  1.00  0.00    -0.364 N 
HETATM   30  C9  UNL     1     125.001  45.641  22.710  1.00  0.00     0.197 C 
HETATM   31  N7  UNL     1     124.533  46.046  23.983  1.00  0.00    -0.067 NA
HETATM   32  N8  UNL     1     124.239  45.761  21.528  1.00  0.00    -0.067 NA
ATOM     33  H6  UNL     1     126.741  45.052  23.493  1.00  0.00     0.161 HD
ENDBRANCH  28  29
ENDBRANCH  23  28
ENDBRANCH   4  23
BRANCH   7  34
HETATM   34  N10 UNL     1     125.952  39.357  19.007  1.00  0.00    -0.191 N 
ATOM     35  H10 UNL     1     125.372  38.625  19.418  1.00  0.00     0.184 HD
BRANCH  34  36
HETATM   36  C11 UNL     1     126.966  38.940  18.123  1.00  0.00     0.049 A 
HETATM   37  C12 UNL     1     127.691  37.779  18.289  1.00  0.00     0.031 A 
HETATM   38  C13 UNL     1     128.688  37.400  17.390  1.00  0.00     0.019 A 
HETATM   39  C14 UNL     1     128.974  38.187  16.305  1.00  0.00     0.029 A 
HETATM   40  C16 UNL     1     128.260  39.357  16.118  1.00  0.00     0.019 A 
HETATM   41  C17 UNL     1     127.275  39.717  17.018  1.00  0.00     0.031 A 
BRANCH  39  42
HETATM   42  C15 UNL     1     130.009  37.821  15.348  1.00  0.00     0.264 C 
HETATM   43  N11 UNL     1     130.595  38.804  14.505  1.00  0.00    -0.057 NA
HETATM   44  O1  UNL     1     130.398  36.634  15.252  1.00  0.00    -0.271 OA
ENDBRANCH  39  42
ENDBRANCH  34  36
ENDBRANCH   7  34
TORSDOF 10
ENDMDL
MODEL 2
REMARK VINA RESULT: -8.361061424      3.866      9.780
REMARK  10 active torsions:
REMARK  status: ('A' for Active; 'I' for Inactive)
REMARK    1  A    between atoms: N1_1  and  C1_4 
REMARK    2  A    between atoms: C4_9  and  N3_10 
REMARK    3  A    between atoms: N3_10  and  C5_12 
REMARK    4  A    between atoms: C6_15  and  C7_16 
REMARK    5  A    between atoms: C7_16  and  N5_17 
REMARK    6  A    between atoms: C7_16  and  C8_21 
REMARK    7  A    between atoms: C8_21  and  N6_22 
REMARK    8  A    between atoms: C10_29  and  N10_30 
REMARK    9  A    between atoms: N10_30  and  C11_32 
REMARK   10  A    between atoms: C14_35  and  C15_36 
ROOT
HETATM    1  C5  UNL     1     130.986  37.810  16.823  1.00  0.00     0.712 A 
HETATM    2  N4  UNL     1     131.383  38.205  15.607  1.00  0.00    -0.177 N 
ATOM      3  H4  UNL     1     132.381  38.233  15.398  1.00  0.00     0.185 HD
HETATM    4  C6  UNL     1     130.505  38.568  14.653  1.00  0.00     0.145 A 
HETATM    5  N9  UNL     1     129.179  38.522  14.963  1.00  0.00    -0.177 N 
ATOM      6  H9  UNL     1     128.496  38.793  14.255  1.00  0.00     0.185 HD
HETATM    7  C10 UNL     1     128.746  38.132  16.165  1.00  0.00     0.698 A 
HETATM    8  N12 UNL     1     129.646  37.780  17.087  1.00  0.00    -0.021 N 
ATOM      9  H12 UNL     1     129.326  37.481  18.008  1.00  0.00     0.203 HD
ENDROOT
BRANCH   1  10
HETATM   10  N3  UNL     1     131.863  37.470  17.713  1.00  0.00    -0.021 N 
ATOM     11  H3  UNL     1     131.999  36.483  17.935  1.00  0.00     0.203 HD
BRANCH  10  12
HETATM   12  C4  UNL     1     132.641  38.457  18.389  1.00  0.00     0.698 A 
HETATM   13  N2  UNL     1     132.163  39.708  18.499  1.00  0.00    -0.201 N 
HETATM   14  C3  UNL     1     132.818  40.685  19.110  1.00  0.00     0.110 A 
ATOM     15  H2  UNL     1     131.251  39.916  18.093  1.00  0.00     0.183 HD
HETATM   16  C2  UNL     1     134.060  40.386  19.658  1.00  0.00     0.066 A 
HETATM   17  C1  UNL     1     134.533  39.093  19.534  1.00  0.00     0.116 A 
HETATM   18  N13 UNL     1     133.836  38.144  18.910  1.00  0.00    -0.176 N 
ATOM     19  H13 UNL     1     134.205  37.197  18.830  1.00  0.00     0.186 HD
BRANCH  17  20
HETATM   20  N1  UNL     1     135.674  38.807  20.034  1.00  0.00    -0.385 N 
ATOM     21  H12 UNL     1     136.520  39.161  19.588  1.00  0.00     0.157 HD
ATOM     22  H11 UNL     1     135.708  38.229  20.873  1.00  0.00     0.157 HD
ENDBRANCH  17  20
ENDBRANCH  10  12
ENDBRANCH   1  10
BRANCH   4  23
HETATM   23  C7  UNL     1     130.991  39.000  13.318  1.00  0.00     0.269 C 
BRANCH  23  24
HETATM   24  N5  UNL     1     132.366  38.598  13.130  1.00  0.00    -0.067 N 
ATOM     25  H53 UNL     1     132.989  39.050  13.798  1.00  0.00     0.275 HD
ATOM     26  H52 UNL     1     132.520  37.629  13.409  1.00  0.00     0.275 HD
ATOM     27  H51 UNL     1     132.656  38.766  12.166  1.00  0.00     0.275 HD
ENDBRANCH  23  24
BRANCH  23  28
HETATM   28  C8  UNL     1     130.872  40.524  13.279  1.00  0.00     0.162 C 
BRANCH  28  29
HETATM   29  N6  UNL     1     129.796  40.949  12.440  1.00  0.00    -0.364 N 
HETATM   30  C9  UNL     1     128.722  41.446  12.942  1.00  0.00     0.197 C 
HETATM   31  N7  UNL     1     127.702  41.843  12.044  1.00  0.00    -0.067 NA
HETATM   32  N8  UNL     1     128.614  41.568  14.345  1.00  0.00    -0.067 NA
ATOM     33  H6  UNL     1     129.882  40.857  11.428  1.00  0.00     0.161 HD
ENDBRANCH  28  29
ENDBRANCH  23  28
ENDBRANCH   4  23
BRANCH   7  34
HETATM   34  N10 UNL     1     127.512  38.100  16.418  1.00  0.00    -0.191 N 
ATOM     35  H10 UNL     1     126.970  37.363  15.967  1.00  0.00     0.184 HD
BRANCH  34  36
HETATM   36  C11 UNL     1     126.806  38.980  17.261  1.00  0.00     0.049 A 
HETATM   37  C12 UNL     1     127.136  40.309  17.423  1.00  0.00     0.031 A 
HETATM   38  C13 UNL     1     126.411  41.149  18.269  1.00  0.00     0.019 A 
HETATM   39  C14 UNL     1     125.338  40.663  18.969  1.00  0.00     0.029 A 
HETATM   40  C16 UNL     1     124.988  39.332  18.824  1.00  0.00     0.019 A 
HETATM   41  C17 UNL     1     125.718  38.515  17.982  1.00  0.00     0.031 A 
BRANCH  39  42
HETATM   42  C15 UNL     1     124.560  41.513  19.861  1.00  0.00     0.264 C 
HETATM   43  N11 UNL     1     123.840  40.951  20.949  1.00  0.00    -0.057 NA
HETATM   44  O1  UNL     1     124.513  42.752  19.681  1.00  0.00    -0.271 OA
ENDBRANCH  39  42
ENDBRANCH  34  36
ENDBRANCH   7  34
TORSDOF 10
ENDMDL
MODEL 3
REMARK VINA RESULT: -8.319316287      0.518      1.464
REMARK  10 active torsions:
REMARK  status: ('A' for Active; 'I' for Inactive)
REMARK    1  A    between atoms: N1_1  and  C1_4 
REMARK    2  A    between atoms: C4_9  and  N3_10 
REMARK    3  A    between atoms: N3_10  and  C5_12 
REMARK    4  A    between atoms: C6_15  and  C7_16 
REMARK    5  A    between atoms: C7_16  and  N5_17 
REMARK    6  A    between atoms: C7_16  and  C8_21 
REMARK    7  A    between atoms: C8_21  and  N6_22 
REMARK    8  A    between atoms: C10_29  and  N10_30 
REMARK    9  A    between atoms: N10_30  and  C11_32 
REMARK   10  A    between atoms: C14_35  and  C15_36 
ROOT
HETATM    1  C5  UNL     1     124.297  42.339  19.106  1.00  0.00     0.712 A 
HETATM    2  N4  UNL     1     125.094  42.997  19.957  1.00  0.00    -0.177 N 
ATOM      3  H4  UNL     1     124.851  43.950  20.227  1.00  0.00     0.185 HD
HETATM    4  C6  UNL     1     126.208  42.438  20.466  1.00  0.00     0.145 A 
HETATM    5  N9  UNL     1     126.507  41.164  20.087  1.00  0.00    -0.177 N 
ATOM      6  H9  UNL     1     127.347  40.721  20.460  1.00  0.00     0.185 HD
HETATM    7  C10 UNL     1     125.735  40.477  19.241  1.00  0.00     0.698 A 
HETATM    8  N12 UNL     1     124.638  41.064  18.755  1.00  0.00    -0.021 N 
ATOM      9  H12 UNL     1     124.041  40.549  18.108  1.00  0.00     0.203 HD
ENDROOT
BRANCH   1  10
HETATM   10  N3  UNL     1     123.234  42.913  18.638  1.00  0.00    -0.021 N 
ATOM     11  H3  UNL     1     123.225  43.245  17.673  1.00  0.00     0.203 HD
BRANCH  10  12
HETATM   12  C4  UNL     1     122.076  43.086  19.453  1.00  0.00     0.698 A 
HETATM   13  N2  UNL     1     121.038  42.245  19.308  1.00  0.00    -0.201 N 
HETATM   14  C3  UNL     1     119.925  42.332  20.022  1.00  0.00     0.110 A 
ATOM     15  H2  UNL     1     121.110  41.502  18.613  1.00  0.00     0.183 HD
HETATM   16  C2  UNL     1     119.841  43.351  20.965  1.00  0.00     0.066 A 
HETATM   17  C1  UNL     1     120.921  44.205  21.099  1.00  0.00     0.116 A 
HETATM   18  N13 UNL     1     122.018  44.075  20.356  1.00  0.00    -0.176 N 
ATOM     19  H13 UNL     1     122.802  44.717  20.472  1.00  0.00     0.186 HD
BRANCH  17  20
HETATM   20  N1  UNL     1     120.854  45.145  21.963  1.00  0.00    -0.385 N 
ATOM     21  H12 UNL     1     121.405  45.079  22.818  1.00  0.00     0.157 HD
ATOM     22  H11 UNL     1     120.248  45.942  21.772  1.00  0.00     0.157 HD
ENDBRANCH  17  20
ENDBRANCH  10  12
ENDBRANCH   1  10
BRANCH   4  23
HETATM   23  C7  UNL     1     127.063  43.205  21.408  1.00  0.00     0.269 C 
BRANCH  23  24
HETATM   24  N5  UNL     1     126.924  42.688  22.749  1.00  0.00    -0.067 N 
ATOM     25  H53 UNL     1     127.390  43.281  23.435  1.00  0.00     0.275 HD
ATOM     26  H52 UNL     1     125.968  42.779  23.094  1.00  0.00     0.275 HD
ATOM     27  H51 UNL     1     127.255  41.724  22.793  1.00  0.00     0.275 HD
ENDBRANCH  23  24
BRANCH  23  28
HETATM   28  C8  UNL     1     126.591  44.659  21.346  1.00  0.00     0.162 C 
BRANCH  28  29
HETATM   29  N6  UNL     1     126.052  45.094  22.596  1.00  0.00    -0.364 N 
HETATM   30  C9  UNL     1     124.885  45.627  22.664  1.00  0.00     0.197 C 
HETATM   31  N7  UNL     1     124.423  46.032  23.940  1.00  0.00    -0.067 NA
HETATM   32  N8  UNL     1     124.131  45.781  21.480  1.00  0.00    -0.067 NA
ATOM     33  H6  UNL     1     126.603  44.980  23.447  1.00  0.00     0.161 HD
ENDBRANCH  28  29
ENDBRANCH  23  28
ENDBRANCH   4  23
BRANCH   7  34
HETATM   34  N10 UNL     1     126.041  39.300  18.911  1.00  0.00    -0.191 N 
ATOM     35  H10 UNL     1     125.472  38.551  19.305  1.00  0.00     0.184 HD
BRANCH  34  36
HETATM   36  C11 UNL     1     127.088  38.915  18.053  1.00  0.00     0.049 A 
HETATM   37  C12 UNL     1     127.406  39.586  16.890  1.00  0.00     0.031 A 
HETATM   38  C13 UNL     1     128.452  39.172  16.065  1.00  0.00     0.019 A 
HETATM   39  C14 UNL     1     129.199  38.072  16.398  1.00  0.00     0.029 A 
HETATM   40  C16 UNL     1     128.898  37.383  17.559  1.00  0.00     0.019 A 
HETATM   41  C17 UNL     1     127.859  37.807  18.364  1.00  0.00     0.031 A 
BRANCH  39  42
HETATM   42  C15 UNL     1     130.298  37.614  15.558  1.00  0.00     0.264 C 
HETATM   43  N11 UNL     1     131.410  38.459  15.299  1.00  0.00    -0.057 NA
HETATM   44  O1  UNL     1     130.278  36.468  15.052  1.00  0.00    -0.271 OA
ENDBRANCH  39  42
ENDBRANCH  34  36
ENDBRANCH   7  34
TORSDOF 10
ENDMDL
MODEL 4
REMARK VINA RESULT: -8.151061050      1.533      4.539
REMARK  10 active torsions:
REMARK  status: ('A' for Active; 'I' for Inactive)
REMARK    1  A    between atoms: N1_1  and  C1_4 
REMARK    2  A    between atoms: C4_9  and  N3_10 
REMARK    3  A    between atoms: N3_10  and  C5_12 
REMARK    4  A    between atoms: C6_15  and  C7_16 
REMARK    5  A    between atoms: C7_16  and  N5_17 
REMARK    6  A    between atoms: C7_16  and  C8_21 
REMARK    7  A    between atoms: C8_21  and  N6_22 
REMARK    8  A    between atoms: C10_29  and  N10_30 
REMARK    9  A    between atoms: N10_30  and  C11_32 
REMARK   10  A    between atoms: C14_35  and  C15_36 
ROOT
HETATM    1  C5  UNL     1     125.547  41.542  21.241  1.00  0.00     0.712 A 
HETATM    2  N4  UNL     1     124.438  42.255  21.011  1.00  0.00    -0.177 N 
ATOM      3  H4  UNL     1     124.219  43.041  21.622  1.00  0.00     0.185 HD
HETATM    4  C6  UNL     1     123.602  41.963  19.997  1.00  0.00     0.145 A 
HETATM    5  N9  UNL     1     123.920  40.906  19.198  1.00  0.00    -0.177 N 
ATOM      6  H9  UNL     1     123.300  40.667  18.424  1.00  0.00     0.185 HD
HETATM    7  C10 UNL     1     125.019  40.173  19.397  1.00  0.00     0.698 A 
HETATM    8  N12 UNL     1     125.825  40.491  20.413  1.00  0.00    -0.021 N 
ATOM      9  H12 UNL     1     126.666  39.938  20.575  1.00  0.00     0.203 HD
ENDROOT
BRANCH   1  10
HETATM   10  N3  UNL     1     126.326  41.855  22.228  1.00  0.00    -0.021 N 
ATOM     11  H3  UNL     1     126.466  41.189  22.989  1.00  0.00     0.203 HD
BRANCH  10  12
HETATM   12  C4  UNL     1     126.991  43.117  22.265  1.00  0.00     0.698 A 
HETATM   13  N2  UNL     1     128.145  43.272  21.594  1.00  0.00    -0.201 N 
HETATM   14  C3  UNL     1     128.827  44.409  21.573  1.00  0.00     0.110 A 
ATOM     15  H2  UNL     1     128.513  42.476  21.074  1.00  0.00     0.183 HD
HETATM   16  C2  UNL     1     128.311  45.484  22.287  1.00  0.00     0.066 A 
HETATM   17  C1  UNL     1     127.123  45.303  22.970  1.00  0.00     0.116 A 
HETATM   18  N13 UNL     1     126.474  44.140  22.959  1.00  0.00    -0.176 N 
ATOM     19  H13 UNL     1     125.598  44.030  23.471  1.00  0.00     0.186 HD
BRANCH  17  20
HETATM   20  N1  UNL     1     126.639  46.286  23.629  1.00  0.00    -0.385 N 
ATOM     21  H12 UNL     1     125.698  46.617  23.419  1.00  0.00     0.157 HD
ATOM     22  H11 UNL     1     127.213  46.716  24.355  1.00  0.00     0.157 HD
ENDBRANCH  17  20
ENDBRANCH  10  12
ENDBRANCH   1  10
BRANCH   4  23
HETATM   23  C7  UNL     1     122.382  42.781  19.778  1.00  0.00     0.269 C 
BRANCH  23  24
HETATM   24  N5  UNL     1     121.812  42.499  18.481  1.00  0.00    -0.067 N 
ATOM     25  H53 UNL     1     121.518  43.349  18.002  1.00  0.00     0.275 HD
ATOM     26  H52 UNL     1     122.520  42.186  17.816  1.00  0.00     0.275 HD
ATOM     27  H51 UNL     1     121.048  41.828  18.568  1.00  0.00     0.275 HD
ENDBRANCH  23  24
BRANCH  23  28
HETATM   28  C8  UNL     1     122.813  44.246  19.862  1.00  0.00     0.162 C 
BRANCH  28  29
HETATM   29  N6  UNL     1     121.979  44.994  20.749  1.00  0.00    -0.364 N 
HETATM   30  C9  UNL     1     122.448  45.488  21.840  1.00  0.00     0.197 C 
HETATM   31  N7  UNL     1     121.557  46.215  22.665  1.00  0.00    -0.067 NA
HETATM   32  N8  UNL     1     123.809  45.283  22.157  1.00  0.00    -0.067 NA
ATOM     33  H6  UNL     1     120.997  45.137  20.514  1.00  0.00     0.161 HD
ENDBRANCH  28  29
ENDBRANCH  23  28
ENDBRANCH   4  23
BRANCH   7  34
HETATM   34  N10 UNL     1     125.283  39.202  18.639  1.00  0.00    -0.191 N 
ATOM     35  H10 UNL     1     124.547  38.508  18.509  1.00  0.00     0.184 HD
BRANCH  34  36
HETATM   36  C11 UNL     1     126.493  38.979  17.954  1.00  0.00     0.049 A 
HETATM   37  C12 UNL     1     127.027  39.866  17.042  1.00  0.00     0.031 A 
HETATM   38  C13 UNL     1     128.228  39.608  16.383  1.00  0.00     0.019 A 
HETATM   39  C14 UNL     1     128.916  38.448  16.630  1.00  0.00     0.029 A 
HETATM   40  C16 UNL     1     128.399  37.543  17.540  1.00  0.00     0.019 A 
HETATM   41  C17 UNL     1     127.208  37.815  18.184  1.00  0.00     0.031 A 
BRANCH  39  42
HETATM   42  C15 UNL     1     130.173  38.148  15.958  1.00  0.00     0.264 C 
HETATM   43  N11 UNL     1     130.348  36.918  15.269  1.00  0.00    -0.057 NA
HETATM   44  O1  UNL     1     131.119  38.969  15.978  1.00  0.00    -0.271 OA
ENDBRANCH  39  42
ENDBRANCH  34  36
ENDBRANCH   7  34
TORSDOF 10
ENDMDL
MODEL 5
REMARK VINA RESULT: -8.111526566      1.421      2.541
REMARK  10 active torsions:
REMARK  status: ('A' for Active; 'I' for Inactive)
REMARK    1  A    between atoms: N1_1  and  C1_4 
REMARK    2  A    between atoms: C4_9  and  N3_10 
REMARK    3  A    between atoms: N3_10  and  C5_12 
REMARK    4  A    between atoms: C6_15  and  C7_16 
REMARK    5  A    between atoms: C7_16  and  N5_17 
REMARK    6  A    between atoms: C7_16  and  C8_21 
REMARK    7  A    between atoms: C8_21  and  N6_22 
REMARK    8  A    between atoms: C10_29  and  N10_30 
REMARK    9  A    between atoms: N10_30  and  C11_32 
REMARK   10  A    between atoms: C14_35  and  C15_36 
ROOT
HETATM    1  C5  UNL     1     123.932  42.243  19.298  1.00  0.00     0.712 A 
HETATM    2  N4  UNL     1     124.683  42.979  20.127  1.00  0.00    -0.177 N 
ATOM      3  H4  UNL     1     124.359  43.908  20.395  1.00  0.00     0.185 HD
HETATM    4  C6  UNL     1     125.853  42.527  20.617  1.00  0.00     0.145 A 
HETATM    5  N9  UNL     1     126.259  41.282  20.241  1.00  0.00    -0.177 N 
ATOM      6  H9  UNL     1     127.143  40.921  20.600  1.00  0.00     0.185 HD
HETATM    7  C10 UNL     1     125.535  40.521  19.416  1.00  0.00     0.698 A 
HETATM    8  N12 UNL     1     124.380  41.001  18.949  1.00  0.00    -0.021 N 
ATOM      9  H12 UNL     1     123.820  40.428  18.318  1.00  0.00     0.203 HD
ENDROOT
BRANCH   1  10
HETATM   10  N3  UNL     1     122.812  42.714  18.848  1.00  0.00    -0.021 N 
ATOM     11  H3  UNL     1     122.712  42.909  17.851  1.00  0.00     0.203 HD
BRANCH  10  12
HETATM   12  C4  UNL     1     121.716  42.963  19.727  1.00  0.00     0.698 A 
HETATM   13  N2  UNL     1     121.885  43.796  20.769  1.00  0.00    -0.201 N 
HETATM   14  C3  UNL     1     120.922  44.084  21.633  1.00  0.00     0.110 A 
ATOM     15  H2  UNL     1     122.799  44.228  20.900  1.00  0.00     0.183 HD
HETATM   16  C2  UNL     1     119.682  43.488  21.441  1.00  0.00     0.066 A 
HETATM   17  C1  UNL     1     119.529  42.635  20.363  1.00  0.00     0.116 A 
HETATM   18  N13 UNL     1     120.528  42.377  19.521  1.00  0.00    -0.176 N 
ATOM     19  H13 UNL     1     120.393  41.744  18.733  1.00  0.00     0.186 HD
BRANCH  17  20
HETATM   20  N1  UNL     1     118.392  42.081  20.176  1.00  0.00    -0.385 N 
ATOM     21  H12 UNL     1     117.898  42.234  19.298  1.00  0.00     0.157 HD
ATOM     22  H11 UNL     1     118.007  41.495  20.917  1.00  0.00     0.157 HD
ENDBRANCH  17  20
ENDBRANCH  10  12
ENDBRANCH   1  10
BRANCH   4  23
HETATM   23  C7  UNL     1     126.654  43.377  21.535  1.00  0.00     0.269 C 
BRANCH  23  24
HETATM   24  N5  UNL     1     125.806  44.344  22.193  1.00  0.00    -0.067 N 
ATOM     25  H53 UNL     1     126.000  45.295  21.879  1.00  0.00     0.275 HD
ATOM     26  H52 UNL     1     124.837  44.275  21.880  1.00  0.00     0.275 HD
ATOM     27  H51 UNL     1     125.886  44.255  23.206  1.00  0.00     0.275 HD
ENDBRANCH  23  24
BRANCH  23  28
HETATM   28  C8  UNL     1     127.702  44.086  20.675  1.00  0.00     0.162 C 
BRANCH  28  29
HETATM   29  N6  UNL     1     129.001  43.518  20.850  1.00  0.00    -0.364 N 
HETATM   30  C9  UNL     1     129.567  42.855  19.904  1.00  0.00     0.197 C 
HETATM   31  N7  UNL     1     130.854  42.324  20.156  1.00  0.00    -0.067 NA
HETATM   32  N8  UNL     1     128.885  42.692  18.679  1.00  0.00    -0.067 NA
ATOM     33  H6  UNL     1     129.487  43.640  21.738  1.00  0.00     0.161 HD
ENDBRANCH  28  29
ENDBRANCH  23  28
ENDBRANCH   4  23
BRANCH   7  34
HETATM   34  N10 UNL     1     125.940  39.373  19.088  1.00  0.00    -0.191 N 
ATOM     35  H10 UNL     1     125.507  38.581  19.564  1.00  0.00     0.184 HD
BRANCH  34  36
HETATM   36  C11 UNL     1     126.929  39.074  18.132  1.00  0.00     0.049 A 
HETATM   37  C12 UNL     1     127.219  39.887  17.056  1.00  0.00     0.031 A 
HETATM   38  C13 UNL     1     128.207  39.555  16.129  1.00  0.00     0.019 A 
HETATM   39  C14 UNL     1     128.924  38.395  16.271  1.00  0.00     0.029 A 
HETATM   40  C16 UNL     1     128.651  37.564  17.342  1.00  0.00     0.019 A 
HETATM   41  C17 UNL     1     127.668  37.908  18.250  1.00  0.00     0.031 A 
BRANCH  39  42
HETATM   42  C15 UNL     1     129.963  38.019  15.321  1.00  0.00     0.264 C 
HETATM   43  N11 UNL     1     130.394  36.670  15.219  1.00  0.00    -0.057 NA
HETATM   44  O1  UNL     1     130.491  38.880  14.580  1.00  0.00    -0.271 OA
ENDBRANCH  39  42
ENDBRANCH  34  36
ENDBRANCH   7  34
TORSDOF 10
ENDMDL
