MODEL 1
REMARK VINA RESULT: -7.918803025      0.000      0.000
REMARK  8 active torsions:
REMARK  status: ('A' for Active; 'I' for Inactive)
REMARK    1  A    between atoms: S1_2  and  C1_4 
REMARK    2  A    between atoms: S1_2  and  C9_16 
REMARK    3  A    between atoms: C1_4  and  C2_5 
REMARK    4  A    between atoms: C2_5  and  C3_6 
REMARK    5  A    between atoms: C3_6  and  C4_7 
REMARK    6  A    between atoms: C4_7  and  C5_8 
REMARK    7  A    between atoms: C5_8  and  C6_9 
REMARK    8  A    between atoms: C13_21  and  O4_22 
ROOT
HETATM    1  C1  UNL     1     108.704  22.638  23.526  1.00  0.00     0.141 C 
ENDROOT
BRANCH   1   2
HETATM    2  S1  UNL     1     108.537  21.576  24.916  1.00  0.00     0.153 S 
HETATM    3  O1  UNL     1     108.296  22.403  26.167  1.00  0.00    -0.227 OA
HETATM    4  O2  UNL     1     107.244  20.772  24.746  1.00  0.00    -0.227 OA
BRANCH   2   5
HETATM    5  C9  UNL     1     109.816  20.422  25.163  1.00  0.00     0.161 C 
HETATM    6  C10 UNL     1     111.081  21.052  24.519  1.00  0.00     0.190 C 
HETATM    7  O3  UNL     1     112.139  20.311  25.000  1.00  0.00    -0.390 OA
HETATM    8  C11 UNL     1     112.198  19.115  24.292  1.00  0.00     0.170 C 
HETATM    9  C12 UNL     1     110.890  18.671  23.757  1.00  0.00     0.059 C 
HETATM   10  C13 UNL     1     109.681  19.077  24.574  1.00  0.00     0.140 C 
BRANCH  10  11
HETATM   11  O4  UNL     1     109.617  18.067  25.580  1.00  0.00    -0.394 OA
ATOM     12  H4  UNL     1     110.405  17.536  25.593  1.00  0.00     0.210 HD
ENDBRANCH  10  11
ENDBRANCH   2   5
ENDBRANCH   1   2
BRANCH   1  13
HETATM   13  C2  UNL     1     107.949  22.272  22.310  1.00  0.00     0.015 C 
BRANCH  13  14
HETATM   14  C3  UNL     1     107.812  23.370  21.285  1.00  0.00     0.001 C 
BRANCH  14  15
HETATM   15  C4  UNL     1     106.933  22.972  20.123  1.00  0.00     0.007 C 
BRANCH  15  16
HETATM   16  C5  UNL     1     105.526  23.476  20.478  1.00  0.00     0.076 C 
BRANCH  16  17
HETATM   17  C6  UNL     1     104.539  22.391  20.484  1.00  0.00     0.072 A 
HETATM   18  N1  UNL     1     104.593  21.377  19.680  1.00  0.00    -0.378 N 
HETATM   19  C7  UNL     1     103.499  20.494  19.926  1.00  0.00     0.140 A 
ATOM     20  H1  UNL     1     105.314  21.230  18.974  1.00  0.00     0.160 HD
HETATM   21  C8  UNL     1     102.744  21.048  21.115  1.00  0.00     0.140 A 
HETATM   22  N2  UNL     1     103.429  22.306  21.337  1.00  0.00    -0.378 N 
ATOM     23  H2  UNL     1     103.147  23.018  22.010  1.00  0.00     0.160 HD
ENDBRANCH  16  17
ENDBRANCH  15  16
ENDBRANCH  14  15
ENDBRANCH  13  14
ENDBRANCH   1  13
TORSDOF 8
ENDMDL
MODEL 2
REMARK VINA RESULT: -7.367311977      2.194      3.025
REMARK  8 active torsions:
REMARK  status: ('A' for Active; 'I' for Inactive)
REMARK    1  A    between atoms: S1_2  and  C1_4 
REMARK    2  A    between atoms: S1_2  and  C9_16 
REMARK    3  A    between atoms: C1_4  and  C2_5 
REMARK    4  A    between atoms: C2_5  and  C3_6 
REMARK    5  A    between atoms: C3_6  and  C4_7 
REMARK    6  A    between atoms: C4_7  and  C5_8 
REMARK    7  A    between atoms: C5_8  and  C6_9 
REMARK    8  A    between atoms: C13_21  and  O4_22 
ROOT
HETATM    1  C1  UNL     1     108.762  22.648  23.520  1.00  0.00     0.141 C 
ENDROOT
BRANCH   1   2
HETATM    2  S1  UNL     1     108.578  21.575  24.899  1.00  0.00     0.153 S 
HETATM    3  O1  UNL     1     108.328  22.392  26.154  1.00  0.00    -0.227 OA
HETATM    4  O2  UNL     1     107.285  20.775  24.711  1.00  0.00    -0.227 OA
BRANCH   2   5
HETATM    5  C9  UNL     1     109.851  20.415  25.149  1.00  0.00     0.161 C 
HETATM    6  C10 UNL     1     111.113  21.023  24.477  1.00  0.00     0.190 C 
HETATM    7  O3  UNL     1     112.172  20.282  24.956  1.00  0.00    -0.390 OA
HETATM    8  C11 UNL     1     112.211  19.074  24.267  1.00  0.00     0.170 C 
HETATM    9  C12 UNL     1     110.893  18.631  23.758  1.00  0.00     0.059 C 
HETATM   10  C13 UNL     1     109.699  19.061  24.585  1.00  0.00     0.140 C 
BRANCH  10  11
HETATM   11  O4  UNL     1     109.641  18.068  25.608  1.00  0.00    -0.394 OA
ATOM     12  H4  UNL     1     109.670  17.191  25.246  1.00  0.00     0.210 HD
ENDBRANCH  10  11
ENDBRANCH   2   5
ENDBRANCH   1   2
BRANCH   1  13
HETATM   13  C2  UNL     1     107.943  22.349  22.326  1.00  0.00     0.015 C 
BRANCH  13  14
HETATM   14  C3  UNL     1     107.948  23.417  21.261  1.00  0.00     0.001 C 
BRANCH  14  15
HETATM   15  C4  UNL     1     107.181  23.007  20.026  1.00  0.00     0.007 C 
BRANCH  15  16
HETATM   16  C5  UNL     1     106.096  24.079  19.839  1.00  0.00     0.076 C 
BRANCH  16  17
HETATM   17  C6  UNL     1     106.376  24.950  18.693  1.00  0.00     0.072 A 
HETATM   18  N1  UNL     1     105.560  25.099  17.698  1.00  0.00    -0.378 N 
HETATM   19  C7  UNL     1     106.109  26.007  16.743  1.00  0.00     0.140 A 
ATOM     20  H1  UNL     1     104.657  24.635  17.610  1.00  0.00     0.160 HD
HETATM   21  C8  UNL     1     107.407  26.524  17.322  1.00  0.00     0.140 A 
HETATM   22  N2  UNL     1     107.535  25.722  18.521  1.00  0.00    -0.378 N 
ATOM     23  H2  UNL     1     108.342  25.718  19.144  1.00  0.00     0.160 HD
ENDBRANCH  16  17
ENDBRANCH  15  16
ENDBRANCH  14  15
ENDBRANCH  13  14
ENDBRANCH   1  13
TORSDOF 8
ENDMDL
MODEL 3
REMARK VINA RESULT: -7.365404361      0.811      1.568
REMARK  8 active torsions:
REMARK  status: ('A' for Active; 'I' for Inactive)
REMARK    1  A    between atoms: S1_2  and  C1_4 
REMARK    2  A    between atoms: S1_2  and  C9_16 
REMARK    3  A    between atoms: C1_4  and  C2_5 
REMARK    4  A    between atoms: C2_5  and  C3_6 
REMARK    5  A    between atoms: C3_6  and  C4_7 
REMARK    6  A    between atoms: C4_7  and  C5_8 
REMARK    7  A    between atoms: C5_8  and  C6_9 
REMARK    8  A    between atoms: C13_21  and  O4_22 
ROOT
HETATM    1  C1  UNL     1     108.389  22.852  23.160  1.00  0.00     0.141 C 
ENDROOT
BRANCH   1   2
HETATM    2  S1  UNL     1     108.354  21.713  24.497  1.00  0.00     0.153 S 
HETATM    3  O1  UNL     1     108.471  22.463  25.812  1.00  0.00    -0.227 OA
HETATM    4  O2  UNL     1     106.959  21.083  24.550  1.00  0.00    -0.227 OA
BRANCH   2   5
HETATM    5  C9  UNL     1     109.493  20.399  24.420  1.00  0.00     0.161 C 
HETATM    6  C10 UNL     1     108.961  19.322  25.406  1.00  0.00     0.190 C 
HETATM    7  O3  UNL     1     109.659  18.174  25.099  1.00  0.00    -0.390 OA
HETATM    8  C11 UNL     1     110.929  18.267  25.660  1.00  0.00     0.170 C 
HETATM    9  C12 UNL     1     111.410  19.658  25.826  1.00  0.00     0.059 C 
HETATM   10  C13 UNL     1     110.894  20.650  24.804  1.00  0.00     0.140 C 
BRANCH  10  11
HETATM   11  O4  UNL     1     111.782  20.470  23.702  1.00  0.00    -0.394 OA
ATOM     12  H4  UNL     1     112.594  20.058  23.970  1.00  0.00     0.210 HD
ENDBRANCH  10  11
ENDBRANCH   2   5
ENDBRANCH   1   2
BRANCH   1  13
HETATM   13  C2  UNL     1     107.633  22.480  21.945  1.00  0.00     0.015 C 
BRANCH  13  14
HETATM   14  C3  UNL     1     107.736  23.458  20.801  1.00  0.00     0.001 C 
BRANCH  14  15
HETATM   15  C4  UNL     1     106.744  23.168  19.699  1.00  0.00     0.007 C 
BRANCH  15  16
HETATM   16  C5  UNL     1     105.376  23.600  20.250  1.00  0.00     0.076 C 
BRANCH  16  17
HETATM   17  C6  UNL     1     104.454  22.468  20.381  1.00  0.00     0.072 A 
HETATM   18  N1  UNL     1     104.532  21.400  19.652  1.00  0.00    -0.378 N 
HETATM   19  C7  UNL     1     103.500  20.481  20.013  1.00  0.00     0.140 A 
ATOM     20  H1  UNL     1     105.229  21.239  18.926  1.00  0.00     0.160 HD
HETATM   21  C8  UNL     1     102.767  21.082  21.192  1.00  0.00     0.140 A 
HETATM   22  N2  UNL     1     103.388  22.387  21.290  1.00  0.00    -0.378 N 
ATOM     23  H2  UNL     1     103.095  23.133  21.921  1.00  0.00     0.160 HD
ENDBRANCH  16  17
ENDBRANCH  15  16
ENDBRANCH  14  15
ENDBRANCH  13  14
ENDBRANCH   1  13
TORSDOF 8
ENDMDL
MODEL 4
REMARK VINA RESULT: -7.118838567      4.951      8.063
REMARK  8 active torsions:
REMARK  status: ('A' for Active; 'I' for Inactive)
REMARK    1  A    between atoms: S1_2  and  C1_4 
REMARK    2  A    between atoms: S1_2  and  C9_16 
REMARK    3  A    between atoms: C1_4  and  C2_5 
REMARK    4  A    between atoms: C2_5  and  C3_6 
REMARK    5  A    between atoms: C3_6  and  C4_7 
REMARK    6  A    between atoms: C4_7  and  C5_8 
REMARK    7  A    between atoms: C5_8  and  C6_9 
REMARK    8  A    between atoms: C13_21  and  O4_22 
ROOT
HETATM    1  C1  UNL     1     107.084  23.529  21.032  1.00  0.00     0.141 C 
ENDROOT
BRANCH   1   2
HETATM    2  S1  UNL     1     107.792  24.034  19.505  1.00  0.00     0.153 S 
HETATM    3  O1  UNL     1     109.269  24.324  19.696  1.00  0.00    -0.227 OA
HETATM    4  O2  UNL     1     107.767  22.835  18.551  1.00  0.00    -0.227 OA
BRANCH   2   5
HETATM    5  C9  UNL     1     106.995  25.344  18.682  1.00  0.00     0.161 C 
HETATM    6  C10 UNL     1     106.111  24.681  17.590  1.00  0.00     0.190 C 
HETATM    7  O3  UNL     1     105.245  25.669  17.175  1.00  0.00    -0.390 OA
HETATM    8  C11 UNL     1     105.928  26.518  16.309  1.00  0.00     0.170 C 
HETATM    9  C12 UNL     1     107.388  26.571  16.551  1.00  0.00     0.059 C 
HETATM   10  C13 UNL     1     107.818  26.350  17.987  1.00  0.00     0.140 C 
BRANCH  10  11
HETATM   11  O4  UNL     1     107.671  27.644  18.570  1.00  0.00    -0.394 OA
ATOM     12  H4  UNL     1     108.391  27.849  19.155  1.00  0.00     0.210 HD
ENDBRANCH  10  11
ENDBRANCH   2   5
ENDBRANCH   1   2
BRANCH   1  13
HETATM   13  C2  UNL     1     107.914  22.671  21.903  1.00  0.00     0.015 C 
BRANCH  13  14
HETATM   14  C3  UNL     1     108.824  23.409  22.852  1.00  0.00     0.001 C 
BRANCH  14  15
HETATM   15  C4  UNL     1     109.441  22.500  23.889  1.00  0.00     0.007 C 
BRANCH  15  16
HETATM   16  C5  UNL     1     108.389  21.416  24.168  1.00  0.00     0.076 C 
BRANCH  16  17
HETATM   17  C6  UNL     1     109.002  20.118  24.468  1.00  0.00     0.072 A 
HETATM   18  N1  UNL     1     109.887  19.558  23.706  1.00  0.00    -0.378 N 
HETATM   19  C7  UNL     1     110.293  18.307  24.260  1.00  0.00     0.140 A 
ATOM     20  H1  UNL     1     110.243  19.954  22.836  1.00  0.00     0.160 HD
HETATM   21  C8  UNL     1     109.591  18.167  25.593  1.00  0.00     0.140 A 
HETATM   22  N2  UNL     1     108.721  19.325  25.590  1.00  0.00    -0.378 N 
ATOM     23  H2  UNL     1     108.013  19.531  26.294  1.00  0.00     0.160 HD
ENDBRANCH  16  17
ENDBRANCH  15  16
ENDBRANCH  14  15
ENDBRANCH  13  14
ENDBRANCH   1  13
TORSDOF 8
ENDMDL
MODEL 5
REMARK VINA RESULT: -6.864212646      2.412      3.551
REMARK  8 active torsions:
REMARK  status: ('A' for Active; 'I' for Inactive)
REMARK    1  A    between atoms: S1_2  and  C1_4 
REMARK    2  A    between atoms: S1_2  and  C9_16 
REMARK    3  A    between atoms: C1_4  and  C2_5 
REMARK    4  A    between atoms: C2_5  and  C3_6 
REMARK    5  A    between atoms: C3_6  and  C4_7 
REMARK    6  A    between atoms: C4_7  and  C5_8 
REMARK    7  A    between atoms: C5_8  and  C6_9 
REMARK    8  A    between atoms: C13_21  and  O4_22 
ROOT
HETATM    1  C1  UNL     1     108.301  22.926  23.304  1.00  0.00     0.141 C 
ENDROOT
BRANCH   1   2
HETATM    2  S1  UNL     1     108.297  21.693  24.557  1.00  0.00     0.153 S 
HETATM    3  O1  UNL     1     108.411  22.348  25.921  1.00  0.00    -0.227 OA
HETATM    4  O2  UNL     1     106.913  21.037  24.573  1.00  0.00    -0.227 OA
BRANCH   2   5
HETATM    5  C9  UNL     1     109.457  20.408  24.378  1.00  0.00     0.161 C 
HETATM    6  C10 UNL     1     108.974  19.270  25.319  1.00  0.00     0.190 C 
HETATM    7  O3  UNL     1     109.685  18.154  24.931  1.00  0.00    -0.390 OA
HETATM    8  C11 UNL     1     110.968  18.243  25.461  1.00  0.00     0.170 C 
HETATM    9  C12 UNL     1     111.428  19.633  25.688  1.00  0.00     0.059 C 
HETATM   10  C13 UNL     1     110.863  20.668  24.736  1.00  0.00     0.140 C 
BRANCH  10  11
HETATM   11  O4  UNL     1     111.723  20.565  23.601  1.00  0.00    -0.394 OA
ATOM     12  H4  UNL     1     112.483  21.128  23.685  1.00  0.00     0.210 HD
ENDBRANCH  10  11
ENDBRANCH   2   5
ENDBRANCH   1   2
BRANCH   1  13
HETATM   13  C2  UNL     1     107.997  22.481  21.928  1.00  0.00     0.015 C 
BRANCH  13  14
HETATM   14  C3  UNL     1     106.753  23.081  21.321  1.00  0.00     0.001 C 
BRANCH  14  15
HETATM   15  C4  UNL     1     106.700  22.910  19.821  1.00  0.00     0.007 C 
BRANCH  15  16
HETATM   16  C5  UNL     1     105.762  24.014  19.311  1.00  0.00     0.076 C 
BRANCH  16  17
HETATM   17  C6  UNL     1     106.481  25.036  18.544  1.00  0.00     0.072 A 
HETATM   18  N1  UNL     1     105.994  25.604  17.486  1.00  0.00    -0.378 N 
HETATM   19  C7  UNL     1     106.925  26.551  16.963  1.00  0.00     0.140 A 
ATOM     20  H1  UNL     1     105.078  25.403  17.086  1.00  0.00     0.160 HD
HETATM   21  C8  UNL     1     108.096  26.592  17.920  1.00  0.00     0.140 A 
HETATM   22  N2  UNL     1     107.762  25.526  18.840  1.00  0.00    -0.378 N 
ATOM     23  H2  UNL     1     108.364  25.183  19.588  1.00  0.00     0.160 HD
ENDBRANCH  16  17
ENDBRANCH  15  16
ENDBRANCH  14  15
ENDBRANCH  13  14
ENDBRANCH   1  13
TORSDOF 8
ENDMDL
