MODEL 1
REMARK VINA RESULT: -8.308140584      0.000      0.000
REMARK  6 active torsions:
REMARK  status: ('A' for Active; 'I' for Inactive)
REMARK    1  A    between atoms: C1_2  and  C2_3 
REMARK       I    between atoms: C1_2  and  N1_10 
REMARK    2  A    between atoms: C2_3  and  C3_4 
REMARK       I    between atoms: N1_10  and  C7_12 
REMARK       I    between atoms: C7_12  and  N2_14 
REMARK    3  A    between atoms: N2_14  and  C8_16 
REMARK    4  A    between atoms: C8_16  and  C9_17 
REMARK    5  A    between atoms: C9_17  and  C10_18 
REMARK    6  A    between atoms: C10_18  and  N3_19 
ROOT
HETATM    1  O1  UNL     1     108.898  24.390  20.463  1.00  0.00    -0.273 OA
HETATM    2  C1  UNL     1     107.894  24.002  20.113  1.00  0.00     0.228 C 
HETATM    3  N1  UNL     1     107.076  22.936  21.233  1.00  0.00    -0.279 N 
ATOM      4  H1  UNL     1     106.198  22.420  21.166  1.00  0.00     0.173 HD
HETATM    5  C7  UNL     1     108.040  23.030  22.263  1.00  0.00     0.322 C 
HETATM    6  O3  UNL     1     108.977  23.793  22.355  1.00  0.00    -0.247 OA
HETATM    7  N2  UNL     1     107.881  22.074  23.366  1.00  0.00    -0.343 N 
ATOM      8  H2  UNL     1     107.129  21.385  23.343  1.00  0.00     0.164 HD
ENDROOT
BRANCH   7   9
HETATM    9  C8  UNL     1     108.790  22.115  24.478  1.00  0.00     0.126 C 
BRANCH   9  10
HETATM   10  C9  UNL     1     110.141  21.565  24.165  1.00  0.00     0.040 C 
BRANCH  10  11
HETATM   11  C10 UNL     1     110.836  20.899  25.324  1.00  0.00     0.130 C 
BRANCH  11  12
HETATM   12  N3  UNL     1     110.283  19.590  25.528  1.00  0.00    -0.352 N 
HETATM   13  C11 UNL     1     109.643  19.078  26.607  1.00  0.00     0.108 A 
HETATM   14  C12 UNL     1     109.300  17.780  26.320  1.00  0.00     0.106 A 
HETATM   15  N4  UNL     1     109.726  17.505  25.082  1.00  0.00    -0.361 N 
HETATM   16  C13 UNL     1     110.323  18.598  24.594  1.00  0.00     0.182 A 
ATOM     17  H4  UNL     1     109.616  16.616  24.594  1.00  0.00     0.166 HD
ENDBRANCH  11  12
ENDBRANCH  10  11
ENDBRANCH   9  10
ENDBRANCH   7   9
BRANCH   2  18
HETATM   18  C2  UNL     1     107.052  24.132  18.963  1.00  0.00     0.146 C 
BRANCH  18  19
HETATM   19  C3  UNL     1     106.885  25.539  18.463  1.00  0.00     0.191 C 
HETATM   20  O2  UNL     1     108.128  25.925  17.966  1.00  0.00    -0.375 OA
HETATM   21  C4  UNL     1     108.203  27.232  17.583  1.00  0.00     0.170 C 
HETATM   22  C5  UNL     1     107.232  27.701  16.562  1.00  0.00     0.036 C 
HETATM   23  C6  UNL     1     106.513  26.613  15.803  1.00  0.00     0.078 C 
HETATM   24  S1  UNL     1     105.740  25.518  17.057  1.00  0.00    -0.137 SA
ENDBRANCH  18  19
ENDBRANCH   2  18
TORSDOF 6
ENDMDL
MODEL 2
REMARK VINA RESULT: -8.197730362      0.983      1.367
REMARK  6 active torsions:
REMARK  status: ('A' for Active; 'I' for Inactive)
REMARK    1  A    between atoms: C1_2  and  C2_3 
REMARK       I    between atoms: C1_2  and  N1_10 
REMARK    2  A    between atoms: C2_3  and  C3_4 
REMARK       I    between atoms: N1_10  and  C7_12 
REMARK       I    between atoms: C7_12  and  N2_14 
REMARK    3  A    between atoms: N2_14  and  C8_16 
REMARK    4  A    between atoms: C8_16  and  C9_17 
REMARK    5  A    between atoms: C9_17  and  C10_18 
REMARK    6  A    between atoms: C10_18  and  N3_19 
ROOT
HETATM    1  O1  UNL     1     108.980  24.444  20.381  1.00  0.00    -0.273 OA
HETATM    2  C1  UNL     1     107.966  24.042  20.076  1.00  0.00     0.228 C 
HETATM    3  N1  UNL     1     107.180  23.027  21.263  1.00  0.00    -0.279 N 
ATOM      4  H1  UNL     1     106.301  22.509  21.243  1.00  0.00     0.173 HD
HETATM    5  C7  UNL     1     108.173  23.164  22.260  1.00  0.00     0.322 C 
HETATM    6  O3  UNL     1     109.112  23.928  22.293  1.00  0.00    -0.247 OA
HETATM    7  N2  UNL     1     108.044  22.257  23.408  1.00  0.00    -0.343 N 
ATOM      8  H2  UNL     1     107.292  21.568  23.436  1.00  0.00     0.164 HD
ENDROOT
BRANCH   7   9
HETATM    9  C8  UNL     1     108.984  22.345  24.491  1.00  0.00     0.126 C 
BRANCH   9  10
HETATM   10  C9  UNL     1     108.718  21.374  25.593  1.00  0.00     0.040 C 
BRANCH  10  11
HETATM   11  C10 UNL     1     108.838  19.924  25.200  1.00  0.00     0.130 C 
BRANCH  11  12
HETATM   12  N3  UNL     1     110.195  19.637  24.831  1.00  0.00    -0.352 N 
HETATM   13  C11 UNL     1     111.341  19.824  25.530  1.00  0.00     0.108 A 
HETATM   14  C12 UNL     1     112.387  19.391  24.753  1.00  0.00     0.106 A 
HETATM   15  N4  UNL     1     111.883  18.944  23.596  1.00  0.00    -0.361 N 
HETATM   16  C13 UNL     1     110.554  19.089  23.636  1.00  0.00     0.182 A 
ATOM     17  H4  UNL     1     112.420  18.561  22.819  1.00  0.00     0.166 HD
ENDBRANCH  11  12
ENDBRANCH  10  11
ENDBRANCH   9  10
ENDBRANCH   7   9
BRANCH   2  18
HETATM   18  C2  UNL     1     107.093  24.124  18.945  1.00  0.00     0.146 C 
BRANCH  18  19
HETATM   19  C3  UNL     1     106.874  25.514  18.419  1.00  0.00     0.191 C 
HETATM   20  O2  UNL     1     108.096  25.926  17.890  1.00  0.00    -0.375 OA
HETATM   21  C4  UNL     1     108.124  27.226  17.479  1.00  0.00     0.170 C 
HETATM   22  C5  UNL     1     107.120  27.644  16.467  1.00  0.00     0.036 C 
HETATM   23  C6  UNL     1     106.420  26.519  15.745  1.00  0.00     0.078 C 
HETATM   24  S1  UNL     1     105.704  25.429  17.037  1.00  0.00    -0.137 SA
ENDBRANCH  18  19
ENDBRANCH   2  18
TORSDOF 6
ENDMDL
MODEL 3
REMARK VINA RESULT: -8.081068591      3.370      9.475
REMARK  6 active torsions:
REMARK  status: ('A' for Active; 'I' for Inactive)
REMARK    1  A    between atoms: C1_2  and  C2_3 
REMARK       I    between atoms: C1_2  and  N1_10 
REMARK    2  A    between atoms: C2_3  and  C3_4 
REMARK       I    between atoms: N1_10  and  C7_12 
REMARK       I    between atoms: C7_12  and  N2_14 
REMARK    3  A    between atoms: N2_14  and  C8_16 
REMARK    4  A    between atoms: C8_16  and  C9_17 
REMARK    5  A    between atoms: C9_17  and  C10_18 
REMARK    6  A    between atoms: C10_18  and  N3_19 
ROOT
HETATM    1  O1  UNL     1     109.193  23.717  23.185  1.00  0.00    -0.273 OA
HETATM    2  C1  UNL     1     108.476  22.841  23.223  1.00  0.00     0.228 C 
HETATM    3  N1  UNL     1     107.505  22.609  21.786  1.00  0.00    -0.279 N 
ATOM      4  H1  UNL     1     106.767  21.942  21.562  1.00  0.00     0.173 HD
HETATM    5  C7  UNL     1     108.088  23.659  21.040  1.00  0.00     0.322 C 
HETATM    6  O3  UNL     1     109.079  24.308  21.293  1.00  0.00    -0.247 OA
HETATM    7  N2  UNL     1     107.397  24.004  19.791  1.00  0.00    -0.343 N 
ATOM      8  H2  UNL     1     106.542  23.516  19.526  1.00  0.00     0.164 HD
ENDROOT
BRANCH   7   9
HETATM    9  C8  UNL     1     107.934  25.033  18.943  1.00  0.00     0.126 C 
BRANCH   9  10
HETATM   10  C9  UNL     1     106.890  25.813  18.217  1.00  0.00     0.040 C 
BRANCH  10  11
HETATM   11  C10 UNL     1     107.395  26.593  17.031  1.00  0.00     0.130 C 
BRANCH  11  12
HETATM   12  N3  UNL     1     107.893  27.866  17.469  1.00  0.00    -0.352 N 
HETATM   13  C11 UNL     1     107.222  29.012  17.741  1.00  0.00     0.108 A 
HETATM   14  C12 UNL     1     108.139  29.958  18.128  1.00  0.00     0.106 A 
HETATM   15  N4  UNL     1     109.352  29.395  18.093  1.00  0.00    -0.361 N 
HETATM   16  C13 UNL     1     109.212  28.126  17.695  1.00  0.00     0.182 A 
ATOM     17  H4  UNL     1     110.232  29.853  18.328  1.00  0.00     0.166 HD
ENDBRANCH  11  12
ENDBRANCH  10  11
ENDBRANCH   9  10
ENDBRANCH   7   9
BRANCH   2  18
HETATM   18  C2  UNL     1     108.109  21.814  24.150  1.00  0.00     0.146 C 
BRANCH  18  19
HETATM   19  C3  UNL     1     109.267  21.070  24.754  1.00  0.00     0.191 C 
HETATM   20  O2  UNL     1     108.751  20.359  25.835  1.00  0.00    -0.375 OA
HETATM   21  C4  UNL     1     109.689  19.721  26.591  1.00  0.00     0.170 C 
HETATM   22  C5  UNL     1     110.579  18.752  25.900  1.00  0.00     0.036 C 
HETATM   23  C6  UNL     1     110.122  18.316  24.529  1.00  0.00     0.078 C 
HETATM   24  S1  UNL     1     109.854  19.846  23.551  1.00  0.00    -0.137 SA
ENDBRANCH  18  19
ENDBRANCH   2  18
TORSDOF 6
ENDMDL
MODEL 4
REMARK VINA RESULT: -8.060897312      3.374      9.274
REMARK  6 active torsions:
REMARK  status: ('A' for Active; 'I' for Inactive)
REMARK    1  A    between atoms: C1_2  and  C2_3 
REMARK       I    between atoms: C1_2  and  N1_10 
REMARK    2  A    between atoms: C2_3  and  C3_4 
REMARK       I    between atoms: N1_10  and  C7_12 
REMARK       I    between atoms: C7_12  and  N2_14 
REMARK    3  A    between atoms: N2_14  and  C8_16 
REMARK    4  A    between atoms: C8_16  and  C9_17 
REMARK    5  A    between atoms: C9_17  and  C10_18 
REMARK    6  A    between atoms: C10_18  and  N3_19 
ROOT
HETATM    1  O1  UNL     1     109.200  23.791  23.023  1.00  0.00    -0.273 OA
HETATM    2  C1  UNL     1     108.561  22.862  23.131  1.00  0.00     0.228 C 
HETATM    3  N1  UNL     1     107.503  22.525  21.780  1.00  0.00    -0.279 N 
ATOM      4  H1  UNL     1     106.805  21.797  21.626  1.00  0.00     0.173 HD
HETATM    5  C7  UNL     1     107.938  23.601  20.974  1.00  0.00     0.322 C 
HETATM    6  O3  UNL     1     108.890  24.332  21.138  1.00  0.00    -0.247 OA
HETATM    7  N2  UNL     1     107.126  23.865  19.780  1.00  0.00    -0.343 N 
ATOM      8  H2  UNL     1     106.294  23.306  19.591  1.00  0.00     0.164 HD
ENDROOT
BRANCH   7   9
HETATM    9  C8  UNL     1     107.510  24.915  18.877  1.00  0.00     0.126 C 
BRANCH   9  10
HETATM   10  C9  UNL     1     106.365  25.495  18.115  1.00  0.00     0.040 C 
BRANCH  10  11
HETATM   11  C10 UNL     1     106.759  26.334  16.926  1.00  0.00     0.130 C 
BRANCH  11  12
HETATM   12  N3  UNL     1     107.621  27.399  17.353  1.00  0.00    -0.352 N 
HETATM   13  C11 UNL     1     108.966  27.523  17.241  1.00  0.00     0.108 A 
HETATM   14  C12 UNL     1     109.329  28.724  17.799  1.00  0.00     0.106 A 
HETATM   15  N4  UNL     1     108.218  29.324  18.245  1.00  0.00    -0.361 N 
HETATM   16  C13 UNL     1     107.178  28.527  17.977  1.00  0.00     0.182 A 
ATOM     17  H4  UNL     1     108.173  30.231  18.708  1.00  0.00     0.166 HD
ENDBRANCH  11  12
ENDBRANCH  10  11
ENDBRANCH   9  10
ENDBRANCH   7   9
BRANCH   2  18
HETATM   18  C2  UNL     1     108.353  21.829  24.099  1.00  0.00     0.146 C 
BRANCH  18  19
HETATM   19  C3  UNL     1     109.314  20.678  24.006  1.00  0.00     0.191 C 
HETATM   20  O2  UNL     1     110.587  21.220  24.174  1.00  0.00    -0.375 OA
HETATM   21  C4  UNL     1     111.607  20.334  23.989  1.00  0.00     0.170 C 
HETATM   22  C5  UNL     1     111.610  19.110  24.831  1.00  0.00     0.036 C 
HETATM   23  C6  UNL     1     110.699  19.148  26.033  1.00  0.00     0.078 C 
HETATM   24  S1  UNL     1     109.024  19.571  25.413  1.00  0.00    -0.137 SA
ENDBRANCH  18  19
ENDBRANCH   2  18
TORSDOF 6
ENDMDL
MODEL 5
REMARK VINA RESULT: -8.037749935      3.860      8.040
REMARK  6 active torsions:
REMARK  status: ('A' for Active; 'I' for Inactive)
REMARK    1  A    between atoms: C1_2  and  C2_3 
REMARK       I    between atoms: C1_2  and  N1_10 
REMARK    2  A    between atoms: C2_3  and  C3_4 
REMARK       I    between atoms: N1_10  and  C7_12 
REMARK       I    between atoms: C7_12  and  N2_14 
REMARK    3  A    between atoms: N2_14  and  C8_16 
REMARK    4  A    between atoms: C8_16  and  C9_17 
REMARK    5  A    between atoms: C9_17  and  C10_18 
REMARK    6  A    between atoms: C10_18  and  N3_19 
ROOT
HETATM    1  O1  UNL     1     109.264  24.024  22.591  1.00  0.00    -0.273 OA
HETATM    2  C1  UNL     1     109.003  23.131  23.239  1.00  0.00     0.228 C 
HETATM    3  N1  UNL     1     107.537  22.290  22.791  1.00  0.00    -0.279 N 
ATOM      4  H1  UNL     1     107.051  21.497  23.210  1.00  0.00     0.173 HD
HETATM    5  C7  UNL     1     107.251  23.079  21.653  1.00  0.00     0.322 C 
HETATM    6  O3  UNL     1     107.954  23.898  21.105  1.00  0.00    -0.247 OA
HETATM    7  N2  UNL     1     105.923  22.874  21.061  1.00  0.00    -0.343 N 
ATOM      8  H2  UNL     1     105.267  22.218  21.485  1.00  0.00     0.164 HD
ENDROOT
BRANCH   7   9
HETATM    9  C8  UNL     1     105.553  23.603  19.879  1.00  0.00     0.126 C 
BRANCH   9  10
HETATM   10  C9  UNL     1     104.201  23.247  19.357  1.00  0.00     0.040 C 
BRANCH  10  11
HETATM   11  C10 UNL     1     103.823  21.797  19.520  1.00  0.00     0.130 C 
BRANCH  11  12
HETATM   12  N3  UNL     1     103.127  21.618  20.763  1.00  0.00    -0.352 N 
HETATM   13  C11 UNL     1     103.208  20.607  21.662  1.00  0.00     0.108 A 
HETATM   14  C12 UNL     1     102.348  20.889  22.695  1.00  0.00     0.106 A 
HETATM   15  N4  UNL     1     101.751  22.057  22.426  1.00  0.00    -0.361 N 
HETATM   16  C13 UNL     1     102.219  22.505  21.257  1.00  0.00     0.182 A 
ATOM     17  H4  UNL     1     101.059  22.524  23.012  1.00  0.00     0.166 HD
ENDBRANCH  11  12
ENDBRANCH  10  11
ENDBRANCH   9  10
ENDBRANCH   7   9
BRANCH   2  18
HETATM   18  C2  UNL     1     109.549  22.454  24.375  1.00  0.00     0.146 C 
BRANCH  18  19
HETATM   19  C3  UNL     1     109.996  21.044  24.112  1.00  0.00     0.191 C 
HETATM   20  O2  UNL     1     111.299  20.952  24.596  1.00  0.00    -0.375 OA
HETATM   21  C4  UNL     1     111.921  19.769  24.324  1.00  0.00     0.170 C 
HETATM   22  C5  UNL     1     111.259  18.525  24.797  1.00  0.00     0.036 C 
HETATM   23  C6  UNL     1     110.172  18.720  25.825  1.00  0.00     0.078 C 
HETATM   24  S1  UNL     1     108.982  19.922  25.113  1.00  0.00    -0.137 SA
ENDBRANCH  18  19
ENDBRANCH   2  18
TORSDOF 6
ENDMDL
