MODEL 1
REMARK VINA RESULT: -8.202002905      0.000      0.000
REMARK  9 active torsions:
REMARK  status: ('A' for Active; 'I' for Inactive)
REMARK    1  A    between atoms: C2_2  and  C3_3 
REMARK    2  A    between atoms: C3_3  and  O1_4 
REMARK    3  A    between atoms: O1_4  and  C4_5 
REMARK       I    between atoms: C4_5  and  N1_7 
REMARK    4  A    between atoms: N1_7  and  C5_9 
REMARK    5  A    between atoms: C5_9  and  C6_10 
REMARK    6  A    between atoms: C5_9  and  C7_13 
REMARK    7  A    between atoms: C7_13  and  O5_15 
REMARK    8  A    between atoms: O5_15  and  C9_16 
REMARK    9  A    between atoms: C9_16  and  C10_18 
ROOT
HETATM    1  C5  UNL     1     106.897  23.625  20.462  1.00  0.00     0.216 C 
ENDROOT
BRANCH   1   2
HETATM    2  N1  UNL     1     107.103  22.604  21.468  1.00  0.00    -0.320 N 
HETATM    3  C4  UNL     1     108.091  22.799  22.500  1.00  0.00     0.361 C 
HETATM    4  O2  UNL     1     108.752  23.870  22.490  1.00  0.00    -0.238 OA
ATOM      5  H1  UNL     1     106.550  21.747  21.446  1.00  0.00     0.165 HD
BRANCH   3   6
HETATM    6  O1  UNL     1     108.281  21.817  23.456  1.00  0.00    -0.300 OA
BRANCH   6   7
HETATM    7  C3  UNL     1     109.564  21.394  23.802  1.00  0.00     0.207 C 
BRANCH   7   8
HETATM    8  C2  UNL     1     109.727  19.950  23.509  1.00  0.00    -0.011 C 
HETATM    9  C1  UNL     1     109.701  19.076  24.532  1.00  0.00     0.009 C 
ENDBRANCH   7   8
ENDBRANCH   6   7
ENDBRANCH   3   6
ENDBRANCH   1   2
BRANCH   1  10
HETATM   10  C6  UNL     1     107.964  23.484  19.443  1.00  0.00     0.199 C 
HETATM   11  O3  UNL     1     108.924  24.310  19.367  1.00  0.00    -0.646 OA
HETATM   12  O4  UNL     1     107.933  22.430  18.540  1.00  0.00    -0.646 OA
ENDBRANCH   1  10
BRANCH   1  13
HETATM   13  C7  UNL     1     105.563  23.333  19.814  1.00  0.00     0.161 C 
HETATM   14  C8  UNL     1     105.254  24.383  18.791  1.00  0.00     0.043 C 
BRANCH  13  15
HETATM   15  O5  UNL     1     104.535  23.181  20.772  1.00  0.00    -0.313 OA
BRANCH  15  16
HETATM   16  C9  UNL     1     103.635  22.149  20.785  1.00  0.00     0.263 C 
HETATM   17  O6  UNL     1     103.814  21.212  21.604  1.00  0.00    -0.265 OA
BRANCH  16  18
HETATM   18  C10 UNL     1     102.481  22.106  19.879  1.00  0.00     0.085 C 
HETATM   19  C11 UNL     1     102.068  20.724  19.478  1.00  0.00     0.014 C 
HETATM   20  C12 UNL     1     100.694  20.959  18.876  1.00  0.00     0.001 C 
HETATM   21  C13 UNL     1     100.181  22.245  19.491  1.00  0.00     0.001 C 
HETATM   22  C14 UNL     1     101.206  22.611  20.569  1.00  0.00     0.014 C 
ENDBRANCH  16  18
ENDBRANCH  15  16
ENDBRANCH  13  15
ENDBRANCH   1  13
TORSDOF 9
ENDMDL
MODEL 2
REMARK VINA RESULT: -7.957824031      1.488      6.635
REMARK  9 active torsions:
REMARK  status: ('A' for Active; 'I' for Inactive)
REMARK    1  A    between atoms: C2_2  and  C3_3 
REMARK    2  A    between atoms: C3_3  and  O1_4 
REMARK    3  A    between atoms: O1_4  and  C4_5 
REMARK       I    between atoms: C4_5  and  N1_7 
REMARK    4  A    between atoms: N1_7  and  C5_9 
REMARK    5  A    between atoms: C5_9  and  C6_10 
REMARK    6  A    between atoms: C5_9  and  C7_13 
REMARK    7  A    between atoms: C7_13  and  O5_15 
REMARK    8  A    between atoms: O5_15  and  C9_16 
REMARK    9  A    between atoms: C9_16  and  C10_18 
ROOT
HETATM    1  C5  UNL     1     107.272  22.778  20.916  1.00  0.00     0.216 C 
ENDROOT
BRANCH   1   2
HETATM    2  N1  UNL     1     105.887  23.091  21.200  1.00  0.00    -0.320 N 
HETATM    3  C4  UNL     1     104.835  22.426  20.472  1.00  0.00     0.361 C 
HETATM    4  O2  UNL     1     105.163  21.581  19.599  1.00  0.00    -0.238 OA
ATOM      5  H1  UNL     1     105.655  23.782  21.913  1.00  0.00     0.165 HD
BRANCH   3   6
HETATM    6  O1  UNL     1     103.515  22.732  20.750  1.00  0.00    -0.300 OA
BRANCH   6   7
HETATM    7  C3  UNL     1     102.483  21.880  20.351  1.00  0.00     0.207 C 
BRANCH   7   8
HETATM    8  C2  UNL     1     102.419  20.697  21.243  1.00  0.00    -0.011 C 
HETATM    9  C1  UNL     1     102.387  20.892  22.573  1.00  0.00     0.009 C 
ENDBRANCH   7   8
ENDBRANCH   6   7
ENDBRANCH   3   6
ENDBRANCH   1   2
BRANCH   1  10
HETATM   10  C6  UNL     1     107.777  23.782  19.949  1.00  0.00     0.199 C 
HETATM   11  O3  UNL     1     108.813  23.567  19.249  1.00  0.00    -0.646 OA
HETATM   12  O4  UNL     1     107.117  24.992  19.788  1.00  0.00    -0.646 OA
ENDBRANCH   1  10
BRANCH   1  13
HETATM   13  C7  UNL     1     108.027  22.932  22.216  1.00  0.00     0.161 C 
HETATM   14  C8  UNL     1     109.184  23.864  22.025  1.00  0.00     0.043 C 
BRANCH  13  15
HETATM   15  O5  UNL     1     108.412  21.682  22.752  1.00  0.00    -0.313 OA
BRANCH  15  16
HETATM   16  C9  UNL     1     108.563  21.426  24.089  1.00  0.00     0.263 C 
HETATM   17  O6  UNL     1     107.906  22.119  24.906  1.00  0.00    -0.265 OA
BRANCH  16  18
HETATM   18  C10 UNL     1     109.459  20.375  24.587  1.00  0.00     0.085 C 
HETATM   19  C11 UNL     1     108.796  19.382  25.489  1.00  0.00     0.014 C 
HETATM   20  C12 UNL     1     109.819  18.262  25.545  1.00  0.00     0.001 C 
HETATM   21  C13 UNL     1     110.647  18.387  24.281  1.00  0.00     0.001 C 
HETATM   22  C14 UNL     1     109.949  19.469  23.450  1.00  0.00     0.014 C 
ENDBRANCH  16  18
ENDBRANCH  15  16
ENDBRANCH  13  15
ENDBRANCH   1  13
TORSDOF 9
ENDMDL
MODEL 3
REMARK VINA RESULT: -7.219471259      1.332      1.749
REMARK  9 active torsions:
REMARK  status: ('A' for Active; 'I' for Inactive)
REMARK    1  A    between atoms: C2_2  and  C3_3 
REMARK    2  A    between atoms: C3_3  and  O1_4 
REMARK    3  A    between atoms: O1_4  and  C4_5 
REMARK       I    between atoms: C4_5  and  N1_7 
REMARK    4  A    between atoms: N1_7  and  C5_9 
REMARK    5  A    between atoms: C5_9  and  C6_10 
REMARK    6  A    between atoms: C5_9  and  C7_13 
REMARK    7  A    between atoms: C7_13  and  O5_15 
REMARK    8  A    between atoms: O5_15  and  C9_16 
REMARK    9  A    between atoms: C9_16  and  C10_18 
ROOT
HETATM    1  C5  UNL     1     106.895  23.920  20.272  1.00  0.00     0.216 C 
ENDROOT
BRANCH   1   2
HETATM    2  N1  UNL     1     106.973  22.853  21.249  1.00  0.00    -0.320 N 
HETATM    3  C4  UNL     1     107.961  22.909  22.298  1.00  0.00     0.361 C 
HETATM    4  O2  UNL     1     108.735  23.900  22.329  1.00  0.00    -0.238 OA
ATOM      5  H1  UNL     1     106.331  22.064  21.194  1.00  0.00     0.165 HD
BRANCH   3   6
HETATM    6  O1  UNL     1     108.027  21.885  23.226  1.00  0.00    -0.300 OA
BRANCH   6   7
HETATM    7  C3  UNL     1     109.224  21.587  23.878  1.00  0.00     0.207 C 
BRANCH   7   8
HETATM    8  C2  UNL     1     109.269  20.149  24.239  1.00  0.00    -0.011 C 
HETATM    9  C1  UNL     1     110.037  19.323  23.505  1.00  0.00     0.009 C 
ENDBRANCH   7   8
ENDBRANCH   6   7
ENDBRANCH   3   6
ENDBRANCH   1   2
BRANCH   1  10
HETATM   10  C6  UNL     1     108.081  23.817  19.388  1.00  0.00     0.199 C 
HETATM   11  O3  UNL     1     108.940  24.747  19.317  1.00  0.00    -0.646 OA
HETATM   12  O4  UNL     1     108.277  22.683  18.611  1.00  0.00    -0.646 OA
ENDBRANCH   1  10
BRANCH   1  13
HETATM   13  C7  UNL     1     105.653  23.667  19.451  1.00  0.00     0.161 C 
HETATM   14  C8  UNL     1     105.526  24.711  18.385  1.00  0.00     0.043 C 
BRANCH  13  15
HETATM   15  O5  UNL     1     104.498  23.568  20.261  1.00  0.00    -0.313 OA
BRANCH  15  16
HETATM   16  C9  UNL     1     103.385  22.838  19.937  1.00  0.00     0.263 C 
HETATM   17  O6  UNL     1     102.761  23.136  18.887  1.00  0.00    -0.265 OA
BRANCH  16  18
HETATM   18  C10 UNL     1     102.907  21.730  20.773  1.00  0.00     0.085 C 
HETATM   19  C11 UNL     1     103.977  21.066  21.582  1.00  0.00     0.014 C 
HETATM   20  C12 UNL     1     103.171  20.250  22.577  1.00  0.00     0.001 C 
HETATM   21  C13 UNL     1     101.820  20.930  22.681  1.00  0.00     0.001 C 
HETATM   22  C14 UNL     1     101.961  22.226  21.875  1.00  0.00     0.014 C 
ENDBRANCH  16  18
ENDBRANCH  15  16
ENDBRANCH  13  15
ENDBRANCH   1  13
TORSDOF 9
ENDMDL
MODEL 4
REMARK VINA RESULT: -7.070974995      1.556      7.105
REMARK  9 active torsions:
REMARK  status: ('A' for Active; 'I' for Inactive)
REMARK    1  A    between atoms: C2_2  and  C3_3 
REMARK    2  A    between atoms: C3_3  and  O1_4 
REMARK    3  A    between atoms: O1_4  and  C4_5 
REMARK       I    between atoms: C4_5  and  N1_7 
REMARK    4  A    between atoms: N1_7  and  C5_9 
REMARK    5  A    between atoms: C5_9  and  C6_10 
REMARK    6  A    between atoms: C5_9  and  C7_13 
REMARK    7  A    between atoms: C7_13  and  O5_15 
REMARK    8  A    between atoms: O5_15  and  C9_16 
REMARK    9  A    between atoms: C9_16  and  C10_18 
ROOT
HETATM    1  C5  UNL     1     108.253  22.490  21.887  1.00  0.00     0.216 C 
ENDROOT
BRANCH   1   2
HETATM    2  N1  UNL     1     106.839  22.787  21.779  1.00  0.00    -0.320 N 
HETATM    3  C4  UNL     1     106.186  22.719  20.495  1.00  0.00     0.361 C 
HETATM    4  O2  UNL     1     106.880  22.399  19.495  1.00  0.00    -0.238 OA
ATOM      5  H1  UNL     1     106.307  23.044  22.609  1.00  0.00     0.165 HD
BRANCH   3   6
HETATM    6  O1  UNL     1     104.836  23.005  20.401  1.00  0.00    -0.300 OA
BRANCH   6   7
HETATM    7  C3  UNL     1     103.880  22.116  20.896  1.00  0.00     0.207 C 
BRANCH   7   8
HETATM    8  C2  UNL     1     103.696  20.984  19.956  1.00  0.00    -0.011 C 
HETATM    9  C1  UNL     1     102.453  20.691  19.534  1.00  0.00     0.009 C 
ENDBRANCH   7   8
ENDBRANCH   6   7
ENDBRANCH   3   6
ENDBRANCH   1   2
BRANCH   1  10
HETATM   10  C6  UNL     1     108.981  23.775  22.007  1.00  0.00     0.199 C 
HETATM   11  O3  UNL     1     109.281  24.266  23.138  1.00  0.00    -0.646 OA
HETATM   12  O4  UNL     1     109.355  24.476  20.869  1.00  0.00    -0.646 OA
ENDBRANCH   1  10
BRANCH   1  13
HETATM   13  C7  UNL     1     108.435  21.706  23.167  1.00  0.00     0.161 C 
HETATM   14  C8  UNL     1     107.528  22.249  24.228  1.00  0.00     0.043 C 
BRANCH  13  15
HETATM   15  O5  UNL     1     109.789  21.666  23.571  1.00  0.00    -0.313 OA
BRANCH  15  16
HETATM   16  C9  UNL     1     110.440  20.534  23.985  1.00  0.00     0.263 C 
HETATM   17  O6  UNL     1     111.686  20.473  23.828  1.00  0.00    -0.265 OA
BRANCH  16  18
HETATM   18  C10 UNL     1     109.732  19.405  24.599  1.00  0.00     0.085 C 
HETATM   19  C11 UNL     1     110.435  18.091  24.458  1.00  0.00     0.014 C 
HETATM   20  C12 UNL     1     109.698  17.221  25.460  1.00  0.00     0.001 C 
HETATM   21  C13 UNL     1     109.097  18.169  26.478  1.00  0.00     0.001 C 
HETATM   22  C14 UNL     1     109.666  19.548  26.126  1.00  0.00     0.014 C 
ENDBRANCH  16  18
ENDBRANCH  15  16
ENDBRANCH  13  15
ENDBRANCH   1  13
TORSDOF 9
ENDMDL
MODEL 5
REMARK VINA RESULT: -6.962209464      2.206      7.785
REMARK  9 active torsions:
REMARK  status: ('A' for Active; 'I' for Inactive)
REMARK    1  A    between atoms: C2_2  and  C3_3 
REMARK    2  A    between atoms: C3_3  and  O1_4 
REMARK    3  A    between atoms: O1_4  and  C4_5 
REMARK       I    between atoms: C4_5  and  N1_7 
REMARK    4  A    between atoms: N1_7  and  C5_9 
REMARK    5  A    between atoms: C5_9  and  C6_10 
REMARK    6  A    between atoms: C5_9  and  C7_13 
REMARK    7  A    between atoms: C7_13  and  O5_15 
REMARK    8  A    between atoms: O5_15  and  C9_16 
REMARK    9  A    between atoms: C9_16  and  C10_18 
ROOT
HETATM    1  C5  UNL     1     108.872  22.390  23.823  1.00  0.00     0.216 C 
ENDROOT
BRANCH   1   2
HETATM    2  N1  UNL     1     108.064  22.275  22.627  1.00  0.00    -0.320 N 
HETATM    3  C4  UNL     1     108.146  23.287  21.603  1.00  0.00     0.361 C 
HETATM    4  O2  UNL     1     108.931  24.253  21.788  1.00  0.00    -0.238 OA
ATOM      5  H1  UNL     1     107.437  21.480  22.509  1.00  0.00     0.165 HD
BRANCH   3   6
HETATM    6  O1  UNL     1     107.370  23.169  20.464  1.00  0.00    -0.300 OA
BRANCH   6   7
HETATM    7  C3  UNL     1     106.041  23.594  20.456  1.00  0.00     0.207 C 
BRANCH   7   8
HETATM    8  C2  UNL     1     105.152  22.496  20.005  1.00  0.00    -0.011 C 
HETATM    9  C1  UNL     1     103.842  22.753  19.838  1.00  0.00     0.009 C 
ENDBRANCH   7   8
ENDBRANCH   6   7
ENDBRANCH   3   6
ENDBRANCH   1   2
BRANCH   1  10
HETATM   10  C6  UNL     1     108.051  21.942  24.973  1.00  0.00     0.199 C 
HETATM   11  O3  UNL     1     108.240  22.396  26.142  1.00  0.00    -0.646 OA
HETATM   12  O4  UNL     1     107.044  21.003  24.790  1.00  0.00    -0.646 OA
ENDBRANCH   1  10
BRANCH   1  13
HETATM   13  C7  UNL     1     110.034  21.439  23.655  1.00  0.00     0.161 C 
HETATM   14  C8  UNL     1     109.558  20.156  23.047  1.00  0.00     0.043 C 
BRANCH  13  15
HETATM   15  O5  UNL     1     110.734  21.245  24.868  1.00  0.00    -0.313 OA
BRANCH  15  16
HETATM   16  C9  UNL     1     111.474  20.131  25.165  1.00  0.00     0.263 C 
HETATM   17  O6  UNL     1     112.693  20.126  24.857  1.00  0.00    -0.265 OA
BRANCH  16  18
HETATM   18  C10 UNL     1     110.890  18.957  25.825  1.00  0.00     0.085 C 
HETATM   19  C11 UNL     1     109.662  19.253  26.627  1.00  0.00     0.014 C 
HETATM   20  C12 UNL     1     109.093  17.867  26.872  1.00  0.00     0.001 C 
HETATM   21  C13 UNL     1     109.629  16.991  25.757  1.00  0.00     0.001 C 
HETATM   22  C14 UNL     1     110.345  17.952  24.801  1.00  0.00     0.014 C 
ENDBRANCH  16  18
ENDBRANCH  15  16
ENDBRANCH  13  15
ENDBRANCH   1  13
TORSDOF 9
ENDMDL
