MODEL 1
REMARK VINA RESULT: -9.834331948      0.000      0.000
REMARK  10 active torsions:
REMARK  status: ('A' for Active; 'I' for Inactive)
REMARK    1  A    between atoms: C2_2  and  C3_3 
REMARK    2  A    between atoms: C3_3  and  C4_4 
REMARK    3  A    between atoms: C5_5  and  C6_6 
REMARK    4  A    between atoms: C6_6  and  C7_7 
REMARK    5  A    between atoms: C9_14  and  C10_15 
REMARK    6  A    between atoms: C10_15  and  C11_16 
REMARK    7  A    between atoms: C11_16  and  C12_17 
REMARK    8  A    between atoms: C20_25  and  C21_26 
REMARK    9  A    between atoms: C21_26  and  N2_27 
REMARK       I    between atoms: N2_27  and  C22_29 
REMARK   10  A    between atoms: C22_29  and  C23_31 
ROOT
HETATM    1  C12 UNL     1      -7.240  16.871  27.130  1.00  0.00     0.079 C 
HETATM    2  C13 UNL     1      -7.588  15.989  28.277  1.00  0.00     0.021 C 
HETATM    3  C14 UNL     1      -8.418  16.736  29.306  1.00  0.00     0.014 C 
HETATM    4  C15 UNL     1      -9.717  17.209  28.745  1.00  0.00     0.089 C 
HETATM    5  C16 UNL     1     -10.507  17.882  29.825  1.00  0.00     0.026 C 
HETATM    6  C17 UNL     1     -10.787  16.941  30.946  1.00  0.00     0.012 C 
HETATM    7  C18 UNL     1     -10.010  15.672  30.914  1.00  0.00    -0.035 C 
HETATM    8  C19 UNL     1     -10.643  14.560  30.125  1.00  0.00     0.016 C 
HETATM    9  C20 UNL     1      -9.828  15.180  32.354  1.00  0.00     0.012 C 
HETATM   10  C26 UNL     1      -8.860  16.186  32.919  1.00  0.00     0.007 C 
HETATM   11  C27 UNL     1      -7.958  16.539  31.756  1.00  0.00     0.006 C 
HETATM   12  C28 UNL     1      -8.558  15.888  30.532  1.00  0.00     0.000 C 
HETATM   13  N3  UNL     1      -9.400  18.155  27.660  1.00  0.00    -0.356 N 
ATOM     14  H3  UNL     1      -9.880  19.050  27.574  1.00  0.00     0.162 HD
HETATM   15  C29 UNL     1      -8.393  17.757  26.743  1.00  0.00     0.222 C 
HETATM   16  O5  UNL     1      -8.442  18.147  25.555  1.00  0.00    -0.273 OA
ENDROOT
BRANCH   1  17
HETATM   17  C11 UNL     1      -6.076  17.798  27.374  1.00  0.00     0.021 C 
BRANCH  17  18
HETATM   18  C10 UNL     1      -5.013  17.701  26.315  1.00  0.00     0.079 C 
BRANCH  18  19
HETATM   19  C9  UNL     1      -5.502  18.269  25.028  1.00  0.00     0.099 C 
HETATM   20  N1  UNL     1      -5.706  19.546  24.890  1.00  0.00    -0.255 N 
HETATM   21  O3  UNL     1      -6.164  20.058  23.680  1.00  0.00    -0.275 OA
ATOM     22  H1  UNL     1      -5.530  20.176  25.673  1.00  0.00     0.195 HD
HETATM   23  C8  UNL     1      -5.605  19.461  22.512  1.00  0.00     0.257 C 
HETATM   24  C6  UNL     1      -5.879  17.973  22.580  1.00  0.00     0.208 C 
HETATM   25  N4  UNL     1      -5.766  17.449  23.901  1.00  0.00    -0.348 N 
ATOM     26  H4  UNL     1      -5.881  16.446  24.041  1.00  0.00     0.163 HD
BRANCH  24  27
HETATM   27  C5  UNL     1      -7.258  17.687  22.118  1.00  0.00    -0.061 C 
HETATM   28  C4  UNL     1      -8.383  17.443  21.760  1.00  0.00    -0.103 C 
BRANCH  28  29
HETATM   29  C3  UNL     1      -9.744  17.130  21.322  1.00  0.00     0.093 C 
BRANCH  29  30
HETATM   30  C2  UNL     1     -10.316  15.963  22.134  1.00  0.00     0.007 C 
HETATM   31  C1  UNL     1     -10.495  16.377  23.557  1.00  0.00     0.006 C 
ENDBRANCH  29  30
ENDBRANCH  28  29
ENDBRANCH  24  27
BRANCH  24  32
HETATM   32  C7  UNL     1      -4.922  17.306  21.641  1.00  0.00     0.218 C 
HETATM   33  O1  UNL     1      -3.717  17.619  21.715  1.00  0.00    -0.645 OA
HETATM   34  O2  UNL     1      -5.313  16.376  20.717  1.00  0.00    -0.645 OA
ENDBRANCH  24  32
ENDBRANCH  18  19
ENDBRANCH  17  18
ENDBRANCH   1  17
BRANCH   9  35
HETATM   35  C21 UNL     1     -11.109  15.140  33.112  1.00  0.00     0.128 C 
BRANCH  35  36
HETATM   36  N2  UNL     1     -11.285  13.925  33.859  1.00  0.00    -0.360 N 
HETATM   37  C22 UNL     1     -12.533  13.322  34.100  1.00  0.00     0.221 C 
HETATM   38  O4  UNL     1     -13.601  13.829  33.669  1.00  0.00    -0.273 OA
ATOM     39  H2  UNL     1     -10.454  13.471  34.238  1.00  0.00     0.162 HD
BRANCH  37  40
HETATM   40  C23 UNL     1     -12.659  12.048  34.883  1.00  0.00     0.070 C 
HETATM   41  C24 UNL     1     -11.971  12.180  36.225  1.00  0.00     0.019 C 
HETATM   42  C25 UNL     1     -14.120  11.676  35.048  1.00  0.00     0.019 C 
ENDBRANCH  37  40
ENDBRANCH  35  36
ENDBRANCH   9  35
TORSDOF 10
ENDMDL
MODEL 2
REMARK VINA RESULT: -9.745100143      3.121     10.081
REMARK  10 active torsions:
REMARK  status: ('A' for Active; 'I' for Inactive)
REMARK    1  A    between atoms: C2_2  and  C3_3 
REMARK    2  A    between atoms: C3_3  and  C4_4 
REMARK    3  A    between atoms: C5_5  and  C6_6 
REMARK    4  A    between atoms: C6_6  and  C7_7 
REMARK    5  A    between atoms: C9_14  and  C10_15 
REMARK    6  A    between atoms: C10_15  and  C11_16 
REMARK    7  A    between atoms: C11_16  and  C12_17 
REMARK    8  A    between atoms: C20_25  and  C21_26 
REMARK    9  A    between atoms: C21_26  and  N2_27 
REMARK       I    between atoms: N2_27  and  C22_29 
REMARK   10  A    between atoms: C22_29  and  C23_31 
ROOT
HETATM    1  C12 UNL     1      -8.316  15.932  30.242  1.00  0.00     0.079 C 
HETATM    2  C13 UNL     1      -8.044  15.592  28.819  1.00  0.00     0.021 C 
HETATM    3  C14 UNL     1      -8.985  16.339  27.891  1.00  0.00     0.014 C 
HETATM    4  C15 UNL     1      -8.823  17.819  27.996  1.00  0.00     0.089 C 
HETATM    5  C16 UNL     1      -9.736  18.488  27.015  1.00  0.00     0.026 C 
HETATM    6  C17 UNL     1      -9.417  18.072  25.621  1.00  0.00     0.012 C 
HETATM    7  C18 UNL     1      -8.501  16.904  25.504  1.00  0.00    -0.035 C 
HETATM    8  C19 UNL     1      -7.036  17.244  25.495  1.00  0.00     0.016 C 
HETATM    9  C20 UNL     1      -8.820  16.169  24.197  1.00  0.00     0.012 C 
HETATM   10  C26 UNL     1     -10.161  15.553  24.492  1.00  0.00     0.007 C 
HETATM   11  C27 UNL     1     -10.103  15.203  25.963  1.00  0.00     0.006 C 
HETATM   12  C28 UNL     1      -8.827  15.808  26.499  1.00  0.00     0.000 C 
HETATM   13  N3  UNL     1      -9.173  18.194  29.378  1.00  0.00    -0.356 N 
ATOM     14  H3  UNL     1      -9.782  18.986  29.579  1.00  0.00     0.162 HD
HETATM   15  C29 UNL     1      -8.621  17.396  30.413  1.00  0.00     0.222 C 
HETATM   16  O5  UNL     1      -8.367  17.907  31.526  1.00  0.00    -0.273 OA
ENDROOT
BRANCH   1  17
HETATM   17  C11 UNL     1      -9.481  15.198  30.857  1.00  0.00     0.021 C 
BRANCH  17  18
HETATM   18  C10 UNL     1     -10.788  15.925  30.694  1.00  0.00     0.079 C 
BRANCH  18  19
HETATM   19  C9  UNL     1     -11.909  14.956  30.547  1.00  0.00     0.099 C 
HETATM   20  N1  UNL     1     -13.104  15.238  30.980  1.00  0.00    -0.255 N 
HETATM   21  O3  UNL     1     -14.139  14.320  30.835  1.00  0.00    -0.275 OA
ATOM     22  H1  UNL     1     -13.282  16.137  31.429  1.00  0.00     0.195 HD
HETATM   23  C8  UNL     1     -14.155  13.606  29.600  1.00  0.00     0.257 C 
HETATM   24  C6  UNL     1     -12.821  12.906  29.456  1.00  0.00     0.208 C 
HETATM   25  N4  UNL     1     -11.730  13.690  29.934  1.00  0.00    -0.348 N 
ATOM     26  H4  UNL     1     -10.783  13.326  29.831  1.00  0.00     0.163 HD
BRANCH  24  27
HETATM   27  C5  UNL     1     -12.819  11.645  30.235  1.00  0.00    -0.061 C 
HETATM   28  C4  UNL     1     -12.837  10.614  30.860  1.00  0.00    -0.103 C 
BRANCH  28  29
HETATM   29  C3  UNL     1     -12.871   9.370  31.630  1.00  0.00     0.093 C 
BRANCH  29  30
HETATM   30  C2  UNL     1     -12.004   8.298  30.959  1.00  0.00     0.007 C 
HETATM   31  C1  UNL     1     -12.548   6.943  31.267  1.00  0.00     0.006 C 
ENDBRANCH  29  30
ENDBRANCH  28  29
ENDBRANCH  24  27
BRANCH  24  32
HETATM   32  C7  UNL     1     -12.657  12.563  28.007  1.00  0.00     0.218 C 
HETATM   33  O1  UNL     1     -11.508  12.610  27.522  1.00  0.00    -0.645 OA
HETATM   34  O2  UNL     1     -13.704  12.203  27.205  1.00  0.00    -0.645 OA
ENDBRANCH  24  32
ENDBRANCH  18  19
ENDBRANCH  17  18
ENDBRANCH   1  17
BRANCH   9  35
HETATM   35  C21 UNL     1      -8.863  17.082  23.022  1.00  0.00     0.128 C 
BRANCH  35  36
HETATM   36  N2  UNL     1      -7.724  16.941  22.155  1.00  0.00    -0.360 N 
HETATM   37  C22 UNL     1      -6.843  17.990  21.836  1.00  0.00     0.221 C 
HETATM   38  O4  UNL     1      -7.006  19.149  22.297  1.00  0.00    -0.273 OA
ATOM     39  H2  UNL     1      -7.544  16.024  21.747  1.00  0.00     0.162 HD
BRANCH  37  40
HETATM   40  C23 UNL     1      -5.665  17.786  20.929  1.00  0.00     0.070 C 
HETATM   41  C24 UNL     1      -4.373  18.064  21.668  1.00  0.00     0.019 C 
HETATM   42  C25 UNL     1      -5.680  16.381  20.359  1.00  0.00     0.019 C 
ENDBRANCH  37  40
ENDBRANCH  35  36
ENDBRANCH   9  35
TORSDOF 10
ENDMDL
MODEL 3
REMARK VINA RESULT: -9.659281517      2.035      3.162
REMARK  10 active torsions:
REMARK  status: ('A' for Active; 'I' for Inactive)
REMARK    1  A    between atoms: C2_2  and  C3_3 
REMARK    2  A    between atoms: C3_3  and  C4_4 
REMARK    3  A    between atoms: C5_5  and  C6_6 
REMARK    4  A    between atoms: C6_6  and  C7_7 
REMARK    5  A    between atoms: C9_14  and  C10_15 
REMARK    6  A    between atoms: C10_15  and  C11_16 
REMARK    7  A    between atoms: C11_16  and  C12_17 
REMARK    8  A    between atoms: C20_25  and  C21_26 
REMARK    9  A    between atoms: C21_26  and  N2_27 
REMARK       I    between atoms: N2_27  and  C22_29 
REMARK   10  A    between atoms: C22_29  and  C23_31 
ROOT
HETATM    1  C12 UNL     1      -9.825  15.253  25.681  1.00  0.00     0.079 C 
HETATM    2  C13 UNL     1      -9.907  14.712  27.064  1.00  0.00     0.021 C 
HETATM    3  C14 UNL     1      -9.817  15.827  28.092  1.00  0.00     0.014 C 
HETATM    4  C15 UNL     1     -10.940  16.801  27.966  1.00  0.00     0.089 C 
HETATM    5  C16 UNL     1     -10.822  17.835  29.042  1.00  0.00     0.026 C 
HETATM    6  C17 UNL     1     -10.884  17.208  30.393  1.00  0.00     0.012 C 
HETATM    7  C18 UNL     1     -10.754  15.726  30.408  1.00  0.00    -0.035 C 
HETATM    8  C19 UNL     1     -12.047  14.974  30.250  1.00  0.00     0.016 C 
HETATM    9  C20 UNL     1     -10.129  15.308  31.743  1.00  0.00     0.012 C 
HETATM   10  C26 UNL     1      -8.712  15.797  31.603  1.00  0.00     0.007 C 
HETATM   11  C27 UNL     1      -8.391  15.615  30.136  1.00  0.00     0.006 C 
HETATM   12  C28 UNL     1      -9.683  15.226  29.457  1.00  0.00     0.000 C 
HETATM   13  N3  UNL     1     -10.829  17.417  26.632  1.00  0.00    -0.356 N 
ATOM     14  H3  UNL     1     -10.916  18.424  26.499  1.00  0.00     0.162 HD
HETATM   15  C29 UNL     1     -10.595  16.540  25.543  1.00  0.00     0.222 C 
HETATM   16  O5  UNL     1     -11.035  16.823  24.407  1.00  0.00    -0.273 OA
ENDROOT
BRANCH   1  17
HETATM   17  C11 UNL     1      -8.428  15.560  25.203  1.00  0.00     0.021 C 
BRANCH  17  18
HETATM   18  C10 UNL     1      -8.198  15.175  23.768  1.00  0.00     0.079 C 
BRANCH  18  19
HETATM   19  C9  UNL     1      -7.771  16.359  22.971  1.00  0.00     0.099 C 
HETATM   20  N1  UNL     1      -8.643  17.157  22.428  1.00  0.00    -0.255 N 
HETATM   21  O3  UNL     1      -8.224  18.257  21.687  1.00  0.00    -0.275 OA
ATOM     22  H1  UNL     1      -9.640  16.975  22.547  1.00  0.00     0.195 HD
HETATM   23  C8  UNL     1      -7.093  18.952  22.208  1.00  0.00     0.257 C 
HETATM   24  C6  UNL     1      -5.961  17.955  22.337  1.00  0.00     0.208 C 
HETATM   25  N4  UNL     1      -6.401  16.669  22.767  1.00  0.00    -0.348 N 
ATOM     26  H4  UNL     1      -5.704  15.943  22.935  1.00  0.00     0.163 HD
BRANCH  24  27
HETATM   27  C5  UNL     1      -5.295  17.766  21.026  1.00  0.00    -0.061 C 
HETATM   28  C4  UNL     1      -4.771  17.605  19.952  1.00  0.00    -0.103 C 
BRANCH  28  29
HETATM   29  C3  UNL     1      -4.136  17.392  18.651  1.00  0.00     0.093 C 
BRANCH  29  30
HETATM   30  C2  UNL     1      -4.586  16.059  18.043  1.00  0.00     0.007 C 
HETATM   31  C1  UNL     1      -5.420  16.313  16.831  1.00  0.00     0.006 C 
ENDBRANCH  29  30
ENDBRANCH  28  29
ENDBRANCH  24  27
BRANCH  24  32
HETATM   32  C7  UNL     1      -4.964  18.540  23.289  1.00  0.00     0.218 C 
HETATM   33  O1  UNL     1      -5.110  18.305  24.506  1.00  0.00    -0.645 OA
HETATM   34  O2  UNL     1      -3.912  19.314  22.882  1.00  0.00    -0.645 OA
ENDBRANCH  24  32
ENDBRANCH  18  19
ENDBRANCH  17  18
ENDBRANCH   1  17
BRANCH   9  35
HETATM   35  C21 UNL     1     -10.822  15.912  32.914  1.00  0.00     0.128 C 
BRANCH  35  36
HETATM   36  N2  UNL     1     -11.235  14.940  33.889  1.00  0.00    -0.360 N 
HETATM   37  C22 UNL     1     -12.562  14.500  34.051  1.00  0.00     0.221 C 
HETATM   38  O4  UNL     1     -13.493  14.948  33.335  1.00  0.00    -0.273 OA
ATOM     39  H2  UNL     1     -10.522  14.545  34.502  1.00  0.00     0.162 HD
BRANCH  37  40
HETATM   40  C23 UNL     1     -12.936  13.477  35.083  1.00  0.00     0.070 C 
HETATM   41  C24 UNL     1     -13.999  12.543  34.543  1.00  0.00     0.019 C 
HETATM   42  C25 UNL     1     -11.706  12.710  35.530  1.00  0.00     0.019 C 
ENDBRANCH  37  40
ENDBRANCH  35  36
ENDBRANCH   9  35
TORSDOF 10
ENDMDL
MODEL 4
REMARK VINA RESULT: -9.613027087      2.040      3.767
REMARK  10 active torsions:
REMARK  status: ('A' for Active; 'I' for Inactive)
REMARK    1  A    between atoms: C2_2  and  C3_3 
REMARK    2  A    between atoms: C3_3  and  C4_4 
REMARK    3  A    between atoms: C5_5  and  C6_6 
REMARK    4  A    between atoms: C6_6  and  C7_7 
REMARK    5  A    between atoms: C9_14  and  C10_15 
REMARK    6  A    between atoms: C10_15  and  C11_16 
REMARK    7  A    between atoms: C11_16  and  C12_17 
REMARK    8  A    between atoms: C20_25  and  C21_26 
REMARK    9  A    between atoms: C21_26  and  N2_27 
REMARK       I    between atoms: N2_27  and  C22_29 
REMARK   10  A    between atoms: C22_29  and  C23_31 
ROOT
HETATM    1  C12 UNL     1      -9.833  15.192  25.538  1.00  0.00     0.079 C 
HETATM    2  C13 UNL     1      -9.970  14.662  26.921  1.00  0.00     0.021 C 
HETATM    3  C14 UNL     1      -9.850  15.776  27.946  1.00  0.00     0.014 C 
HETATM    4  C15 UNL     1     -10.925  16.801  27.792  1.00  0.00     0.089 C 
HETATM    5  C16 UNL     1     -10.782  17.833  28.867  1.00  0.00     0.026 C 
HETATM    6  C17 UNL     1     -10.902  17.217  30.218  1.00  0.00     0.012 C 
HETATM    7  C18 UNL     1     -10.841  15.730  30.242  1.00  0.00    -0.035 C 
HETATM    8  C19 UNL     1     -12.163  15.037  30.059  1.00  0.00     0.016 C 
HETATM    9  C20 UNL     1     -10.264  15.291  31.592  1.00  0.00     0.012 C 
HETATM   10  C26 UNL     1      -8.824  15.714  31.480  1.00  0.00     0.007 C 
HETATM   11  C27 UNL     1      -8.480  15.510  30.021  1.00  0.00     0.006 C 
HETATM   12  C28 UNL     1      -9.774  15.177  29.317  1.00  0.00     0.000 C 
HETATM   13  N3  UNL     1     -10.757  17.404  26.459  1.00  0.00    -0.356 N 
ATOM     14  H3  UNL     1     -10.795  18.414  26.320  1.00  0.00     0.162 HD
HETATM   15  C29 UNL     1     -10.540  16.511  25.378  1.00  0.00     0.222 C 
HETATM   16  O5  UNL     1     -10.943  16.809  24.232  1.00  0.00    -0.273 OA
ENDROOT
BRANCH   1  17
HETATM   17  C11 UNL     1      -8.414  15.432  25.089  1.00  0.00     0.021 C 
BRANCH  17  18
HETATM   18  C10 UNL     1      -8.284  15.578  23.598  1.00  0.00     0.079 C 
BRANCH  18  19
HETATM   19  C9  UNL     1      -7.518  16.809  23.257  1.00  0.00     0.099 C 
HETATM   20  N1  UNL     1      -7.837  17.538  22.228  1.00  0.00    -0.255 N 
HETATM   21  O3  UNL     1      -7.109  18.684  21.926  1.00  0.00    -0.275 OA
ATOM     22  H1  UNL     1      -8.625  17.268  21.639  1.00  0.00     0.195 HD
HETATM   23  C8  UNL     1      -6.702  19.465  23.048  1.00  0.00     0.257 C 
HETATM   24  C6  UNL     1      -5.896  18.568  23.964  1.00  0.00     0.208 C 
HETATM   25  N4  UNL     1      -6.412  17.241  24.034  1.00  0.00    -0.348 N 
ATOM     26  H4  UNL     1      -5.968  16.576  24.667  1.00  0.00     0.163 HD
BRANCH  24  27
HETATM   27  C5  UNL     1      -4.500  18.463  23.476  1.00  0.00    -0.061 C 
HETATM   28  C4  UNL     1      -3.358  18.388  23.097  1.00  0.00    -0.103 C 
BRANCH  28  29
HETATM   29  C3  UNL     1      -1.972  18.313  22.634  1.00  0.00     0.093 C 
BRANCH  29  30
HETATM   30  C2  UNL     1      -1.002  18.469  23.811  1.00  0.00     0.007 C 
HETATM   31  C1  UNL     1      -1.176  19.814  24.434  1.00  0.00     0.006 C 
ENDBRANCH  29  30
ENDBRANCH  28  29
ENDBRANCH  24  27
BRANCH  24  32
HETATM   32  C7  UNL     1      -5.874  19.220  25.312  1.00  0.00     0.218 C 
HETATM   33  O1  UNL     1      -5.287  20.316  25.420  1.00  0.00    -0.645 OA
HETATM   34  O2  UNL     1      -6.464  18.669  26.415  1.00  0.00    -0.645 OA
ENDBRANCH  24  32
ENDBRANCH  18  19
ENDBRANCH  17  18
ENDBRANCH   1  17
BRANCH   9  35
HETATM   35  C21 UNL     1     -10.954  15.932  32.745  1.00  0.00     0.128 C 
BRANCH  35  36
HETATM   36  N2  UNL     1     -11.302  15.001  33.784  1.00  0.00    -0.360 N 
HETATM   37  C22 UNL     1     -12.607  14.528  34.013  1.00  0.00     0.221 C 
HETATM   38  O4  UNL     1     -13.576  14.906  33.306  1.00  0.00    -0.273 OA
ATOM     39  H2  UNL     1     -10.556  14.663  34.393  1.00  0.00     0.162 HD
BRANCH  37  40
HETATM   40  C23 UNL     1     -12.913  13.550  35.109  1.00  0.00     0.070 C 
HETATM   41  C24 UNL     1     -14.015  12.604  34.683  1.00  0.00     0.019 C 
HETATM   42  C25 UNL     1     -11.659  12.793  35.501  1.00  0.00     0.019 C 
ENDBRANCH  37  40
ENDBRANCH  35  36
ENDBRANCH   9  35
TORSDOF 10
ENDMDL
MODEL 5
REMARK VINA RESULT: -9.550455042      1.856      3.393
REMARK  10 active torsions:
REMARK  status: ('A' for Active; 'I' for Inactive)
REMARK    1  A    between atoms: C2_2  and  C3_3 
REMARK    2  A    between atoms: C3_3  and  C4_4 
REMARK    3  A    between atoms: C5_5  and  C6_6 
REMARK    4  A    between atoms: C6_6  and  C7_7 
REMARK    5  A    between atoms: C9_14  and  C10_15 
REMARK    6  A    between atoms: C10_15  and  C11_16 
REMARK    7  A    between atoms: C11_16  and  C12_17 
REMARK    8  A    between atoms: C20_25  and  C21_26 
REMARK    9  A    between atoms: C21_26  and  N2_27 
REMARK       I    between atoms: N2_27  and  C22_29 
REMARK   10  A    between atoms: C22_29  and  C23_31 
ROOT
HETATM    1  C12 UNL     1      -9.909  15.263  25.459  1.00  0.00     0.079 C 
HETATM    2  C13 UNL     1     -10.048  14.714  26.835  1.00  0.00     0.021 C 
HETATM    3  C14 UNL     1      -9.883  15.806  27.877  1.00  0.00     0.014 C 
HETATM    4  C15 UNL     1     -10.927  16.865  27.752  1.00  0.00     0.089 C 
HETATM    5  C16 UNL     1     -10.742  17.874  28.842  1.00  0.00     0.026 C 
HETATM    6  C17 UNL     1     -10.866  17.239  30.184  1.00  0.00     0.012 C 
HETATM    7  C18 UNL     1     -10.851  15.751  30.182  1.00  0.00    -0.035 C 
HETATM    8  C19 UNL     1     -12.195  15.102  30.002  1.00  0.00     0.016 C 
HETATM    9  C20 UNL     1     -10.274  15.271  31.518  1.00  0.00     0.012 C 
HETATM   10  C26 UNL     1      -8.823  15.651  31.398  1.00  0.00     0.007 C 
HETATM   11  C27 UNL     1      -8.500  15.462  29.932  1.00  0.00     0.006 C 
HETATM   12  C28 UNL     1      -9.811  15.181  29.236  1.00  0.00     0.000 C 
HETATM   13  N3  UNL     1     -10.754  17.486  26.427  1.00  0.00    -0.356 N 
ATOM     14  H3  UNL     1     -10.763  18.499  26.306  1.00  0.00     0.162 HD
HETATM   15  C29 UNL     1     -10.576  16.606  25.329  1.00  0.00     0.222 C 
HETATM   16  O5  UNL     1     -10.981  16.936  24.192  1.00  0.00    -0.273 OA
ENDROOT
BRANCH   1  17
HETATM   17  C11 UNL     1      -8.487  15.468  24.999  1.00  0.00     0.021 C 
BRANCH  17  18
HETATM   18  C10 UNL     1      -8.348  15.483  23.502  1.00  0.00     0.079 C 
BRANCH  18  19
HETATM   19  C9  UNL     1      -7.653  16.721  23.054  1.00  0.00     0.099 C 
HETATM   20  N1  UNL     1      -8.249  17.592  22.293  1.00  0.00    -0.255 N 
HETATM   21  O3  UNL     1      -7.582  18.743  21.885  1.00  0.00    -0.275 OA
ATOM     22  H1  UNL     1      -9.211  17.430  21.994  1.00  0.00     0.195 HD
HETATM   23  C8  UNL     1      -6.751  19.351  22.871  1.00  0.00     0.257 C 
HETATM   24  C6  UNL     1      -5.752  18.313  23.336  1.00  0.00     0.208 C 
HETATM   25  N4  UNL     1      -6.315  17.007  23.433  1.00  0.00    -0.348 N 
ATOM     26  H4  UNL     1      -5.735  16.248  23.789  1.00  0.00     0.163 HD
BRANCH  24  27
HETATM   27  C5  UNL     1      -4.624  18.226  22.378  1.00  0.00    -0.061 C 
HETATM   28  C4  UNL     1      -3.719  18.143  21.586  1.00  0.00    -0.103 C 
BRANCH  28  29
HETATM   29  C3  UNL     1      -2.618  18.027  20.628  1.00  0.00     0.093 C 
BRANCH  29  30
HETATM   30  C2  UNL     1      -2.453  16.574  20.171  1.00  0.00     0.007 C 
HETATM   31  C1  UNL     1      -3.714  16.100  19.527  1.00  0.00     0.006 C 
ENDBRANCH  29  30
ENDBRANCH  28  29
ENDBRANCH  24  27
BRANCH  24  32
HETATM   32  C7  UNL     1      -5.213  18.778  24.653  1.00  0.00     0.218 C 
HETATM   33  O1  UNL     1      -4.596  17.952  25.356  1.00  0.00    -0.645 OA
HETATM   34  O2  UNL     1      -5.368  20.057  25.111  1.00  0.00    -0.645 OA
ENDBRANCH  24  32
ENDBRANCH  18  19
ENDBRANCH  17  18
ENDBRANCH   1  17
BRANCH   9  35
HETATM   35  C21 UNL     1     -10.932  15.913  32.689  1.00  0.00     0.128 C 
BRANCH  35  36
HETATM   36  N2  UNL     1     -11.302  14.974  33.714  1.00  0.00    -0.360 N 
HETATM   37  C22 UNL     1     -12.612  14.498  33.910  1.00  0.00     0.221 C 
HETATM   38  O4  UNL     1     -13.565  14.881  33.184  1.00  0.00    -0.273 OA
ATOM     39  H2  UNL     1     -10.571  14.633  34.337  1.00  0.00     0.162 HD
BRANCH  37  40
HETATM   40  C23 UNL     1     -12.942  13.513  34.993  1.00  0.00     0.070 C 
HETATM   41  C24 UNL     1     -13.983  12.525  34.511  1.00  0.00     0.019 C 
HETATM   42  C25 UNL     1     -11.684  12.804  35.457  1.00  0.00     0.019 C 
ENDBRANCH  37  40
ENDBRANCH  35  36
ENDBRANCH   9  35
TORSDOF 10
ENDMDL
