MODEL 1
REMARK VINA RESULT: -7.111918230      0.000      0.000
REMARK  7 active torsions:
REMARK  status: ('A' for Active; 'I' for Inactive)
REMARK    1  A    between atoms: N1_1  and  C1_5 
REMARK    2  A    between atoms: C1_5  and  O1_6 
REMARK    3  A    between atoms: C1_5  and  C2_8 
REMARK    4  A    between atoms: C2_8  and  N2_9 
REMARK    5  A    between atoms: C2_8  and  C3_13 
REMARK       I    between atoms: C3_13  and  N3_15 
REMARK    6  A    between atoms: N3_15  and  C4_17 
REMARK    7  A    between atoms: C4_17  and  C5_18 
ROOT
HETATM    1  C5  UNL     1      20.280   8.222  49.893  1.00  0.00     0.294 C 
HETATM    2  N4  UNL     1      19.474   9.424  49.889  1.00  0.00    -0.061 N 
ATOM      3  H41 UNL     1      18.785   9.412  50.640  1.00  0.00     0.278 HD
ATOM      4  H42 UNL     1      18.840   9.443  49.090  1.00  0.00     0.278 HD
HETATM    5  C6  UNL     1      20.293  10.621  49.942  1.00  0.00     0.235 C 
HETATM    6  C7  UNL     1      20.316  11.278  51.283  1.00  0.00     0.055 C 
HETATM    7  C8  UNL     1      21.557  11.038  52.082  1.00  0.00     0.233 C 
HETATM    8  N5  UNL     1      22.764  11.531  51.498  1.00  0.00    -0.075 N 
ATOM      9  H51 UNL     1      22.858  12.540  51.602  1.00  0.00     0.277 HD
ATOM     10  H52 UNL     1      22.744  11.490  50.479  1.00  0.00     0.277 HD
HETATM   11  C9  UNL     1      23.896  10.815  52.051  1.00  0.00     0.232 C 
HETATM   12  C10 UNL     1      25.157  10.975  51.264  1.00  0.00     0.029 C 
HETATM   13  C11 UNL     1      25.355   9.961  50.178  1.00  0.00     0.029 C 
HETATM   14  C12 UNL     1      25.279   8.542  50.646  1.00  0.00     0.232 C 
HETATM   15  N6  UNL     1      25.458   7.676  49.496  1.00  0.00    -0.074 N 
ATOM     16  H61 UNL     1      26.268   7.066  49.608  1.00  0.00     0.277 HD
ATOM     17  H62 UNL     1      25.769   8.200  48.678  1.00  0.00     0.277 HD
HETATM   18  C13 UNL     1      24.238   6.907  49.213  1.00  0.00     0.251 C 
HETATM   19  C14 UNL     1      23.202   7.889  48.782  1.00  0.00     0.150 C 
HETATM   20  N7  UNL     1      21.995   7.291  48.249  1.00  0.00    -0.358 N 
ATOM     21  H7  UNL     1      22.087   6.483  47.633  1.00  0.00     0.162 HD
HETATM   22  C15 UNL     1      20.688   7.772  48.542  1.00  0.00     0.250 C 
HETATM   23  O3  UNL     1      19.831   7.825  47.626  1.00  0.00    -0.271 OA
ENDROOT
BRANCH   1  24
HETATM   24  C4  UNL     1      19.513   7.147  50.626  1.00  0.00     0.165 C 
BRANCH  24  25
HETATM   25  N3  UNL     1      19.607   5.899  49.900  1.00  0.00    -0.357 N 
HETATM   26  C3  UNL     1      18.436   5.174  49.520  1.00  0.00     0.252 C 
HETATM   27  O2  UNL     1      17.317   5.650  49.832  1.00  0.00    -0.271 OA
ATOM     28  H3  UNL     1      20.526   5.529  49.655  1.00  0.00     0.162 HD
BRANCH  26  29
HETATM   29  C2  UNL     1      18.467   3.893  48.777  1.00  0.00     0.330 C 
BRANCH  29  30
HETATM   30  C1  UNL     1      18.207   4.092  47.300  1.00  0.00     0.356 C 
BRANCH  30  31
HETATM   31  N1  UNL     1      16.818   4.366  47.024  1.00  0.00    -0.051 N 
ATOM     32  H13 UNL     1      16.679   5.311  46.667  1.00  0.00     0.277 HD
ATOM     33  H12 UNL     1      16.481   3.848  46.213  1.00  0.00     0.277 HD
ATOM     34  H11 UNL     1      16.253   4.185  47.854  1.00  0.00     0.277 HD
ENDBRANCH  30  31
BRANCH  30  35
HETATM   35  O1  UNL     1      19.013   5.135  46.803  1.00  0.00    -0.368 OA
ATOM     36  H1  UNL     1      18.714   5.970  47.144  1.00  0.00     0.212 HD
ENDBRANCH  30  35
ENDBRANCH  29  30
BRANCH  29  37
HETATM   37  N2  UNL     1      19.807   3.347  48.929  1.00  0.00    -0.062 N 
ATOM     38  H23 UNL     1      20.214   3.048  48.044  1.00  0.00     0.275 HD
ATOM     39  H22 UNL     1      20.499   4.060  49.164  1.00  0.00     0.275 HD
ATOM     40  H21 UNL     1      19.765   2.596  49.618  1.00  0.00     0.275 HD
ENDBRANCH  29  37
ENDBRANCH  26  29
ENDBRANCH  24  25
ENDBRANCH   1  24
TORSDOF 7
ENDMDL
MODEL 2
REMARK VINA RESULT: -6.987984603      1.800      1.916
REMARK  7 active torsions:
REMARK  status: ('A' for Active; 'I' for Inactive)
REMARK    1  A    between atoms: N1_1  and  C1_5 
REMARK    2  A    between atoms: C1_5  and  O1_6 
REMARK    3  A    between atoms: C1_5  and  C2_8 
REMARK    4  A    between atoms: C2_8  and  N2_9 
REMARK    5  A    between atoms: C2_8  and  C3_13 
REMARK       I    between atoms: C3_13  and  N3_15 
REMARK    6  A    between atoms: N3_15  and  C4_17 
REMARK    7  A    between atoms: C4_17  and  C5_18 
ROOT
HETATM    1  C5  UNL     1      21.043   8.323  49.351  1.00  0.00     0.294 C 
HETATM    2  N4  UNL     1      19.753   8.842  49.754  1.00  0.00    -0.061 N 
ATOM      3  H41 UNL     1      19.294   8.221  50.420  1.00  0.00     0.278 HD
ATOM      4  H42 UNL     1      19.077   8.788  48.993  1.00  0.00     0.278 HD
HETATM    5  C6  UNL     1      19.855  10.192  50.276  1.00  0.00     0.235 C 
HETATM    6  C7  UNL     1      19.760  10.273  51.764  1.00  0.00     0.055 C 
HETATM    7  C8  UNL     1      21.064  10.474  52.470  1.00  0.00     0.233 C 
HETATM    8  N5  UNL     1      21.747  11.688  52.158  1.00  0.00    -0.075 N 
ATOM      9  H51 UNL     1      21.336  12.493  52.629  1.00  0.00     0.277 HD
ATOM     10  H52 UNL     1      21.586  11.984  51.195  1.00  0.00     0.277 HD
HETATM   11  C9  UNL     1      23.157  11.540  52.456  1.00  0.00     0.232 C 
HETATM   12  C10 UNL     1      24.021  12.590  51.835  1.00  0.00     0.029 C 
HETATM   13  C11 UNL     1      24.525  12.261  50.462  1.00  0.00     0.029 C 
HETATM   14  C12 UNL     1      25.248  10.955  50.374  1.00  0.00     0.232 C 
HETATM   15  N6  UNL     1      25.651  10.754  48.995  1.00  0.00    -0.074 N 
ATOM     16  H61 UNL     1      26.664  10.665  48.909  1.00  0.00     0.277 HD
ATOM     17  H62 UNL     1      25.521  11.599  48.439  1.00  0.00     0.277 HD
HETATM   18  C13 UNL     1      24.956   9.603  48.399  1.00  0.00     0.251 C 
HETATM   19  C14 UNL     1      23.514   9.970  48.317  1.00  0.00     0.150 C 
HETATM   20  N7  UNL     1      22.704   9.043  47.552  1.00  0.00    -0.358 N 
ATOM     21  H7  UNL     1      23.089   8.664  46.687  1.00  0.00     0.162 HD
HETATM   22  C15 UNL     1      21.399   8.635  47.946  1.00  0.00     0.250 C 
HETATM   23  O3  UNL     1      20.497   8.530  47.080  1.00  0.00    -0.271 OA
ENDROOT
BRANCH   1  24
HETATM   24  C4  UNL     1      21.050   6.835  49.606  1.00  0.00     0.165 C 
BRANCH  24  25
HETATM   25  N3  UNL     1      20.223   6.167  48.625  1.00  0.00    -0.357 N 
HETATM   26  C3  UNL     1      19.677   4.871  48.876  1.00  0.00     0.252 C 
HETATM   27  O2  UNL     1      19.934   4.323  49.975  1.00  0.00    -0.271 OA
ATOM     28  H3  UNL     1      20.025   6.630  47.737  1.00  0.00     0.162 HD
BRANCH  26  29
HETATM   29  C2  UNL     1      18.824   4.137  47.913  1.00  0.00     0.330 C 
BRANCH  29  30
HETATM   30  C1  UNL     1      17.357   4.243  48.266  1.00  0.00     0.356 C 
BRANCH  30  31
HETATM   31  N1  UNL     1      17.113   5.232  49.288  1.00  0.00    -0.051 N 
ATOM     32  H13 UNL     1      17.977   5.541  49.733  1.00  0.00     0.277 HD
ATOM     33  H12 UNL     1      16.821   6.125  48.892  1.00  0.00     0.277 HD
ATOM     34  H11 UNL     1      16.440   4.876  49.967  1.00  0.00     0.277 HD
ENDBRANCH  30  31
BRANCH  30  35
HETATM   35  O1  UNL     1      16.602   4.542  47.114  1.00  0.00    -0.368 OA
ATOM     36  H1  UNL     1      16.403   3.744  46.638  1.00  0.00     0.212 HD
ENDBRANCH  30  35
ENDBRANCH  29  30
BRANCH  29  37
HETATM   37  N2  UNL     1      19.021   4.760  46.612  1.00  0.00    -0.062 N 
ATOM     38  H23 UNL     1      19.505   4.152  45.953  1.00  0.00     0.275 HD
ATOM     39  H22 UNL     1      18.151   4.864  46.089  1.00  0.00     0.275 HD
ATOM     40  H21 UNL     1      19.502   5.648  46.757  1.00  0.00     0.275 HD
ENDBRANCH  29  37
ENDBRANCH  26  29
ENDBRANCH  24  25
ENDBRANCH   1  24
TORSDOF 7
ENDMDL
MODEL 3
REMARK VINA RESULT: -6.797981612      1.971      2.502
REMARK  7 active torsions:
REMARK  status: ('A' for Active; 'I' for Inactive)
REMARK    1  A    between atoms: N1_1  and  C1_5 
REMARK    2  A    between atoms: C1_5  and  O1_6 
REMARK    3  A    between atoms: C1_5  and  C2_8 
REMARK    4  A    between atoms: C2_8  and  N2_9 
REMARK    5  A    between atoms: C2_8  and  C3_13 
REMARK       I    between atoms: C3_13  and  N3_15 
REMARK    6  A    between atoms: N3_15  and  C4_17 
REMARK    7  A    between atoms: C4_17  and  C5_18 
ROOT
HETATM    1  C5  UNL     1      21.069   8.627  47.828  1.00  0.00     0.294 C 
HETATM    2  N4  UNL     1      19.683   8.946  48.097  1.00  0.00    -0.061 N 
ATOM      3  H41 UNL     1      19.149   8.110  48.334  1.00  0.00     0.278 HD
ATOM      4  H42 UNL     1      19.191   9.213  47.245  1.00  0.00     0.278 HD
HETATM    5  C6  UNL     1      19.554   9.963  49.124  1.00  0.00     0.235 C 
HETATM    6  C7  UNL     1      19.138   9.429  50.455  1.00  0.00     0.055 C 
HETATM    7  C8  UNL     1      20.240   9.313  51.460  1.00  0.00     0.233 C 
HETATM    8  N5  UNL     1      20.866  10.544  51.825  1.00  0.00    -0.075 N 
ATOM      9  H51 UNL     1      20.296  11.089  52.471  1.00  0.00     0.277 HD
ATOM     10  H52 UNL     1      20.888  11.209  51.052  1.00  0.00     0.277 HD
HETATM   11  C9  UNL     1      22.188  10.276  52.354  1.00  0.00     0.232 C 
HETATM   12  C10 UNL     1      23.069  11.481  52.420  1.00  0.00     0.029 C 
HETATM   13  C11 UNL     1      23.880  11.738  51.186  1.00  0.00     0.029 C 
HETATM   14  C12 UNL     1      24.717  10.577  50.752  1.00  0.00     0.232 C 
HETATM   15  N6  UNL     1      25.419  10.954  49.540  1.00  0.00    -0.074 N 
ATOM     16  H61 UNL     1      26.431  10.900  49.660  1.00  0.00     0.277 HD
ATOM     17  H62 UNL     1      25.337  11.953  49.355  1.00  0.00     0.277 HD
HETATM   18  C13 UNL     1      24.969  10.153  48.392  1.00  0.00     0.251 C 
HETATM   19  C14 UNL     1      23.551  10.533  48.135  1.00  0.00     0.150 C 
HETATM   20  N7  UNL     1      23.005  10.006  46.900  1.00  0.00    -0.358 N 
ATOM     21  H7  UNL     1      23.596  10.011  46.069  1.00  0.00     0.162 HD
HETATM   22  C15 UNL     1      21.686   9.483  46.788  1.00  0.00     0.250 C 
HETATM   23  O3  UNL     1      21.002   9.748  45.770  1.00  0.00    -0.271 OA
ENDROOT
BRANCH   1  24
HETATM   24  C4  UNL     1      21.150   7.165  47.461  1.00  0.00     0.165 C 
BRANCH  24  25
HETATM   25  N3  UNL     1      20.728   6.355  48.583  1.00  0.00    -0.357 N 
HETATM   26  C3  UNL     1      19.749   5.327  48.427  1.00  0.00     0.252 C 
HETATM   27  O2  UNL     1      19.262   5.141  47.286  1.00  0.00    -0.271 OA
ATOM     28  H3  UNL     1      21.136   6.521  49.503  1.00  0.00     0.162 HD
BRANCH  26  29
HETATM   29  C2  UNL     1      19.276   4.466  49.536  1.00  0.00     0.330 C 
BRANCH  29  30
HETATM   30  C1  UNL     1      17.769   4.493  49.668  1.00  0.00     0.356 C 
BRANCH  30  31
HETATM   31  N1  UNL     1      17.261   5.836  49.814  1.00  0.00    -0.051 N 
ATOM     32  H13 UNL     1      17.582   6.449  49.065  1.00  0.00     0.277 HD
ATOM     33  H12 UNL     1      16.259   5.886  49.631  1.00  0.00     0.277 HD
ATOM     34  H11 UNL     1      17.500   6.202  50.736  1.00  0.00     0.277 HD
ENDBRANCH  30  31
BRANCH  30  35
HETATM   35  O1  UNL     1      17.174   3.870  48.553  1.00  0.00    -0.368 OA
ATOM     36  H1  UNL     1      16.814   3.027  48.805  1.00  0.00     0.212 HD
ENDBRANCH  30  35
ENDBRANCH  29  30
BRANCH  29  37
HETATM   37  N2  UNL     1      19.675   3.103  49.214  1.00  0.00    -0.062 N 
ATOM     38  H23 UNL     1      19.300   2.783  48.323  1.00  0.00     0.275 HD
ATOM     39  H22 UNL     1      20.666   3.027  48.981  1.00  0.00     0.275 HD
ATOM     40  H21 UNL     1      19.407   2.504  49.995  1.00  0.00     0.275 HD
ENDBRANCH  29  37
ENDBRANCH  26  29
ENDBRANCH  24  25
ENDBRANCH   1  24
TORSDOF 7
ENDMDL
MODEL 4
REMARK VINA RESULT: -6.774397903      1.931      2.501
REMARK  7 active torsions:
REMARK  status: ('A' for Active; 'I' for Inactive)
REMARK    1  A    between atoms: N1_1  and  C1_5 
REMARK    2  A    between atoms: C1_5  and  O1_6 
REMARK    3  A    between atoms: C1_5  and  C2_8 
REMARK    4  A    between atoms: C2_8  and  N2_9 
REMARK    5  A    between atoms: C2_8  and  C3_13 
REMARK       I    between atoms: C3_13  and  N3_15 
REMARK    6  A    between atoms: N3_15  and  C4_17 
REMARK    7  A    between atoms: C4_17  and  C5_18 
ROOT
HETATM    1  C5  UNL     1      21.233   9.175  47.831  1.00  0.00     0.294 C 
HETATM    2  N4  UNL     1      19.975   9.770  48.227  1.00  0.00    -0.061 N 
ATOM      3  H41 UNL     1      19.231   9.074  48.267  1.00  0.00     0.278 HD
ATOM      4  H42 UNL     1      19.597  10.365  47.490  1.00  0.00     0.278 HD
HETATM    5  C6  UNL     1      20.090  10.491  49.481  1.00  0.00     0.235 C 
HETATM    6  C7  UNL     1      19.509   9.767  50.650  1.00  0.00     0.055 C 
HETATM    7  C8  UNL     1      20.510   9.113  51.549  1.00  0.00     0.233 C 
HETATM    8  N5  UNL     1      21.429  10.000  52.187  1.00  0.00    -0.075 N 
ATOM      9  H51 UNL     1      21.005  10.495  52.971  1.00  0.00     0.277 HD
ATOM     10  H52 UNL     1      21.650  10.809  51.607  1.00  0.00     0.277 HD
HETATM   11  C9  UNL     1      22.616   9.267  52.578  1.00  0.00     0.232 C 
HETATM   12  C10 UNL     1      23.784  10.138  52.911  1.00  0.00     0.029 C 
HETATM   13  C11 UNL     1      24.670  10.476  51.751  1.00  0.00     0.029 C 
HETATM   14  C12 UNL     1      25.180   9.284  51.004  1.00  0.00     0.232 C 
HETATM   15  N6  UNL     1      25.993   9.757  49.899  1.00  0.00    -0.074 N 
ATOM     16  H61 UNL     1      26.950   9.409  49.962  1.00  0.00     0.277 HD
ATOM     17  H62 UNL     1      26.185  10.755  49.976  1.00  0.00     0.277 HD
HETATM   18  C13 UNL     1      25.380   9.421  48.606  1.00  0.00     0.251 C 
HETATM   19  C14 UNL     1      24.122  10.215  48.509  1.00  0.00     0.150 C 
HETATM   20  N7  UNL     1      23.493  10.182  47.204  1.00  0.00    -0.358 N 
ATOM     21  H7  UNL     1      24.089  10.241  46.378  1.00  0.00     0.162 HD
HETATM   22  C15 UNL     1      22.087  10.073  47.016  1.00  0.00     0.250 C 
HETATM   23  O3  UNL     1      21.528  10.758  46.126  1.00  0.00    -0.271 OA
ENDROOT
BRANCH   1  24
HETATM   24  C4  UNL     1      20.934   7.886  47.104  1.00  0.00     0.165 C 
BRANCH  24  25
HETATM   25  N3  UNL     1      20.441   6.900  48.041  1.00  0.00    -0.357 N 
HETATM   26  C3  UNL     1      20.277   5.534  47.660  1.00  0.00     0.252 C 
HETATM   27  O2  UNL     1      20.573   5.207  46.485  1.00  0.00    -0.271 OA
ATOM     28  H3  UNL     1      20.206   7.186  48.992  1.00  0.00     0.162 HD
BRANCH  26  29
HETATM   29  C2  UNL     1      19.777   4.480  48.572  1.00  0.00     0.330 C 
BRANCH  29  30
HETATM   30  C1  UNL     1      18.277   4.309  48.468  1.00  0.00     0.356 C 
BRANCH  30  31
HETATM   31  N1  UNL     1      17.866   3.909  47.144  1.00  0.00    -0.051 N 
ATOM     32  H13 UNL     1      17.744   4.710  46.524  1.00  0.00     0.277 HD
ATOM     33  H12 UNL     1      18.616   3.440  46.637  1.00  0.00     0.277 HD
ATOM     34  H11 UNL     1      17.024   3.336  47.197  1.00  0.00     0.277 HD
ENDBRANCH  30  31
BRANCH  30  35
HETATM   35  O1  UNL     1      17.830   3.369  49.418  1.00  0.00    -0.368 OA
ATOM     36  H1  UNL     1      17.220   3.779  50.020  1.00  0.00     0.212 HD
ENDBRANCH  30  35
ENDBRANCH  29  30
BRANCH  29  37
HETATM   37  N2  UNL     1      20.402   3.231  48.160  1.00  0.00    -0.062 N 
ATOM     38  H23 UNL     1      20.525   2.578  48.933  1.00  0.00     0.275 HD
ATOM     39  H22 UNL     1      19.787   2.652  47.588  1.00  0.00     0.275 HD
ATOM     40  H21 UNL     1      21.279   3.457  47.691  1.00  0.00     0.275 HD
ENDBRANCH  29  37
ENDBRANCH  26  29
ENDBRANCH  24  25
ENDBRANCH   1  24
TORSDOF 7
ENDMDL
MODEL 5
REMARK VINA RESULT: -6.766487844      2.201      2.984
REMARK  7 active torsions:
REMARK  status: ('A' for Active; 'I' for Inactive)
REMARK    1  A    between atoms: N1_1  and  C1_5 
REMARK    2  A    between atoms: C1_5  and  O1_6 
REMARK    3  A    between atoms: C1_5  and  C2_8 
REMARK    4  A    between atoms: C2_8  and  N2_9 
REMARK    5  A    between atoms: C2_8  and  C3_13 
REMARK       I    between atoms: C3_13  and  N3_15 
REMARK    6  A    between atoms: N3_15  and  C4_17 
REMARK    7  A    between atoms: C4_17  and  C5_18 
ROOT
HETATM    1  C5  UNL     1      21.352   9.530  47.870  1.00  0.00     0.294 C 
HETATM    2  N4  UNL     1      20.340  10.464  48.317  1.00  0.00    -0.061 N 
ATOM      3  H41 UNL     1      19.413  10.192  47.992  1.00  0.00     0.278 HD
ATOM      4  H42 UNL     1      20.422  11.359  47.834  1.00  0.00     0.278 HD
HETATM    5  C6  UNL     1      20.364  10.636  49.758  1.00  0.00     0.235 C 
HETATM    6  C7  UNL     1      19.264   9.922  50.470  1.00  0.00     0.055 C 
HETATM    7  C8  UNL     1      19.671   8.654  51.150  1.00  0.00     0.233 C 
HETATM    8  N5  UNL     1      20.639   8.802  52.189  1.00  0.00    -0.075 N 
ATOM      9  H51 UNL     1      20.229   9.165  53.049  1.00  0.00     0.277 HD
ATOM     10  H52 UNL     1      21.290   9.565  52.005  1.00  0.00     0.277 HD
HETATM   11  C9  UNL     1      21.321   7.541  52.398  1.00  0.00     0.232 C 
HETATM   12  C10 UNL     1      22.588   7.660  53.182  1.00  0.00     0.029 C 
HETATM   13  C11 UNL     1      23.817   7.911  52.361  1.00  0.00     0.029 C 
HETATM   14  C12 UNL     1      24.039   6.911  51.272  1.00  0.00     0.232 C 
HETATM   15  N6  UNL     1      25.237   7.290  50.546  1.00  0.00    -0.074 N 
ATOM     16  H61 UNL     1      25.944   6.556  50.580  1.00  0.00     0.277 HD
ATOM     17  H62 UNL     1      25.751   8.025  51.031  1.00  0.00     0.277 HD
HETATM   18  C13 UNL     1      24.921   7.674  49.162  1.00  0.00     0.251 C 
HETATM   19  C14 UNL     1      24.118   8.928  49.239  1.00  0.00     0.150 C 
HETATM   20  N7  UNL     1      23.902   9.578  47.962  1.00  0.00    -0.358 N 
ATOM     21  H7  UNL     1      24.679   9.619  47.302  1.00  0.00     0.162 HD
HETATM   22  C15 UNL     1      22.661  10.162  47.581  1.00  0.00     0.250 C 
HETATM   23  O3  UNL     1      22.656  11.260  46.973  1.00  0.00    -0.271 OA
ENDROOT
BRANCH   1  24
HETATM   24  C4  UNL     1      20.813   8.797  46.666  1.00  0.00     0.165 C 
BRANCH  24  25
HETATM   25  N3  UNL     1      21.233   7.413  46.707  1.00  0.00    -0.357 N 
HETATM   26  C3  UNL     1      20.557   6.458  47.525  1.00  0.00     0.252 C 
HETATM   27  O2  UNL     1      19.582   6.850  48.211  1.00  0.00    -0.271 OA
ATOM     28  H3  UNL     1      22.028   7.114  46.141  1.00  0.00     0.162 HD
BRANCH  26  29
HETATM   29  C2  UNL     1      20.939   5.030  47.609  1.00  0.00     0.330 C 
BRANCH  29  30
HETATM   30  C1  UNL     1      19.767   4.115  47.331  1.00  0.00     0.356 C 
BRANCH  30  31
HETATM   31  N1  UNL     1      19.116   3.681  48.544  1.00  0.00    -0.051 N 
ATOM     32  H13 UNL     1      19.297   4.316  49.322  1.00  0.00     0.277 HD
ATOM     33  H12 UNL     1      18.104   3.790  48.493  1.00  0.00     0.277 HD
ATOM     34  H11 UNL     1      19.387   2.722  48.763  1.00  0.00     0.277 HD
ENDBRANCH  30  31
BRANCH  30  35
HETATM   35  O1  UNL     1      18.840   4.759  46.489  1.00  0.00    -0.368 OA
ATOM     36  H1  UNL     1      18.861   4.369  45.622  1.00  0.00     0.212 HD
ENDBRANCH  30  35
ENDBRANCH  29  30
BRANCH  29  37
HETATM   37  N2  UNL     1      21.944   4.799  46.582  1.00  0.00    -0.062 N 
ATOM     38  H23 UNL     1      21.874   3.872  46.163  1.00  0.00     0.275 HD
ATOM     39  H22 UNL     1      21.776   5.344  45.736  1.00  0.00     0.275 HD
ATOM     40  H21 UNL     1      22.861   4.978  46.992  1.00  0.00     0.275 HD
ENDBRANCH  29  37
ENDBRANCH  26  29
ENDBRANCH  24  25
ENDBRANCH   1  24
TORSDOF 7
ENDMDL
