MODEL 1
REMARK VINA RESULT: -8.379454202      0.000      0.000
REMARK  7 active torsions:
REMARK  status: ('A' for Active; 'I' for Inactive)
REMARK    1  A    between atoms: C2_2  and  C11_31 
REMARK    2  A    between atoms: N1_3  and  N2_5 
REMARK       I    between atoms: N2_5  and  C3_7 
REMARK    3  A    between atoms: C3_7  and  C4_9 
REMARK    4  A    between atoms: C6_15  and  N6_16 
REMARK    5  A    between atoms: N6_16  and  C7_18 
REMARK    6  A    between atoms: C7_18  and  O2_20 
REMARK    7  A    between atoms: C10_27  and  N10_28 
ROOT
HETATM    1  C4  UNL     1      75.731  67.192  94.000  1.00  0.00     0.123 A 
HETATM    2  C5  UNL     1      76.599  66.470  94.838  1.00  0.00     0.152 A 
HETATM    3  N3  UNL     1      76.531  66.700  96.241  1.00  0.00    -0.080 NA
HETATM    4  N4  UNL     1      77.443  65.610  94.282  1.00  0.00    -0.262 N 
ATOM      5  H4  UNL     1      78.067  65.094  94.902  1.00  0.00     0.190 HD
HETATM    6  N5  UNL     1      77.532  65.373  92.996  1.00  0.00    -0.155 N 
HETATM    7  C6  UNL     1      78.442  64.455  92.493  1.00  0.00     0.151 A 
HETATM    8  C8  UNL     1      78.512  64.231  91.154  1.00  0.00     0.071 A 
HETATM    9  C9  UNL     1      77.642  64.955  90.313  1.00  0.00     0.113 A 
HETATM   10  N8  UNL     1      76.796  65.819  90.873  1.00  0.00    -0.287 N 
ATOM     11  H8  UNL     1      76.164  66.346  90.269  1.00  0.00     0.188 HD
HETATM   12  N9  UNL     1      76.743  66.024  92.183  1.00  0.00    -0.156 N 
HETATM   13  C10 UNL     1      75.838  66.936  92.673  1.00  0.00     0.160 A 
ENDROOT
BRANCH   1  14
HETATM   14  C3  UNL     1      74.810  68.131  94.573  1.00  0.00     0.277 C 
HETATM   15  N2  UNL     1      75.106  69.196  95.407  1.00  0.00    -0.265 N 
ATOM     16  H2  UNL     1      76.069  69.390  95.682  1.00  0.00     0.190 HD
HETATM   17  O1  UNL     1      73.564  67.953  94.272  1.00  0.00    -0.266 OA
BRANCH  15  18
HETATM   18  N1  UNL     1      74.034  70.021  95.876  1.00  0.00    -0.297 N 
HETATM   19  C2  UNL     1      74.334  71.039  96.610  1.00  0.00     0.086 C 
HETATM   20  C1  UNL     1      75.723  71.354  96.961  1.00  0.00     0.075 C 
ATOM     21  H1  UNL     1      73.064  69.811  95.637  1.00  0.00     0.187 HD
BRANCH  19  22
HETATM   22  C11 UNL     1      73.205  71.867  97.076  1.00  0.00     0.278 C 
HETATM   23  N11 UNL     1      73.358  73.238  97.408  1.00  0.00    -0.056 NA
HETATM   24  O3  UNL     1      72.045  71.371  97.197  1.00  0.00    -0.270 OA
ENDBRANCH  19  22
ENDBRANCH  15  18
ENDBRANCH   1  14
BRANCH  13  25
HETATM   25  N10 UNL     1      75.107  67.526  91.806  1.00  0.00    -0.382 N 
ATOM     26 2H10 UNL     1      74.141  67.204  91.740  1.00  0.00     0.157 HD
ATOM     27 1H10 UNL     1      75.465  68.276  91.215  1.00  0.00     0.157 HD
ENDBRANCH  13  25
BRANCH   7  28
HETATM   28  N6  UNL     1      79.250  63.800  93.429  1.00  0.00    -0.308 N 
ATOM     29  H6  UNL     1      79.536  64.351  94.238  1.00  0.00     0.170 HD
BRANCH  28  30
HETATM   30  C7  UNL     1      79.714  62.484  93.389  1.00  0.00     0.230 C 
HETATM   31  N7  UNL     1      80.781  62.038  92.597  1.00  0.00    -0.056 NA
BRANCH  30  32
HETATM   32  O2  UNL     1      79.104  61.614  94.145  1.00  0.00    -0.335 OA
ATOM     33  H2  UNL     1      79.075  61.794  95.077  1.00  0.00     0.220 HD
ENDBRANCH  30  32
ENDBRANCH  28  30
ENDBRANCH   7  28
TORSDOF 7
ENDMDL
MODEL 2
REMARK VINA RESULT: -6.991819196      2.629      3.721
REMARK  7 active torsions:
REMARK  status: ('A' for Active; 'I' for Inactive)
REMARK    1  A    between atoms: C2_2  and  C11_31 
REMARK    2  A    between atoms: N1_3  and  N2_5 
REMARK       I    between atoms: N2_5  and  C3_7 
REMARK    3  A    between atoms: C3_7  and  C4_9 
REMARK    4  A    between atoms: C6_15  and  N6_16 
REMARK    5  A    between atoms: N6_16  and  C7_18 
REMARK    6  A    between atoms: C7_18  and  O2_20 
REMARK    7  A    between atoms: C10_27  and  N10_28 
ROOT
HETATM    1  C4  UNL     1      76.483  66.512  92.885  1.00  0.00     0.123 A 
HETATM    2  C5  UNL     1      76.608  66.897  91.540  1.00  0.00     0.152 A 
HETATM    3  N3  UNL     1      75.654  67.810  91.006  1.00  0.00    -0.080 NA
HETATM    4  N4  UNL     1      77.607  66.392  90.827  1.00  0.00    -0.262 N 
ATOM      5  H4  UNL     1      77.685  66.679  89.852  1.00  0.00     0.190 HD
HETATM    6  N5  UNL     1      78.502  65.551  91.286  1.00  0.00    -0.155 N 
HETATM    7  C6  UNL     1      79.519  65.068  90.476  1.00  0.00     0.151 A 
HETATM    8  C8  UNL     1      80.433  64.196  90.979  1.00  0.00     0.071 A 
HETATM    9  C9  UNL     1      80.309  63.810  92.329  1.00  0.00     0.113 A 
HETATM   10  N8  UNL     1      79.304  64.318  93.042  1.00  0.00    -0.287 N 
ATOM     11  H8  UNL     1      79.209  64.042  94.019  1.00  0.00     0.188 HD
HETATM   12  N9  UNL     1      78.422  65.168  92.532  1.00  0.00    -0.156 N 
HETATM   13  C10 UNL     1      77.416  65.641  93.342  1.00  0.00     0.160 A 
ENDROOT
BRANCH   1  14
HETATM   14  C3  UNL     1      75.411  67.042  93.678  1.00  0.00     0.277 C 
HETATM   15  N2  UNL     1      75.392  68.243  94.369  1.00  0.00    -0.265 N 
ATOM     16  H2  UNL     1      76.199  68.866  94.351  1.00  0.00     0.190 HD
HETATM   17  O1  UNL     1      74.348  66.309  93.751  1.00  0.00    -0.266 OA
BRANCH  15  18
HETATM   18  N1  UNL     1      74.216  68.592  95.107  1.00  0.00    -0.297 N 
HETATM   19  C2  UNL     1      74.318  68.690  96.390  1.00  0.00     0.086 C 
HETATM   20  C1  UNL     1      75.590  68.456  97.083  1.00  0.00     0.075 C 
ATOM     21  H1  UNL     1      73.327  68.758  94.635  1.00  0.00     0.187 HD
BRANCH  19  22
HETATM   22  C11 UNL     1      73.088  69.051  97.120  1.00  0.00     0.278 C 
HETATM   23  N11 UNL     1      72.476  70.325  96.988  1.00  0.00    -0.056 NA
HETATM   24  O3  UNL     1      72.531  68.222  97.899  1.00  0.00    -0.270 OA
ENDBRANCH  19  22
ENDBRANCH  15  18
ENDBRANCH   1  14
BRANCH  13  25
HETATM   25  N10 UNL     1      77.414  65.214  94.547  1.00  0.00    -0.382 N 
ATOM     26 2H10 UNL     1      78.308  64.875  94.905  1.00  0.00     0.157 HD
ATOM     27 1H10 UNL     1      76.570  65.211  95.119  1.00  0.00     0.157 HD
ENDBRANCH  13  25
BRANCH   7  28
HETATM   28  N6  UNL     1      79.536  65.526  89.154  1.00  0.00    -0.308 N 
ATOM     29  H6  UNL     1      79.134  64.899  88.457  1.00  0.00     0.170 HD
BRANCH  28  30
HETATM   30  C7  UNL     1      80.037  66.737  88.673  1.00  0.00     0.230 C 
HETATM   31  N7  UNL     1      80.968  66.859  87.632  1.00  0.00    -0.056 NA
BRANCH  30  32
HETATM   32  O2  UNL     1      79.603  67.829  89.239  1.00  0.00    -0.335 OA
ATOM     33  H2  UNL     1      79.991  68.648  88.957  1.00  0.00     0.220 HD
ENDBRANCH  30  32
ENDBRANCH  28  30
ENDBRANCH   7  28
TORSDOF 7
ENDMDL
MODEL 3
REMARK VINA RESULT: -6.898221666      2.781      8.162
REMARK  7 active torsions:
REMARK  status: ('A' for Active; 'I' for Inactive)
REMARK    1  A    between atoms: C2_2  and  C11_31 
REMARK    2  A    between atoms: N1_3  and  N2_5 
REMARK       I    between atoms: N2_5  and  C3_7 
REMARK    3  A    between atoms: C3_7  and  C4_9 
REMARK    4  A    between atoms: C6_15  and  N6_16 
REMARK    5  A    between atoms: N6_16  and  C7_18 
REMARK    6  A    between atoms: C7_18  and  O2_20 
REMARK    7  A    between atoms: C10_27  and  N10_28 
ROOT
HETATM    1  C4  UNL     1      76.312  66.341  93.921  1.00  0.00     0.123 A 
HETATM    2  C5  UNL     1      75.086  66.265  93.239  1.00  0.00     0.152 A 
HETATM    3  N3  UNL     1      75.073  65.700  91.932  1.00  0.00    -0.080 NA
HETATM    4  N4  UNL     1      73.997  66.726  93.842  1.00  0.00    -0.262 N 
ATOM      5  H4  UNL     1      73.114  66.666  93.334  1.00  0.00     0.190 HD
HETATM    6  N5  UNL     1      73.972  67.252  95.042  1.00  0.00    -0.155 N 
HETATM    7  C6  UNL     1      72.790  67.711  95.605  1.00  0.00     0.151 A 
HETATM    8  C8  UNL     1      72.796  68.252  96.852  1.00  0.00     0.071 A 
HETATM    9  C9  UNL     1      74.025  68.328  97.537  1.00  0.00     0.113 A 
HETATM   10  N8  UNL     1      75.117  67.866  96.929  1.00  0.00    -0.287 N 
ATOM     11  H8  UNL     1      76.010  67.918  97.421  1.00  0.00     0.188 HD
HETATM   12  N9  UNL     1      75.091  67.340  95.711  1.00  0.00    -0.156 N 
HETATM   13  C10 UNL     1      76.268  66.888  95.161  1.00  0.00     0.160 A 
ENDROOT
BRANCH   1  14
HETATM   14  C3  UNL     1      77.505  65.851  93.293  1.00  0.00     0.277 C 
HETATM   15  N2  UNL     1      78.296  64.791  93.703  1.00  0.00    -0.265 N 
ATOM     16  H2  UNL     1      78.057  64.257  94.539  1.00  0.00     0.190 HD
HETATM   17  O1  UNL     1      77.876  66.477  92.223  1.00  0.00    -0.266 OA
BRANCH  15  18
HETATM   18  N1  UNL     1      79.455  64.459  92.932  1.00  0.00    -0.297 N 
HETATM   19  C2  UNL     1      79.807  63.218  92.877  1.00  0.00     0.086 C 
HETATM   20  C1  UNL     1      79.055  62.172  93.577  1.00  0.00     0.075 C 
ATOM     21  H1  UNL     1      79.985  65.179  92.440  1.00  0.00     0.187 HD
BRANCH  19  22
HETATM   22  C11 UNL     1      81.007  62.912  92.074  1.00  0.00     0.278 C 
HETATM   23  N11 UNL     1      81.560  61.607  92.008  1.00  0.00    -0.056 NA
HETATM   24  O3  UNL     1      81.588  63.819  91.407  1.00  0.00    -0.270 OA
ENDBRANCH  19  22
ENDBRANCH  15  18
ENDBRANCH   1  14
BRANCH  13  25
HETATM   25  N10 UNL     1      77.314  67.014  95.885  1.00  0.00    -0.382 N 
ATOM     26 2H10 UNL     1      77.769  66.147  96.172  1.00  0.00     0.157 HD
ATOM     27 1H10 UNL     1      77.675  67.928  96.161  1.00  0.00     0.157 HD
ENDBRANCH  13  25
BRANCH   7  28
HETATM   28  N6  UNL     1      71.636  67.580  94.825  1.00  0.00    -0.308 N 
ATOM     29  H6  UNL     1      71.187  68.451  94.539  1.00  0.00     0.170 HD
BRANCH  28  30
HETATM   30  C7  UNL     1      71.023  66.404  94.391  1.00  0.00     0.230 C 
HETATM   31  N7  UNL     1      71.629  65.140  94.397  1.00  0.00    -0.056 NA
BRANCH  30  32
HETATM   32  O2  UNL     1      69.800  66.496  93.950  1.00  0.00    -0.335 OA
ATOM     33  H2  UNL     1      69.680  66.542  93.009  1.00  0.00     0.220 HD
ENDBRANCH  30  32
ENDBRANCH  28  30
ENDBRANCH   7  28
TORSDOF 7
ENDMDL
MODEL 4
REMARK VINA RESULT: -5.726124970      2.703      4.048
REMARK  7 active torsions:
REMARK  status: ('A' for Active; 'I' for Inactive)
REMARK    1  A    between atoms: C2_2  and  C11_31 
REMARK    2  A    between atoms: N1_3  and  N2_5 
REMARK       I    between atoms: N2_5  and  C3_7 
REMARK    3  A    between atoms: C3_7  and  C4_9 
REMARK    4  A    between atoms: C6_15  and  N6_16 
REMARK    5  A    between atoms: N6_16  and  C7_18 
REMARK    6  A    between atoms: C7_18  and  O2_20 
REMARK    7  A    between atoms: C10_27  and  N10_28 
ROOT
HETATM    1  C4  UNL     1      76.243  66.698  92.757  1.00  0.00     0.123 A 
HETATM    2  C5  UNL     1      76.447  67.524  91.639  1.00  0.00     0.152 A 
HETATM    3  N3  UNL     1      75.569  68.628  91.445  1.00  0.00    -0.080 NA
HETATM    4  N4  UNL     1      77.447  67.237  90.815  1.00  0.00    -0.262 N 
ATOM      5  H4  UNL     1      77.582  67.845  90.007  1.00  0.00     0.190 HD
HETATM    6  N5  UNL     1      78.274  66.231  90.963  1.00  0.00    -0.155 N 
HETATM    7  C6  UNL     1      79.297  65.998  90.056  1.00  0.00     0.151 A 
HETATM    8  C8  UNL     1      80.139  64.946  90.236  1.00  0.00     0.071 A 
HETATM    9  C9  UNL     1      79.935  64.117  91.358  1.00  0.00     0.113 A 
HETATM   10  N8  UNL     1      78.930  64.407  92.183  1.00  0.00    -0.287 N 
ATOM     11  H8  UNL     1      78.778  63.810  92.997  1.00  0.00     0.188 HD
HETATM   12  N9  UNL     1      78.119  65.439  91.991  1.00  0.00    -0.156 N 
HETATM   13  C10 UNL     1      77.107  65.662  92.894  1.00  0.00     0.160 A 
ENDROOT
BRANCH   1  14
HETATM   14  C3  UNL     1      75.169  66.984  93.664  1.00  0.00     0.277 C 
HETATM   15  N2  UNL     1      75.094  68.025  94.575  1.00  0.00    -0.265 N 
ATOM     16  H2  UNL     1      75.855  68.699  94.660  1.00  0.00     0.190 HD
HETATM   17  O1  UNL     1      74.162  66.173  93.619  1.00  0.00    -0.266 OA
BRANCH  15  18
HETATM   18  N1  UNL     1      73.926  68.137  95.396  1.00  0.00    -0.297 N 
HETATM   19  C2  UNL     1      74.090  68.462  96.634  1.00  0.00     0.086 C 
HETATM   20  C1  UNL     1      75.421  68.712  97.197  1.00  0.00     0.075 C 
ATOM     21  H1  UNL     1      72.995  67.966  95.015  1.00  0.00     0.187 HD
BRANCH  19  22
HETATM   22  C11 UNL     1      72.866  68.568  97.452  1.00  0.00     0.278 C 
HETATM   23  N11 UNL     1      72.477  67.555  98.367  1.00  0.00    -0.056 NA
HETATM   24  O3  UNL     1      72.112  69.582  97.360  1.00  0.00    -0.270 OA
ENDBRANCH  19  22
ENDBRANCH  15  18
ENDBRANCH   1  14
BRANCH  13  25
HETATM   25  N10 UNL     1      77.029  64.837  93.869  1.00  0.00    -0.382 N 
ATOM     26 2H10 UNL     1      77.326  65.188  94.779  1.00  0.00     0.157 HD
ATOM     27 1H10 UNL     1      76.689  63.884  93.745  1.00  0.00     0.157 HD
ENDBRANCH  13  25
BRANCH   7  28
HETATM   28  N6  UNL     1      79.396  66.892  88.984  1.00  0.00    -0.308 N 
ATOM     29  H6  UNL     1      79.440  66.474  88.055  1.00  0.00     0.170 HD
BRANCH  28  30
HETATM   30  C7  UNL     1      79.444  68.286  89.032  1.00  0.00     0.230 C 
HETATM   31  N7  UNL     1      79.139  69.132  87.957  1.00  0.00    -0.056 NA
BRANCH  30  32
HETATM   32  O2  UNL     1      79.799  68.832  90.162  1.00  0.00    -0.335 OA
ATOM     33  H2  UNL     1      79.863  69.779  90.185  1.00  0.00     0.220 HD
ENDBRANCH  30  32
ENDBRANCH  28  30
ENDBRANCH   7  28
TORSDOF 7
ENDMDL
MODEL 5
REMARK VINA RESULT: -5.643256791      2.418      7.942
REMARK  7 active torsions:
REMARK  status: ('A' for Active; 'I' for Inactive)
REMARK    1  A    between atoms: C2_2  and  C11_31 
REMARK    2  A    between atoms: N1_3  and  N2_5 
REMARK       I    between atoms: N2_5  and  C3_7 
REMARK    3  A    between atoms: C3_7  and  C4_9 
REMARK    4  A    between atoms: C6_15  and  N6_16 
REMARK    5  A    between atoms: N6_16  and  C7_18 
REMARK    6  A    between atoms: C7_18  and  O2_20 
REMARK    7  A    between atoms: C10_27  and  N10_28 
ROOT
HETATM    1  C4  UNL     1      76.146  66.255  93.999  1.00  0.00     0.123 A 
HETATM    2  C5  UNL     1      76.235  67.030  95.168  1.00  0.00     0.152 A 
HETATM    3  N3  UNL     1      77.528  67.315  95.694  1.00  0.00    -0.080 NA
HETATM    4  N4  UNL     1      75.112  67.459  95.729  1.00  0.00    -0.262 N 
ATOM      5  H4  UNL     1      75.191  68.019  96.578  1.00  0.00     0.190 HD
HETATM    6  N5  UNL     1      73.908  67.216  95.273  1.00  0.00    -0.155 N 
HETATM    7  C6  UNL     1      72.779  67.702  95.918  1.00  0.00     0.151 A 
HETATM    8  C8  UNL     1      71.543  67.433  95.420  1.00  0.00     0.071 A 
HETATM    9  C9  UNL     1      71.453  66.656  94.248  1.00  0.00     0.113 A 
HETATM   10  N8  UNL     1      72.583  66.226  93.687  1.00  0.00    -0.287 N 
ATOM     11  H8  UNL     1      72.524  65.663  92.838  1.00  0.00     0.188 HD
HETATM   12  N9  UNL     1      73.781  66.499  94.187  1.00  0.00    -0.156 N 
HETATM   13  C10 UNL     1      74.894  66.013  93.542  1.00  0.00     0.160 A 
ENDROOT
BRANCH   1  14
HETATM   14  C3  UNL     1      77.345  65.777  93.372  1.00  0.00     0.277 C 
HETATM   15  N2  UNL     1      78.339  64.999  93.943  1.00  0.00    -0.265 N 
ATOM     16  H2  UNL     1      78.271  64.699  94.916  1.00  0.00     0.190 HD
HETATM   17  O1  UNL     1      77.508  66.115  92.134  1.00  0.00    -0.266 OA
BRANCH  15  18
HETATM   18  N1  UNL     1      79.465  64.625  93.142  1.00  0.00    -0.297 N 
HETATM   19  C2  UNL     1      79.667  63.367  92.938  1.00  0.00     0.086 C 
HETATM   20  C1  UNL     1      78.781  62.342  93.500  1.00  0.00     0.075 C 
ATOM     21  H1  UNL     1      80.087  65.330  92.746  1.00  0.00     0.187 HD
BRANCH  19  22
HETATM   22  C11 UNL     1      80.836  63.017  92.108  1.00  0.00     0.278 C 
HETATM   23  N11 UNL     1      81.374  61.704  92.075  1.00  0.00    -0.056 NA
HETATM   24  O3  UNL     1      81.404  63.891  91.388  1.00  0.00    -0.270 OA
ENDBRANCH  19  22
ENDBRANCH  15  18
ENDBRANCH   1  14
BRANCH  13  25
HETATM   25  N10 UNL     1      74.677  65.321  92.489  1.00  0.00    -0.382 N 
ATOM     26 2H10 UNL     1      75.503  65.017  91.972  1.00  0.00     0.157 HD
ATOM     27 1H10 UNL     1      73.733  65.085  92.180  1.00  0.00     0.157 HD
ENDBRANCH  13  25
BRANCH   7  28
HETATM   28  N6  UNL     1      72.999  68.461  97.072  1.00  0.00    -0.308 N 
ATOM     29  H6  UNL     1      72.425  68.223  97.881  1.00  0.00     0.170 HD
BRANCH  28  30
HETATM   30  C7  UNL     1      73.908  69.505  97.252  1.00  0.00     0.230 C 
HETATM   31  N7  UNL     1      73.719  70.815  96.791  1.00  0.00    -0.056 NA
BRANCH  30  32
HETATM   32  O2  UNL     1      75.010  69.232  97.894  1.00  0.00    -0.335 OA
ATOM     33  H2  UNL     1      75.728  69.847  97.804  1.00  0.00     0.220 HD
ENDBRANCH  30  32
ENDBRANCH  28  30
ENDBRANCH   7  28
TORSDOF 7
ENDMDL
