MODEL 1
REMARK VINA RESULT: -6.878695673      0.000      0.000
REMARK  9 active torsions:
REMARK  status: ('A' for Active; 'I' for Inactive)
REMARK       I    between atoms: N1_2  and  C2_4 
REMARK    1  A    between atoms: C2_4  and  C3_6 
REMARK    2  A    between atoms: C3_6  and  O2_7 
REMARK    3  A    between atoms: C3_6  and  N2_9 
REMARK    4  A    between atoms: N2_9  and  C4_11 
REMARK    5  A    between atoms: C7_18  and  N5_19 
REMARK    6  A    between atoms: N5_19  and  O3_21 
REMARK    7  A    between atoms: C9_25  and  N7_26 
REMARK    8  A    between atoms: N7_26  and  C10_28 
REMARK    9  A    between atoms: C10_28  and  O4_30 
ROOT
HETATM    1  C4  UNL     1      75.179  67.078  92.848  1.00  0.00     0.138 A 
HETATM    2  N3  UNL     1      74.740  68.014  92.007  1.00  0.00    -0.337 N 
ATOM      3  H3  UNL     1      73.830  68.429  92.207  1.00  0.00     0.168 HD
HETATM    4  C5  UNL     1      75.386  68.456  90.923  1.00  0.00     0.182 A 
HETATM    5  N4  UNL     1      76.595  67.956  90.590  1.00  0.00    -0.347 N 
ATOM      6  H4  UNL     1      77.094  68.288  89.764  1.00  0.00     0.167 HD
HETATM    7  C6  UNL     1      77.112  67.011  91.381  1.00  0.00     0.111 A 
HETATM    8  C7  UNL     1      78.352  66.519  91.013  1.00  0.00     0.170 A 
HETATM    9  N6  UNL     1      78.878  65.570  91.803  1.00  0.00    -0.173 N 
ATOM     10  H6  UNL     1      79.791  65.178  91.571  1.00  0.00     0.186 HD
HETATM   11  C9  UNL     1      78.231  65.122  92.896  1.00  0.00     0.682 A 
HETATM   12  N8  UNL     1      76.998  65.610  93.262  1.00  0.00    -0.186 N 
ATOM     13  H8  UNL     1      76.523  65.257  94.093  1.00  0.00     0.184 HD
HETATM   14  C12 UNL     1      76.441  66.553  92.505  1.00  0.00     0.123 A 
ENDROOT
BRANCH   1  15
HETATM   15  N2  UNL     1      74.463  66.649  93.973  1.00  0.00    -0.317 N 
ATOM     16  H2  UNL     1      74.704  65.702  94.266  1.00  0.00     0.169 HD
BRANCH  15  17
HETATM   17  C3  UNL     1      73.500  67.239  94.767  1.00  0.00     0.211 C 
BRANCH  17  18
HETATM   18  C2  UNL     1      73.640  68.131  95.865  1.00  0.00     0.292 C 
HETATM   19  N1  UNL     1      74.522  69.272  95.726  1.00  0.00    -0.358 N 
HETATM   20  C1  UNL     1      74.693  70.198  96.810  1.00  0.00     0.149 C 
ATOM     21  H1  UNL     1      75.024  69.419  94.850  1.00  0.00     0.162 HD
HETATM   22  O1  UNL     1      73.079  68.034  96.951  1.00  0.00    -0.264 OA
ENDBRANCH  17  18
BRANCH  17  23
HETATM   23  O2  UNL     1      72.236  66.929  94.464  1.00  0.00    -0.342 OA
ATOM     24  H2  UNL     1      71.848  67.474  93.790  1.00  0.00     0.219 HD
ENDBRANCH  17  23
ENDBRANCH  15  17
ENDBRANCH   1  15
BRANCH   8  25
HETATM   25  N5  UNL     1      78.989  66.920  89.990  1.00  0.00    -0.248 N 
ATOM     26  H5  UNL     1      79.209  66.226  89.276  1.00  0.00     0.196 HD
BRANCH  25  27
HETATM   27  O3  UNL     1      79.403  68.193  89.764  1.00  0.00    -0.284 OA
HETATM   28  C8  UNL     1      79.339  68.662  88.412  1.00  0.00     0.237 C 
ENDBRANCH  25  27
ENDBRANCH   8  25
BRANCH  11  29
HETATM   29  N7  UNL     1      78.696  64.214  93.680  1.00  0.00    -0.200 N 
ATOM     30  H7  UNL     1      79.186  64.534  94.515  1.00  0.00     0.180 HD
BRANCH  29  31
HETATM   31  C10 UNL     1      78.592  62.797  93.492  1.00  0.00     0.230 C 
HETATM   32  C11 UNL     1      79.908  62.097  93.342  1.00  0.00     0.063 C 
BRANCH  31  33
HETATM   33  O4  UNL     1      77.703  62.550  92.446  1.00  0.00    -0.377 OA
ATOM     34  H4  UNL     1      77.640  61.611  92.315  1.00  0.00     0.212 HD
ENDBRANCH  31  33
ENDBRANCH  29  31
ENDBRANCH  11  29
TORSDOF 9
ENDMDL
MODEL 2
REMARK VINA RESULT: -6.579185569      1.599      1.645
REMARK  9 active torsions:
REMARK  status: ('A' for Active; 'I' for Inactive)
REMARK       I    between atoms: N1_2  and  C2_4 
REMARK    1  A    between atoms: C2_4  and  C3_6 
REMARK    2  A    between atoms: C3_6  and  O2_7 
REMARK    3  A    between atoms: C3_6  and  N2_9 
REMARK    4  A    between atoms: N2_9  and  C4_11 
REMARK    5  A    between atoms: C7_18  and  N5_19 
REMARK    6  A    between atoms: N5_19  and  O3_21 
REMARK    7  A    between atoms: C9_25  and  N7_26 
REMARK    8  A    between atoms: N7_26  and  C10_28 
REMARK    9  A    between atoms: C10_28  and  O4_30 
ROOT
HETATM    1  C4  UNL     1      76.115  67.011  93.140  1.00  0.00     0.138 A 
HETATM    2  N3  UNL     1      75.518  67.867  92.310  1.00  0.00    -0.337 N 
ATOM      3  H3  UNL     1      74.701  68.363  92.663  1.00  0.00     0.168 HD
HETATM    4  C5  UNL     1      75.898  68.132  91.056  1.00  0.00     0.182 A 
HETATM    5  N4  UNL     1      76.970  67.516  90.515  1.00  0.00    -0.347 N 
ATOM      6  H4  UNL     1      77.266  67.712  89.558  1.00  0.00     0.167 HD
HETATM    7  C6  UNL     1      77.629  66.640  91.279  1.00  0.00     0.111 A 
HETATM    8  C7  UNL     1      78.724  66.025  90.696  1.00  0.00     0.170 A 
HETATM    9  N6  UNL     1      79.392  65.144  91.458  1.00  0.00    -0.173 N 
ATOM     10  H6  UNL     1      80.206  64.667  91.071  1.00  0.00     0.186 HD
HETATM   11  C9  UNL     1      79.013  64.874  92.722  1.00  0.00     0.682 A 
HETATM   12  N8  UNL     1      77.926  65.484  93.302  1.00  0.00    -0.186 N 
ATOM     13  H8  UNL     1      77.654  65.266  94.261  1.00  0.00     0.184 HD
HETATM   14  C12 UNL     1      77.236  66.365  92.581  1.00  0.00     0.123 A 
ENDROOT
BRANCH   1  15
HETATM   15  N2  UNL     1      75.679  66.768  94.448  1.00  0.00    -0.317 N 
ATOM     16  H2  UNL     1      74.865  66.155  94.495  1.00  0.00     0.169 HD
BRANCH  15  17
HETATM   17  C3  UNL     1      76.121  67.184  95.688  1.00  0.00     0.211 C 
BRANCH  17  18
HETATM   18  C2  UNL     1      75.618  68.202  96.544  1.00  0.00     0.292 C 
HETATM   19  N1  UNL     1      74.938  69.336  95.952  1.00  0.00    -0.358 N 
HETATM   20  C1  UNL     1      74.415  70.386  96.779  1.00  0.00     0.149 C 
ATOM     21  H1  UNL     1      74.830  69.388  94.939  1.00  0.00     0.162 HD
HETATM   22  O1  UNL     1      75.702  68.224  97.768  1.00  0.00    -0.264 OA
ENDBRANCH  17  18
BRANCH  17  23
HETATM   23  O2  UNL     1      77.187  66.537  96.166  1.00  0.00    -0.342 OA
ATOM     24  H2  UNL     1      77.145  65.591  96.080  1.00  0.00     0.219 HD
ENDBRANCH  17  23
ENDBRANCH  15  17
ENDBRANCH   1  15
BRANCH   8  25
HETATM   25  N5  UNL     1      79.108  66.257  89.508  1.00  0.00    -0.248 N 
ATOM     26  H5  UNL     1      78.819  65.596  88.787  1.00  0.00     0.196 HD
BRANCH  25  27
HETATM   27  O3  UNL     1      79.869  67.309  89.114  1.00  0.00    -0.284 OA
HETATM   28  C8  UNL     1      80.535  67.187  87.851  1.00  0.00     0.237 C 
ENDBRANCH  25  27
ENDBRANCH   8  25
BRANCH  11  29
HETATM   29  N7  UNL     1      79.623  64.038  93.487  1.00  0.00    -0.200 N 
ATOM     30  H7  UNL     1      80.220  64.429  94.214  1.00  0.00     0.180 HD
BRANCH  29  31
HETATM   31  C10 UNL     1      79.541  62.608  93.414  1.00  0.00     0.230 C 
HETATM   32  C11 UNL     1      80.711  61.958  92.740  1.00  0.00     0.063 C 
BRANCH  31  33
HETATM   33  O4  UNL     1      78.310  62.260  92.859  1.00  0.00    -0.377 OA
ATOM     34  H4  UNL     1      78.379  61.387  92.489  1.00  0.00     0.212 HD
ENDBRANCH  31  33
ENDBRANCH  29  31
ENDBRANCH  11  29
TORSDOF 9
ENDMDL
MODEL 3
REMARK VINA RESULT: -6.137486809      1.332      1.907
REMARK  9 active torsions:
REMARK  status: ('A' for Active; 'I' for Inactive)
REMARK       I    between atoms: N1_2  and  C2_4 
REMARK    1  A    between atoms: C2_4  and  C3_6 
REMARK    2  A    between atoms: C3_6  and  O2_7 
REMARK    3  A    between atoms: C3_6  and  N2_9 
REMARK    4  A    between atoms: N2_9  and  C4_11 
REMARK    5  A    between atoms: C7_18  and  N5_19 
REMARK    6  A    between atoms: N5_19  and  O3_21 
REMARK    7  A    between atoms: C9_25  and  N7_26 
REMARK    8  A    between atoms: N7_26  and  C10_28 
REMARK    9  A    between atoms: C10_28  and  O4_30 
ROOT
HETATM    1  C4  UNL     1      76.073  67.162  92.779  1.00  0.00     0.138 A 
HETATM    2  N3  UNL     1      75.611  68.024  91.874  1.00  0.00    -0.337 N 
ATOM      3  H3  UNL     1      74.791  68.573  92.130  1.00  0.00     0.168 HD
HETATM    4  C5  UNL     1      76.127  68.232  90.658  1.00  0.00     0.182 A 
HETATM    5  N4  UNL     1      77.212  67.545  90.243  1.00  0.00    -0.347 N 
ATOM      6  H4  UNL     1      77.612  67.697  89.317  1.00  0.00     0.167 HD
HETATM    7  C6  UNL     1      77.742  66.657  91.090  1.00  0.00     0.111 A 
HETATM    8  C7  UNL     1      78.853  65.969  90.636  1.00  0.00     0.170 A 
HETATM    9  N6  UNL     1      79.392  65.076  91.482  1.00  0.00    -0.173 N 
ATOM     10  H6  UNL     1      80.212  64.545  91.190  1.00  0.00     0.186 HD
HETATM   11  C9  UNL     1      78.875  64.863  92.708  1.00  0.00     0.682 A 
HETATM   12  N8  UNL     1      77.770  65.547  93.160  1.00  0.00    -0.186 N 
ATOM     13  H8  UNL     1      77.393  65.372  94.091  1.00  0.00     0.184 HD
HETATM   14  C12 UNL     1      77.206  66.441  92.352  1.00  0.00     0.123 A 
ENDROOT
BRANCH   1  15
HETATM   15  N2  UNL     1      75.496  66.981  94.042  1.00  0.00    -0.317 N 
ATOM     16  H2  UNL     1      75.935  66.237  94.583  1.00  0.00     0.169 HD
BRANCH  15  17
HETATM   17  C3  UNL     1      74.456  67.600  94.708  1.00  0.00     0.211 C 
BRANCH  17  18
HETATM   18  C2  UNL     1      73.110  67.183  94.890  1.00  0.00     0.292 C 
HETATM   19  N1  UNL     1      72.553  66.209  93.974  1.00  0.00    -0.358 N 
HETATM   20  C1  UNL     1      71.198  65.760  94.120  1.00  0.00     0.149 C 
ATOM     21  H1  UNL     1      73.130  65.838  93.218  1.00  0.00     0.162 HD
HETATM   22  O1  UNL     1      72.344  67.572  95.766  1.00  0.00    -0.264 OA
ENDBRANCH  17  18
BRANCH  17  23
HETATM   23  O2  UNL     1      74.752  68.775  95.272  1.00  0.00    -0.342 OA
ATOM     24  H2  UNL     1      75.004  69.454  94.657  1.00  0.00     0.219 HD
ENDBRANCH  17  23
ENDBRANCH  15  17
ENDBRANCH   1  15
BRANCH   8  25
HETATM   25  N5  UNL     1      79.366  66.145  89.487  1.00  0.00    -0.248 N 
ATOM     26  H5  UNL     1      79.353  65.353  88.844  1.00  0.00     0.196 HD
BRANCH  25  27
HETATM   27  O3  UNL     1      79.928  67.296  89.041  1.00  0.00    -0.284 OA
HETATM   28  C8  UNL     1      80.592  67.241  87.772  1.00  0.00     0.237 C 
ENDBRANCH  25  27
ENDBRANCH   8  25
BRANCH  11  29
HETATM   29  N7  UNL     1      79.357  64.018  93.550  1.00  0.00    -0.200 N 
ATOM     30  H7  UNL     1      79.877  64.400  94.339  1.00  0.00     0.180 HD
BRANCH  29  31
HETATM   31  C10 UNL     1      79.232  62.592  93.484  1.00  0.00     0.230 C 
HETATM   32  C11 UNL     1      80.464  61.887  93.002  1.00  0.00     0.063 C 
BRANCH  31  33
HETATM   33  O4  UNL     1      78.086  62.277  92.755  1.00  0.00    -0.377 OA
ATOM     34  H4  UNL     1      77.381  62.088  93.363  1.00  0.00     0.212 HD
ENDBRANCH  31  33
ENDBRANCH  29  31
ENDBRANCH  11  29
TORSDOF 9
ENDMDL
MODEL 4
REMARK VINA RESULT: -6.118354448      2.884      7.163
REMARK  9 active torsions:
REMARK  status: ('A' for Active; 'I' for Inactive)
REMARK       I    between atoms: N1_2  and  C2_4 
REMARK    1  A    between atoms: C2_4  and  C3_6 
REMARK    2  A    between atoms: C3_6  and  O2_7 
REMARK    3  A    between atoms: C3_6  and  N2_9 
REMARK    4  A    between atoms: N2_9  and  C4_11 
REMARK    5  A    between atoms: C7_18  and  N5_19 
REMARK    6  A    between atoms: N5_19  and  O3_21 
REMARK    7  A    between atoms: C9_25  and  N7_26 
REMARK    8  A    between atoms: N7_26  and  C10_28 
REMARK    9  A    between atoms: C10_28  and  O4_30 
ROOT
HETATM    1  C4  UNL     1      76.828  67.239  96.052  1.00  0.00     0.138 A 
HETATM    2  N3  UNL     1      77.569  68.001  96.855  1.00  0.00    -0.337 N 
ATOM      3  H3  UNL     1      78.536  67.714  97.007  1.00  0.00     0.168 HD
HETATM    4  C5  UNL     1      77.158  69.111  97.478  1.00  0.00     0.182 A 
HETATM    5  N4  UNL     1      75.894  69.557  97.329  1.00  0.00    -0.347 N 
ATOM      6  H4  UNL     1      75.572  70.402  97.801  1.00  0.00     0.167 HD
HETATM    7  C6  UNL     1      75.079  68.851  96.538  1.00  0.00     0.111 A 
HETATM    8  C7  UNL     1      73.789  69.335  96.405  1.00  0.00     0.170 A 
HETATM    9  N6  UNL     1      72.965  68.631  95.612  1.00  0.00    -0.173 N 
ATOM     10  H6  UNL     1      72.005  68.950  95.483  1.00  0.00     0.186 HD
HETATM   11  C9  UNL     1      73.375  67.513  94.982  1.00  0.00     0.682 A 
HETATM   12  N8  UNL     1      74.656  67.032  95.114  1.00  0.00    -0.186 N 
ATOM     13  H8  UNL     1      74.948  66.183  94.629  1.00  0.00     0.184 HD
HETATM   14  C12 UNL     1      75.506  67.700  95.891  1.00  0.00     0.123 A 
ENDROOT
BRANCH   1  15
HETATM   15  N2  UNL     1      77.306  66.084  95.420  1.00  0.00    -0.317 N 
ATOM     16  H2  UNL     1      77.666  65.388  96.072  1.00  0.00     0.169 HD
BRANCH  15  17
HETATM   17  C3  UNL     1      77.390  65.691  94.099  1.00  0.00     0.211 C 
BRANCH  17  18
HETATM   18  C2  UNL     1      78.156  64.654  93.500  1.00  0.00     0.292 C 
HETATM   19  N1  UNL     1      79.360  65.008  92.776  1.00  0.00    -0.358 N 
HETATM   20  C1  UNL     1      80.163  63.993  92.155  1.00  0.00     0.149 C 
ATOM     21  H1  UNL     1      79.639  65.987  92.706  1.00  0.00     0.162 HD
HETATM   22  O1  UNL     1      77.899  63.456  93.531  1.00  0.00    -0.264 OA
ENDBRANCH  17  18
BRANCH  17  23
HETATM   23  O2  UNL     1      76.640  66.390  93.242  1.00  0.00    -0.342 OA
ATOM     24  H2  UNL     1      76.638  66.051  92.354  1.00  0.00     0.219 HD
ENDBRANCH  17  23
ENDBRANCH  15  17
ENDBRANCH   1  15
BRANCH   8  25
HETATM   25  N5  UNL     1      73.371  70.385  96.984  1.00  0.00    -0.248 N 
ATOM     26  H5  UNL     1      72.592  70.280  97.634  1.00  0.00     0.196 HD
BRANCH  25  27
HETATM   27  O3  UNL     1      73.871  71.634  96.813  1.00  0.00    -0.284 OA
HETATM   28  C8  UNL     1      72.988  72.727  97.093  1.00  0.00     0.237 C 
ENDBRANCH  25  27
ENDBRANCH   8  25
BRANCH  11  29
HETATM   29  N7  UNL     1      72.620  66.808  94.214  1.00  0.00    -0.200 N 
ATOM     30  H7  UNL     1      72.998  66.555  93.302  1.00  0.00     0.180 HD
BRANCH  29  31
HETATM   31  C10 UNL     1      71.299  66.344  94.520  1.00  0.00     0.230 C 
HETATM   32  C11 UNL     1      70.890  65.111  93.773  1.00  0.00     0.063 C 
BRANCH  31  33
HETATM   33  O4  UNL     1      70.408  67.408  94.377  1.00  0.00    -0.377 OA
ATOM     34  H4  UNL     1      70.259  67.797  95.230  1.00  0.00     0.212 HD
ENDBRANCH  31  33
ENDBRANCH  29  31
ENDBRANCH  11  29
TORSDOF 9
ENDMDL
MODEL 5
REMARK VINA RESULT: -6.096798636      2.379      6.949
REMARK  9 active torsions:
REMARK  status: ('A' for Active; 'I' for Inactive)
REMARK       I    between atoms: N1_2  and  C2_4 
REMARK    1  A    between atoms: C2_4  and  C3_6 
REMARK    2  A    between atoms: C3_6  and  O2_7 
REMARK    3  A    between atoms: C3_6  and  N2_9 
REMARK    4  A    between atoms: N2_9  and  C4_11 
REMARK    5  A    between atoms: C7_18  and  N5_19 
REMARK    6  A    between atoms: N5_19  and  O3_21 
REMARK    7  A    between atoms: C9_25  and  N7_26 
REMARK    8  A    between atoms: N7_26  and  C10_28 
REMARK    9  A    between atoms: C10_28  and  O4_30 
ROOT
HETATM    1  C4  UNL     1      77.025  65.811  93.419  1.00  0.00     0.138 A 
HETATM    2  N3  UNL     1      76.544  65.472  92.223  1.00  0.00    -0.337 N 
ATOM      3  H3  UNL     1      77.176  64.983  91.590  1.00  0.00     0.168 HD
HETATM    4  C5  UNL     1      75.306  65.716  91.780  1.00  0.00     0.182 A 
HETATM    5  N4  UNL     1      74.410  66.359  92.557  1.00  0.00    -0.347 N 
ATOM      6  H4  UNL     1      73.464  66.549  92.227  1.00  0.00     0.167 HD
HETATM    7  C6  UNL     1      74.808  66.736  93.777  1.00  0.00     0.111 A 
HETATM    8  C7  UNL     1      73.867  67.392  94.550  1.00  0.00     0.170 A 
HETATM    9  N6  UNL     1      74.260  67.774  95.776  1.00  0.00    -0.173 N 
ATOM     10  H6  UNL     1      73.599  68.261  96.381  1.00  0.00     0.186 HD
HETATM   11  C9  UNL     1      75.505  67.530  96.226  1.00  0.00     0.682 A 
HETATM   12  N8  UNL     1      76.442  66.878  95.458  1.00  0.00    -0.186 N 
ATOM     13  H8  UNL     1      77.380  66.703  95.817  1.00  0.00     0.184 HD
HETATM   14  C12 UNL     1      76.093  66.482  94.236  1.00  0.00     0.123 A 
ENDROOT
BRANCH   1  15
HETATM   15  N2  UNL     1      78.331  65.531  93.838  1.00  0.00    -0.317 N 
ATOM     16  H2  UNL     1      78.553  65.921  94.754  1.00  0.00     0.169 HD
BRANCH  15  17
HETATM   17  C3  UNL     1      79.382  64.839  93.270  1.00  0.00     0.211 C 
BRANCH  17  18
HETATM   18  C2  UNL     1      79.654  63.444  93.250  1.00  0.00     0.292 C 
HETATM   19  N1  UNL     1      80.732  62.957  92.413  1.00  0.00    -0.358 N 
HETATM   20  C1  UNL     1      81.041  61.556  92.362  1.00  0.00     0.149 C 
ATOM     21  H1  UNL     1      81.275  63.616  91.854  1.00  0.00     0.162 HD
HETATM   22  O1  UNL     1      79.056  62.581  93.884  1.00  0.00    -0.264 OA
ENDBRANCH  17  18
BRANCH  17  23
HETATM   23  O2  UNL     1      80.291  65.588  92.638  1.00  0.00    -0.342 OA
ATOM     24  H2  UNL     1      79.924  66.273  92.091  1.00  0.00     0.219 HD
ENDBRANCH  17  23
ENDBRANCH  15  17
ENDBRANCH   1  15
BRANCH   8  25
HETATM   25  N5  UNL     1      72.684  67.638  94.156  1.00  0.00    -0.248 N 
ATOM     26  H5  UNL     1      72.574  68.332  93.417  1.00  0.00     0.196 HD
BRANCH  25  27
HETATM   27  O3  UNL     1      71.555  67.056  94.633  1.00  0.00    -0.284 OA
HETATM   28  C8  UNL     1      71.264  65.733  94.167  1.00  0.00     0.237 C 
ENDBRANCH  25  27
ENDBRANCH   8  25
BRANCH  11  29
HETATM   29  N7  UNL     1      75.924  67.878  97.392  1.00  0.00    -0.200 N 
ATOM     30  H7  UNL     1      75.763  67.221  98.155  1.00  0.00     0.180 HD
BRANCH  29  31
HETATM   31  C10 UNL     1      76.596  69.101  97.720  1.00  0.00     0.230 C 
HETATM   32  C11 UNL     1      75.986  70.323  97.103  1.00  0.00     0.063 C 
BRANCH  31  33
HETATM   33  O4  UNL     1      77.954  68.952  97.444  1.00  0.00    -0.377 OA
ATOM     34  H4  UNL     1      78.332  69.813  97.304  1.00  0.00     0.212 HD
ENDBRANCH  31  33
ENDBRANCH  29  31
ENDBRANCH  11  29
TORSDOF 9
ENDMDL
