MODEL 1
REMARK VINA RESULT: -6.495130478      0.000      0.000
REMARK  6 active torsions:
REMARK  status: ('A' for Active; 'I' for Inactive)
REMARK    1  A    between atoms: O1_2  and  C2_3 
REMARK    2  A    between atoms: C2_3  and  C3_5 
REMARK    3  A    between atoms: C6_8  and  O3_9 
REMARK    4  A    between atoms: C6_8  and  C7_11 
REMARK       I    between atoms: N1_15  and  C9_16 
REMARK       I    between atoms: C9_16  and  N5_23 
REMARK    5  A    between atoms: N2_17  and  N3_19 
REMARK    6  A    between atoms: N5_23  and  N6_25 
ROOT
HETATM    1  N3  UNL     1      77.659  67.187  90.694  1.00  0.00    -0.222 N 
ATOM      2  H3  UNL     1      77.423  66.442  90.037  1.00  0.00     0.200 HD
HETATM    3  C10 UNL     1      78.765  68.026  90.472  1.00  0.00     0.198 C 
HETATM    4  N4  UNL     1      79.668  68.720  90.308  1.00  0.00    -0.170 NA
ENDROOT
BRANCH   1   5
HETATM    5  N2  UNL     1      76.904  67.403  91.823  1.00  0.00    -0.120 N 
HETATM    6  C9  UNL     1      76.160  66.542  92.407  1.00  0.00     0.733 C 
HETATM    7  N1  UNL     1      75.445  66.906  93.556  1.00  0.00    -0.117 N 
HETATM    8  N5  UNL     1      76.062  65.231  91.898  1.00  0.00    -0.069 N 
HETATM    9  C8  UNL     1      76.122  67.189  94.777  1.00  0.00     0.217 C 
HETATM   10  N7  UNL     1      74.045  67.001  93.526  1.00  0.00    -0.288 N 
HETATM   11  C6  UNL     1      75.374  68.157  95.665  1.00  0.00     0.169 C 
HETATM   12  C5  UNL     1      73.937  67.839  95.859  1.00  0.00     0.109 C 
HETATM   13  C4  UNL     1      73.339  67.018  94.754  1.00  0.00     0.035 C 
HETATM   14  C3  UNL     1      72.214  66.390  95.005  1.00  0.00     0.108 C 
ATOM     15  H7  UNL     1      73.546  67.056  92.638  1.00  0.00     0.187 HD
ATOM     16  H5  UNL     1      75.403  65.052  91.140  1.00  0.00     0.212 HD
ATOM     17  H2  UNL     1      76.940  68.337  92.234  1.00  0.00     0.206 HD
BRANCH  11  18
HETATM   18  O3  UNL     1      75.486  69.444  95.149  1.00  0.00    -0.377 OA
ATOM     19  H3  UNL     1      76.406  69.657  95.048  1.00  0.00     0.211 HD
ENDBRANCH  11  18
BRANCH  11  20
HETATM   20  C7  UNL     1      76.019  68.134  96.997  1.00  0.00     0.211 C 
HETATM   21  O4  UNL     1      75.425  67.575  97.947  1.00  0.00    -0.646 OA
HETATM   22  O5  UNL     1      77.269  68.719  97.211  1.00  0.00    -0.646 OA
ENDBRANCH  11  20
BRANCH  14  23
HETATM   23  C2  UNL     1      71.463  65.552  94.112  1.00  0.00     0.284 C 
HETATM   24  O2  UNL     1      71.911  64.458  93.661  1.00  0.00    -0.260 OA
BRANCH  23  25
HETATM   25  O1  UNL     1      70.203  65.910  93.702  1.00  0.00    -0.323 OA
HETATM   26  C1  UNL     1      69.456  66.946  94.343  1.00  0.00     0.213 C 
ENDBRANCH  23  25
ENDBRANCH  14  23
BRANCH   8  27
HETATM   27  N6  UNL     1      76.829  64.160  92.383  1.00  0.00    -0.024 N 
HETATM   28  O6  UNL     1      76.992  63.190  91.618  1.00  0.00    -0.516 OA
HETATM   29  O7  UNL     1      77.356  64.205  93.634  1.00  0.00    -0.516 OA
ENDBRANCH   8  27
ENDBRANCH   1   5
TORSDOF 6
ENDMDL
MODEL 2
REMARK VINA RESULT: -6.085635892      2.723      6.978
REMARK  6 active torsions:
REMARK  status: ('A' for Active; 'I' for Inactive)
REMARK    1  A    between atoms: O1_2  and  C2_3 
REMARK    2  A    between atoms: C2_3  and  C3_5 
REMARK    3  A    between atoms: C6_8  and  O3_9 
REMARK    4  A    between atoms: C6_8  and  C7_11 
REMARK       I    between atoms: N1_15  and  C9_16 
REMARK       I    between atoms: C9_16  and  N5_23 
REMARK    5  A    between atoms: N2_17  and  N3_19 
REMARK    6  A    between atoms: N5_23  and  N6_25 
ROOT
HETATM    1  N3  UNL     1      73.031  66.302  93.457  1.00  0.00    -0.222 N 
ATOM      2  H3  UNL     1      72.767  67.287  93.432  1.00  0.00     0.200 HD
HETATM    3  C10 UNL     1      72.169  65.335  94.005  1.00  0.00     0.198 C 
HETATM    4  N4  UNL     1      71.479  64.531  94.451  1.00  0.00    -0.170 NA
ENDROOT
BRANCH   1   5
HETATM    5  N2  UNL     1      74.240  65.877  92.957  1.00  0.00    -0.120 N 
HETATM    6  C9  UNL     1      75.335  66.538  92.971  1.00  0.00     0.733 C 
HETATM    7  N1  UNL     1      76.495  65.975  92.422  1.00  0.00    -0.117 N 
HETATM    8  N5  UNL     1      75.374  67.828  93.540  1.00  0.00    -0.069 N 
HETATM    9  C8  UNL     1      77.128  64.861  93.043  1.00  0.00     0.217 C 
HETATM   10  N7  UNL     1      77.055  66.499  91.246  1.00  0.00    -0.288 N 
HETATM   11  C6  UNL     1      77.888  63.988  92.070  1.00  0.00     0.169 C 
HETATM   12  C5  UNL     1      78.786  64.724  91.145  1.00  0.00     0.109 C 
HETATM   13  C4  UNL     1      78.389  66.153  90.918  1.00  0.00     0.035 C 
HETATM   14  C3  UNL     1      79.297  66.965  90.430  1.00  0.00     0.108 C 
ATOM     15  H7  UNL     1      76.513  67.115  90.641  1.00  0.00     0.187 HD
ATOM     16  H5  UNL     1      75.088  68.621  92.967  1.00  0.00     0.212 HD
ATOM     17  H2  UNL     1      74.266  64.949  92.535  1.00  0.00     0.206 HD
BRANCH  11  18
HETATM   18  O3  UNL     1      76.991  63.232  91.323  1.00  0.00    -0.377 OA
ATOM     19  H3  UNL     1      77.111  62.313  91.534  1.00  0.00     0.211 HD
ENDBRANCH  11  18
BRANCH  11  20
HETATM   20  C7  UNL     1      78.728  63.061  92.862  1.00  0.00     0.211 C 
HETATM   21  O4  UNL     1      78.292  62.633  93.955  1.00  0.00    -0.646 OA
HETATM   22  O5  UNL     1      79.988  62.657  92.414  1.00  0.00    -0.646 OA
ENDBRANCH  11  20
BRANCH  14  23
HETATM   23  C2  UNL     1      79.150  68.363  90.132  1.00  0.00     0.284 C 
HETATM   24  O2  UNL     1      79.661  69.272  90.847  1.00  0.00    -0.260 OA
BRANCH  23  25
HETATM   25  O1  UNL     1      78.433  68.780  89.038  1.00  0.00    -0.323 OA
HETATM   26  C1  UNL     1      79.064  69.204  87.828  1.00  0.00     0.213 C 
ENDBRANCH  23  25
ENDBRANCH  14  23
BRANCH   8  27
HETATM   27  N6  UNL     1      75.790  68.072  94.859  1.00  0.00    -0.024 N 
HETATM   28  O6  UNL     1      75.429  69.148  95.374  1.00  0.00    -0.516 OA
HETATM   29  O7  UNL     1      76.550  67.161  95.518  1.00  0.00    -0.516 OA
ENDBRANCH   8  27
ENDBRANCH   1   5
TORSDOF 6
ENDMDL
MODEL 3
REMARK VINA RESULT: -5.529237986      2.182      5.008
REMARK  6 active torsions:
REMARK  status: ('A' for Active; 'I' for Inactive)
REMARK    1  A    between atoms: O1_2  and  C2_3 
REMARK    2  A    between atoms: C2_3  and  C3_5 
REMARK    3  A    between atoms: C6_8  and  O3_9 
REMARK    4  A    between atoms: C6_8  and  C7_11 
REMARK       I    between atoms: N1_15  and  C9_16 
REMARK       I    between atoms: C9_16  and  N5_23 
REMARK    5  A    between atoms: N2_17  and  N3_19 
REMARK    6  A    between atoms: N5_23  and  N6_25 
ROOT
HETATM    1  N3  UNL     1      76.504  64.342  92.093  1.00  0.00    -0.222 N 
ATOM      2  H3  UNL     1      76.400  64.391  91.079  1.00  0.00     0.200 HD
HETATM    3  C10 UNL     1      77.591  63.668  92.678  1.00  0.00     0.198 C 
HETATM    4  N4  UNL     1      78.470  63.119  93.174  1.00  0.00    -0.170 NA
ENDROOT
BRANCH   1   5
HETATM    5  N2  UNL     1      75.586  64.933  92.930  1.00  0.00    -0.120 N 
HETATM    6  C9  UNL     1      75.527  66.176  93.225  1.00  0.00     0.733 C 
HETATM    7  N1  UNL     1      74.532  66.637  94.097  1.00  0.00    -0.117 N 
HETATM    8  N5  UNL     1      76.458  67.079  92.673  1.00  0.00    -0.069 N 
HETATM    9  C8  UNL     1      73.163  66.637  93.706  1.00  0.00     0.217 C 
HETATM   10  N7  UNL     1      74.866  67.107  95.377  1.00  0.00    -0.288 N 
HETATM   11  C6  UNL     1      72.208  66.509  94.871  1.00  0.00     0.169 C 
HETATM   12  C5  UNL     1      72.486  67.424  96.006  1.00  0.00     0.109 C 
HETATM   13  C4  UNL     1      73.913  67.881  96.086  1.00  0.00     0.035 C 
HETATM   14  C3  UNL     1      74.170  68.948  96.805  1.00  0.00     0.108 C 
ATOM     15  H7  UNL     1      75.774  66.896  95.789  1.00  0.00     0.187 HD
ATOM     16  H5  UNL     1      77.367  67.177  93.125  1.00  0.00     0.212 HD
ATOM     17  H2  UNL     1      74.888  64.323  93.356  1.00  0.00     0.206 HD
BRANCH  11  18
HETATM   18  O3  UNL     1      72.213  65.198  95.336  1.00  0.00    -0.377 OA
ATOM     19  H3  UNL     1      71.989  65.197  96.259  1.00  0.00     0.211 HD
ENDBRANCH  11  18
BRANCH  11  20
HETATM   20  C7  UNL     1      70.848  66.818  94.373  1.00  0.00     0.211 C 
HETATM   21  O4  UNL     1      70.331  67.919  94.670  1.00  0.00    -0.646 OA
HETATM   22  O5  UNL     1      70.138  65.911  93.582  1.00  0.00    -0.646 OA
ENDBRANCH  11  20
BRANCH  14  23
HETATM   23  C2  UNL     1      75.448  69.568  97.025  1.00  0.00     0.284 C 
HETATM   24  O2  UNL     1      76.444  68.938  97.485  1.00  0.00    -0.260 OA
BRANCH  23  25
HETATM   25  O1  UNL     1      75.645  70.896  96.741  1.00  0.00    -0.323 OA
HETATM   26  C1  UNL     1      74.686  71.900  97.079  1.00  0.00     0.213 C 
ENDBRANCH  23  25
ENDBRANCH  14  23
BRANCH   8  27
HETATM   27  N6  UNL     1      76.195  67.849  91.528  1.00  0.00    -0.024 N 
HETATM   28  O6  UNL     1      75.287  68.698  91.616  1.00  0.00    -0.516 OA
HETATM   29  O7  UNL     1      76.912  67.654  90.391  1.00  0.00    -0.516 OA
ENDBRANCH   8  27
ENDBRANCH   1   5
TORSDOF 6
ENDMDL
MODEL 4
REMARK VINA RESULT: -3.771518720      2.979      5.478
REMARK  6 active torsions:
REMARK  status: ('A' for Active; 'I' for Inactive)
REMARK    1  A    between atoms: O1_2  and  C2_3 
REMARK    2  A    between atoms: C2_3  and  C3_5 
REMARK    3  A    between atoms: C6_8  and  O3_9 
REMARK    4  A    between atoms: C6_8  and  C7_11 
REMARK       I    between atoms: N1_15  and  C9_16 
REMARK       I    between atoms: C9_16  and  N5_23 
REMARK    5  A    between atoms: N2_17  and  N3_19 
REMARK    6  A    between atoms: N5_23  and  N6_25 
ROOT
HETATM    1  N3  UNL     1      77.986  68.784  88.395  1.00  0.00    -0.222 N 
ATOM      2  H3  UNL     1      78.994  68.723  88.250  1.00  0.00     0.200 HD
HETATM    3  C10 UNL     1      77.178  69.571  87.555  1.00  0.00     0.198 C 
HETATM    4  N4  UNL     1      76.502  70.212  86.881  1.00  0.00    -0.170 NA
ENDROOT
BRANCH   1   5
HETATM    5  N2  UNL     1      77.374  68.099  89.420  1.00  0.00    -0.120 N 
HETATM    6  C9  UNL     1      77.960  67.562  90.421  1.00  0.00     0.733 C 
HETATM    7  N1  UNL     1      77.204  66.893  91.394  1.00  0.00    -0.117 N 
HETATM    8  N5  UNL     1      79.362  67.643  90.548  1.00  0.00    -0.069 N 
HETATM    9  C8  UNL     1      76.328  67.612  92.257  1.00  0.00     0.217 C 
HETATM   10  N7  UNL     1      77.292  65.499  91.533  1.00  0.00    -0.288 N 
HETATM   11  C6  UNL     1      75.157  66.788  92.741  1.00  0.00     0.169 C 
HETATM   12  C5  UNL     1      75.515  65.445  93.265  1.00  0.00     0.109 C 
HETATM   13  C4  UNL     1      76.806  64.904  92.724  1.00  0.00     0.035 C 
HETATM   14  C3  UNL     1      77.378  63.926  93.385  1.00  0.00     0.108 C 
ATOM     15  H7  UNL     1      77.698  64.927  90.794  1.00  0.00     0.187 HD
ATOM     16  H5  UNL     1      79.935  66.963  90.049  1.00  0.00     0.212 HD
ATOM     17  H2  UNL     1      76.358  68.013  89.378  1.00  0.00     0.206 HD
BRANCH  11  18
HETATM   18  O3  UNL     1      74.234  66.639  91.711  1.00  0.00    -0.377 OA
ATOM     19  H3  UNL     1      74.415  67.286  91.039  1.00  0.00     0.211 HD
ENDBRANCH  11  18
BRANCH  11  20
HETATM   20  C7  UNL     1      74.507  67.535  93.841  1.00  0.00     0.211 C 
HETATM   21  O4  UNL     1      75.214  68.247  94.590  1.00  0.00    -0.646 OA
HETATM   22  O5  UNL     1      73.128  67.462  94.056  1.00  0.00    -0.646 OA
ENDBRANCH  11  20
BRANCH  14  23
HETATM   23  C2  UNL     1      78.608  63.255  93.063  1.00  0.00     0.284 C 
HETATM   24  O2  UNL     1      79.167  62.437  93.850  1.00  0.00    -0.260 OA
BRANCH  23  25
HETATM   25  O1  UNL     1      79.240  63.478  91.866  1.00  0.00    -0.323 OA
HETATM   26  C1  UNL     1      80.512  64.124  91.782  1.00  0.00     0.213 C 
ENDBRANCH  23  25
ENDBRANCH  14  23
BRANCH   8  27
HETATM   27  N6  UNL     1      80.007  68.617  91.328  1.00  0.00    -0.024 N 
HETATM   28  O6  UNL     1      79.846  69.806  90.993  1.00  0.00    -0.516 OA
HETATM   29  O7  UNL     1      80.767  68.250  92.392  1.00  0.00    -0.516 OA
ENDBRANCH   8  27
ENDBRANCH   1   5
TORSDOF 6
ENDMDL
MODEL 5
REMARK VINA RESULT: -3.704513551      3.023      6.178
REMARK  6 active torsions:
REMARK  status: ('A' for Active; 'I' for Inactive)
REMARK    1  A    between atoms: O1_2  and  C2_3 
REMARK    2  A    between atoms: C2_3  and  C3_5 
REMARK    3  A    between atoms: C6_8  and  O3_9 
REMARK    4  A    between atoms: C6_8  and  C7_11 
REMARK       I    between atoms: N1_15  and  C9_16 
REMARK       I    between atoms: C9_16  and  N5_23 
REMARK    5  A    between atoms: N2_17  and  N3_19 
REMARK    6  A    between atoms: N5_23  and  N6_25 
ROOT
HETATM    1  N3  UNL     1      74.457  71.441  96.797  1.00  0.00    -0.222 N 
ATOM      2  H3  UNL     1      75.400  71.571  97.166  1.00  0.00     0.200 HD
HETATM    3  C10 UNL     1      73.445  72.384  97.046  1.00  0.00     0.198 C 
HETATM    4  N4  UNL     1      72.603  73.143  97.241  1.00  0.00    -0.170 NA
ENDROOT
BRANCH   1   5
HETATM    5  N2  UNL     1      74.137  70.337  96.042  1.00  0.00    -0.120 N 
HETATM    6  C9  UNL     1      74.934  69.393  95.713  1.00  0.00     0.733 C 
HETATM    7  N1  UNL     1      74.466  68.325  94.936  1.00  0.00    -0.117 N 
HETATM    8  N5  UNL     1      76.280  69.425  96.134  1.00  0.00    -0.069 N 
HETATM    9  C8  UNL     1      73.534  67.389  95.469  1.00  0.00     0.217 C 
HETATM   10  N7  UNL     1      74.904  68.159  93.612  1.00  0.00    -0.288 N 
HETATM   11  C6  UNL     1      72.653  66.757  94.416  1.00  0.00     0.169 C 
HETATM   12  C5  UNL     1      73.378  66.240  93.227  1.00  0.00     0.109 C 
HETATM   13  C4  UNL     1      74.701  66.906  92.983  1.00  0.00     0.035 C 
HETATM   14  C3  UNL     1      75.557  66.287  92.205  1.00  0.00     0.108 C 
ATOM     15  H7  UNL     1      75.360  68.923  93.115  1.00  0.00     0.187 HD
ATOM     16  H5  UNL     1      76.948  69.966  95.585  1.00  0.00     0.212 HD
ATOM     17  H2  UNL     1      73.174  70.264  95.713  1.00  0.00     0.206 HD
BRANCH  11  18
HETATM   18  O3  UNL     1      71.695  67.674  93.997  1.00  0.00    -0.377 OA
ATOM     19  H3  UNL     1      70.874  67.218  93.852  1.00  0.00     0.211 HD
ENDBRANCH  11  18
BRANCH  11  20
HETATM   20  C7  UNL     1      71.955  65.612  95.043  1.00  0.00     0.211 C 
HETATM   21  O4  UNL     1      71.664  65.673  96.259  1.00  0.00    -0.646 OA
HETATM   22  O5  UNL     1      71.617  64.473  94.308  1.00  0.00    -0.646 OA
ENDBRANCH  11  20
BRANCH  14  23
HETATM   23  C2  UNL     1      76.874  66.725  91.831  1.00  0.00     0.284 C 
HETATM   24  O2  UNL     1      77.085  67.809  91.216  1.00  0.00    -0.260 OA
BRANCH  23  25
HETATM   25  O1  UNL     1      77.979  65.969  92.130  1.00  0.00    -0.323 OA
HETATM   26  C1  UNL     1      77.979  64.994  93.176  1.00  0.00     0.213 C 
ENDBRANCH  23  25
ENDBRANCH  14  23
BRANCH   8  27
HETATM   27  N6  UNL     1      76.744  68.747  97.273  1.00  0.00    -0.024 N 
HETATM   28  O6  UNL     1      75.890  68.174  97.976  1.00  0.00    -0.516 OA
HETATM   29  O7  UNL     1      78.069  68.736  97.571  1.00  0.00    -0.516 OA
ENDBRANCH   8  27
ENDBRANCH   1   5
TORSDOF 6
ENDMDL
