MODEL 1
REMARK VINA RESULT: -3.914550059      0.000      0.000
REMARK  1 active torsions:
REMARK  status: ('A' for Active; 'I' for Inactive)
REMARK    1  A    between atoms: C4_11  and  N4_12 
ROOT
HETATM    1  C1  UNL     1      51.618  36.326  44.957  1.00  0.00     0.180 C 
HETATM    2  N1  UNL     1      50.809  35.242  44.439  1.00  0.00    -0.273 N 
HETATM    3  N2  UNL     1      51.082  34.689  43.271  1.00  0.00    -0.248 N 
ATOM      4  H2  UNL     1      51.873  35.032  42.727  1.00  0.00     0.192 HD
HETATM    5  C2  UNL     1      50.333  33.679  42.784  1.00  0.00     0.342 A 
HETATM    6  O1  UNL     1      50.579  33.147  41.680  1.00  0.00    -0.245 OA
HETATM    7  N3  UNL     1      49.279  33.218  43.503  1.00  0.00    -0.271 N 
ATOM      8  H3  UNL     1      48.715  32.453  43.133  1.00  0.00     0.174 HD
HETATM    9  C3  UNL     1      48.968  33.751  44.690  1.00  0.00     0.294 A 
HETATM   10  O2  UNL     1      48.006  33.365  45.399  1.00  0.00    -0.264 OA
HETATM   11  C4  UNL     1      49.760  34.788  45.162  1.00  0.00     0.185 A 
ENDROOT
BRANCH  11  12
HETATM   12  N4  UNL     1      49.531  35.357  46.296  1.00  0.00    -0.380 N 
ATOM     13  H42 UNL     1      49.165  36.307  46.358  1.00  0.00     0.158 HD
ATOM     14  H41 UNL     1      49.733  34.820  47.139  1.00  0.00     0.158 HD
ENDBRANCH  11  12
TORSDOF 1
ENDMDL
MODEL 2
REMARK VINA RESULT: -3.423558487      1.118      2.763
REMARK  1 active torsions:
REMARK  status: ('A' for Active; 'I' for Inactive)
REMARK    1  A    between atoms: C4_11  and  N4_12 
ROOT
HETATM    1  C1  UNL     1      50.181  36.090  46.437  1.00  0.00     0.180 C 
HETATM    2  N1  UNL     1      49.867  35.087  45.440  1.00  0.00    -0.273 N 
HETATM    3  N2  UNL     1      48.854  34.256  45.609  1.00  0.00    -0.248 N 
ATOM      4  H2  UNL     1      48.287  34.323  46.454  1.00  0.00     0.192 HD
HETATM    5  C2  UNL     1      48.556  33.321  44.685  1.00  0.00     0.342 A 
HETATM    6  O1  UNL     1      47.601  32.528  44.832  1.00  0.00    -0.245 OA
HETATM    7  N3  UNL     1      49.307  33.227  43.559  1.00  0.00    -0.271 N 
ATOM      8  H3  UNL     1      49.078  32.519  42.861  1.00  0.00     0.174 HD
HETATM    9  C3  UNL     1      50.341  34.048  43.350  1.00  0.00     0.294 A 
HETATM   10  O2  UNL     1      51.070  34.008  42.327  1.00  0.00    -0.264 OA
HETATM   11  C4  UNL     1      50.620  34.999  44.320  1.00  0.00     0.185 A 
ENDROOT
BRANCH  11  12
HETATM   12  N4  UNL     1      51.598  35.831  44.198  1.00  0.00    -0.380 N 
ATOM     13  H42 UNL     1      51.502  36.706  43.682  1.00  0.00     0.158 HD
ATOM     14  H41 UNL     1      52.483  35.581  44.640  1.00  0.00     0.158 HD
ENDBRANCH  11  12
TORSDOF 1
ENDMDL
MODEL 3
REMARK VINA RESULT: -3.292150273      1.751      2.944
REMARK  1 active torsions:
REMARK  status: ('A' for Active; 'I' for Inactive)
REMARK    1  A    between atoms: C4_11  and  N4_12 
ROOT
HETATM    1  C1  UNL     1      50.656  33.750  41.894  1.00  0.00     0.180 C 
HETATM    2  N1  UNL     1      50.206  34.284  43.163  1.00  0.00    -0.273 N 
HETATM    3  N2  UNL     1      50.752  35.373  43.674  1.00  0.00    -0.248 N 
ATOM      4  H2  UNL     1      51.501  35.842  43.166  1.00  0.00     0.192 HD
HETATM    5  C2  UNL     1      50.337  35.875  44.854  1.00  0.00     0.342 A 
HETATM    6  O1  UNL     1      50.844  36.904  45.350  1.00  0.00    -0.245 OA
HETATM    7  N3  UNL     1      49.340  35.254  45.534  1.00  0.00    -0.271 N 
ATOM      8  H3  UNL     1      49.028  35.637  46.427  1.00  0.00     0.174 HD
HETATM    9  C3  UNL     1      48.761  34.148  45.052  1.00  0.00     0.294 A 
HETATM   10  O2  UNL     1      47.836  33.533  45.637  1.00  0.00    -0.264 OA
HETATM   11  C4  UNL     1      49.212  33.659  43.835  1.00  0.00     0.185 A 
ENDROOT
BRANCH  11  12
HETATM   12  N4  UNL     1      48.709  32.600  43.298  1.00  0.00    -0.380 N 
ATOM     13  H42 UNL     1      49.132  32.155  42.483  1.00  0.00     0.158 HD
ATOM     14  H41 UNL     1      47.864  32.217  43.721  1.00  0.00     0.158 HD
ENDBRANCH  11  12
TORSDOF 1
ENDMDL
MODEL 4
REMARK VINA RESULT: -3.226076724      6.820      8.311
REMARK  1 active torsions:
REMARK  status: ('A' for Active; 'I' for Inactive)
REMARK    1  A    between atoms: C4_11  and  N4_12 
ROOT
HETATM    1  C1  UNL     1      55.897  40.703  47.351  1.00  0.00     0.180 C 
HETATM    2  N1  UNL     1      55.882  39.862  46.171  1.00  0.00    -0.273 N 
HETATM    3  N2  UNL     1      55.130  38.778  46.119  1.00  0.00    -0.248 N 
ATOM      4  H2  UNL     1      54.553  38.530  46.923  1.00  0.00     0.192 HD
HETATM    5  C2  UNL     1      55.111  37.992  45.024  1.00  0.00     0.342 A 
HETATM    6  O1  UNL     1      54.404  36.963  44.961  1.00  0.00    -0.245 OA
HETATM    7  N3  UNL     1      55.876  38.318  43.952  1.00  0.00    -0.271 N 
ATOM      8  H3  UNL     1      55.858  37.722  43.124  1.00  0.00     0.174 HD
HETATM    9  C3  UNL     1      56.652  39.407  43.964  1.00  0.00     0.294 A 
HETATM   10  O2  UNL     1      57.379  39.757  43.002  1.00  0.00    -0.264 OA
HETATM   11  C4  UNL     1      56.647  40.193  45.106  1.00  0.00     0.185 A 
ENDROOT
BRANCH  11  12
HETATM   12  N4  UNL     1      57.365  41.260  45.202  1.00  0.00    -0.380 N 
ATOM     13  H42 UNL     1      57.373  41.831  46.048  1.00  0.00     0.158 HD
ATOM     14  H41 UNL     1      57.931  41.518  44.394  1.00  0.00     0.158 HD
ENDBRANCH  11  12
TORSDOF 1
ENDMDL
MODEL 5
REMARK VINA RESULT: -3.026158000      7.194      8.540
REMARK  1 active torsions:
REMARK  status: ('A' for Active; 'I' for Inactive)
REMARK    1  A    between atoms: C4_11  and  N4_12 
ROOT
HETATM    1  C1  UNL     1      57.379  40.554  43.600  1.00  0.00     0.180 C 
HETATM    2  N1  UNL     1      56.616  40.124  44.755  1.00  0.00    -0.273 N 
HETATM    3  N2  UNL     1      56.582  40.853  45.856  1.00  0.00    -0.248 N 
ATOM      4  H2  UNL     1      57.101  41.730  45.892  1.00  0.00     0.192 HD
HETATM    5  C2  UNL     1      55.873  40.459  46.933  1.00  0.00     0.342 A 
HETATM    6  O1  UNL     1      55.832  41.138  47.981  1.00  0.00    -0.245 OA
HETATM    7  N3  UNL     1      55.180  39.293  46.890  1.00  0.00    -0.271 N 
ATOM      8  H3  UNL     1      54.644  38.998  47.706  1.00  0.00     0.174 HD
HETATM    9  C3  UNL     1      55.189  38.526  45.795  1.00  0.00     0.294 A 
HETATM   10  O2  UNL     1      54.567  37.439  45.699  1.00  0.00    -0.264 OA
HETATM   11  C4  UNL     1      55.928  38.960  44.705  1.00  0.00     0.185 A 
ENDROOT
BRANCH  11  12
HETATM   12  N4  UNL     1      55.991  38.282  43.610  1.00  0.00    -0.380 N 
ATOM     13  H42 UNL     1      55.909  37.266  43.599  1.00  0.00     0.158 HD
ATOM     14  H41 UNL     1      56.127  38.803  42.744  1.00  0.00     0.158 HD
ENDBRANCH  11  12
TORSDOF 1
ENDMDL
