MODEL 1
REMARK VINA RESULT: -3.267393904      0.000      0.000
REMARK  2 active torsions:
REMARK  status: ('A' for Active; 'I' for Inactive)
REMARK    1  A    between atoms: C4_11  and  N5_12 
REMARK    2  A    between atoms: N5_12  and  N6_14 
ROOT
HETATM    1  C1  UNL     1      57.379  40.593  43.502  1.00  0.00     0.180 C 
HETATM    2  N1  UNL     1      56.567  39.674  44.281  1.00  0.00    -0.273 N 
HETATM    3  N2  UNL     1      56.142  38.563  43.704  1.00  0.00    -0.270 N 
ATOM      4  H2  UNL     1      56.401  38.392  42.732  1.00  0.00     0.190 HD
HETATM    5  C2  UNL     1      55.385  37.646  44.335  1.00  0.00     0.210 A 
HETATM    6  N3  UNL     1      54.970  36.478  43.642  1.00  0.00    -0.062 NA
HETATM    7  N4  UNL     1      55.050  37.883  45.615  1.00  0.00    -0.293 N 
ATOM      8  H4  UNL     1      54.476  37.199  46.109  1.00  0.00     0.172 HD
HETATM    9  C3  UNL     1      55.446  38.990  46.267  1.00  0.00     0.294 A 
HETATM   10  O1  UNL     1      55.117  39.183  47.465  1.00  0.00    -0.264 OA
HETATM   11  C4  UNL     1      56.229  39.906  45.563  1.00  0.00     0.205 A 
ENDROOT
BRANCH  11  12
HETATM   12  N5  UNL     1      56.640  40.984  46.125  1.00  0.00    -0.286 N 
ATOM     13  H5  UNL     1      56.408  41.873  45.684  1.00  0.00     0.188 HD
BRANCH  12  14
HETATM   14  N6  UNL     1      57.379  41.010  47.296  1.00  0.00    -0.343 N 
ATOM     15  H62 UNL     1      57.891  40.162  47.540  1.00  0.00     0.176 HD
ATOM     16  H61 UNL     1      57.435  41.819  47.914  1.00  0.00     0.176 HD
ENDBRANCH  12  14
ENDBRANCH  11  12
TORSDOF 2
ENDMDL
MODEL 2
REMARK VINA RESULT: -2.569298415      1.302      3.427
REMARK  2 active torsions:
REMARK  status: ('A' for Active; 'I' for Inactive)
REMARK    1  A    between atoms: C4_11  and  N5_12 
REMARK    2  A    between atoms: N5_12  and  N6_14 
ROOT
HETATM    1  C1  UNL     1      57.379  40.604  43.601  1.00  0.00     0.180 C 
HETATM    2  N1  UNL     1      56.599  40.152  44.740  1.00  0.00    -0.273 N 
HETATM    3  N2  UNL     1      56.598  40.889  45.837  1.00  0.00    -0.270 N 
ATOM      4  H2  UNL     1      57.145  41.749  45.843  1.00  0.00     0.190 HD
HETATM    5  C2  UNL     1      55.909  40.561  46.947  1.00  0.00     0.210 A 
HETATM    6  N3  UNL     1      55.961  41.409  48.085  1.00  0.00    -0.062 NA
HETATM    7  N4  UNL     1      55.192  39.425  46.926  1.00  0.00    -0.293 N 
ATOM      8  H4  UNL     1      54.665  39.160  47.758  1.00  0.00     0.172 HD
HETATM    9  C3  UNL     1      55.145  38.625  45.846  1.00  0.00     0.294 A 
HETATM   10  O1  UNL     1      54.464  37.568  45.857  1.00  0.00    -0.264 OA
HETATM   11  C4  UNL     1      55.878  39.015  44.725  1.00  0.00     0.205 A 
ENDROOT
BRANCH  11  12
HETATM   12  N5  UNL     1      55.878  38.298  43.661  1.00  0.00    -0.286 N 
ATOM     13  H5  UNL     1      55.894  38.776  42.760  1.00  0.00     0.188 HD
BRANCH  12  14
HETATM   14  N6  UNL     1      55.858  36.913  43.664  1.00  0.00    -0.343 N 
ATOM     15  H62 UNL     1      55.893  36.451  44.573  1.00  0.00     0.176 HD
ATOM     16  H61 UNL     1      55.810  36.343  42.819  1.00  0.00     0.176 HD
ENDBRANCH  12  14
ENDBRANCH  11  12
TORSDOF 2
ENDMDL
MODEL 3
REMARK VINA RESULT: -2.409991381      1.704      2.875
REMARK  2 active torsions:
REMARK  status: ('A' for Active; 'I' for Inactive)
REMARK    1  A    between atoms: C4_11  and  N5_12 
REMARK    2  A    between atoms: N5_12  and  N6_14 
ROOT
HETATM    1  C1  UNL     1      54.582  37.410  45.056  1.00  0.00     0.180 C 
HETATM    2  N1  UNL     1      55.516  38.503  44.846  1.00  0.00    -0.273 N 
HETATM    3  N2  UNL     1      56.017  38.682  43.636  1.00  0.00    -0.270 N 
ATOM      4  H2  UNL     1      55.729  38.044  42.893  1.00  0.00     0.190 HD
HETATM    5  C2  UNL     1      56.888  39.663  43.334  1.00  0.00     0.210 A 
HETATM    6  N3  UNL     1      57.379  39.786  42.007  1.00  0.00    -0.062 NA
HETATM    7  N4  UNL     1      57.261  40.496  44.321  1.00  0.00    -0.293 N 
ATOM      8  H4  UNL     1      57.921  41.245  44.111  1.00  0.00     0.172 HD
HETATM    9  C3  UNL     1      56.793  40.376  45.575  1.00  0.00     0.294 A 
HETATM   10  O1  UNL     1      57.159  41.171  46.478  1.00  0.00    -0.264 OA
HETATM   11  C4  UNL     1      55.892  39.340  45.830  1.00  0.00     0.205 A 
ENDROOT
BRANCH  11  12
HETATM   12  N5  UNL     1      55.408  39.169  47.006  1.00  0.00    -0.286 N 
ATOM     13  H5  UNL     1      55.563  38.270  47.462  1.00  0.00     0.188 HD
BRANCH  12  14
HETATM   14  N6  UNL     1      54.687  40.132  47.692  1.00  0.00    -0.343 N 
ATOM     15  H62 UNL     1      54.229  40.853  47.134  1.00  0.00     0.176 HD
ATOM     16  H61 UNL     1      54.593  40.156  48.707  1.00  0.00     0.176 HD
ENDBRANCH  12  14
ENDBRANCH  11  12
TORSDOF 2
ENDMDL
MODEL 4
REMARK VINA RESULT: -2.299355926      1.785      2.578
REMARK  2 active torsions:
REMARK  status: ('A' for Active; 'I' for Inactive)
REMARK    1  A    between atoms: C4_11  and  N5_12 
REMARK    2  A    between atoms: N5_12  and  N6_14 
ROOT
HETATM    1  C1  UNL     1      57.365  41.277  46.783  1.00  0.00     0.180 C 
HETATM    2  N1  UNL     1      56.817  40.356  45.801  1.00  0.00    -0.273 N 
HETATM    3  N2  UNL     1      57.274  40.410  44.562  1.00  0.00    -0.270 N 
ATOM      4  H2  UNL     1      57.994  41.098  44.340  1.00  0.00     0.190 HD
HETATM    5  C2  UNL     1      56.836  39.604  43.577  1.00  0.00     0.210 A 
HETATM    6  N3  UNL     1      57.379  39.727  42.270  1.00  0.00    -0.062 NA
HETATM    7  N4  UNL     1      55.886  38.703  43.881  1.00  0.00    -0.293 N 
ATOM      8  H4  UNL     1      55.542  38.084  43.147  1.00  0.00     0.172 HD
HETATM    9  C3  UNL     1      55.375  38.589  45.119  1.00  0.00     0.294 A 
HETATM   10  O1  UNL     1      54.488  37.735  45.373  1.00  0.00    -0.264 OA
HETATM   11  C4  UNL     1      55.867  39.451  46.100  1.00  0.00     0.205 A 
ENDROOT
BRANCH  11  12
HETATM   12  N5  UNL     1      55.422  39.396  47.302  1.00  0.00    -0.286 N 
ATOM     13  H5  UNL     1      55.879  38.759  47.954  1.00  0.00     0.188 HD
BRANCH  12  14
HETATM   14  N6  UNL     1      54.359  40.152  47.767  1.00  0.00    -0.343 N 
ATOM     15  H62 UNL     1      53.807  40.653  47.070  1.00  0.00     0.176 HD
ATOM     16  H61 UNL     1      54.104  40.230  48.752  1.00  0.00     0.176 HD
ENDBRANCH  12  14
ENDBRANCH  11  12
TORSDOF 2
ENDMDL
MODEL 5
REMARK VINA RESULT: -2.273891687      1.676      2.483
REMARK  2 active torsions:
REMARK  status: ('A' for Active; 'I' for Inactive)
REMARK    1  A    between atoms: C4_11  and  N5_12 
REMARK    2  A    between atoms: N5_12  and  N6_14 
ROOT
HETATM    1  C1  UNL     1      54.977  39.771  47.611  1.00  0.00     0.180 C 
HETATM    2  N1  UNL     1      55.325  39.252  46.299  1.00  0.00    -0.273 N 
HETATM    3  N2  UNL     1      54.723  38.156  45.873  1.00  0.00    -0.270 N 
ATOM      4  H2  UNL     1      54.034  37.714  46.482  1.00  0.00     0.190 HD
HETATM    5  C2  UNL     1      54.972  37.593  44.675  1.00  0.00     0.210 A 
HETATM    6  N3  UNL     1      54.280  36.413  44.293  1.00  0.00    -0.062 NA
HETATM    7  N4  UNL     1      55.881  38.185  43.882  1.00  0.00    -0.293 N 
ATOM      8  H4  UNL     1      56.084  37.772  42.972  1.00  0.00     0.172 HD
HETATM    9  C3  UNL     1      56.534  39.302  44.248  1.00  0.00     0.294 A 
HETATM   10  O1  UNL     1      57.379  39.832  43.484  1.00  0.00    -0.264 OA
HETATM   11  C4  UNL     1      56.235  39.841  45.500  1.00  0.00     0.205 A 
ENDROOT
BRANCH  11  12
HETATM   12  N5  UNL     1      56.822  40.905  45.912  1.00  0.00    -0.286 N 
ATOM     13  H5  UNL     1      56.881  41.698  45.272  1.00  0.00     0.188 HD
BRANCH  12  14
HETATM   14  N6  UNL     1      57.379  41.042  47.172  1.00  0.00    -0.343 N 
ATOM     15  H62 UNL     1      58.235  41.593  47.242  1.00  0.00     0.176 HD
ATOM     16  H61 UNL     1      56.986  40.626  48.016  1.00  0.00     0.176 HD
ENDBRANCH  12  14
ENDBRANCH  11  12
TORSDOF 2
ENDMDL
