MODEL 1
REMARK VINA RESULT: -6.030509948      0.000      0.000
REMARK  0 active torsions:
REMARK  status: ('A' for Active; 'I' for Inactive)
ROOT
HETATM    1  O1  UNL     1      47.899  32.762  44.344  1.00  0.00    -0.263 OA
HETATM    2  C1  UNL     1      48.975  33.302  44.067  1.00  0.00     0.305 A 
HETATM    3  N1  UNL     1      49.857  33.033  43.087  1.00  0.00    -0.246 N 
ATOM      4  H1  UNL     1      49.766  32.300  42.384  1.00  0.00     0.187 HD
HETATM    5  N2  UNL     1      50.862  33.885  43.197  1.00  0.00    -0.006 NA
HETATM    6  N3  UNL     1      50.660  34.709  44.227  1.00  0.00    -0.165 N 
HETATM    7  C2  UNL     1      51.170  35.739  44.914  1.00  0.00     0.360 A 
HETATM    8  O2  UNL     1      52.262  36.307  44.656  1.00  0.00    -0.243 OA
HETATM    9  N4  UNL     1      50.334  36.060  45.913  1.00  0.00    -0.248 N 
ATOM     10  H4  UNL     1      50.457  36.801  46.601  1.00  0.00     0.192 HD
HETATM   11  N5  UNL     1      49.321  35.220  45.822  1.00  0.00    -0.276 N 
ATOM     12  H5  UNL     1      48.516  35.214  46.449  1.00  0.00     0.189 HD
HETATM   13  C3  UNL     1      49.490  34.374  44.795  1.00  0.00     0.215 A 
ENDROOT
TORSDOF 0
ENDMDL
MODEL 2
REMARK VINA RESULT: -5.119071332      0.956      1.030
REMARK  0 active torsions:
REMARK  status: ('A' for Active; 'I' for Inactive)
ROOT
HETATM    1  O1  UNL     1      48.370  32.244  42.971  1.00  0.00    -0.263 OA
HETATM    2  C1  UNL     1      49.233  33.117  43.112  1.00  0.00     0.305 A 
HETATM    3  N1  UNL     1      50.295  33.423  42.347  1.00  0.00    -0.246 N 
ATOM      4  H1  UNL     1      50.567  32.953  41.484  1.00  0.00     0.187 HD
HETATM    5  N2  UNL     1      50.927  34.439  42.910  1.00  0.00    -0.006 NA
HETATM    6  N3  UNL     1      50.302  34.808  44.030  1.00  0.00    -0.165 N 
HETATM    7  C2  UNL     1      50.323  35.668  45.057  1.00  0.00     0.360 A 
HETATM    8  O2  UNL     1      51.187  36.566  45.226  1.00  0.00    -0.243 OA
HETATM    9  N4  UNL     1      49.282  35.416  45.864  1.00  0.00    -0.248 N 
ATOM     10  H4  UNL     1      49.039  35.908  46.724  1.00  0.00     0.192 HD
HETATM   11  N5  UNL     1      48.636  34.403  45.319  1.00  0.00    -0.276 N 
ATOM     12  H5  UNL     1      47.792  33.980  45.705  1.00  0.00     0.189 HD
HETATM   13  C3  UNL     1      49.238  34.004  44.189  1.00  0.00     0.215 A 
ENDROOT
TORSDOF 0
ENDMDL
MODEL 3
REMARK VINA RESULT: -4.981107823      1.794      3.178
REMARK  0 active torsions:
REMARK  status: ('A' for Active; 'I' for Inactive)
ROOT
HETATM    1  O1  UNL     1      49.940  36.543  46.697  1.00  0.00    -0.263 OA
HETATM    2  C1  UNL     1      50.427  36.020  45.689  1.00  0.00     0.305 A 
HETATM    3  N1  UNL     1      51.529  36.341  44.988  1.00  0.00    -0.246 N 
ATOM      4  H1  UNL     1      52.167  37.110  45.194  1.00  0.00     0.187 HD
HETATM    5  N2  UNL     1      51.640  35.486  43.986  1.00  0.00    -0.006 NA
HETATM    6  N3  UNL     1      50.635  34.609  44.012  1.00  0.00    -0.165 N 
HETATM    7  C2  UNL     1      50.100  33.545  43.399  1.00  0.00     0.360 A 
HETATM    8  O2  UNL     1      50.574  32.993  42.373  1.00  0.00    -0.243 OA
HETATM    9  N4  UNL     1      48.990  33.172  44.051  1.00  0.00    -0.248 N 
ATOM     10  H4  UNL     1      48.372  32.395  43.817  1.00  0.00     0.192 HD
HETATM   11  N5  UNL     1      48.860  34.013  45.059  1.00  0.00    -0.276 N 
ATOM     12  H5  UNL     1      48.104  33.985  45.742  1.00  0.00     0.189 HD
HETATM   13  C3  UNL     1      49.856  34.912  45.063  1.00  0.00     0.215 A 
ENDROOT
TORSDOF 0
ENDMDL
MODEL 4
REMARK VINA RESULT: -4.961581164      1.226      3.748
REMARK  0 active torsions:
REMARK  status: ('A' for Active; 'I' for Inactive)
ROOT
HETATM    1  O1  UNL     1      51.092  36.933  45.174  1.00  0.00    -0.263 OA
HETATM    2  C1  UNL     1      50.170  36.160  44.894  1.00  0.00     0.305 A 
HETATM    3  N1  UNL     1      48.867  36.203  45.225  1.00  0.00    -0.246 N 
ATOM      4  H1  UNL     1      48.417  36.922  45.791  1.00  0.00     0.187 HD
HETATM    5  N2  UNL     1      48.273  35.150  44.688  1.00  0.00    -0.006 NA
HETATM    6  N3  UNL     1      49.158  34.416  44.011  1.00  0.00    -0.165 N 
HETATM    7  C2  UNL     1      49.317  33.314  43.267  1.00  0.00     0.360 A 
HETATM    8  O2  UNL     1      48.397  32.510  42.966  1.00  0.00    -0.243 OA
HETATM    9  N4  UNL     1      50.602  33.210  42.901  1.00  0.00    -0.248 N 
ATOM     10  H4  UNL     1      51.021  32.475  42.332  1.00  0.00     0.192 HD
HETATM   11  N5  UNL     1      51.216  34.253  43.427  1.00  0.00    -0.276 N 
ATOM     12  H5  UNL     1      52.210  34.454  43.322  1.00  0.00     0.189 HD
HETATM   13  C3  UNL     1      50.354  35.016  44.117  1.00  0.00     0.215 A 
ENDROOT
TORSDOF 0
ENDMDL
MODEL 5
REMARK VINA RESULT: -4.869722442      6.097      7.250
REMARK  0 active torsions:
REMARK  status: ('A' for Active; 'I' for Inactive)
ROOT
HETATM    1  O1  UNL     1      54.089  36.702  45.426  1.00  0.00    -0.263 OA
HETATM    2  C1  UNL     1      54.892  37.524  44.973  1.00  0.00     0.305 A 
HETATM    3  N1  UNL     1      55.533  37.554  43.791  1.00  0.00    -0.246 N 
ATOM      4  H1  UNL     1      55.449  36.863  43.046  1.00  0.00     0.187 HD
HETATM    5  N2  UNL     1      56.292  38.637  43.764  1.00  0.00    -0.006 NA
HETATM    6  N3  UNL     1      56.164  39.320  44.903  1.00  0.00    -0.165 N 
HETATM    7  C2  UNL     1      56.564  40.409  45.571  1.00  0.00     0.360 A 
HETATM    8  O2  UNL     1      57.379  41.262  45.135  1.00  0.00    -0.243 OA
HETATM    9  N4  UNL     1      55.958  40.441  46.767  1.00  0.00    -0.248 N 
ATOM     10  H4  UNL     1      56.066  41.150  47.492  1.00  0.00     0.192 HD
HETATM   11  N5  UNL     1      55.193  39.367  46.815  1.00  0.00    -0.276 N 
ATOM     12  H5  UNL     1      54.602  39.113  47.606  1.00  0.00     0.189 HD
HETATM   13  C3  UNL     1      55.297  38.654  45.683  1.00  0.00     0.215 A 
ENDROOT
TORSDOF 0
ENDMDL
