MODEL 1
REMARK VINA RESULT: -4.652272948      0.000      0.000
REMARK  2 active torsions:
REMARK  status: ('A' for Active; 'I' for Inactive)
REMARK    1  A    between atoms: N1_1  and  C1_4 
REMARK    2  A    between atoms: N3_9  and  N4_10 
ROOT
HETATM    1  C1  UNL     1      55.651  39.833  46.243  1.00  0.00     0.696 A 
HETATM    2  N2  UNL     1      56.254  39.985  45.035  1.00  0.00    -0.137 N 
ATOM      3  H2  UNL     1      56.811  40.780  44.720  1.00  0.00     0.189 HD
HETATM    4  C2  UNL     1      55.966  38.881  44.347  1.00  0.00     0.380 A 
HETATM    5  O1  UNL     1      56.325  38.612  43.178  1.00  0.00    -0.242 OA
HETATM    6  N3  UNL     1      55.202  38.061  45.107  1.00  0.00    -0.065 N 
HETATM    7  N5  UNL     1      55.009  38.650  46.279  1.00  0.00    -0.102 N 
ATOM      8  H5  UNL     1      54.474  38.275  47.063  1.00  0.00     0.208 HD
ENDROOT
BRANCH   1   9
HETATM    9  N1  UNL     1      55.703  40.710  47.196  1.00  0.00    -0.233 N 
ATOM     10  H12 UNL     1      55.232  41.615  47.213  1.00  0.00     0.174 HD
ATOM     11  H11 UNL     1      56.236  40.588  48.057  1.00  0.00     0.174 HD
ENDBRANCH   1   9
BRANCH   6  12
HETATM   12  N4  UNL     1      54.736  36.812  44.693  1.00  0.00    -0.011 N 
HETATM   13  O2  UNL     1      53.519  36.600  44.701  1.00  0.00    -0.515 OA
HETATM   14  O3  UNL     1      55.671  35.889  44.306  1.00  0.00    -0.515 OA
ENDBRANCH   6  12
TORSDOF 2
ENDMDL
MODEL 2
REMARK VINA RESULT: -4.492151287      1.294      1.784
REMARK  2 active torsions:
REMARK  status: ('A' for Active; 'I' for Inactive)
REMARK    1  A    between atoms: N1_1  and  C1_4 
REMARK    2  A    between atoms: N3_9  and  N4_10 
ROOT
HETATM    1  C1  UNL     1      55.482  40.624  47.260  1.00  0.00     0.696 A 
HETATM    2  N2  UNL     1      56.507  40.998  46.450  1.00  0.00    -0.137 N 
ATOM      3  H2  UNL     1      57.106  41.818  46.552  1.00  0.00     0.189 HD
HETATM    4  C2  UNL     1      56.568  40.071  45.494  1.00  0.00     0.380 A 
HETATM    5  O1  UNL     1      57.373  40.035  44.537  1.00  0.00    -0.242 OA
HETATM    6  N3  UNL     1      55.605  39.143  45.703  1.00  0.00    -0.065 N 
HETATM    7  N5  UNL     1      54.935  39.484  46.795  1.00  0.00    -0.102 N 
ATOM      8  H5  UNL     1      54.151  38.978  47.207  1.00  0.00     0.208 HD
ENDROOT
BRANCH   1   9
HETATM    9  N1  UNL     1      55.111  41.283  48.312  1.00  0.00    -0.233 N 
ATOM     10  H12 UNL     1      54.775  40.886  49.189  1.00  0.00     0.174 HD
ATOM     11  H11 UNL     1      55.115  42.301  48.379  1.00  0.00     0.174 HD
ENDBRANCH   1   9
BRANCH   6  12
HETATM   12  N4  UNL     1      55.400  38.025  44.892  1.00  0.00    -0.011 N 
HETATM   13  O2  UNL     1      55.977  37.971  43.801  1.00  0.00    -0.515 OA
HETATM   14  O3  UNL     1      54.557  37.053  45.361  1.00  0.00    -0.515 OA
ENDBRANCH   6  12
TORSDOF 2
ENDMDL
MODEL 3
REMARK VINA RESULT: -4.485683928      5.696      7.488
REMARK  2 active torsions:
REMARK  status: ('A' for Active; 'I' for Inactive)
REMARK    1  A    between atoms: N1_1  and  C1_4 
REMARK    2  A    between atoms: N3_9  and  N4_10 
ROOT
HETATM    1  C1  UNL     1      49.589  33.342  43.248  1.00  0.00     0.696 A 
HETATM    2  N2  UNL     1      49.012  33.381  44.478  1.00  0.00    -0.137 N 
ATOM      3  H2  UNL     1      48.276  32.769  44.832  1.00  0.00     0.189 HD
HETATM    4  C2  UNL     1      49.605  34.384  45.123  1.00  0.00     0.380 A 
HETATM    5  O1  UNL     1      49.368  34.767  46.291  1.00  0.00    -0.242 OA
HETATM    6  N3  UNL     1      50.529  34.957  44.317  1.00  0.00    -0.065 N 
HETATM    7  N5  UNL     1      50.520  34.312  43.158  1.00  0.00    -0.102 N 
ATOM      8  H5  UNL     1      51.108  34.512  42.349  1.00  0.00     0.208 HD
ENDROOT
BRANCH   1   9
HETATM    9  N1  UNL     1      49.272  32.491  42.324  1.00  0.00    -0.233 N 
ATOM     10  H12 UNL     1      49.917  31.920  41.778  1.00  0.00     0.174 HD
ATOM     11  H11 UNL     1      48.314  32.295  42.032  1.00  0.00     0.174 HD
ENDBRANCH   1   9
BRANCH   6  12
HETATM   12  N4  UNL     1      51.342  36.029  44.689  1.00  0.00    -0.011 N 
HETATM   13  O2  UNL     1      50.815  37.025  45.194  1.00  0.00    -0.515 OA
HETATM   14  O3  UNL     1      52.687  35.908  44.459  1.00  0.00    -0.515 OA
ENDBRANCH   6  12
TORSDOF 2
ENDMDL
MODEL 4
REMARK VINA RESULT: -4.431361537      5.720      7.586
REMARK  2 active torsions:
REMARK  status: ('A' for Active; 'I' for Inactive)
REMARK    1  A    between atoms: N1_1  and  C1_4 
REMARK    2  A    between atoms: N3_9  and  N4_10 
ROOT
HETATM    1  C1  UNL     1      49.595  33.291  43.203  1.00  0.00     0.696 A 
HETATM    2  N2  UNL     1      48.998  33.350  44.423  1.00  0.00    -0.137 N 
ATOM      3  H2  UNL     1      48.246  32.755  44.771  1.00  0.00     0.189 HD
HETATM    4  C2  UNL     1      49.601  34.346  45.071  1.00  0.00     0.380 A 
HETATM    5  O1  UNL     1      49.353  34.742  46.233  1.00  0.00    -0.242 OA
HETATM    6  N3  UNL     1      50.549  34.895  44.275  1.00  0.00    -0.065 N 
HETATM    7  N5  UNL     1      50.545  34.241  43.121  1.00  0.00    -0.102 N 
ATOM      8  H5  UNL     1      51.150  34.424  42.320  1.00  0.00     0.208 HD
ENDROOT
BRANCH   1   9
HETATM    9  N1  UNL     1      49.276  32.439  42.280  1.00  0.00    -0.233 N 
ATOM     10  H12 UNL     1      49.123  31.438  42.405  1.00  0.00     0.174 HD
ATOM     11  H11 UNL     1      49.139  32.684  41.299  1.00  0.00     0.174 HD
ENDBRANCH   1   9
BRANCH   6  12
HETATM   12  N4  UNL     1      51.376  35.954  44.653  1.00  0.00    -0.011 N 
HETATM   13  O2  UNL     1      52.590  35.862  44.443  1.00  0.00    -0.515 OA
HETATM   14  O3  UNL     1      50.782  37.036  45.246  1.00  0.00    -0.515 OA
ENDBRANCH   6  12
TORSDOF 2
ENDMDL
MODEL 5
REMARK VINA RESULT: -4.120387564      6.394      7.809
REMARK  2 active torsions:
REMARK  status: ('A' for Active; 'I' for Inactive)
REMARK    1  A    between atoms: N1_1  and  C1_4 
REMARK    2  A    between atoms: N3_9  and  N4_10 
ROOT
HETATM    1  C1  UNL     1      50.084  33.472  42.922  1.00  0.00     0.696 A 
HETATM    2  N2  UNL     1      49.051  33.096  43.722  1.00  0.00    -0.137 N 
ATOM      3  H2  UNL     1      48.398  32.329  43.564  1.00  0.00     0.189 HD
HETATM    4  C2  UNL     1      49.071  33.938  44.754  1.00  0.00     0.380 A 
HETATM    5  O1  UNL     1      48.284  33.946  45.728  1.00  0.00    -0.242 OA
HETATM    6  N3  UNL     1      50.089  34.817  44.602  1.00  0.00    -0.065 N 
HETATM    7  N5  UNL     1      50.716  34.527  43.470  1.00  0.00    -0.102 N 
ATOM      8  H5  UNL     1      51.526  35.013  43.085  1.00  0.00     0.208 HD
ENDROOT
BRANCH   1   9
HETATM    9  N1  UNL     1      50.389  32.885  41.807  1.00  0.00    -0.233 N 
ATOM     10  H12 UNL     1      49.918  32.078  41.398  1.00  0.00     0.174 HD
ATOM     11  H11 UNL     1      51.157  33.174  41.201  1.00  0.00     0.174 HD
ENDBRANCH   1   9
BRANCH   6  12
HETATM   12  N4  UNL     1      50.400  35.827  45.515  1.00  0.00    -0.011 N 
HETATM   13  O2  UNL     1      50.524  36.983  45.100  1.00  0.00    -0.515 OA
HETATM   14  O3  UNL     1      50.558  35.462  46.826  1.00  0.00    -0.515 OA
ENDBRANCH   6  12
TORSDOF 2
ENDMDL
