MODEL 1
REMARK VINA RESULT: -5.221510453      0.000      0.000
REMARK  3 active torsions:
REMARK  status: ('A' for Active; 'I' for Inactive)
REMARK    1  A    between atoms: C4_7  and  N3_8 
REMARK    2  A    between atoms: C5_13  and  N5_14 
REMARK    3  A    between atoms: N5_14  and  N6_16 
ROOT
HETATM    1  C1  UNL     1      53.982  36.179  45.006  1.00  0.00     0.074 C 
HETATM    2  C2  UNL     1      54.809  37.402  45.089  1.00  0.00     0.068 A 
HETATM    3  N1  UNL     1      54.857  38.131  46.225  1.00  0.00    -0.285 N 
ATOM      4  H1  UNL     1      54.327  37.860  47.053  1.00  0.00     0.187 HD
HETATM    5  N2  UNL     1      55.621  39.212  46.221  1.00  0.00    -0.128 N 
HETATM    6  C3  UNL     1      55.705  40.034  47.430  1.00  0.00     0.197 C 
HETATM    7  C4  UNL     1      56.332  39.597  45.144  1.00  0.00     0.694 A 
HETATM    8  N4  UNL     1      56.296  38.873  43.988  1.00  0.00    -0.172 N 
ATOM      9  H4  UNL     1      56.832  39.157  43.168  1.00  0.00     0.186 HD
HETATM   10  C5  UNL     1      55.523  37.766  43.971  1.00  0.00     0.159 A 
ENDROOT
BRANCH  10  11
HETATM   11  N5  UNL     1      55.438  37.036  42.922  1.00  0.00    -0.290 N 
ATOM     12  H5  UNL     1      54.712  36.320  42.894  1.00  0.00     0.188 HD
BRANCH  11  13
HETATM   13  N6  UNL     1      56.273  37.161  41.824  1.00  0.00    -0.344 N 
ATOM     14  H62 UNL     1      57.115  37.722  41.944  1.00  0.00     0.176 HD
ATOM     15  H61 UNL     1      56.090  36.727  40.919  1.00  0.00     0.176 HD
ENDBRANCH  11  13
ENDBRANCH  10  11
BRANCH   7  16
HETATM   16  N3  UNL     1      57.042  40.649  45.217  1.00  0.00    -0.233 N 
ATOM     17  H32 UNL     1      56.598  41.567  45.248  1.00  0.00     0.174 HD
ATOM     18  H31 UNL     1      58.058  40.560  45.244  1.00  0.00     0.174 HD
ENDBRANCH   7  16
TORSDOF 3
ENDMDL
MODEL 2
REMARK VINA RESULT: -4.020850229      1.389      4.388
REMARK  3 active torsions:
REMARK  status: ('A' for Active; 'I' for Inactive)
REMARK    1  A    between atoms: C4_7  and  N3_8 
REMARK    2  A    between atoms: C5_13  and  N5_14 
REMARK    3  A    between atoms: N5_14  and  N6_16 
ROOT
HETATM    1  C1  UNL     1      57.042  40.530  44.988  1.00  0.00     0.074 C 
HETATM    2  C2  UNL     1      56.191  39.320  44.971  1.00  0.00     0.068 A 
HETATM    3  N1  UNL     1      56.097  38.553  43.864  1.00  0.00    -0.285 N 
ATOM      4  H1  UNL     1      56.607  38.786  43.012  1.00  0.00     0.187 HD
HETATM    5  N2  UNL     1      55.316  37.486  43.928  1.00  0.00    -0.128 N 
HETATM    6  C3  UNL     1      55.183  36.625  42.751  1.00  0.00     0.197 C 
HETATM    7  C4  UNL     1      54.630  37.153  45.038  1.00  0.00     0.694 A 
HETATM    8  N4  UNL     1      54.713  37.915  46.166  1.00  0.00    -0.172 N 
ATOM      9  H4  UNL     1      54.197  37.670  47.011  1.00  0.00     0.186 HD
HETATM   10  C5  UNL     1      55.505  39.008  46.122  1.00  0.00     0.159 A 
ENDROOT
BRANCH  10  11
HETATM   11  N5  UNL     1      55.633  39.773  47.141  1.00  0.00    -0.290 N 
ATOM     12  H5  UNL     1      56.563  40.130  47.359  1.00  0.00     0.188 HD
BRANCH  11  13
HETATM   13  N6  UNL     1      54.583  40.145  47.965  1.00  0.00    -0.344 N 
ATOM     14  H62 UNL     1      54.815  40.702  48.787  1.00  0.00     0.176 HD
ATOM     15  H61 UNL     1      53.610  39.894  47.794  1.00  0.00     0.176 HD
ENDBRANCH  11  13
ENDBRANCH  10  11
BRANCH   7  16
HETATM   16  N3  UNL     1      53.899  36.112  45.022  1.00  0.00    -0.233 N 
ATOM     17  H32 UNL     1      54.021  35.412  44.291  1.00  0.00     0.174 HD
ATOM     18  H31 UNL     1      53.194  35.992  45.749  1.00  0.00     0.174 HD
ENDBRANCH   7  16
TORSDOF 3
ENDMDL
MODEL 3
REMARK VINA RESULT: -3.698363801      0.831      3.453
REMARK  3 active torsions:
REMARK  status: ('A' for Active; 'I' for Inactive)
REMARK    1  A    between atoms: C4_7  and  N3_8 
REMARK    2  A    between atoms: C5_13  and  N5_14 
REMARK    3  A    between atoms: N5_14  and  N6_16 
ROOT
HETATM    1  C1  UNL     1      55.840  40.148  47.107  1.00  0.00     0.074 C 
HETATM    2  C2  UNL     1      55.662  39.176  46.006  1.00  0.00     0.068 A 
HETATM    3  N1  UNL     1      54.915  38.064  46.175  1.00  0.00    -0.285 N 
ATOM      4  H1  UNL     1      54.455  37.864  47.063  1.00  0.00     0.187 HD
HETATM    5  N2  UNL     1      54.803  37.244  45.142  1.00  0.00    -0.128 N 
HETATM    6  C3  UNL     1      54.003  36.025  45.279  1.00  0.00     0.197 C 
HETATM    7  C4  UNL     1      55.398  37.481  43.958  1.00  0.00     0.694 A 
HETATM    8  N4  UNL     1      56.156  38.599  43.767  1.00  0.00    -0.172 N 
ATOM      9  H4  UNL     1      56.610  38.786  42.873  1.00  0.00     0.186 HD
HETATM   10  C5  UNL     1      56.283  39.449  44.809  1.00  0.00     0.159 A 
ENDROOT
BRANCH  10  11
HETATM   11  N5  UNL     1      56.979  40.520  44.707  1.00  0.00    -0.290 N 
ATOM     12  H5  UNL     1      57.519  40.820  45.518  1.00  0.00     0.188 HD
BRANCH  11  13
HETATM   13  N6  UNL     1      57.042  41.294  43.560  1.00  0.00    -0.344 N 
ATOM     14  H62 UNL     1      56.458  42.129  43.533  1.00  0.00     0.176 HD
ATOM     15  H61 UNL     1      57.633  41.076  42.758  1.00  0.00     0.176 HD
ENDBRANCH  11  13
ENDBRANCH  10  11
BRANCH   7  16
HETATM   16  N3  UNL     1      55.244  36.645  43.011  1.00  0.00    -0.233 N 
ATOM     17  H32 UNL     1      56.038  36.378  42.430  1.00  0.00     0.174 HD
ATOM     18  H31 UNL     1      54.319  36.249  42.846  1.00  0.00     0.174 HD
ENDBRANCH   7  16
TORSDOF 3
ENDMDL
MODEL 4
REMARK VINA RESULT: -3.612170603      1.372      3.375
REMARK  3 active torsions:
REMARK  status: ('A' for Active; 'I' for Inactive)
REMARK    1  A    between atoms: C4_7  and  N3_8 
REMARK    2  A    between atoms: C5_13  and  N5_14 
REMARK    3  A    between atoms: N5_14  and  N6_16 
ROOT
HETATM    1  C1  UNL     1      54.421  36.288  45.407  1.00  0.00     0.074 C 
HETATM    2  C2  UNL     1      55.141  37.446  44.832  1.00  0.00     0.068 A 
HETATM    3  N1  UNL     1      55.663  37.390  43.588  1.00  0.00    -0.285 N 
ATOM      4  H1  UNL     1      55.577  36.551  43.014  1.00  0.00     0.187 HD
HETATM    5  N2  UNL     1      56.292  38.467  43.144  1.00  0.00    -0.128 N 
HETATM    6  C3  UNL     1      56.875  38.452  41.800  1.00  0.00     0.197 C 
HETATM    7  C4  UNL     1      56.422  39.587  43.878  1.00  0.00     0.694 A 
HETATM    8  N4  UNL     1      55.900  39.663  45.136  1.00  0.00    -0.172 N 
ATOM      9  H4  UNL     1      55.994  40.509  45.699  1.00  0.00     0.186 HD
HETATM   10  C5  UNL     1      55.255  38.576  45.609  1.00  0.00     0.159 A 
ENDROOT
BRANCH  10  11
HETATM   11  N5  UNL     1      54.739  38.570  46.781  1.00  0.00    -0.290 N 
ATOM     12  H5  UNL     1      54.158  37.776  47.046  1.00  0.00     0.188 HD
BRANCH  11  13
HETATM   13  N6  UNL     1      54.924  39.580  47.711  1.00  0.00    -0.344 N 
ATOM     14  H62 UNL     1      55.881  39.762  48.012  1.00  0.00     0.176 HD
ATOM     15  H61 UNL     1      54.166  40.140  48.101  1.00  0.00     0.176 HD
ENDBRANCH  11  13
ENDBRANCH  10  11
BRANCH   7  16
HETATM   16  N3  UNL     1      57.041  40.582  43.382  1.00  0.00    -0.233 N 
ATOM     17  H32 UNL     1      56.579  41.184  42.700  1.00  0.00     0.174 HD
ATOM     18  H31 UNL     1      58.001  40.765  43.676  1.00  0.00     0.174 HD
ENDBRANCH   7  16
TORSDOF 3
ENDMDL
MODEL 5
REMARK VINA RESULT: -3.544925156      1.421      3.740
REMARK  3 active torsions:
REMARK  status: ('A' for Active; 'I' for Inactive)
REMARK    1  A    between atoms: C4_7  and  N3_8 
REMARK    2  A    between atoms: C5_13  and  N5_14 
REMARK    3  A    between atoms: N5_14  and  N6_16 
ROOT
HETATM    1  C1  UNL     1      54.462  36.812  45.795  1.00  0.00     0.074 C 
HETATM    2  C2  UNL     1      55.162  37.285  44.581  1.00  0.00     0.068 A 
HETATM    3  N1  UNL     1      55.291  36.487  43.499  1.00  0.00    -0.285 N 
ATOM      4  H1  UNL     1      54.913  35.540  43.490  1.00  0.00     0.187 HD
HETATM    5  N2  UNL     1      55.930  36.983  42.451  1.00  0.00    -0.128 N 
HETATM    6  C3  UNL     1      56.095  36.154  41.255  1.00  0.00     0.197 C 
HETATM    7  C4  UNL     1      56.441  38.229  42.434  1.00  0.00     0.694 A 
HETATM    8  N4  UNL     1      56.319  39.049  43.516  1.00  0.00    -0.172 N 
ATOM      9  H4  UNL     1      56.702  39.995  43.511  1.00  0.00     0.186 HD
HETATM   10  C5  UNL     1      55.670  38.563  44.596  1.00  0.00     0.159 A 
ENDROOT
BRANCH  10  11
HETATM   11  N5  UNL     1      55.517  39.274  45.650  1.00  0.00    -0.290 N 
ATOM     12  H5  UNL     1      54.640  39.188  46.163  1.00  0.00     0.188 HD
BRANCH  11  13
HETATM   13  N6  UNL     1      56.472  40.153  46.135  1.00  0.00    -0.344 N 
ATOM     14  H62 UNL     1      57.321  40.264  45.583  1.00  0.00     0.176 HD
ATOM     15  H61 UNL     1      56.369  40.683  47.000  1.00  0.00     0.176 HD
ENDBRANCH  11  13
ENDBRANCH  10  11
BRANCH   7  16
HETATM   16  N3  UNL     1      57.042  38.634  41.388  1.00  0.00    -0.233 N 
ATOM     17  H32 UNL     1      56.647  38.450  40.466  1.00  0.00     0.174 HD
ATOM     18  H31 UNL     1      57.920  39.144  41.489  1.00  0.00     0.174 HD
ENDBRANCH   7  16
TORSDOF 3
ENDMDL
