MODEL 1
REMARK VINA RESULT: -6.054210632      0.000      0.000
REMARK  2 active torsions:
REMARK  status: ('A' for Active; 'I' for Inactive)
REMARK    1  A    between atoms: N1_1  and  C1_4 
REMARK    2  A    between atoms: N6_15  and  O1_16 
ROOT
HETATM    1  C1  UNL     1      55.890  39.848  46.820  1.00  0.00     0.694 A 
HETATM    2  N2  UNL     1      56.527  40.150  45.675  1.00  0.00    -0.170 N 
ATOM      3  H2  UNL     1      57.126  40.973  45.618  1.00  0.00     0.186 HD
HETATM    4  C2  UNL     1      56.361  39.341  44.592  1.00  0.00     0.186 A 
HETATM    5  N3  UNL     1      56.845  39.368  43.339  1.00  0.00    -0.267 N 
ATOM      6  H3  UNL     1      57.479  40.070  42.958  1.00  0.00     0.190 HD
HETATM    7  N4  UNL     1      56.360  38.334  42.691  1.00  0.00    -0.239 N 
ATOM      8  H4  UNL     1      56.571  38.119  41.717  1.00  0.00     0.208 HD
HETATM    9  N5  UNL     1      55.566  37.607  43.456  1.00  0.00    -0.265 N 
ATOM     10  H5  UNL     1      55.066  36.758  43.195  1.00  0.00     0.190 HD
HETATM   11  C3  UNL     1      55.554  38.223  44.651  1.00  0.00     0.214 A 
HETATM   12  N6  UNL     1      54.935  37.952  45.810  1.00  0.00    -0.127 N 
HETATM   13  N7  UNL     1      55.115  38.749  46.832  1.00  0.00    -0.104 N 
ATOM     14  H7  UNL     1      54.633  38.521  47.701  1.00  0.00     0.208 HD
ENDROOT
BRANCH   1  15
HETATM   15  N1  UNL     1      56.036  40.612  47.872  1.00  0.00    -0.233 N 
ATOM     16  H12 UNL     1      56.130  41.625  47.801  1.00  0.00     0.174 HD
ATOM     17  H11 UNL     1      56.057  40.199  48.804  1.00  0.00     0.174 HD
ENDBRANCH   1  15
BRANCH  12  18
HETATM   18  O1  UNL     1      54.135  36.830  45.843  1.00  0.00    -0.266 OA
ATOM     19  H1  UNL     1      53.297  36.885  45.398  1.00  0.00     0.247 HD
ENDBRANCH  12  18
TORSDOF 2
ENDMDL
MODEL 2
REMARK VINA RESULT: -5.976027466      0.951      1.034
REMARK  2 active torsions:
REMARK  status: ('A' for Active; 'I' for Inactive)
REMARK    1  A    between atoms: N1_1  and  C1_4 
REMARK    2  A    between atoms: N6_15  and  O1_16 
ROOT
HETATM    1  C1  UNL     1      55.607  39.369  45.945  1.00  0.00     0.694 A 
HETATM    2  N2  UNL     1      56.254  39.586  44.787  1.00  0.00    -0.170 N 
ATOM      3  H2  UNL     1      56.822  40.423  44.661  1.00  0.00     0.186 HD
HETATM    4  C2  UNL     1      56.139  38.671  43.784  1.00  0.00     0.186 A 
HETATM    5  N3  UNL     1      56.646  38.599  42.542  1.00  0.00    -0.267 N 
ATOM      6  H3  UNL     1      57.261  39.286  42.105  1.00  0.00     0.190 HD
HETATM    7  N4  UNL     1      56.213  37.489  41.988  1.00  0.00    -0.239 N 
ATOM      8  H4  UNL     1      56.450  37.191  41.043  1.00  0.00     0.208 HD
HETATM    9  N5  UNL     1      55.432  36.808  42.807  1.00  0.00    -0.265 N 
ATOM     10  H5  UNL     1      54.970  35.918  42.620  1.00  0.00     0.190 HD
HETATM   11  C3  UNL     1      55.375  37.533  43.937  1.00  0.00     0.214 A 
HETATM   12  N6  UNL     1      54.744  37.349  45.107  1.00  0.00    -0.127 N 
HETATM   13  N7  UNL     1      54.874  38.247  46.050  1.00  0.00    -0.104 N 
ATOM     14  H7  UNL     1      54.385  38.083  46.930  1.00  0.00     0.208 HD
ENDROOT
BRANCH   1  15
HETATM   15  N1  UNL     1      55.704  40.234  46.922  1.00  0.00    -0.233 N 
ATOM     16  H12 UNL     1      54.895  40.739  47.285  1.00  0.00     0.174 HD
ATOM     17  H11 UNL     1      56.611  40.424  47.349  1.00  0.00     0.174 HD
ENDBRANCH   1  15
BRANCH  12  18
HETATM   18  O1  UNL     1      53.986  36.205  45.235  1.00  0.00    -0.266 OA
ATOM     19  H1  UNL     1      53.053  36.286  45.074  1.00  0.00     0.247 HD
ENDBRANCH  12  18
TORSDOF 2
ENDMDL
MODEL 3
REMARK VINA RESULT: -5.798344518      1.759      2.461
REMARK  2 active torsions:
REMARK  status: ('A' for Active; 'I' for Inactive)
REMARK    1  A    between atoms: N1_1  and  C1_4 
REMARK    2  A    between atoms: N6_15  and  O1_16 
ROOT
HETATM    1  C1  UNL     1      55.289  39.467  47.027  1.00  0.00     0.694 A 
HETATM    2  N2  UNL     1      54.814  38.269  46.645  1.00  0.00    -0.170 N 
ATOM      3  H2  UNL     1      54.258  37.705  47.286  1.00  0.00     0.186 HD
HETATM    4  C2  UNL     1      55.087  37.819  45.388  1.00  0.00     0.186 A 
HETATM    5  N3  UNL     1      54.767  36.697  44.722  1.00  0.00    -0.267 N 
ATOM      6  H3  UNL     1      54.212  35.922  45.086  1.00  0.00     0.190 HD
HETATM    7  N4  UNL     1      55.292  36.772  43.521  1.00  0.00    -0.239 N 
ATOM      8  H4  UNL     1      55.199  36.047  42.810  1.00  0.00     0.208 HD
HETATM    9  N5  UNL     1      55.956  37.900  43.347  1.00  0.00    -0.265 N 
ATOM     10  H5  UNL     1      56.453  38.201  42.509  1.00  0.00     0.190 HD
HETATM   11  C3  UNL     1      55.838  38.570  44.507  1.00  0.00     0.214 A 
HETATM   12  N6  UNL     1      56.295  39.761  44.923  1.00  0.00    -0.127 N 
HETATM   13  N7  UNL     1      56.015  40.164  46.136  1.00  0.00    -0.104 N 
ATOM     14  H7  UNL     1      56.374  41.073  46.426  1.00  0.00     0.208 HD
ENDROOT
BRANCH   1  15
HETATM   15  N1  UNL     1      55.039  39.918  48.230  1.00  0.00    -0.233 N 
ATOM     16  H12 UNL     1      54.469  40.748  48.393  1.00  0.00     0.174 HD
ATOM     17  H11 UNL     1      55.417  39.436  49.045  1.00  0.00     0.174 HD
ENDBRANCH   1  15
BRANCH  12  18
HETATM   18  O1  UNL     1      57.042  40.491  44.023  1.00  0.00    -0.266 OA
ATOM     19  H1  UNL     1      57.458  41.280  44.350  1.00  0.00     0.247 HD
ENDBRANCH  12  18
TORSDOF 2
ENDMDL
MODEL 4
REMARK VINA RESULT: -5.611108504      1.167      3.488
REMARK  2 active torsions:
REMARK  status: ('A' for Active; 'I' for Inactive)
REMARK    1  A    between atoms: N1_1  and  C1_4 
REMARK    2  A    between atoms: N6_15  and  O1_16 
ROOT
HETATM    1  C1  UNL     1      55.719  37.109  42.864  1.00  0.00     0.694 A 
HETATM    2  N2  UNL     1      56.196  38.339  43.124  1.00  0.00    -0.170 N 
ATOM      3  H2  UNL     1      56.702  38.859  42.408  1.00  0.00     0.186 HD
HETATM    4  C2  UNL     1      55.994  38.880  44.358  1.00  0.00     0.186 A 
HETATM    5  N3  UNL     1      56.334  40.053  44.916  1.00  0.00    -0.267 N 
ATOM      6  H3  UNL     1      56.852  40.805  44.461  1.00  0.00     0.190 HD
HETATM    7  N4  UNL     1      55.885  40.064  46.150  1.00  0.00    -0.239 N 
ATOM      8  H4  UNL     1      56.009  40.842  46.797  1.00  0.00     0.208 HD
HETATM    9  N5  UNL     1      55.253  38.944  46.449  1.00  0.00    -0.265 N 
ATOM     10  H5  UNL     1      54.813  38.702  47.337  1.00  0.00     0.190 HD
HETATM   11  C3  UNL     1      55.311  38.190  45.338  1.00  0.00     0.214 A 
HETATM   12  N6  UNL     1      54.848  36.965  45.043  1.00  0.00    -0.127 N 
HETATM   13  N7  UNL     1      55.059  36.474  43.848  1.00  0.00    -0.104 N 
ATOM     14  H7  UNL     1      54.697  35.542  43.650  1.00  0.00     0.208 HD
ENDROOT
BRANCH   1  15
HETATM   15  N1  UNL     1      55.902  36.571  41.685  1.00  0.00    -0.233 N 
ATOM     16  H12 UNL     1      56.559  36.956  41.007  1.00  0.00     0.174 HD
ATOM     17  H11 UNL     1      55.380  35.737  41.418  1.00  0.00     0.174 HD
ENDBRANCH   1  15
BRANCH  12  18
HETATM   18  O1  UNL     1      54.169  36.297  46.039  1.00  0.00    -0.266 OA
ATOM     19  H1  UNL     1      53.716  35.500  45.792  1.00  0.00     0.247 HD
ENDBRANCH  12  18
TORSDOF 2
ENDMDL
MODEL 5
REMARK VINA RESULT: -5.200485976      1.811      3.869
REMARK  2 active torsions:
REMARK  status: ('A' for Active; 'I' for Inactive)
REMARK    1  A    between atoms: N1_1  and  C1_4 
REMARK    2  A    between atoms: N6_15  and  O1_16 
ROOT
HETATM    1  C1  UNL     1      54.678  37.420  45.145  1.00  0.00     0.694 A 
HETATM    2  N2  UNL     1      54.711  37.826  46.426  1.00  0.00    -0.170 N 
ATOM      3  H2  UNL     1      54.137  37.363  47.130  1.00  0.00     0.186 HD
HETATM    4  C2  UNL     1      55.523  38.864  46.771  1.00  0.00     0.186 A 
HETATM    5  N3  UNL     1      55.776  39.489  47.933  1.00  0.00    -0.267 N 
ATOM      6  H3  UNL     1      55.359  39.265  48.836  1.00  0.00     0.190 HD
HETATM    7  N4  UNL     1      56.653  40.439  47.703  1.00  0.00    -0.239 N 
ATOM      8  H4  UNL     1      57.018  41.066  48.419  1.00  0.00     0.208 HD
HETATM    9  N5  UNL     1      57.004  40.482  46.431  1.00  0.00    -0.265 N 
ATOM     10  H5  UNL     1      57.666  41.124  45.995  1.00  0.00     0.190 HD
HETATM   11  C3  UNL     1      56.306  39.502  45.831  1.00  0.00     0.214 A 
HETATM   12  N6  UNL     1      56.248  39.070  44.562  1.00  0.00    -0.127 N 
HETATM   13  N7  UNL     1      55.458  38.070  44.264  1.00  0.00    -0.104 N 
ATOM     14  H7  UNL     1      55.432  37.761  43.292  1.00  0.00     0.208 HD
ENDROOT
BRANCH   1  15
HETATM   15  N1  UNL     1      53.905  36.425  44.793  1.00  0.00    -0.233 N 
ATOM     16  H12 UNL     1      52.927  36.367  45.078  1.00  0.00     0.174 HD
ATOM     17  H11 UNL     1      54.274  35.672  44.212  1.00  0.00     0.174 HD
ENDBRANCH   1  15
BRANCH  12  18
HETATM   18  O1  UNL     1      57.040  39.724  43.643  1.00  0.00    -0.266 OA
ATOM     19  H1  UNL     1      57.980  39.616  43.730  1.00  0.00     0.247 HD
ENDBRANCH  12  18
TORSDOF 2
ENDMDL
