MODEL 1
REMARK VINA RESULT: -5.564422628      0.000      0.000
REMARK  3 active torsions:
REMARK  status: ('A' for Active; 'I' for Inactive)
REMARK       I    between atoms: C1_4  and  N3_6 
REMARK    1  A    between atoms: C2_8  and  O1_10 
REMARK    2  A    between atoms: O1_10  and  N5_11 
REMARK    3  A    between atoms: N6_13  and  N7_15 
ROOT
HETATM    1  N1  UNL     1      55.747  35.439  44.594  1.00  0.00    -0.373 N 
ATOM      2  H11 UNL     1      55.799  35.072  45.545  1.00  0.00     0.158 HD
ATOM      3  H12 UNL     1      56.138  34.893  43.827  1.00  0.00     0.158 HD
HETATM    4  C1  UNL     1      55.193  36.580  44.378  1.00  0.00     0.188 C 
HETATM    5  N2  UNL     1      55.122  37.090  43.054  1.00  0.00    -0.064 NA
HETATM    6  N3  UNL     1      54.654  37.333  45.438  1.00  0.00    -0.297 N 
ATOM      7  H3  UNL     1      53.691  37.130  45.709  1.00  0.00     0.171 HD
HETATM    8  C2  UNL     1      55.260  38.248  46.090  1.00  0.00     0.260 C 
HETATM    9  N4  UNL     1      56.605  38.638  45.825  1.00  0.00    -0.054 NA
ENDROOT
BRANCH   8  10
HETATM   10  O1  UNL     1      54.535  38.877  47.114  1.00  0.00    -0.187 OA
BRANCH  10  11
HETATM   11  N5  UNL     1      55.251  39.622  48.028  1.00  0.00    -0.185 N 
HETATM   12  N6  UNL     1      55.557  40.817  47.795  1.00  0.00    -0.229 N 
ATOM     13  H6  UNL     1      55.285  41.273  46.924  1.00  0.00     0.209 HD
ATOM     14  H5  UNL     1      55.537  39.195  48.909  1.00  0.00     0.218 HD
BRANCH  12  15
HETATM   15  N7  UNL     1      56.287  41.499  48.780  1.00  0.00    -0.329 N 
ATOM     16  H72 UNL     1      56.163  41.270  49.766  1.00  0.00     0.178 HD
ATOM     17  H71 UNL     1      56.934  42.222  48.467  1.00  0.00     0.178 HD
ENDBRANCH  12  15
ENDBRANCH  10  11
ENDBRANCH   8  10
TORSDOF 3
ENDMDL
MODEL 2
REMARK VINA RESULT: -5.257679996      1.774      5.089
REMARK  3 active torsions:
REMARK  status: ('A' for Active; 'I' for Inactive)
REMARK       I    between atoms: C1_4  and  N3_6 
REMARK    1  A    between atoms: C2_8  and  O1_10 
REMARK    2  A    between atoms: O1_10  and  N5_11 
REMARK    3  A    between atoms: N6_13  and  N7_15 
ROOT
HETATM    1  N1  UNL     1      55.111  40.371  47.256  1.00  0.00    -0.373 N 
ATOM      2  H11 UNL     1      54.200  40.499  46.816  1.00  0.00     0.158 HD
ATOM      3  H12 UNL     1      55.485  41.107  47.855  1.00  0.00     0.158 HD
HETATM    4  C1  UNL     1      55.774  39.287  47.052  1.00  0.00     0.188 C 
HETATM    5  N2  UNL     1      57.042  39.109  47.667  1.00  0.00    -0.064 NA
HETATM    6  N3  UNL     1      55.258  38.269  46.227  1.00  0.00    -0.297 N 
ATOM      7  H3  UNL     1      54.640  37.585  46.664  1.00  0.00     0.171 HD
HETATM    8  C2  UNL     1      55.495  38.127  44.981  1.00  0.00     0.260 C 
HETATM    9  N4  UNL     1      56.335  39.004  44.237  1.00  0.00    -0.054 NA
ENDROOT
BRANCH   8  10
HETATM   10  O1  UNL     1      54.875  37.039  44.344  1.00  0.00    -0.187 OA
BRANCH  10  11
HETATM   11  N5  UNL     1      55.605  36.374  43.379  1.00  0.00    -0.185 N 
HETATM   12  N6  UNL     1      55.622  36.773  42.189  1.00  0.00    -0.229 N 
ATOM     13  H6  UNL     1      55.098  37.598  41.899  1.00  0.00     0.209 HD
ATOM     14  H5  UNL     1      56.140  35.545  43.638  1.00  0.00     0.218 HD
BRANCH  12  15
HETATM   15  N7  UNL     1      56.390  36.036  41.274  1.00  0.00    -0.329 N 
ATOM     16  H72 UNL     1      56.668  35.078  41.487  1.00  0.00     0.178 HD
ATOM     17  H71 UNL     1      56.653  36.498  40.404  1.00  0.00     0.178 HD
ENDBRANCH  12  15
ENDBRANCH  10  11
ENDBRANCH   8  10
TORSDOF 3
ENDMDL
MODEL 3
REMARK VINA RESULT: -5.121807086      2.166      5.377
REMARK  3 active torsions:
REMARK  status: ('A' for Active; 'I' for Inactive)
REMARK       I    between atoms: C1_4  and  N3_6 
REMARK    1  A    between atoms: C2_8  and  O1_10 
REMARK    2  A    between atoms: O1_10  and  N5_11 
REMARK    3  A    between atoms: N6_13  and  N7_15 
ROOT
HETATM    1  N1  UNL     1      56.933  38.987  46.719  1.00  0.00    -0.373 N 
ATOM      2  H11 UNL     1      57.744  38.995  46.102  1.00  0.00     0.158 HD
ATOM      3  H12 UNL     1      57.071  39.063  47.727  1.00  0.00     0.158 HD
HETATM    4  C1  UNL     1      55.751  38.881  46.221  1.00  0.00     0.188 C 
HETATM    5  N2  UNL     1      54.621  38.870  47.082  1.00  0.00    -0.064 NA
HETATM    6  N3  UNL     1      55.560  38.776  44.831  1.00  0.00    -0.297 N 
ATOM      7  H3  UNL     1      55.498  39.647  44.303  1.00  0.00     0.171 HD
HETATM    8  C2  UNL     1      55.457  37.689  44.170  1.00  0.00     0.260 C 
HETATM    9  N4  UNL     1      55.524  36.398  44.770  1.00  0.00    -0.054 NA
ENDROOT
BRANCH   8  10
HETATM   10  O1  UNL     1      55.270  37.811  42.784  1.00  0.00    -0.187 OA
BRANCH  10  11
HETATM   11  N5  UNL     1      56.202  37.205  41.966  1.00  0.00    -0.185 N 
HETATM   12  N6  UNL     1      56.042  36.029  41.558  1.00  0.00    -0.229 N 
ATOM     13  H6  UNL     1      55.219  35.486  41.817  1.00  0.00     0.209 HD
ATOM     14  H5  UNL     1      57.037  37.722  41.689  1.00  0.00     0.218 HD
BRANCH  12  15
HETATM   15  N7  UNL     1      57.040  35.492  40.731  1.00  0.00    -0.329 N 
ATOM     16  H72 UNL     1      57.883  36.029  40.525  1.00  0.00     0.178 HD
ATOM     17  H71 UNL     1      56.884  34.558  40.354  1.00  0.00     0.178 HD
ENDBRANCH  12  15
ENDBRANCH  10  11
ENDBRANCH   8  10
TORSDOF 3
ENDMDL
MODEL 4
REMARK VINA RESULT: -4.948780055      2.085      5.113
REMARK  3 active torsions:
REMARK  status: ('A' for Active; 'I' for Inactive)
REMARK       I    between atoms: C1_4  and  N3_6 
REMARK    1  A    between atoms: C2_8  and  O1_10 
REMARK    2  A    between atoms: O1_10  and  N5_11 
REMARK    3  A    between atoms: N6_13  and  N7_15 
ROOT
HETATM    1  N1  UNL     1      56.190  41.562  48.642  1.00  0.00    -0.373 N 
ATOM      2  H11 UNL     1      56.983  42.018  48.190  1.00  0.00     0.158 HD
ATOM      3  H12 UNL     1      55.997  41.755  49.624  1.00  0.00     0.158 HD
HETATM    4  C1  UNL     1      55.450  40.752  47.969  1.00  0.00     0.188 C 
HETATM    5  N2  UNL     1      54.346  40.117  48.600  1.00  0.00    -0.064 NA
HETATM    6  N3  UNL     1      55.716  40.486  46.613  1.00  0.00    -0.297 N 
ATOM      7  H3  UNL     1      55.314  41.124  45.927  1.00  0.00     0.171 HD
HETATM    8  C2  UNL     1      56.417  39.518  46.166  1.00  0.00     0.260 C 
HETATM    9  N4  UNL     1      57.042  38.549  47.003  1.00  0.00    -0.054 NA
ENDROOT
BRANCH   8  10
HETATM   10  O1  UNL     1      56.558  39.436  44.771  1.00  0.00    -0.187 OA
BRANCH  10  11
HETATM   11  N5  UNL     1      55.846  38.448  44.121  1.00  0.00    -0.185 N 
HETATM   12  N6  UNL     1      56.137  38.100  42.951  1.00  0.00    -0.229 N 
ATOM     13  H6  UNL     1      56.908  38.536  42.445  1.00  0.00     0.209 HD
ATOM     14  H5  UNL     1      55.070  37.992  44.601  1.00  0.00     0.218 HD
BRANCH  12  15
HETATM   15  N7  UNL     1      55.360  37.088  42.368  1.00  0.00    -0.329 N 
ATOM     16  H72 UNL     1      55.509  36.820  41.395  1.00  0.00     0.178 HD
ATOM     17  H71 UNL     1      54.654  36.643  42.953  1.00  0.00     0.178 HD
ENDBRANCH  12  15
ENDBRANCH  10  11
ENDBRANCH   8  10
TORSDOF 3
ENDMDL
MODEL 5
REMARK VINA RESULT: -4.894779470      1.804      5.144
REMARK  3 active torsions:
REMARK  status: ('A' for Active; 'I' for Inactive)
REMARK       I    between atoms: C1_4  and  N3_6 
REMARK    1  A    between atoms: C2_8  and  O1_10 
REMARK    2  A    between atoms: O1_10  and  N5_11 
REMARK    3  A    between atoms: N6_13  and  N7_15 
ROOT
HETATM    1  N1  UNL     1      56.841  39.203  47.918  1.00  0.00    -0.373 N 
ATOM      2  H11 UNL     1      57.657  38.775  47.481  1.00  0.00     0.158 HD
ATOM      3  H12 UNL     1      56.811  39.298  48.933  1.00  0.00     0.158 HD
HETATM    4  C1  UNL     1      55.866  39.615  47.187  1.00  0.00     0.188 C 
HETATM    5  N2  UNL     1      54.730  40.212  47.796  1.00  0.00    -0.064 NA
HETATM    6  N3  UNL     1      55.909  39.484  45.786  1.00  0.00    -0.297 N 
ATOM      7  H3  UNL     1      56.368  40.231  45.263  1.00  0.00     0.171 HD
HETATM    8  C2  UNL     1      55.425  38.515  45.111  1.00  0.00     0.260 C 
HETATM    9  N4  UNL     1      54.759  37.403  45.703  1.00  0.00    -0.054 NA
ENDROOT
BRANCH   8  10
HETATM   10  O1  UNL     1      55.578  38.582  43.717  1.00  0.00    -0.187 OA
BRANCH  10  11
HETATM   11  N5  UNL     1      55.598  37.386  43.027  1.00  0.00    -0.185 N 
HETATM   12  N6  UNL     1      56.223  37.272  41.944  1.00  0.00    -0.229 N 
ATOM     13  H6  UNL     1      56.733  38.057  41.541  1.00  0.00     0.209 HD
ATOM     14  H5  UNL     1      55.098  36.581  43.404  1.00  0.00     0.218 HD
BRANCH  12  15
HETATM   15  N7  UNL     1      56.190  36.021  41.310  1.00  0.00    -0.329 N 
ATOM     16  H72 UNL     1      55.555  35.293  41.638  1.00  0.00     0.178 HD
ATOM     17  H71 UNL     1      56.820  35.879  40.521  1.00  0.00     0.178 HD
ENDBRANCH  12  15
ENDBRANCH  10  11
ENDBRANCH   8  10
TORSDOF 3
ENDMDL
