MODEL 1
REMARK VINA RESULT: -7.001520531      0.000      0.000
REMARK  10 active torsions:
REMARK  status: ('A' for Active; 'I' for Inactive)
REMARK    1  A    between atoms: S1_2  and  C2_3 
REMARK    2  A    between atoms: C2_3  and  C3_4 
REMARK    3  A    between atoms: C2_3  and  N2_9 
REMARK    4  A    between atoms: C3_4  and  N1_5 
REMARK    5  A    between atoms: N2_9  and  C4_11 
REMARK    6  A    between atoms: C5_14  and  N4_15 
REMARK       I    between atoms: N5_18  and  C6_19 
REMARK       I    between atoms: C6_19  and  N6_21 
REMARK    7  A    between atoms: N6_21  and  C7_23 
REMARK    8  A    between atoms: C7_23  and  C8_24 
REMARK    9  A    between atoms: C8_24  and  C9_25 
REMARK   10  A    between atoms: C9_25  and  N7_26 
ROOT
HETATM    1  C4  UNL     1     -10.833  41.276  35.135  1.00  0.00     0.178 A 
HETATM    2  N3  UNL     1      -9.588  41.355  34.666  1.00  0.00    -0.168 N 
ATOM      3  H3  UNL     1      -8.976  42.123  34.944  1.00  0.00     0.186 HD
HETATM    4  C5  UNL     1      -9.167  40.437  33.846  1.00  0.00     0.695 A 
HETATM    5  N5  UNL     1      -9.993  39.448  33.501  1.00  0.00    -0.060 N 
HETATM    6  C6  UNL     1      -9.840  38.319  32.643  1.00  0.00     0.347 C 
HETATM    7  O1  UNL     1     -10.876  37.555  32.549  1.00  0.00    -0.245 OA
HETATM    8  N6  UNL     1      -8.715  37.956  31.907  1.00  0.00    -0.342 N 
ATOM      9  H6  UNL     1      -7.879  38.538  31.959  1.00  0.00     0.164 HD
HETATM   10  S2  UNL     1     -11.405  39.862  34.387  1.00  0.00     0.052 SA
ENDROOT
BRANCH   4  11
HETATM   11  N4  UNL     1      -7.948  40.457  33.344  1.00  0.00    -0.233 N 
ATOM     12  H42 UNL     1      -7.717  41.148  32.630  1.00  0.00     0.174 HD
ATOM     13  H41 UNL     1      -7.229  39.802  33.651  1.00  0.00     0.174 HD
ENDBRANCH   4  11
BRANCH   8  14
HETATM   14  C7  UNL     1      -8.699  36.758  31.056  1.00  0.00     0.126 C 
BRANCH  14  15
HETATM   15  C8  UNL     1      -7.984  35.660  31.767  1.00  0.00     0.040 C 
BRANCH  15  16
HETATM   16  C9  UNL     1      -6.614  35.870  32.223  1.00  0.00     0.129 C 
BRANCH  16  17
HETATM   17  N7  UNL     1      -5.615  36.425  31.344  1.00  0.00    -0.339 N 
HETATM   18  C10 UNL     1      -5.021  35.692  30.270  1.00  0.00     0.251 C 
HETATM   19  N8  UNL     1      -4.297  36.553  29.382  1.00  0.00    -0.348 N 
HETATM   20  C11 UNL     1      -3.993  37.774  29.558  1.00  0.00     0.191 C 
ATOM     21  H8  UNL     1      -3.989  36.136  28.504  1.00  0.00     0.163 HD
HETATM   22  N9  UNL     1      -3.245  38.464  28.537  1.00  0.00    -0.063 NA
HETATM   23  N10 UNL     1      -4.480  38.443  30.706  1.00  0.00    -0.305 N 
HETATM   24  C12 UNL     1      -5.222  37.808  31.524  1.00  0.00     0.194 C 
ATOM     25  H10 UNL     1      -4.239  39.419  30.877  1.00  0.00     0.171 HD
HETATM   26  N11 UNL     1      -5.740  38.431  32.719  1.00  0.00    -0.063 NA
ENDBRANCH  16  17
ENDBRANCH  15  16
ENDBRANCH  14  15
ENDBRANCH   8  14
BRANCH   1  27
HETATM   27  N2  UNL     1     -11.437  42.095  35.963  1.00  0.00    -0.354 N 
ATOM     28  H2  UNL     1     -11.001  42.960  36.279  1.00  0.00     0.163 HD
BRANCH  27  29
HETATM   29  C2  UNL     1     -12.758  41.701  36.401  1.00  0.00     0.170 C 
BRANCH  29  30
HETATM   30  S1  UNL     1     -12.728  40.843  38.001  1.00  0.00    -0.146 SA
HETATM   31  C1  UNL     1     -13.083  39.075  37.801  1.00  0.00     0.092 C 
ENDBRANCH  29  30
BRANCH  29  32
HETATM   32  C3  UNL     1     -13.663  42.905  36.574  1.00  0.00     0.265 C 
BRANCH  32  33
HETATM   33  N1  UNL     1     -12.973  44.120  36.181  1.00  0.00    -0.077 N 
ATOM     34  H13 UNL     1     -13.312  44.933  36.696  1.00  0.00     0.274 HD
ATOM     35  H12 UNL     1     -12.006  44.128  36.506  1.00  0.00     0.274 HD
ATOM     36  H11 UNL     1     -13.036  44.256  35.172  1.00  0.00     0.274 HD
ENDBRANCH  32  33
ENDBRANCH  29  32
ENDBRANCH  27  29
ENDBRANCH   1  27
TORSDOF 10
ENDMDL
MODEL 2
REMARK VINA RESULT: -6.836123996      0.810      1.460
REMARK  10 active torsions:
REMARK  status: ('A' for Active; 'I' for Inactive)
REMARK    1  A    between atoms: S1_2  and  C2_3 
REMARK    2  A    between atoms: C2_3  and  C3_4 
REMARK    3  A    between atoms: C2_3  and  N2_9 
REMARK    4  A    between atoms: C3_4  and  N1_5 
REMARK    5  A    between atoms: N2_9  and  C4_11 
REMARK    6  A    between atoms: C5_14  and  N4_15 
REMARK       I    between atoms: N5_18  and  C6_19 
REMARK       I    between atoms: C6_19  and  N6_21 
REMARK    7  A    between atoms: N6_21  and  C7_23 
REMARK    8  A    between atoms: C7_23  and  C8_24 
REMARK    9  A    between atoms: C8_24  and  C9_25 
REMARK   10  A    between atoms: C9_25  and  N7_26 
ROOT
HETATM    1  C4  UNL     1     -10.545  41.188  35.266  1.00  0.00     0.178 A 
HETATM    2  N3  UNL     1      -9.338  41.393  34.740  1.00  0.00    -0.168 N 
ATOM      3  H3  UNL     1      -8.816  42.243  34.954  1.00  0.00     0.186 HD
HETATM    4  C5  UNL     1      -8.837  40.490  33.948  1.00  0.00     0.695 A 
HETATM    5  N5  UNL     1      -9.546  39.391  33.688  1.00  0.00    -0.060 N 
HETATM    6  C6  UNL     1      -9.286  38.245  32.880  1.00  0.00     0.347 C 
HETATM    7  O1  UNL     1     -10.222  37.355  32.869  1.00  0.00    -0.245 OA
HETATM    8  N6  UNL     1      -8.152  37.983  32.115  1.00  0.00    -0.342 N 
ATOM      9  H6  UNL     1      -7.394  38.664  32.103  1.00  0.00     0.164 HD
HETATM   10  S2  UNL     1     -10.965  39.677  34.613  1.00  0.00     0.052 SA
ENDROOT
BRANCH   4  11
HETATM   11  N4  UNL     1      -7.649  40.632  33.394  1.00  0.00    -0.233 N 
ATOM     12  H42 UNL     1      -6.897  41.057  33.937  1.00  0.00     0.174 HD
ATOM     13  H41 UNL     1      -7.461  40.326  32.439  1.00  0.00     0.174 HD
ENDBRANCH   4  11
BRANCH   8  14
HETATM   14  C7  UNL     1      -8.019  36.751  31.324  1.00  0.00     0.126 C 
BRANCH  14  15
HETATM   15  C8  UNL     1      -7.155  35.785  32.060  1.00  0.00     0.040 C 
BRANCH  15  16
HETATM   16  C9  UNL     1      -5.824  35.475  31.548  1.00  0.00     0.129 C 
BRANCH  16  17
HETATM   17  N7  UNL     1      -5.019  36.486  30.910  1.00  0.00    -0.339 N 
HETATM   18  C10 UNL     1      -4.390  37.555  31.622  1.00  0.00     0.251 C 
HETATM   19  N8  UNL     1      -3.422  38.229  30.811  1.00  0.00    -0.348 N 
HETATM   20  C11 UNL     1      -3.230  38.105  29.561  1.00  0.00     0.191 C 
ATOM     21  H8  UNL     1      -2.812  38.889  31.295  1.00  0.00     0.163 HD
HETATM   22  N9  UNL     1      -2.200  38.890  28.928  1.00  0.00    -0.063 NA
HETATM   23  N10 UNL     1      -3.969  37.131  28.848  1.00  0.00    -0.305 N 
HETATM   24  C12 UNL     1      -4.794  36.395  29.481  1.00  0.00     0.194 C 
ATOM     25  H10 UNL     1      -3.843  37.021  27.842  1.00  0.00     0.171 HD
HETATM   26  N11 UNL     1      -5.586  35.391  28.809  1.00  0.00    -0.063 NA
ENDBRANCH  16  17
ENDBRANCH  15  16
ENDBRANCH  14  15
ENDBRANCH   8  14
BRANCH   1  27
HETATM   27  N2  UNL     1     -11.216  41.970  36.078  1.00  0.00    -0.354 N 
ATOM     28  H2  UNL     1     -10.804  42.813  36.476  1.00  0.00     0.163 HD
BRANCH  27  29
HETATM   29  C2  UNL     1     -12.573  41.569  36.376  1.00  0.00     0.170 C 
BRANCH  29  30
HETATM   30  S1  UNL     1     -12.729  40.835  38.029  1.00  0.00    -0.146 SA
HETATM   31  C1  UNL     1     -13.037  39.051  37.926  1.00  0.00     0.092 C 
ENDBRANCH  29  30
BRANCH  29  32
HETATM   32  C3  UNL     1     -13.519  42.754  36.339  1.00  0.00     0.265 C 
BRANCH  32  33
HETATM   33  N1  UNL     1     -12.777  43.991  36.173  1.00  0.00    -0.077 N 
ATOM     34  H13 UNL     1     -12.976  44.436  35.277  1.00  0.00     0.274 HD
ATOM     35  H12 UNL     1     -13.125  44.726  36.788  1.00  0.00     0.274 HD
ATOM     36  H11 UNL     1     -11.778  43.828  36.302  1.00  0.00     0.274 HD
ENDBRANCH  32  33
ENDBRANCH  29  32
ENDBRANCH  27  29
ENDBRANCH   1  27
TORSDOF 10
ENDMDL
MODEL 3
REMARK VINA RESULT: -6.774159661      1.681      2.197
REMARK  10 active torsions:
REMARK  status: ('A' for Active; 'I' for Inactive)
REMARK    1  A    between atoms: S1_2  and  C2_3 
REMARK    2  A    between atoms: C2_3  and  C3_4 
REMARK    3  A    between atoms: C2_3  and  N2_9 
REMARK    4  A    between atoms: C3_4  and  N1_5 
REMARK    5  A    between atoms: N2_9  and  C4_11 
REMARK    6  A    between atoms: C5_14  and  N4_15 
REMARK       I    between atoms: N5_18  and  C6_19 
REMARK       I    between atoms: C6_19  and  N6_21 
REMARK    7  A    between atoms: N6_21  and  C7_23 
REMARK    8  A    between atoms: C7_23  and  C8_24 
REMARK    9  A    between atoms: C8_24  and  C9_25 
REMARK   10  A    between atoms: C9_25  and  N7_26 
ROOT
HETATM    1  C4  UNL     1     -11.902  41.573  34.744  1.00  0.00     0.178 A 
HETATM    2  N3  UNL     1     -10.815  41.722  33.987  1.00  0.00    -0.168 N 
ATOM      3  H3  UNL     1     -10.615  42.615  33.536  1.00  0.00     0.186 HD
HETATM    4  C5  UNL     1     -10.015  40.708  33.833  1.00  0.00     0.695 A 
HETATM    5  N5  UNL     1     -10.307  39.554  34.435  1.00  0.00    -0.060 N 
HETATM    6  C6  UNL     1      -9.652  38.287  34.462  1.00  0.00     0.347 C 
HETATM    7  O1  UNL     1     -10.236  37.380  35.170  1.00  0.00    -0.245 OA
HETATM    8  N6  UNL     1      -8.470  37.927  33.818  1.00  0.00    -0.342 N 
ATOM      9  H6  UNL     1      -7.983  38.621  33.252  1.00  0.00     0.164 HD
HETATM   10  S2  UNL     1     -11.771  39.953  35.240  1.00  0.00     0.052 SA
ENDROOT
BRANCH   4  11
HETATM   11  N4  UNL     1      -8.924  40.787  33.097  1.00  0.00    -0.233 N 
ATOM     12  H42 UNL     1      -9.003  40.700  32.083  1.00  0.00     0.174 HD
ATOM     13  H41 UNL     1      -8.004  40.936  33.512  1.00  0.00     0.174 HD
ENDBRANCH   4  11
BRANCH   8  14
HETATM   14  C7  UNL     1      -7.906  36.575  33.933  1.00  0.00     0.126 C 
BRANCH  14  15
HETATM   15  C8  UNL     1      -6.583  36.651  34.616  1.00  0.00     0.040 C 
BRANCH  15  16
HETATM   16  C9  UNL     1      -5.369  36.338  33.871  1.00  0.00     0.129 C 
BRANCH  16  17
HETATM   17  N7  UNL     1      -5.129  36.909  32.569  1.00  0.00    -0.339 N 
HETATM   18  C10 UNL     1      -5.074  38.317  32.327  1.00  0.00     0.251 C 
HETATM   19  N8  UNL     1      -4.531  38.609  31.034  1.00  0.00    -0.348 N 
HETATM   20  C11 UNL     1      -4.301  37.796  30.085  1.00  0.00     0.191 C 
ATOM     21  H8  UNL     1      -4.302  39.586  30.854  1.00  0.00     0.163 HD
HETATM   22  N9  UNL     1      -3.757  38.298  28.848  1.00  0.00    -0.063 NA
HETATM   23  N10 UNL     1      -4.498  36.412  30.305  1.00  0.00    -0.305 N 
HETATM   24  C12 UNL     1      -4.884  36.017  31.453  1.00  0.00     0.194 C 
ATOM     25  H10 UNL     1      -4.334  35.740  29.555  1.00  0.00     0.171 HD
HETATM   26  N11 UNL     1      -5.114  34.620  31.737  1.00  0.00    -0.063 NA
ENDBRANCH  16  17
ENDBRANCH  15  16
ENDBRANCH  14  15
ENDBRANCH   8  14
BRANCH   1  27
HETATM   27  N2  UNL     1     -12.823  42.466  35.020  1.00  0.00    -0.354 N 
ATOM     28  H2  UNL     1     -13.431  42.852  34.299  1.00  0.00     0.163 HD
BRANCH  27  29
HETATM   29  C2  UNL     1     -12.926  42.871  36.404  1.00  0.00     0.170 C 
BRANCH  29  30
HETATM   30  S1  UNL     1     -14.303  42.056  37.261  1.00  0.00    -0.146 SA
HETATM   31  C1  UNL     1     -15.256  41.013  36.123  1.00  0.00     0.092 C 
ENDBRANCH  29  30
BRANCH  29  32
HETATM   32  C3  UNL     1     -11.669  42.522  37.177  1.00  0.00     0.265 C 
BRANCH  32  33
HETATM   33  N1  UNL     1     -11.997  42.158  38.542  1.00  0.00    -0.077 N 
ATOM     34  H13 UNL     1     -12.363  42.950  39.069  1.00  0.00     0.274 HD
ATOM     35  H12 UNL     1     -12.817  41.553  38.587  1.00  0.00     0.274 HD
ATOM     36  H11 UNL     1     -11.189  41.737  39.003  1.00  0.00     0.274 HD
ENDBRANCH  32  33
ENDBRANCH  29  32
ENDBRANCH  27  29
ENDBRANCH   1  27
TORSDOF 10
ENDMDL
MODEL 4
REMARK VINA RESULT: -6.637166261      1.146      1.371
REMARK  10 active torsions:
REMARK  status: ('A' for Active; 'I' for Inactive)
REMARK    1  A    between atoms: S1_2  and  C2_3 
REMARK    2  A    between atoms: C2_3  and  C3_4 
REMARK    3  A    between atoms: C2_3  and  N2_9 
REMARK    4  A    between atoms: C3_4  and  N1_5 
REMARK    5  A    between atoms: N2_9  and  C4_11 
REMARK    6  A    between atoms: C5_14  and  N4_15 
REMARK       I    between atoms: N5_18  and  C6_19 
REMARK       I    between atoms: C6_19  and  N6_21 
REMARK    7  A    between atoms: N6_21  and  C7_23 
REMARK    8  A    between atoms: C7_23  and  C8_24 
REMARK    9  A    between atoms: C8_24  and  C9_25 
REMARK   10  A    between atoms: C9_25  and  N7_26 
ROOT
HETATM    1  C4  UNL     1     -11.618  41.578  34.098  1.00  0.00     0.178 A 
HETATM    2  N3  UNL     1     -10.290  41.598  33.988  1.00  0.00    -0.168 N 
ATOM      3  H3  UNL     1      -9.756  42.412  34.294  1.00  0.00     0.186 HD
HETATM    4  C5  UNL     1      -9.686  40.562  33.483  1.00  0.00     0.695 A 
HETATM    5  N5  UNL     1     -10.414  39.516  33.091  1.00  0.00    -0.060 N 
HETATM    6  C6  UNL     1     -10.063  38.261  32.510  1.00  0.00     0.347 C 
HETATM    7  O1  UNL     1     -11.055  37.474  32.259  1.00  0.00    -0.245 OA
HETATM    8  N6  UNL     1      -8.789  37.799  32.188  1.00  0.00    -0.342 N 
ATOM      9  H6  UNL     1      -7.984  38.395  32.374  1.00  0.00     0.164 HD
HETATM   10  S2  UNL     1     -12.003  40.049  33.466  1.00  0.00     0.052 SA
ENDROOT
BRANCH   4  11
HETATM   11  N4  UNL     1      -8.376  40.518  33.345  1.00  0.00    -0.233 N 
ATOM     12  H42 UNL     1      -7.905  41.268  32.838  1.00  0.00     0.174 HD
ATOM     13  H41 UNL     1      -7.819  39.757  33.734  1.00  0.00     0.174 HD
ENDBRANCH   4  11
BRANCH   8  14
HETATM   14  C7  UNL     1      -8.574  36.475  31.587  1.00  0.00     0.126 C 
BRANCH  14  15
HETATM   15  C8  UNL     1      -7.771  35.636  32.522  1.00  0.00     0.040 C 
BRANCH  15  16
HETATM   16  C9  UNL     1      -6.385  35.996  32.802  1.00  0.00     0.129 C 
BRANCH  16  17
HETATM   17  N7  UNL     1      -5.526  36.509  31.764  1.00  0.00    -0.339 N 
HETATM   18  C10 UNL     1      -4.936  35.684  30.755  1.00  0.00     0.251 C 
HETATM   19  N8  UNL     1      -4.386  36.469  29.690  1.00  0.00    -0.348 N 
HETATM   20  C11 UNL     1      -4.211  37.727  29.659  1.00  0.00     0.191 C 
ATOM     21  H8  UNL     1      -4.100  35.955  28.856  1.00  0.00     0.163 HD
HETATM   22  N9  UNL     1      -3.627  38.325  28.485  1.00  0.00    -0.063 NA
HETATM   23  N10 UNL     1      -4.681  38.510  30.740  1.00  0.00    -0.305 N 
HETATM   24  C12 UNL     1      -5.281  37.936  31.705  1.00  0.00     0.194 C 
ATOM     25  H10 UNL     1      -4.541  39.521  30.746  1.00  0.00     0.171 HD
HETATM   26  N11 UNL     1      -5.775  38.678  32.842  1.00  0.00    -0.063 NA
ENDBRANCH  16  17
ENDBRANCH  15  16
ENDBRANCH  14  15
ENDBRANCH   8  14
BRANCH   1  27
HETATM   27  N2  UNL     1     -12.403  42.513  34.575  1.00  0.00    -0.354 N 
ATOM     28  H2  UNL     1     -12.792  43.245  33.981  1.00  0.00     0.163 HD
BRANCH  27  29
HETATM   29  C2  UNL     1     -12.686  42.449  35.992  1.00  0.00     0.170 C 
BRANCH  29  30
HETATM   30  S1  UNL     1     -14.252  41.601  36.346  1.00  0.00    -0.146 SA
HETATM   31  C1  UNL     1     -15.284  42.577  37.474  1.00  0.00     0.092 C 
ENDBRANCH  29  30
BRANCH  29  32
HETATM   32  C3  UNL     1     -11.605  41.689  36.737  1.00  0.00     0.265 C 
BRANCH  32  33
HETATM   33  N1  UNL     1     -10.781  42.602  37.506  1.00  0.00    -0.077 N 
ATOM     34  H13 UNL     1      -9.825  42.642  37.150  1.00  0.00     0.274 HD
ATOM     35  H12 UNL     1     -11.042  43.575  37.346  1.00  0.00     0.274 HD
ATOM     36  H11 UNL     1     -10.807  42.359  38.496  1.00  0.00     0.274 HD
ENDBRANCH  32  33
ENDBRANCH  29  32
ENDBRANCH  27  29
ENDBRANCH   1  27
TORSDOF 10
ENDMDL
MODEL 5
REMARK VINA RESULT: -6.602541101      1.907      2.425
REMARK  10 active torsions:
REMARK  status: ('A' for Active; 'I' for Inactive)
REMARK    1  A    between atoms: S1_2  and  C2_3 
REMARK    2  A    between atoms: C2_3  and  C3_4 
REMARK    3  A    between atoms: C2_3  and  N2_9 
REMARK    4  A    between atoms: C3_4  and  N1_5 
REMARK    5  A    between atoms: N2_9  and  C4_11 
REMARK    6  A    between atoms: C5_14  and  N4_15 
REMARK       I    between atoms: N5_18  and  C6_19 
REMARK       I    between atoms: C6_19  and  N6_21 
REMARK    7  A    between atoms: N6_21  and  C7_23 
REMARK    8  A    between atoms: C7_23  and  C8_24 
REMARK    9  A    between atoms: C8_24  and  C9_25 
REMARK   10  A    between atoms: C9_25  and  N7_26 
ROOT
HETATM    1  C4  UNL     1     -11.219  40.895  34.272  1.00  0.00     0.178 A 
HETATM    2  N3  UNL     1     -10.028  41.239  33.780  1.00  0.00    -0.168 N 
ATOM      3  H3  UNL     1      -9.898  42.138  33.317  1.00  0.00     0.186 HD
HETATM    4  C5  UNL     1      -9.035  40.407  33.902  1.00  0.00     0.695 A 
HETATM    5  N5  UNL     1      -9.240  39.239  34.512  1.00  0.00    -0.060 N 
HETATM    6  C6  UNL     1      -8.381  38.136  34.796  1.00  0.00     0.347 C 
HETATM    7  O1  UNL     1      -8.937  37.152  35.420  1.00  0.00    -0.245 OA
HETATM    8  N6  UNL     1      -7.031  38.006  34.479  1.00  0.00    -0.342 N 
ATOM      9  H6  UNL     1      -6.561  38.765  33.987  1.00  0.00     0.164 HD
HETATM   10  S2  UNL     1     -10.905  39.354  34.916  1.00  0.00     0.052 SA
ENDROOT
BRANCH   4  11
HETATM   11  N4  UNL     1      -7.833  40.685  33.438  1.00  0.00    -0.233 N 
ATOM     12  H42 UNL     1      -7.365  41.535  33.753  1.00  0.00     0.174 HD
ATOM     13  H41 UNL     1      -7.358  40.074  32.773  1.00  0.00     0.174 HD
ENDBRANCH   4  11
BRANCH   8  14
HETATM   14  C7  UNL     1      -6.264  36.803  34.834  1.00  0.00     0.126 C 
BRANCH  14  15
HETATM   15  C8  UNL     1      -5.756  36.160  33.589  1.00  0.00     0.040 C 
BRANCH  15  16
HETATM   16  C9  UNL     1      -6.142  36.699  32.290  1.00  0.00     0.129 C 
BRANCH  16  17
HETATM   17  N7  UNL     1      -5.192  37.405  31.467  1.00  0.00    -0.339 N 
HETATM   18  C10 UNL     1      -4.237  38.333  31.989  1.00  0.00     0.251 C 
HETATM   19  N8  UNL     1      -3.233  38.657  31.020  1.00  0.00    -0.348 N 
HETATM   20  C11 UNL     1      -3.227  38.376  29.781  1.00  0.00     0.191 C 
ATOM     21  H8  UNL     1      -2.427  39.176  31.366  1.00  0.00     0.163 HD
HETATM   22  N9  UNL     1      -2.117  38.807  28.969  1.00  0.00    -0.063 NA
HETATM   23  N10 UNL     1      -4.265  37.568  29.257  1.00  0.00    -0.305 N 
HETATM   24  C12 UNL     1      -5.166  37.131  30.044  1.00  0.00     0.194 C 
ATOM     25  H10 UNL     1      -4.290  37.339  28.263  1.00  0.00     0.171 HD
HETATM   26  N11 UNL     1      -6.257  36.312  29.569  1.00  0.00    -0.063 NA
ENDBRANCH  16  17
ENDBRANCH  15  16
ENDBRANCH  14  15
ENDBRANCH   8  14
BRANCH   1  27
HETATM   27  N2  UNL     1     -12.332  41.587  34.249  1.00  0.00    -0.354 N 
ATOM     28  H2  UNL     1     -12.424  42.441  33.700  1.00  0.00     0.163 HD
BRANCH  27  29
HETATM   29  C2  UNL     1     -13.422  41.072  35.048  1.00  0.00     0.170 C 
BRANCH  29  30
HETATM   30  S1  UNL     1     -13.786  42.123  36.482  1.00  0.00    -0.146 SA
HETATM   31  C1  UNL     1     -12.682  41.740  37.870  1.00  0.00     0.092 C 
ENDBRANCH  29  30
BRANCH  29  32
HETATM   32  C3  UNL     1     -14.703  40.984  34.240  1.00  0.00     0.265 C 
BRANCH  32  33
HETATM   33  N1  UNL     1     -14.580  41.740  33.008  1.00  0.00    -0.077 N 
ATOM     34  H13 UNL     1     -14.349  41.141  32.216  1.00  0.00     0.274 HD
ATOM     35  H12 UNL     1     -15.483  42.082  32.681  1.00  0.00     0.274 HD
ATOM     36  H11 UNL     1     -13.905  42.497  33.120  1.00  0.00     0.274 HD
ENDBRANCH  32  33
ENDBRANCH  29  32
ENDBRANCH  27  29
ENDBRANCH   1  27
TORSDOF 10
ENDMDL
