MODEL 1
REMARK VINA RESULT: -8.137262523      0.000      0.000
REMARK  10 active torsions:
REMARK  status: ('A' for Active; 'I' for Inactive)
REMARK    1  A    between atoms: C2_2  and  N1_4 
REMARK    2  A    between atoms: N1_4  and  C4_6 
REMARK    3  A    between atoms: C5_9  and  N3_10 
REMARK    4  A    between atoms: C6_15  and  N6_16 
REMARK    5  A    between atoms: C8_25  and  N10_26 
REMARK    6  A    between atoms: N10_26  and  C9_28 
REMARK    7  A    between atoms: C9_28  and  C10_29 
REMARK    8  A    between atoms: C10_29  and  N11_30 
REMARK    9  A    between atoms: N11_30  and  C11_32 
REMARK   10  A    between atoms: C14_38  and  N14_39 
ROOT
HETATM    1  C4  UNL     1     -11.928  40.507  33.862  1.00  0.00     0.163 A 
HETATM    2  N2  UNL     1     -12.820  41.022  34.760  1.00  0.00    -0.169 N 
ATOM      3  H2  UNL     1     -13.817  40.932  34.560  1.00  0.00     0.186 HD
HETATM    4  C5  UNL     1     -12.449  41.640  35.893  1.00  0.00     0.737 A 
HETATM    5  N8  UNL     1     -11.134  41.761  36.159  1.00  0.00    -0.125 N 
ATOM      6  H8  UNL     1     -10.850  42.230  37.019  1.00  0.00     0.206 HD
HETATM    7  N9  UNL     1     -10.213  41.304  35.365  1.00  0.00    -0.264 N 
HETATM    8  C7  UNL     1      -8.782  41.404  35.612  1.00  0.00     0.180 C 
HETATM    9  C8  UNL     1     -10.581  40.658  34.179  1.00  0.00     0.167 A 
ENDROOT
BRANCH   9  10
HETATM   10  N10 UNL     1      -9.660  40.279  33.446  1.00  0.00    -0.350 N 
ATOM     11  H10 UNL     1      -9.012  41.038  33.236  1.00  0.00     0.166 HD
BRANCH  10  12
HETATM   12  C9  UNL     1      -9.274  39.101  32.834  1.00  0.00     0.082 C 
BRANCH  12  13
HETATM   13  C10 UNL     1      -8.201  38.321  33.585  1.00  0.00     0.165 C 
BRANCH  13  14
HETATM   14  N11 UNL     1      -6.917  38.894  33.309  1.00  0.00    -0.371 N 
ATOM     15  H11 UNL     1      -6.800  39.886  33.517  1.00  0.00     0.161 HD
BRANCH  14  16
HETATM   16  C11 UNL     1      -5.797  38.215  32.775  1.00  0.00     0.120 A 
HETATM   17  C12 UNL     1      -5.580  36.862  33.047  1.00  0.00     0.094 A 
HETATM   18  C13 UNL     1      -4.514  36.168  32.541  1.00  0.00     0.135 A 
HETATM   19  N12 UNL     1      -4.347  34.777  32.856  1.00  0.00    -0.082 NA
HETATM   20  N13 UNL     1      -3.647  36.818  31.754  1.00  0.00    -0.179 N 
HETATM   21  C14 UNL     1      -3.836  38.134  31.474  1.00  0.00     0.678 A 
ATOM     22  H13 UNL     1      -2.844  36.324  31.365  1.00  0.00     0.185 HD
HETATM   23  N15 UNL     1      -4.885  38.791  31.980  1.00  0.00    -0.177 N 
ATOM     24  H15 UNL     1      -4.997  39.778  31.748  1.00  0.00     0.185 HD
BRANCH  21  25
HETATM   25  N14 UNL     1      -2.968  38.683  30.718  1.00  0.00    -0.234 N 
ATOM     26 2H14 UNL     1      -2.876  38.465  29.725  1.00  0.00     0.174 HD
ATOM     27 1H14 UNL     1      -2.352  39.368  31.156  1.00  0.00     0.174 HD
ENDBRANCH  21  25
ENDBRANCH  14  16
ENDBRANCH  13  14
ENDBRANCH  12  13
ENDBRANCH  10  12
ENDBRANCH   9  10
BRANCH   1  28
HETATM   28  N1  UNL     1     -12.295  39.894  32.828  1.00  0.00    -0.369 N 
ATOM     29  H1  UNL     1     -12.060  38.901  32.847  1.00  0.00     0.161 HD
BRANCH  28  30
HETATM   30  C2  UNL     1     -12.955  40.277  31.659  1.00  0.00     0.075 C 
HETATM   31  C1  UNL     1     -13.495  39.209  30.763  1.00  0.00     0.031 C 
HETATM   32  C3  UNL     1     -12.025  41.124  30.746  1.00  0.00     0.031 C 
ENDBRANCH  28  30
ENDBRANCH   1  28
BRANCH   4  33
HETATM   33  N3  UNL     1     -13.423  42.143  36.802  1.00  0.00     0.011 N 
HETATM   34  N4  UNL     1     -13.569  41.752  38.053  1.00  0.00    -0.191 N 
HETATM   35  N5  UNL     1     -14.588  42.425  38.620  1.00  0.00    -0.115 N 
ATOM     36  H4  UNL     1     -12.997  41.048  38.520  1.00  0.00     0.211 HD
HETATM   37  C6  UNL     1     -15.079  43.247  37.695  1.00  0.00     0.708 A 
ATOM     38  H5  UNL     1     -14.922  42.323  39.579  1.00  0.00     0.207 HD
HETATM   39  N7  UNL     1     -14.350  43.060  36.587  1.00  0.00    -0.093 N 
ATOM     40  H7  UNL     1     -14.491  43.553  35.705  1.00  0.00     0.208 HD
BRANCH  37  41
HETATM   41  N6  UNL     1     -16.057  44.064  37.814  1.00  0.00    -0.232 N 
ATOM     42  H62 UNL     1     -17.033  43.853  37.609  1.00  0.00     0.174 HD
ATOM     43  H61 UNL     1     -16.024  45.034  38.127  1.00  0.00     0.174 HD
ENDBRANCH  37  41
ENDBRANCH   4  33
TORSDOF 10
ENDMDL
MODEL 2
REMARK VINA RESULT: -8.044267625      1.637      2.508
REMARK  10 active torsions:
REMARK  status: ('A' for Active; 'I' for Inactive)
REMARK    1  A    between atoms: C2_2  and  N1_4 
REMARK    2  A    between atoms: N1_4  and  C4_6 
REMARK    3  A    between atoms: C5_9  and  N3_10 
REMARK    4  A    between atoms: C6_15  and  N6_16 
REMARK    5  A    between atoms: C8_25  and  N10_26 
REMARK    6  A    between atoms: N10_26  and  C9_28 
REMARK    7  A    between atoms: C9_28  and  C10_29 
REMARK    8  A    between atoms: C10_29  and  N11_30 
REMARK    9  A    between atoms: N11_30  and  C11_32 
REMARK   10  A    between atoms: C14_38  and  N14_39 
ROOT
HETATM    1  C4  UNL     1     -11.618  39.845  35.222  1.00  0.00     0.163 A 
HETATM    2  N2  UNL     1     -12.668  40.416  35.886  1.00  0.00    -0.169 N 
ATOM      3  H2  UNL     1     -12.997  39.975  36.745  1.00  0.00     0.186 HD
HETATM    4  C5  UNL     1     -13.288  41.529  35.462  1.00  0.00     0.737 A 
HETATM    5  N8  UNL     1     -12.857  42.114  34.328  1.00  0.00    -0.125 N 
ATOM      6  H8  UNL     1     -13.327  42.960  34.004  1.00  0.00     0.206 HD
HETATM    7  N9  UNL     1     -11.868  41.644  33.628  1.00  0.00    -0.264 N 
HETATM    8  C7  UNL     1     -11.363  42.243  32.402  1.00  0.00     0.180 C 
HETATM    9  C8  UNL     1     -11.210  40.484  34.053  1.00  0.00     0.167 A 
ENDROOT
BRANCH   9  10
HETATM   10  N10 UNL     1     -10.303  40.064  33.327  1.00  0.00    -0.350 N 
ATOM     11  H10 UNL     1     -10.671  39.639  32.476  1.00  0.00     0.166 HD
BRANCH  10  12
HETATM   12  C9  UNL     1      -8.922  40.016  33.360  1.00  0.00     0.082 C 
BRANCH  12  13
HETATM   13  C10 UNL     1      -8.327  38.664  32.983  1.00  0.00     0.165 C 
BRANCH  13  14
HETATM   14  N11 UNL     1      -7.010  38.553  33.539  1.00  0.00    -0.371 N 
ATOM     15  H11 UNL     1      -6.868  38.944  34.470  1.00  0.00     0.161 HD
BRANCH  14  16
HETATM   16  C11 UNL     1      -5.889  37.953  32.918  1.00  0.00     0.120 A 
HETATM   17  C12 UNL     1      -5.670  36.576  33.007  1.00  0.00     0.094 A 
HETATM   18  C13 UNL     1      -4.603  35.958  32.412  1.00  0.00     0.135 A 
HETATM   19  N12 UNL     1      -4.433  34.538  32.540  1.00  0.00    -0.082 NA
HETATM   20  N13 UNL     1      -3.739  36.708  31.717  1.00  0.00    -0.179 N 
HETATM   21  C14 UNL     1      -3.931  38.050  31.614  1.00  0.00     0.678 A 
ATOM     22  H13 UNL     1      -2.936  36.272  31.264  1.00  0.00     0.185 HD
HETATM   23  N15 UNL     1      -4.981  38.631  32.204  1.00  0.00    -0.177 N 
ATOM     24  H15 UNL     1      -5.095  39.641  32.106  1.00  0.00     0.185 HD
BRANCH  21  25
HETATM   25  N14 UNL     1      -3.066  38.696  30.935  1.00  0.00    -0.234 N 
ATOM     26 2H14 UNL     1      -2.789  38.433  29.989  1.00  0.00     0.174 HD
ATOM     27 1H14 UNL     1      -2.651  39.510  31.388  1.00  0.00     0.174 HD
ENDBRANCH  21  25
ENDBRANCH  14  16
ENDBRANCH  13  14
ENDBRANCH  12  13
ENDBRANCH  10  12
ENDBRANCH   9  10
BRANCH   1  28
HETATM   28  N1  UNL     1     -11.023  38.827  35.656  1.00  0.00    -0.369 N 
ATOM     29  H1  UNL     1     -10.128  39.045  36.097  1.00  0.00     0.161 HD
BRANCH  28  30
HETATM   30  C2  UNL     1     -11.320  37.464  35.667  1.00  0.00     0.075 C 
HETATM   31  C1  UNL     1     -11.915  36.874  36.905  1.00  0.00     0.031 C 
HETATM   32  C3  UNL     1     -10.048  36.613  35.398  1.00  0.00     0.031 C 
ENDBRANCH  28  30
ENDBRANCH   1  28
BRANCH   4  33
HETATM   33  N3  UNL     1     -14.367  42.090  36.204  1.00  0.00     0.011 N 
HETATM   34  N4  UNL     1     -15.593  41.607  36.246  1.00  0.00    -0.191 N 
HETATM   35  N5  UNL     1     -16.359  42.387  37.032  1.00  0.00    -0.115 N 
ATOM     36  H4  UNL     1     -15.913  40.771  35.757  1.00  0.00     0.211 HD
HETATM   37  C6  UNL     1     -15.584  43.371  37.483  1.00  0.00     0.708 A 
ATOM     38  H5  UNL     1     -17.347  42.250  37.243  1.00  0.00     0.207 HD
HETATM   39  N7  UNL     1     -14.365  43.172  36.964  1.00  0.00    -0.093 N 
ATOM     40  H7  UNL     1     -13.554  43.767  37.131  1.00  0.00     0.208 HD
BRANCH  37  41
HETATM   41  N6  UNL     1     -15.914  44.335  38.257  1.00  0.00    -0.232 N 
ATOM     42  H62 UNL     1     -15.932  45.321  38.001  1.00  0.00     0.174 HD
ATOM     43  H61 UNL     1     -16.208  44.278  39.232  1.00  0.00     0.174 HD
ENDBRANCH  37  41
ENDBRANCH   4  33
TORSDOF 10
ENDMDL
MODEL 3
REMARK VINA RESULT: -8.036674992      2.292      4.043
REMARK  10 active torsions:
REMARK  status: ('A' for Active; 'I' for Inactive)
REMARK    1  A    between atoms: C2_2  and  N1_4 
REMARK    2  A    between atoms: N1_4  and  C4_6 
REMARK    3  A    between atoms: C5_9  and  N3_10 
REMARK    4  A    between atoms: C6_15  and  N6_16 
REMARK    5  A    between atoms: C8_25  and  N10_26 
REMARK    6  A    between atoms: N10_26  and  C9_28 
REMARK    7  A    between atoms: C9_28  and  C10_29 
REMARK    8  A    between atoms: C10_29  and  N11_30 
REMARK    9  A    between atoms: N11_30  and  C11_32 
REMARK   10  A    between atoms: C14_38  and  N14_39 
ROOT
HETATM    1  C4  UNL     1      -8.951  39.480  34.337  1.00  0.00     0.163 A 
HETATM    2  N2  UNL     1      -9.683  40.297  35.152  1.00  0.00    -0.169 N 
ATOM      3  H2  UNL     1      -9.395  40.396  36.126  1.00  0.00     0.186 HD
HETATM    4  C5  UNL     1     -10.764  40.976  34.734  1.00  0.00     0.737 A 
HETATM    5  N8  UNL     1     -11.148  40.846  33.449  1.00  0.00    -0.125 N 
ATOM      6  H8  UNL     1     -11.968  41.360  33.129  1.00  0.00     0.206 HD
HETATM    7  N9  UNL     1     -10.515  40.091  32.601  1.00  0.00    -0.264 N 
HETATM    8  C7  UNL     1     -10.887  39.924  31.204  1.00  0.00     0.180 C 
HETATM    9  C8  UNL     1      -9.387  39.375  33.019  1.00  0.00     0.167 A 
ENDROOT
BRANCH   9  10
HETATM   10  N10 UNL     1      -8.851  38.646  32.178  1.00  0.00    -0.350 N 
ATOM     11  H10 UNL     1      -8.144  39.149  31.642  1.00  0.00     0.166 HD
BRANCH  10  12
HETATM   12  C9  UNL     1      -8.954  37.329  31.769  1.00  0.00     0.082 C 
BRANCH  12  13
HETATM   13  C10 UNL     1      -7.670  36.520  31.917  1.00  0.00     0.165 C 
BRANCH  13  14
HETATM   14  N11 UNL     1      -6.550  37.335  31.550  1.00  0.00    -0.371 N 
ATOM     15  H11 UNL     1      -6.199  37.982  32.256  1.00  0.00     0.161 HD
BRANCH  14  16
HETATM   16  C11 UNL     1      -5.886  37.327  30.300  1.00  0.00     0.120 A 
HETATM   17  C12 UNL     1      -4.639  37.938  30.146  1.00  0.00     0.094 A 
HETATM   18  C13 UNL     1      -3.961  37.943  28.957  1.00  0.00     0.135 A 
HETATM   19  N12 UNL     1      -2.681  38.587  28.861  1.00  0.00    -0.082 NA
HETATM   20  N13 UNL     1      -4.520  37.335  27.903  1.00  0.00    -0.179 N 
HETATM   21  C14 UNL     1      -5.732  36.733  28.027  1.00  0.00     0.678 A 
ATOM     22  H13 UNL     1      -4.036  37.325  27.005  1.00  0.00     0.185 HD
HETATM   23  N15 UNL     1      -6.375  36.741  29.199  1.00  0.00    -0.177 N 
ATOM     24  H15 UNL     1      -7.283  36.279  29.258  1.00  0.00     0.185 HD
BRANCH  21  25
HETATM   25  N14 UNL     1      -6.199  36.175  26.980  1.00  0.00    -0.234 N 
ATOM     26 2H14 UNL     1      -6.000  35.207  26.727  1.00  0.00     0.174 HD
ATOM     27 1H14 UNL     1      -6.796  36.752  26.386  1.00  0.00     0.174 HD
ENDBRANCH  21  25
ENDBRANCH  14  16
ENDBRANCH  13  14
ENDBRANCH  12  13
ENDBRANCH  10  12
ENDBRANCH   9  10
BRANCH   1  28
HETATM   28  N1  UNL     1      -7.917  38.886  34.736  1.00  0.00    -0.369 N 
ATOM     29  H1  UNL     1      -7.054  39.339  34.434  1.00  0.00     0.161 HD
BRANCH  28  30
HETATM   30  C2  UNL     1      -7.694  37.741  35.502  1.00  0.00     0.075 C 
HETATM   31  C1  UNL     1      -6.503  36.895  35.190  1.00  0.00     0.031 C 
HETATM   32  C3  UNL     1      -8.902  36.767  35.413  1.00  0.00     0.031 C 
ENDBRANCH  28  30
ENDBRANCH   1  28
BRANCH   4  33
HETATM   33  N3  UNL     1     -11.480  41.827  35.623  1.00  0.00     0.011 N 
HETATM   34  N4  UNL     1     -11.070  42.191  36.822  1.00  0.00    -0.191 N 
HETATM   35  N5  UNL     1     -11.993  42.989  37.392  1.00  0.00    -0.115 N 
ATOM     36  H4  UNL     1     -10.188  41.911  37.252  1.00  0.00     0.211 HD
HETATM   37  C6  UNL     1     -12.992  43.117  36.522  1.00  0.00     0.708 A 
ATOM     38  H5  UNL     1     -11.937  43.415  38.317  1.00  0.00     0.207 HD
HETATM   39  N7  UNL     1     -12.659  42.397  35.442  1.00  0.00    -0.093 N 
ATOM     40  H7  UNL     1     -13.231  42.303  34.603  1.00  0.00     0.208 HD
BRANCH  37  41
HETATM   41  N6  UNL     1     -14.073  43.786  36.665  1.00  0.00    -0.232 N 
ATOM     42  H62 UNL     1     -14.994  43.391  36.854  1.00  0.00     0.174 HD
ATOM     43  H61 UNL     1     -14.190  44.798  36.618  1.00  0.00     0.174 HD
ENDBRANCH  37  41
ENDBRANCH   4  33
TORSDOF 10
ENDMDL
MODEL 4
REMARK VINA RESULT: -7.984840046      1.781      3.556
REMARK  10 active torsions:
REMARK  status: ('A' for Active; 'I' for Inactive)
REMARK    1  A    between atoms: C2_2  and  N1_4 
REMARK    2  A    between atoms: N1_4  and  C4_6 
REMARK    3  A    between atoms: C5_9  and  N3_10 
REMARK    4  A    between atoms: C6_15  and  N6_16 
REMARK    5  A    between atoms: C8_25  and  N10_26 
REMARK    6  A    between atoms: N10_26  and  C9_28 
REMARK    7  A    between atoms: C9_28  and  C10_29 
REMARK    8  A    between atoms: C10_29  and  N11_30 
REMARK    9  A    between atoms: N11_30  and  C11_32 
REMARK   10  A    between atoms: C14_38  and  N14_39 
ROOT
HETATM    1  C4  UNL     1      -8.954  39.461  34.246  1.00  0.00     0.163 A 
HETATM    2  N2  UNL     1      -9.678  40.273  35.074  1.00  0.00    -0.169 N 
ATOM      3  H2  UNL     1      -9.367  40.383  36.040  1.00  0.00     0.186 HD
HETATM    4  C5  UNL     1     -10.778  40.934  34.678  1.00  0.00     0.737 A 
HETATM    5  N8  UNL     1     -11.191  40.790  33.404  1.00  0.00    -0.125 N 
ATOM      6  H8  UNL     1     -12.026  41.291  33.101  1.00  0.00     0.206 HD
HETATM    7  N9  UNL     1     -10.569  40.039  32.545  1.00  0.00    -0.264 N 
HETATM    8  C7  UNL     1     -10.973  39.857  31.159  1.00  0.00     0.180 C 
HETATM    9  C8  UNL     1      -9.421  39.342  32.940  1.00  0.00     0.167 A 
ENDROOT
BRANCH   9  10
HETATM   10  N10 UNL     1      -8.895  38.614  32.091  1.00  0.00    -0.350 N 
ATOM     11  H10 UNL     1      -8.405  39.160  31.382  1.00  0.00     0.166 HD
BRANCH  10  12
HETATM   12  C9  UNL     1      -8.794  37.257  31.845  1.00  0.00     0.082 C 
BRANCH  12  13
HETATM   13  C10 UNL     1      -8.799  36.881  30.368  1.00  0.00     0.165 C 
BRANCH  13  14
HETATM   14  N11 UNL     1      -7.557  36.248  30.035  1.00  0.00    -0.371 N 
ATOM     15  H11 UNL     1      -7.569  35.584  29.261  1.00  0.00     0.161 HD
BRANCH  14  16
HETATM   16  C11 UNL     1      -6.314  36.458  30.680  1.00  0.00     0.120 A 
HETATM   17  C12 UNL     1      -5.748  35.469  31.487  1.00  0.00     0.094 A 
HETATM   18  C13 UNL     1      -4.544  35.630  32.119  1.00  0.00     0.135 A 
HETATM   19  N12 UNL     1      -4.013  34.575  32.935  1.00  0.00    -0.082 NA
HETATM   20  N13 UNL     1      -3.888  36.785  31.952  1.00  0.00    -0.179 N 
HETATM   21  C14 UNL     1      -4.418  37.763  31.171  1.00  0.00     0.678 A 
ATOM     22  H13 UNL     1      -2.989  36.931  32.412  1.00  0.00     0.185 HD
HETATM   23  N15 UNL     1      -5.595  37.582  30.564  1.00  0.00    -0.177 N 
ATOM     24  H15 UNL     1      -5.963  38.337  29.984  1.00  0.00     0.185 HD
BRANCH  21  25
HETATM   25  N14 UNL     1      -3.733  38.834  31.060  1.00  0.00    -0.234 N 
ATOM     26 2H14 UNL     1      -2.793  38.857  30.664  1.00  0.00     0.174 HD
ATOM     27 1H14 UNL     1      -4.175  39.691  31.394  1.00  0.00     0.174 HD
ENDBRANCH  21  25
ENDBRANCH  14  16
ENDBRANCH  13  14
ENDBRANCH  12  13
ENDBRANCH  10  12
ENDBRANCH   9  10
BRANCH   1  28
HETATM   28  N1  UNL     1      -7.902  38.884  34.623  1.00  0.00    -0.369 N 
ATOM     29  H1  UNL     1      -7.054  39.339  34.285  1.00  0.00     0.161 HD
BRANCH  28  30
HETATM   30  C2  UNL     1      -7.645  37.757  35.405  1.00  0.00     0.075 C 
HETATM   31  C1  UNL     1      -6.542  36.838  34.988  1.00  0.00     0.031 C 
HETATM   32  C3  UNL     1      -8.901  36.847  35.501  1.00  0.00     0.031 C 
ENDBRANCH  28  30
ENDBRANCH   1  28
BRANCH   4  33
HETATM   33  N3  UNL     1     -11.484  41.781  35.579  1.00  0.00     0.011 N 
HETATM   34  N4  UNL     1     -11.069  42.123  36.783  1.00  0.00    -0.191 N 
HETATM   35  N5  UNL     1     -11.983  42.924  37.364  1.00  0.00    -0.115 N 
ATOM     36  H4  UNL     1     -10.191  41.827  37.210  1.00  0.00     0.211 HD
HETATM   37  C6  UNL     1     -12.980  43.076  36.496  1.00  0.00     0.708 A 
ATOM     38  H5  UNL     1     -11.922  43.336  38.295  1.00  0.00     0.207 HD
HETATM   39  N7  UNL     1     -12.656  42.368  35.407  1.00  0.00    -0.093 N 
ATOM     40  H7  UNL     1     -13.229  42.292  34.566  1.00  0.00     0.208 HD
BRANCH  37  41
HETATM   41  N6  UNL     1     -14.053  43.757  36.648  1.00  0.00    -0.232 N 
ATOM     42  H62 UNL     1     -14.117  44.669  37.099  1.00  0.00     0.174 HD
ATOM     43  H61 UNL     1     -14.996  43.509  36.349  1.00  0.00     0.174 HD
ENDBRANCH  37  41
ENDBRANCH   4  33
TORSDOF 10
ENDMDL
MODEL 5
REMARK VINA RESULT: -7.908983956      1.988      4.017
REMARK  10 active torsions:
REMARK  status: ('A' for Active; 'I' for Inactive)
REMARK    1  A    between atoms: C2_2  and  N1_4 
REMARK    2  A    between atoms: N1_4  and  C4_6 
REMARK    3  A    between atoms: C5_9  and  N3_10 
REMARK    4  A    between atoms: C6_15  and  N6_16 
REMARK    5  A    between atoms: C8_25  and  N10_26 
REMARK    6  A    between atoms: N10_26  and  C9_28 
REMARK    7  A    between atoms: C9_28  and  C10_29 
REMARK    8  A    between atoms: C10_29  and  N11_30 
REMARK    9  A    between atoms: N11_30  and  C11_32 
REMARK   10  A    between atoms: C14_38  and  N14_39 
ROOT
HETATM    1  C4  UNL     1      -9.113  39.324  33.997  1.00  0.00     0.163 A 
HETATM    2  N2  UNL     1      -9.771  40.157  34.859  1.00  0.00    -0.169 N 
ATOM      3  H2  UNL     1      -9.408  40.259  35.807  1.00  0.00     0.186 HD
HETATM    4  C5  UNL     1     -10.872  40.847  34.518  1.00  0.00     0.737 A 
HETATM    5  N8  UNL     1     -11.353  40.714  33.268  1.00  0.00    -0.125 N 
ATOM      6  H8  UNL     1     -12.189  41.237  33.007  1.00  0.00     0.206 HD
HETATM    7  N9  UNL     1     -10.797  39.945  32.380  1.00  0.00    -0.264 N 
HETATM    8  C7  UNL     1     -11.276  39.774  31.016  1.00  0.00     0.180 C 
HETATM    9  C8  UNL     1      -9.650  39.217  32.717  1.00  0.00     0.167 A 
ENDROOT
BRANCH   9  10
HETATM   10  N10 UNL     1      -9.188  38.475  31.843  1.00  0.00    -0.350 N 
ATOM     11  H10 UNL     1      -8.652  38.999  31.151  1.00  0.00     0.166 HD
BRANCH  10  12
HETATM   12  C9  UNL     1      -9.205  37.123  31.552  1.00  0.00     0.082 C 
BRANCH  12  13
HETATM   13  C10 UNL     1      -9.142  36.795  30.065  1.00  0.00     0.165 C 
BRANCH  13  14
HETATM   14  N11 UNL     1      -8.076  35.867  29.829  1.00  0.00    -0.371 N 
ATOM     15  H11 UNL     1      -8.289  35.056  29.247  1.00  0.00     0.161 HD
BRANCH  14  16
HETATM   16  C11 UNL     1      -6.755  35.968  30.326  1.00  0.00     0.120 A 
HETATM   17  C12 UNL     1      -5.944  37.057  29.996  1.00  0.00     0.094 A 
HETATM   18  C13 UNL     1      -4.666  37.195  30.464  1.00  0.00     0.135 A 
HETATM   19  N12 UNL     1      -3.883  38.339  30.090  1.00  0.00    -0.082 NA
HETATM   20  N13 UNL     1      -4.178  36.246  31.272  1.00  0.00    -0.179 N 
HETATM   21  C14 UNL     1      -4.946  35.177  31.609  1.00  0.00     0.678 A 
ATOM     22  H13 UNL     1      -3.228  36.325  31.635  1.00  0.00     0.185 HD
HETATM   23  N15 UNL     1      -6.193  35.063  31.139  1.00  0.00    -0.177 N 
ATOM     24  H15 UNL     1      -6.743  34.248  31.412  1.00  0.00     0.185 HD
BRANCH  21  25
HETATM   25  N14 UNL     1      -4.412  34.314  32.382  1.00  0.00    -0.234 N 
ATOM     26 2H14 UNL     1      -4.056  34.542  33.311  1.00  0.00     0.174 HD
ATOM     27 1H14 UNL     1      -4.351  33.361  32.025  1.00  0.00     0.174 HD
ENDBRANCH  21  25
ENDBRANCH  14  16
ENDBRANCH  13  14
ENDBRANCH  12  13
ENDBRANCH  10  12
ENDBRANCH   9  10
BRANCH   1  28
HETATM   28  N1  UNL     1      -8.059  38.720  34.320  1.00  0.00    -0.369 N 
ATOM     29  H1  UNL     1      -7.212  39.225  34.060  1.00  0.00     0.161 HD
BRANCH  28  30
HETATM   30  C2  UNL     1      -7.798  37.506  34.959  1.00  0.00     0.075 C 
HETATM   31  C1  UNL     1      -7.453  37.527  36.413  1.00  0.00     0.031 C 
HETATM   32  C3  UNL     1      -6.611  36.765  34.283  1.00  0.00     0.031 C 
ENDBRANCH  28  30
ENDBRANCH   1  28
BRANCH   4  33
HETATM   33  N3  UNL     1     -11.507  41.714  35.453  1.00  0.00     0.011 N 
HETATM   34  N4  UNL     1     -11.017  42.053  36.629  1.00  0.00    -0.191 N 
HETATM   35  N5  UNL     1     -11.879  42.876  37.256  1.00  0.00    -0.115 N 
ATOM     36  H4  UNL     1     -10.123  41.739  37.007  1.00  0.00     0.211 HD
HETATM   37  C6  UNL     1     -12.921  43.045  36.445  1.00  0.00     0.708 A 
ATOM     38  H5  UNL     1     -11.757  43.291  38.180  1.00  0.00     0.207 HD
HETATM   39  N7  UNL     1     -12.674  42.325  35.344  1.00  0.00    -0.093 N 
ATOM     40  H7  UNL     1     -13.295  42.258  34.537  1.00  0.00     0.208 HD
BRANCH  37  41
HETATM   41  N6  UNL     1     -13.969  43.750  36.654  1.00  0.00    -0.232 N 
ATOM     42  H62 UNL     1     -14.520  43.752  37.511  1.00  0.00     0.174 HD
ATOM     43  H61 UNL     1     -14.412  44.411  36.017  1.00  0.00     0.174 HD
ENDBRANCH  37  41
ENDBRANCH   4  33
TORSDOF 10
ENDMDL
