MODEL 1
REMARK VINA RESULT: -7.314506812      0.000      0.000
REMARK  10 active torsions:
REMARK  status: ('A' for Active; 'I' for Inactive)
REMARK    1  A    between atoms: C2_2  and  N1_5 
REMARK    2  A    between atoms: C5_10  and  C6_11 
REMARK    3  A    between atoms: C6_11  and  O1_12 
REMARK    4  A    between atoms: C6_11  and  N4_14 
REMARK    5  A    between atoms: N4_14  and  N5_15 
REMARK       I    between atoms: N5_15  and  C7_17 
REMARK    6  A    between atoms: C7_17  and  C8_19 
REMARK    7  A    between atoms: C8_19  and  S1_20 
REMARK    8  A    between atoms: S1_20  and  C9_21 
REMARK    9  A    between atoms: C10_29  and  C11_30 
REMARK   10  A    between atoms: C12_33  and  N11_34 
ROOT
HETATM    1  N1  UNL     1      -7.709  38.131  33.582  1.00  0.00    -0.253 N 
HETATM    2  N2  UNL     1      -7.462  39.334  33.073  1.00  0.00    -0.238 N 
ATOM      3  H2  UNL     1      -6.514  39.560  32.772  1.00  0.00     0.208 HD
HETATM    4  N3  UNL     1      -8.397  40.233  32.947  1.00  0.00    -0.285 N 
ATOM      5  H3  UNL     1      -8.151  41.139  32.549  1.00  0.00     0.188 HD
HETATM    6  C5  UNL     1      -9.706  40.014  33.327  1.00  0.00     0.092 A 
HETATM    7  C10 UNL     1     -10.007  38.801  33.854  1.00  0.00     0.102 A 
HETATM    8  C12 UNL     1      -8.947  37.851  33.970  1.00  0.00     0.135 A 
ENDROOT
BRANCH   6   9
HETATM    9  C6  UNL     1     -10.678  41.075  33.096  1.00  0.00     0.284 C 
BRANCH   9  10
HETATM   10  O1  UNL     1     -10.123  42.006  32.142  1.00  0.00    -0.372 OA
ATOM     11  H1  UNL     1     -10.798  42.231  31.512  1.00  0.00     0.212 HD
ENDBRANCH   9  10
BRANCH   9  12
HETATM   12  N4  UNL     1     -10.762  41.873  34.323  1.00  0.00    -0.100 NA
BRANCH  12  13
HETATM   13  N5  UNL     1     -12.062  42.011  34.774  1.00  0.00    -0.271 N 
HETATM   14  C7  UNL     1     -12.301  42.147  36.163  1.00  0.00     0.242 C 
HETATM   15  O2  UNL     1     -11.359  42.141  36.965  1.00  0.00    -0.271 OA
ATOM     16  H5  UNL     1     -12.839  42.014  34.114  1.00  0.00     0.185 HD
BRANCH  14  17
HETATM   17  C8  UNL     1     -13.675  42.299  36.698  1.00  0.00     0.186 C 
BRANCH  17  18
HETATM   18  S1  UNL     1     -14.434  40.653  36.770  1.00  0.00    -0.082 SA
BRANCH  18  19
HETATM   19  C9  UNL     1     -13.699  39.632  38.015  1.00  0.00     0.173 A 
HETATM   20  N6  UNL     1     -14.266  38.515  38.514  1.00  0.00    -0.261 N 
HETATM   21  N7  UNL     1     -13.453  38.001  39.421  1.00  0.00    -0.005 NA
ATOM     22  H6  UNL     1     -15.170  38.131  38.238  1.00  0.00     0.186 HD
HETATM   23  N8  UNL     1     -12.393  38.784  39.489  1.00  0.00    -0.224 N 
HETATM   24  N9  UNL     1     -12.518  39.784  38.644  1.00  0.00    -0.266 N 
ATOM     25  H8  UNL     1     -11.594  38.635  40.105  1.00  0.00     0.205 HD
ATOM     26  H9  UNL     1     -11.845  40.536  38.492  1.00  0.00     0.190 HD
ENDBRANCH  18  19
ENDBRANCH  17  18
ENDBRANCH  14  17
ENDBRANCH  12  13
ENDBRANCH   9  12
ENDBRANCH   6   9
BRANCH   7  27
HETATM   27  C11 UNL     1     -11.302  38.444  34.348  1.00  0.00     0.270 C 
HETATM   28  N10 UNL     1     -12.366  37.790  33.740  1.00  0.00    -0.057 NA
HETATM   29  O3  UNL     1     -11.575  38.772  35.572  1.00  0.00    -0.271 OA
ENDBRANCH   7  27
BRANCH   8  30
HETATM   30  N11 UNL     1      -9.290  36.735  34.468  1.00  0.00    -0.383 N 
ATOM     31 2H11 UNL     1      -9.457  35.998  33.782  1.00  0.00     0.157 HD
ATOM     32 1H11 UNL     1      -9.395  36.574  35.469  1.00  0.00     0.157 HD
ENDBRANCH   8  30
BRANCH   1  33
HETATM   33  C2  UNL     1      -6.626  37.153  33.706  1.00  0.00     0.046 C 
HETATM   34  C1  UNL     1      -6.211  36.899  35.117  1.00  0.00     0.040 C 
HETATM   35  C3  UNL     1      -5.409  37.795  33.006  1.00  0.00     0.040 C 
HETATM   36  C4  UNL     1      -6.919  35.904  32.940  1.00  0.00     0.040 C 
ENDBRANCH   1  33
TORSDOF 10
ENDMDL
MODEL 2
REMARK VINA RESULT: -7.263199013      5.740      8.454
REMARK  10 active torsions:
REMARK  status: ('A' for Active; 'I' for Inactive)
REMARK    1  A    between atoms: C2_2  and  N1_5 
REMARK    2  A    between atoms: C5_10  and  C6_11 
REMARK    3  A    between atoms: C6_11  and  O1_12 
REMARK    4  A    between atoms: C6_11  and  N4_14 
REMARK    5  A    between atoms: N4_14  and  N5_15 
REMARK       I    between atoms: N5_15  and  C7_17 
REMARK    6  A    between atoms: C7_17  and  C8_19 
REMARK    7  A    between atoms: C8_19  and  S1_20 
REMARK    8  A    between atoms: S1_20  and  C9_21 
REMARK    9  A    between atoms: C10_29  and  C11_30 
REMARK   10  A    between atoms: C12_33  and  N11_34 
ROOT
HETATM    1  N1  UNL     1      -7.267  38.118  33.285  1.00  0.00    -0.253 N 
HETATM    2  N2  UNL     1      -6.563  39.232  33.110  1.00  0.00    -0.238 N 
ATOM      3  H2  UNL     1      -6.962  40.122  33.410  1.00  0.00     0.208 HD
HETATM    4  N3  UNL     1      -5.378  39.219  32.568  1.00  0.00    -0.285 N 
ATOM      5  H3  UNL     1      -4.883  40.104  32.460  1.00  0.00     0.188 HD
HETATM    6  C5  UNL     1      -4.763  38.062  32.135  1.00  0.00     0.092 A 
HETATM    7  C10 UNL     1      -5.443  36.899  32.290  1.00  0.00     0.102 A 
HETATM    8  C12 UNL     1      -6.736  36.967  32.890  1.00  0.00     0.135 A 
ENDROOT
BRANCH   6   9
HETATM    9  C6  UNL     1      -3.416  38.161  31.586  1.00  0.00     0.284 C 
BRANCH   9  10
HETATM   10  O1  UNL     1      -2.714  39.213  32.282  1.00  0.00    -0.372 OA
ATOM     11  H1  UNL     1      -2.180  39.686  31.655  1.00  0.00     0.212 HD
ENDBRANCH   9  10
BRANCH   9  12
HETATM   12  N4  UNL     1      -3.531  38.689  30.223  1.00  0.00    -0.100 NA
BRANCH  12  13
HETATM   13  N5  UNL     1      -3.894  37.716  29.310  1.00  0.00    -0.271 N 
HETATM   14  C7  UNL     1      -4.802  38.043  28.274  1.00  0.00     0.242 C 
HETATM   15  O2  UNL     1      -5.268  39.186  28.186  1.00  0.00    -0.271 OA
ATOM     16  H5  UNL     1      -3.511  36.773  29.383  1.00  0.00     0.185 HD
BRANCH  14  17
HETATM   17  C8  UNL     1      -5.220  37.037  27.269  1.00  0.00     0.186 C 
BRANCH  17  18
HETATM   18  S1  UNL     1      -7.029  36.911  27.323  1.00  0.00    -0.082 SA
BRANCH  18  19
HETATM   19  C9  UNL     1      -7.585  35.795  28.579  1.00  0.00     0.173 A 
HETATM   20  N6  UNL     1      -8.329  36.159  29.643  1.00  0.00    -0.261 N 
HETATM   21  N7  UNL     1      -8.565  35.085  30.377  1.00  0.00    -0.005 NA
ATOM     22  H6  UNL     1      -8.655  37.104  29.848  1.00  0.00     0.186 HD
HETATM   23  N8  UNL     1      -7.977  34.064  29.781  1.00  0.00    -0.224 N 
HETATM   24  N9  UNL     1      -7.374  34.470  28.685  1.00  0.00    -0.266 N 
ATOM     25  H8  UNL     1      -7.990  33.102  30.120  1.00  0.00     0.205 HD
ATOM     26  H9  UNL     1      -6.844  33.888  28.036  1.00  0.00     0.190 HD
ENDBRANCH  18  19
ENDBRANCH  17  18
ENDBRANCH  14  17
ENDBRANCH  12  13
ENDBRANCH   9  12
ENDBRANCH   6   9
BRANCH   7  27
HETATM   27  C11 UNL     1      -4.965  35.628  31.838  1.00  0.00     0.270 C 
HETATM   28  N10 UNL     1      -4.262  34.627  32.497  1.00  0.00    -0.057 NA
HETATM   29  O3  UNL     1      -5.204  35.315  30.603  1.00  0.00    -0.271 OA
ENDBRANCH   7  27
BRANCH   8  30
HETATM   30  N11 UNL     1      -7.322  35.847  33.011  1.00  0.00    -0.383 N 
ATOM     31 2H11 UNL     1      -8.339  35.904  33.068  1.00  0.00     0.157 HD
ATOM     32 1H11 UNL     1      -6.830  34.955  33.049  1.00  0.00     0.157 HD
ENDBRANCH   8  30
BRANCH   1  33
HETATM   33  C2  UNL     1      -8.596  38.181  33.898  1.00  0.00     0.046 C 
HETATM   34  C1  UNL     1      -9.692  37.730  32.991  1.00  0.00     0.040 C 
HETATM   35  C3  UNL     1      -8.851  39.678  34.176  1.00  0.00     0.040 C 
HETATM   36  C4  UNL     1      -8.620  37.514  35.235  1.00  0.00     0.040 C 
ENDBRANCH   1  33
TORSDOF 10
ENDMDL
MODEL 3
REMARK VINA RESULT: -7.252294760      3.728      8.432
REMARK  10 active torsions:
REMARK  status: ('A' for Active; 'I' for Inactive)
REMARK    1  A    between atoms: C2_2  and  N1_5 
REMARK    2  A    between atoms: C5_10  and  C6_11 
REMARK    3  A    between atoms: C6_11  and  O1_12 
REMARK    4  A    between atoms: C6_11  and  N4_14 
REMARK    5  A    between atoms: N4_14  and  N5_15 
REMARK       I    between atoms: N5_15  and  C7_17 
REMARK    6  A    between atoms: C7_17  and  C8_19 
REMARK    7  A    between atoms: C8_19  and  S1_20 
REMARK    8  A    between atoms: S1_20  and  C9_21 
REMARK    9  A    between atoms: C10_29  and  C11_30 
REMARK   10  A    between atoms: C12_33  and  N11_34 
ROOT
HETATM    1  N1  UNL     1     -11.712  40.798  35.650  1.00  0.00    -0.253 N 
HETATM    2  N2  UNL     1     -11.101  39.645  35.901  1.00  0.00    -0.238 N 
ATOM      3  H2  UNL     1     -11.197  39.224  36.825  1.00  0.00     0.208 HD
HETATM    4  N3  UNL     1     -10.382  39.036  35.001  1.00  0.00    -0.285 N 
ATOM      5  H3  UNL     1      -9.936  38.153  35.249  1.00  0.00     0.188 HD
HETATM    6  C5  UNL     1     -10.197  39.532  33.726  1.00  0.00     0.092 A 
HETATM    7  C10 UNL     1     -10.800  40.708  33.421  1.00  0.00     0.102 A 
HETATM    8  C12 UNL     1     -11.577  41.334  34.443  1.00  0.00     0.135 A 
ENDROOT
BRANCH   6   9
HETATM    9  C6  UNL     1      -9.411  38.742  32.786  1.00  0.00     0.284 C 
BRANCH   9  10
HETATM   10  O1  UNL     1      -9.542  37.348  33.136  1.00  0.00    -0.372 OA
ATOM     11  H1  UNL     1     -10.295  36.991  32.681  1.00  0.00     0.212 HD
ENDBRANCH   9  10
BRANCH   9  12
HETATM   12  N4  UNL     1      -7.996  39.017  33.053  1.00  0.00    -0.100 NA
BRANCH  12  13
HETATM   13  N5  UNL     1      -7.226  37.868  33.044  1.00  0.00    -0.271 N 
HETATM   14  C7  UNL     1      -5.862  37.952  32.669  1.00  0.00     0.242 C 
HETATM   15  O2  UNL     1      -5.365  39.039  32.351  1.00  0.00    -0.271 OA
ATOM     16  H5  UNL     1      -7.635  36.971  33.304  1.00  0.00     0.185 HD
BRANCH  14  17
HETATM   17  C8  UNL     1      -4.994  36.752  32.645  1.00  0.00     0.186 C 
BRANCH  17  18
HETATM   18  S1  UNL     1      -5.191  35.950  31.030  1.00  0.00    -0.082 SA
BRANCH  18  19
HETATM   19  C9  UNL     1      -4.620  36.972  29.702  1.00  0.00     0.173 A 
HETATM   20  N6  UNL     1      -3.589  37.836  29.798  1.00  0.00    -0.261 N 
HETATM   21  N7  UNL     1      -3.433  38.434  28.630  1.00  0.00    -0.005 NA
ATOM     22  H6  UNL     1      -3.025  38.001  30.632  1.00  0.00     0.186 HD
HETATM   23  N8  UNL     1      -4.352  37.951  27.814  1.00  0.00    -0.224 N 
HETATM   24  N9  UNL     1      -5.088  37.061  28.444  1.00  0.00    -0.266 N 
ATOM     25  H8  UNL     1      -4.474  38.228  26.840  1.00  0.00     0.205 HD
ATOM     26  H9  UNL     1      -5.868  36.534  28.050  1.00  0.00     0.190 HD
ENDBRANCH  18  19
ENDBRANCH  17  18
ENDBRANCH  14  17
ENDBRANCH  12  13
ENDBRANCH   9  12
ENDBRANCH   6   9
BRANCH   7  27
HETATM   27  C11 UNL     1     -10.655  41.378  32.165  1.00  0.00     0.270 C 
HETATM   28  N10 UNL     1     -11.443  41.360  31.021  1.00  0.00    -0.057 NA
HETATM   29  O3  UNL     1      -9.619  42.143  32.023  1.00  0.00    -0.271 OA
ENDBRANCH   7  27
BRANCH   8  30
HETATM   30  N11 UNL     1     -12.118  42.429  34.098  1.00  0.00    -0.383 N 
ATOM     31 2H11 UNL     1     -13.116  42.491  34.299  1.00  0.00     0.157 HD
ATOM     32 1H11 UNL     1     -11.609  43.194  33.656  1.00  0.00     0.157 HD
ENDBRANCH   8  30
BRANCH   1  33
HETATM   33  C2  UNL     1     -12.509  41.447  36.693  1.00  0.00     0.046 C 
HETATM   34  C1  UNL     1     -11.801  42.572  37.370  1.00  0.00     0.040 C 
HETATM   35  C3  UNL     1     -12.733  40.365  37.772  1.00  0.00     0.040 C 
HETATM   36  C4  UNL     1     -13.871  41.813  36.201  1.00  0.00     0.040 C 
ENDBRANCH   1  33
TORSDOF 10
ENDMDL
MODEL 4
REMARK VINA RESULT: -7.247972882      3.083      7.640
REMARK  10 active torsions:
REMARK  status: ('A' for Active; 'I' for Inactive)
REMARK    1  A    between atoms: C2_2  and  N1_5 
REMARK    2  A    between atoms: C5_10  and  C6_11 
REMARK    3  A    between atoms: C6_11  and  O1_12 
REMARK    4  A    between atoms: C6_11  and  N4_14 
REMARK    5  A    between atoms: N4_14  and  N5_15 
REMARK       I    between atoms: N5_15  and  C7_17 
REMARK    6  A    between atoms: C7_17  and  C8_19 
REMARK    7  A    between atoms: C8_19  and  S1_20 
REMARK    8  A    between atoms: S1_20  and  C9_21 
REMARK    9  A    between atoms: C10_29  and  C11_30 
REMARK   10  A    between atoms: C12_33  and  N11_34 
ROOT
HETATM    1  N1  UNL     1     -11.866  40.783  35.691  1.00  0.00    -0.253 N 
HETATM    2  N2  UNL     1     -11.379  39.565  35.907  1.00  0.00    -0.238 N 
ATOM      3  H2  UNL     1     -11.514  39.132  36.821  1.00  0.00     0.208 HD
HETATM    4  N3  UNL     1     -10.733  38.908  34.985  1.00  0.00    -0.285 N 
ATOM      5  H3  UNL     1     -10.382  37.977  35.207  1.00  0.00     0.188 HD
HETATM    6  C5  UNL     1     -10.504  39.416  33.722  1.00  0.00     0.092 A 
HETATM    7  C10 UNL     1     -10.981  40.657  33.453  1.00  0.00     0.102 A 
HETATM    8  C12 UNL     1     -11.682  41.333  34.497  1.00  0.00     0.135 A 
ENDROOT
BRANCH   6   9
HETATM    9  C6  UNL     1      -9.812  38.573  32.755  1.00  0.00     0.284 C 
BRANCH   9  10
HETATM   10  O1  UNL     1     -10.738  38.223  31.705  1.00  0.00    -0.372 OA
ATOM     11  H1  UNL     1     -10.382  38.522  30.877  1.00  0.00     0.212 HD
ENDBRANCH   9  10
BRANCH   9  12
HETATM   12  N4  UNL     1      -9.545  37.285  33.402  1.00  0.00    -0.100 NA
BRANCH  12  13
HETATM   13  N5  UNL     1      -8.195  36.991  33.455  1.00  0.00    -0.271 N 
HETATM   14  C7  UNL     1      -7.517  37.073  34.696  1.00  0.00     0.242 C 
HETATM   15  O2  UNL     1      -8.124  37.406  35.721  1.00  0.00    -0.271 OA
ATOM     16  H5  UNL     1      -7.694  36.718  32.610  1.00  0.00     0.185 HD
BRANCH  14  17
HETATM   17  C8  UNL     1      -6.072  36.767  34.806  1.00  0.00     0.186 C 
BRANCH  17  18
HETATM   18  S1  UNL     1      -5.516  36.104  33.211  1.00  0.00    -0.082 SA
BRANCH  18  19
HETATM   19  C9  UNL     1      -4.647  37.311  32.252  1.00  0.00     0.173 A 
HETATM   20  N6  UNL     1      -5.158  38.505  31.889  1.00  0.00    -0.261 N 
HETATM   21  N7  UNL     1      -4.248  39.154  31.183  1.00  0.00    -0.005 NA
ATOM     22  H6  UNL     1      -6.091  38.849  32.120  1.00  0.00     0.186 HD
HETATM   23  N8  UNL     1      -3.183  38.378  31.105  1.00  0.00    -0.224 N 
HETATM   24  N9  UNL     1      -3.401  37.251  31.747  1.00  0.00    -0.266 N 
ATOM     25  H8  UNL     1      -2.319  38.618  30.620  1.00  0.00     0.205 HD
ATOM     26  H9  UNL     1      -2.746  36.475  31.845  1.00  0.00     0.190 HD
ENDBRANCH  18  19
ENDBRANCH  17  18
ENDBRANCH  14  17
ENDBRANCH  12  13
ENDBRANCH   9  12
ENDBRANCH   6   9
BRANCH   7  27
HETATM   27  C11 UNL     1     -10.774  41.341  32.214  1.00  0.00     0.270 C 
HETATM   28  N10 UNL     1     -11.492  41.320  31.025  1.00  0.00    -0.057 NA
HETATM   29  O3  UNL     1      -9.745  42.126  32.141  1.00  0.00    -0.271 OA
ENDBRANCH   7  27
BRANCH   8  30
HETATM   30  N11 UNL     1     -12.106  42.489  34.186  1.00  0.00    -0.383 N 
ATOM     31 2H11 UNL     1     -11.583  43.259  34.602  1.00  0.00     0.157 HD
ATOM     32 1H11 UNL     1     -12.904  42.649  33.571  1.00  0.00     0.157 HD
ENDBRANCH   8  30
BRANCH   1  33
HETATM   33  C2  UNL     1     -12.584  41.484  36.758  1.00  0.00     0.046 C 
HETATM   34  C1  UNL     1     -11.803  42.600  37.367  1.00  0.00     0.040 C 
HETATM   35  C3  UNL     1     -12.787  40.437  37.874  1.00  0.00     0.040 C 
HETATM   36  C4  UNL     1     -13.958  41.886  36.328  1.00  0.00     0.040 C 
ENDBRANCH   1  33
TORSDOF 10
ENDMDL
MODEL 5
REMARK VINA RESULT: -7.173579730      3.579      8.430
REMARK  10 active torsions:
REMARK  status: ('A' for Active; 'I' for Inactive)
REMARK    1  A    between atoms: C2_2  and  N1_5 
REMARK    2  A    between atoms: C5_10  and  C6_11 
REMARK    3  A    between atoms: C6_11  and  O1_12 
REMARK    4  A    between atoms: C6_11  and  N4_14 
REMARK    5  A    between atoms: N4_14  and  N5_15 
REMARK       I    between atoms: N5_15  and  C7_17 
REMARK    6  A    between atoms: C7_17  and  C8_19 
REMARK    7  A    between atoms: C8_19  and  S1_20 
REMARK    8  A    between atoms: S1_20  and  C9_21 
REMARK    9  A    between atoms: C10_29  and  C11_30 
REMARK   10  A    between atoms: C12_33  and  N11_34 
ROOT
HETATM    1  N1  UNL     1     -12.183  41.034  35.591  1.00  0.00    -0.253 N 
HETATM    2  N2  UNL     1     -11.664  39.891  36.028  1.00  0.00    -0.238 N 
ATOM      3  H2  UNL     1     -11.930  39.547  36.950  1.00  0.00     0.208 HD
HETATM    4  N3  UNL     1     -10.826  39.197  35.310  1.00  0.00    -0.285 N 
ATOM      5  H3  UNL     1     -10.460  38.327  35.696  1.00  0.00     0.188 HD
HETATM    6  C5  UNL     1     -10.413  39.586  34.052  1.00  0.00     0.092 A 
HETATM    7  C10 UNL     1     -10.914  40.748  33.563  1.00  0.00     0.102 A 
HETATM    8  C12 UNL     1     -11.829  41.469  34.388  1.00  0.00     0.135 A 
ENDROOT
BRANCH   6   9
HETATM    9  C6  UNL     1      -9.509  38.708  33.321  1.00  0.00     0.284 C 
BRANCH   9  10
HETATM   10  O1  UNL     1      -9.748  37.348  33.744  1.00  0.00    -0.372 OA
ATOM     11  H1  UNL     1      -9.875  36.809  32.972  1.00  0.00     0.212 HD
ENDBRANCH   9  10
BRANCH   9  12
HETATM   12  N4  UNL     1      -8.150  38.968  33.806  1.00  0.00    -0.100 NA
BRANCH  12  13
HETATM   13  N5  UNL     1      -7.184  38.395  33.000  1.00  0.00    -0.271 N 
HETATM   14  C7  UNL     1      -6.524  37.221  33.438  1.00  0.00     0.242 C 
HETATM   15  O2  UNL     1      -6.807  36.714  34.531  1.00  0.00    -0.271 OA
ATOM     16  H5  UNL     1      -6.948  38.814  32.100  1.00  0.00     0.185 HD
BRANCH  14  17
HETATM   17  C8  UNL     1      -5.483  36.567  32.611  1.00  0.00     0.186 C 
BRANCH  17  18
HETATM   18  S1  UNL     1      -5.846  36.922  30.870  1.00  0.00    -0.082 SA
BRANCH  18  19
HETATM   19  C9  UNL     1      -4.463  37.639  30.031  1.00  0.00     0.173 A 
HETATM   20  N6  UNL     1      -4.427  37.896  28.707  1.00  0.00    -0.261 N 
HETATM   21  N7  UNL     1      -3.252  38.427  28.415  1.00  0.00    -0.005 NA
ATOM     22  H6  UNL     1      -5.180  37.712  28.043  1.00  0.00     0.186 HD
HETATM   23  N8  UNL     1      -2.563  38.502  29.538  1.00  0.00    -0.224 N 
HETATM   24  N9  UNL     1      -3.278  38.027  30.535  1.00  0.00    -0.266 N 
ATOM     25  H8  UNL     1      -1.616  38.872  29.621  1.00  0.00     0.205 HD
ATOM     26  H9  UNL     1      -2.987  37.966  31.512  1.00  0.00     0.190 HD
ENDBRANCH  18  19
ENDBRANCH  17  18
ENDBRANCH  14  17
ENDBRANCH  12  13
ENDBRANCH   9  12
ENDBRANCH   6   9
BRANCH   7  27
HETATM   27  C11 UNL     1     -10.537  41.313  32.304  1.00  0.00     0.270 C 
HETATM   28  N10 UNL     1     -11.223  41.404  31.099  1.00  0.00    -0.057 NA
HETATM   29  O3  UNL     1      -9.355  41.839  32.226  1.00  0.00    -0.271 OA
ENDBRANCH   7  27
BRANCH   8  30
HETATM   30  N11 UNL     1     -12.266  42.546  33.876  1.00  0.00    -0.383 N 
ATOM     31 2H11 UNL     1     -13.281  42.645  33.897  1.00  0.00     0.157 HD
ATOM     32 1H11 UNL     1     -11.662  43.263  33.473  1.00  0.00     0.157 HD
ENDBRANCH   8  30
BRANCH   1  33
HETATM   33  C2  UNL     1     -13.121  41.781  36.433  1.00  0.00     0.046 C 
HETATM   34  C1  UNL     1     -12.881  43.254  36.429  1.00  0.00     0.040 C 
HETATM   35  C3  UNL     1     -12.850  41.302  37.875  1.00  0.00     0.040 C 
HETATM   36  C4  UNL     1     -14.540  41.409  36.145  1.00  0.00     0.040 C 
ENDBRANCH   1  33
TORSDOF 10
ENDMDL
