MODEL 1
REMARK VINA RESULT: -7.931411758      0.000      0.000
REMARK  10 active torsions:
REMARK  status: ('A' for Active; 'I' for Inactive)
REMARK    1  A    between atoms: N1_1  and  C1_4 
REMARK    2  A    between atoms: C3_10  and  C4_11 
REMARK    3  A    between atoms: N5_14  and  C5_15 
REMARK    4  A    between atoms: C5_15  and  C6_16 
REMARK    5  A    between atoms: C6_16  and  N6_17 
REMARK    6  A    between atoms: C6_16  and  C7_21 
REMARK    7  A    between atoms: C7_21  and  C8_22 
REMARK    8  A    between atoms: C10_26  and  C11_27 
REMARK    9  A    between atoms: N10_33  and  N11_34 
REMARK   10  A    between atoms: N12_37  and  N13_38 
ROOT
HETATM    1  C6  UNL     1      -9.140  37.600  34.616  1.00  0.00     0.207 C 
ENDROOT
BRANCH   1   2
HETATM    2  C5  UNL     1      -9.453  38.638  33.535  1.00  0.00     0.162 C 
BRANCH   2   3
HETATM    3  N5  UNL     1     -10.313  39.670  34.017  1.00  0.00    -0.348 N 
HETATM    4  C3  UNL     1     -10.631  40.830  33.444  1.00  0.00     0.129 A 
HETATM    5  C2  UNL     1     -11.501  41.491  34.286  1.00  0.00     0.095 A 
HETATM    6  N3  UNL     1     -12.230  42.608  34.452  1.00  0.00    -0.296 N 
HETATM    7  C14 UNL     1     -11.714  40.717  35.392  1.00  0.00     0.055 A 
HETATM    8  N2  UNL     1     -12.880  42.547  35.614  1.00  0.00    -0.285 N 
ATOM      9  H3  UNL     1     -12.279  43.384  33.791  1.00  0.00     0.187 HD
HETATM   10  C1  UNL     1     -12.593  41.404  36.225  1.00  0.00     0.127 A 
ATOM     11  H2  UNL     1     -13.503  43.267  35.979  1.00  0.00     0.188 HD
HETATM   12  C13 UNL     1     -10.960  39.592  35.191  1.00  0.00     0.109 A 
BRANCH   4  13
HETATM   13  C4  UNL     1     -10.155  41.352  32.142  1.00  0.00     0.283 C 
HETATM   14  N4  UNL     1     -10.956  41.186  30.996  1.00  0.00    -0.056 NA
HETATM   15  O1  UNL     1      -9.059  41.941  32.002  1.00  0.00    -0.269 OA
ENDBRANCH   4  13
BRANCH  10  16
HETATM   16  N1  UNL     1     -13.027  40.992  37.358  1.00  0.00    -0.384 N 
ATOM     17  H12 UNL     1     -12.792  41.391  38.267  1.00  0.00     0.157 HD
ATOM     18  H11 UNL     1     -13.664  40.215  37.536  1.00  0.00     0.157 HD
ENDBRANCH  10  16
ENDBRANCH   2   3
ENDBRANCH   1   2
BRANCH   1  19
HETATM   19  N6  UNL     1      -9.791  36.348  34.328  1.00  0.00    -0.073 N 
ATOM     20  H63 UNL     1     -10.364  36.031  35.111  1.00  0.00     0.274 HD
ATOM     21  H62 UNL     1     -10.529  36.457  33.633  1.00  0.00     0.274 HD
ATOM     22  H61 UNL     1      -9.111  35.642  34.048  1.00  0.00     0.274 HD
ENDBRANCH   1  19
BRANCH   1  23
HETATM   23  C7  UNL     1      -7.655  37.517  34.692  1.00  0.00     0.095 C 
BRANCH  23  24
HETATM   24  C8  UNL     1      -7.013  37.049  33.467  1.00  0.00     0.053 A 
HETATM   25  C9  UNL     1      -7.046  35.831  32.862  1.00  0.00     0.117 A 
HETATM   26  N7  UNL     1      -6.296  35.924  31.772  1.00  0.00    -0.346 N 
HETATM   27  C10 UNL     1      -5.762  37.197  31.644  1.00  0.00     0.174 A 
ATOM     28  H7  UNL     1      -6.133  35.161  31.115  1.00  0.00     0.167 HD
HETATM   29  N12 UNL     1      -6.218  37.850  32.689  1.00  0.00    -0.246 N 
BRANCH  27  30
HETATM   30  C11 UNL     1      -4.898  37.536  30.515  1.00  0.00     0.189 A 
HETATM   31  N8  UNL     1      -3.605  37.983  30.698  1.00  0.00    -0.280 N 
HETATM   32  N9  UNL     1      -3.064  38.210  29.529  1.00  0.00    -0.293 N 
ATOM     33  H8  UNL     1      -3.146  38.116  31.598  1.00  0.00     0.188 HD
HETATM   34  C12 UNL     1      -3.928  37.937  28.551  1.00  0.00     0.224 A 
ATOM     35  H9  UNL     1      -2.112  38.548  29.385  1.00  0.00     0.187 HD
HETATM   36  N10 UNL     1      -5.075  37.514  29.212  1.00  0.00    -0.236 N 
BRANCH  36  37
HETATM   37  N11 UNL     1      -6.203  37.140  28.490  1.00  0.00    -0.336 N 
ATOM     38 2H11 UNL     1      -6.529  36.174  28.510  1.00  0.00     0.177 HD
ATOM     39 1H11 UNL     1      -6.805  37.714  27.899  1.00  0.00     0.177 HD
ENDBRANCH  36  37
ENDBRANCH  27  30
BRANCH  29  40
HETATM   40  N13 UNL     1      -5.965  39.198  33.032  1.00  0.00    -0.337 N 
ATOM     41 2H13 UNL     1      -5.401  39.542  33.809  1.00  0.00     0.177 HD
ATOM     42 1H13 UNL     1      -6.358  39.968  32.490  1.00  0.00     0.177 HD
ENDBRANCH  29  40
ENDBRANCH  23  24
ENDBRANCH   1  23
TORSDOF 10
ENDMDL
MODEL 2
REMARK VINA RESULT: -7.893272804      1.825      8.338
REMARK  10 active torsions:
REMARK  status: ('A' for Active; 'I' for Inactive)
REMARK    1  A    between atoms: N1_1  and  C1_4 
REMARK    2  A    between atoms: C3_10  and  C4_11 
REMARK    3  A    between atoms: N5_14  and  C5_15 
REMARK    4  A    between atoms: C5_15  and  C6_16 
REMARK    5  A    between atoms: C6_16  and  N6_17 
REMARK    6  A    between atoms: C6_16  and  C7_21 
REMARK    7  A    between atoms: C7_21  and  C8_22 
REMARK    8  A    between atoms: C10_26  and  C11_27 
REMARK    9  A    between atoms: N10_33  and  N11_34 
REMARK   10  A    between atoms: N12_37  and  N13_38 
ROOT
HETATM    1  C6  UNL     1      -7.803  37.475  34.435  1.00  0.00     0.207 C 
ENDROOT
BRANCH   1   2
HETATM    2  C5  UNL     1      -6.310  37.208  34.225  1.00  0.00     0.162 C 
BRANCH   2   3
HETATM    3  N5  UNL     1      -6.020  36.813  32.885  1.00  0.00    -0.348 N 
HETATM    4  C3  UNL     1      -5.228  37.404  31.991  1.00  0.00     0.129 A 
HETATM    5  C2  UNL     1      -5.260  36.649  30.836  1.00  0.00     0.095 A 
HETATM    6  N3  UNL     1      -4.794  36.547  29.580  1.00  0.00    -0.296 N 
HETATM    7  C14 UNL     1      -6.087  35.580  31.034  1.00  0.00     0.055 A 
HETATM    8  N2  UNL     1      -5.304  35.459  29.003  1.00  0.00    -0.285 N 
ATOM      9  H3  UNL     1      -4.150  37.202  29.135  1.00  0.00     0.187 HD
HETATM   10  C1  UNL     1      -6.104  34.835  29.858  1.00  0.00     0.127 A 
ATOM     11  H2  UNL     1      -5.109  35.153  28.050  1.00  0.00     0.188 HD
HETATM   12  C13 UNL     1      -6.543  35.714  32.318  1.00  0.00     0.109 A 
BRANCH   4  13
HETATM   13  C4  UNL     1      -4.442  38.647  32.166  1.00  0.00     0.283 C 
HETATM   14  N4  UNL     1      -3.074  38.653  31.836  1.00  0.00    -0.056 NA
HETATM   15  O1  UNL     1      -4.937  39.712  32.601  1.00  0.00    -0.269 OA
ENDBRANCH   4  13
BRANCH  10  16
HETATM   16  N1  UNL     1      -6.770  33.758  29.663  1.00  0.00    -0.384 N 
ATOM     17  H12 UNL     1      -7.144  33.442  28.768  1.00  0.00     0.157 HD
ATOM     18  H11 UNL     1      -7.031  33.054  30.353  1.00  0.00     0.157 HD
ENDBRANCH  10  16
ENDBRANCH   2   3
ENDBRANCH   1   2
BRANCH   1  19
HETATM   19  N6  UNL     1      -8.139  37.431  35.835  1.00  0.00    -0.073 N 
ATOM     20  H63 UNL     1      -8.538  36.530  36.099  1.00  0.00     0.274 HD
ATOM     21  H62 UNL     1      -7.306  37.408  36.423  1.00  0.00     0.274 HD
ATOM     22  H61 UNL     1      -8.755  38.205  36.084  1.00  0.00     0.274 HD
ENDBRANCH   1  19
BRANCH   1  23
HETATM   23  C7  UNL     1      -8.087  38.779  33.776  1.00  0.00     0.095 C 
BRANCH  23  24
HETATM   24  C8  UNL     1      -9.442  39.281  33.988  1.00  0.00     0.053 A 
HETATM   25  C9  UNL     1     -10.622  38.897  33.431  1.00  0.00     0.117 A 
HETATM   26  N7  UNL     1     -11.564  39.666  33.962  1.00  0.00    -0.346 N 
HETATM   27  C10 UNL     1     -11.020  40.562  34.870  1.00  0.00     0.174 A 
ATOM     28  H7  UNL     1     -12.557  39.607  33.732  1.00  0.00     0.167 HD
HETATM   29  N12 UNL     1      -9.734  40.298  34.859  1.00  0.00    -0.246 N 
BRANCH  27  30
HETATM   30  C11 UNL     1     -11.871  41.514  35.581  1.00  0.00     0.189 A 
HETATM   31  N8  UNL     1     -12.326  42.671  34.981  1.00  0.00    -0.280 N 
HETATM   32  N9  UNL     1     -13.060  43.334  35.837  1.00  0.00    -0.293 N 
ATOM     33  H8  UNL     1     -12.122  42.962  34.025  1.00  0.00     0.188 HD
HETATM   34  C12 UNL     1     -13.131  42.683  36.997  1.00  0.00     0.224 A 
ATOM     35  H9  UNL     1     -13.516  44.225  35.642  1.00  0.00     0.187 HD
HETATM   36  N10 UNL     1     -12.367  41.538  36.798  1.00  0.00    -0.236 N 
BRANCH  36  37
HETATM   37  N11 UNL     1     -12.217  40.609  37.822  1.00  0.00    -0.336 N 
ATOM     38 2H11 UNL     1     -11.730  40.863  38.680  1.00  0.00     0.177 HD
ATOM     39 1H11 UNL     1     -12.538  39.641  37.860  1.00  0.00     0.177 HD
ENDBRANCH  36  37
ENDBRANCH  27  30
BRANCH  29  40
HETATM   40  N13 UNL     1      -8.724  40.936  35.614  1.00  0.00    -0.337 N 
ATOM     41 2H13 UNL     1      -7.942  40.494  36.098  1.00  0.00     0.177 HD
ATOM     42 1H13 UNL     1      -8.709  41.950  35.736  1.00  0.00     0.177 HD
ENDBRANCH  29  40
ENDBRANCH  23  24
ENDBRANCH   1  23
TORSDOF 10
ENDMDL
MODEL 3
REMARK VINA RESULT: -7.844465938      3.643      7.888
REMARK  10 active torsions:
REMARK  status: ('A' for Active; 'I' for Inactive)
REMARK    1  A    between atoms: N1_1  and  C1_4 
REMARK    2  A    between atoms: C3_10  and  C4_11 
REMARK    3  A    between atoms: N5_14  and  C5_15 
REMARK    4  A    between atoms: C5_15  and  C6_16 
REMARK    5  A    between atoms: C6_16  and  N6_17 
REMARK    6  A    between atoms: C6_16  and  C7_21 
REMARK    7  A    between atoms: C7_21  and  C8_22 
REMARK    8  A    between atoms: C10_26  and  C11_27 
REMARK    9  A    between atoms: N10_33  and  N11_34 
REMARK   10  A    between atoms: N12_37  and  N13_38 
ROOT
HETATM    1  C6  UNL     1     -13.043  42.303  36.239  1.00  0.00     0.207 C 
ENDROOT
BRANCH   1   2
HETATM    2  C5  UNL     1     -13.201  41.815  34.797  1.00  0.00     0.162 C 
BRANCH   2   3
HETATM    3  N5  UNL     1     -12.026  41.160  34.321  1.00  0.00    -0.348 N 
HETATM    4  C3  UNL     1     -11.638  40.946  33.064  1.00  0.00     0.129 A 
HETATM    5  C2  UNL     1     -10.431  40.279  33.104  1.00  0.00     0.095 A 
HETATM    6  N3  UNL     1      -9.452  39.739  32.359  1.00  0.00    -0.296 N 
HETATM    7  C14 UNL     1     -10.080  40.086  34.410  1.00  0.00     0.055 A 
HETATM    8  N2  UNL     1      -8.518  39.224  33.157  1.00  0.00    -0.285 N 
ATOM      9  H3  UNL     1      -9.427  39.725  31.339  1.00  0.00     0.187 HD
HETATM   10  C1  UNL     1      -8.861  39.413  34.425  1.00  0.00     0.127 A 
ATOM     11  H2  UNL     1      -7.668  38.756  32.842  1.00  0.00     0.188 HD
HETATM   12  C13 UNL     1     -11.094  40.646  35.139  1.00  0.00     0.109 A 
BRANCH   4  13
HETATM   13  C4  UNL     1     -12.349  41.334  31.823  1.00  0.00     0.283 C 
HETATM   14  N4  UNL     1     -11.671  41.275  30.591  1.00  0.00    -0.056 NA
HETATM   15  O1  UNL     1     -13.541  41.719  31.811  1.00  0.00    -0.269 OA
ENDBRANCH   4  13
BRANCH  10  16
HETATM   16  N1  UNL     1      -8.215  39.057  35.472  1.00  0.00    -0.384 N 
ATOM     17  H12 UNL     1      -7.647  38.215  35.564  1.00  0.00     0.157 HD
ATOM     18  H11 UNL     1      -8.163  39.543  36.367  1.00  0.00     0.157 HD
ENDBRANCH  10  16
ENDBRANCH   2   3
ENDBRANCH   1   2
BRANCH   1  19
HETATM   19  N6  UNL     1     -12.990  43.742  36.291  1.00  0.00    -0.073 N 
ATOM     20  H63 UNL     1     -13.361  44.164  35.439  1.00  0.00     0.274 HD
ATOM     21  H62 UNL     1     -13.663  44.121  36.956  1.00  0.00     0.274 HD
ATOM     22  H61 UNL     1     -12.042  44.062  36.489  1.00  0.00     0.274 HD
ENDBRANCH   1  19
BRANCH   1  23
HETATM   23  C7  UNL     1     -14.169  41.702  37.006  1.00  0.00     0.095 C 
BRANCH  23  24
HETATM   24  C8  UNL     1     -14.150  40.243  37.064  1.00  0.00     0.053 A 
HETATM   25  C9  UNL     1     -14.927  39.325  36.428  1.00  0.00     0.117 A 
HETATM   26  N7  UNL     1     -14.504  38.130  36.820  1.00  0.00    -0.346 N 
HETATM   27  C10 UNL     1     -13.450  38.244  37.713  1.00  0.00     0.174 A 
ATOM     28  H7  UNL     1     -14.903  37.244  36.506  1.00  0.00     0.167 HD
HETATM   29  N12 UNL     1     -13.264  39.538  37.836  1.00  0.00    -0.246 N 
BRANCH  27  30
HETATM   30  C11 UNL     1     -12.820  37.054  38.281  1.00  0.00     0.189 A 
HETATM   31  N8  UNL     1     -13.394  36.357  39.327  1.00  0.00    -0.280 N 
HETATM   32  N9  UNL     1     -12.626  35.345  39.635  1.00  0.00    -0.293 N 
ATOM     33  H8  UNL     1     -14.274  36.594  39.784  1.00  0.00     0.188 HD
HETATM   34  C12 UNL     1     -11.551  35.314  38.848  1.00  0.00     0.224 A 
ATOM     35  H9  UNL     1     -12.823  34.672  40.376  1.00  0.00     0.187 HD
HETATM   36  N10 UNL     1     -11.708  36.409  38.006  1.00  0.00    -0.236 N 
BRANCH  36  37
HETATM   37  N11 UNL     1     -10.753  36.690  37.035  1.00  0.00    -0.336 N 
ATOM     38 2H11 UNL     1     -10.707  36.132  36.183  1.00  0.00     0.177 HD
ATOM     39 1H11 UNL     1     -10.037  37.417  37.032  1.00  0.00     0.177 HD
ENDBRANCH  36  37
ENDBRANCH  27  30
BRANCH  29  40
HETATM   40  N13 UNL     1     -12.300  40.191  38.638  1.00  0.00    -0.337 N 
ATOM     41 2H13 UNL     1     -12.457  40.665  39.528  1.00  0.00     0.177 HD
ATOM     42 1H13 UNL     1     -11.319  40.235  38.363  1.00  0.00     0.177 HD
ENDBRANCH  29  40
ENDBRANCH  23  24
ENDBRANCH   1  23
TORSDOF 10
ENDMDL
MODEL 4
REMARK VINA RESULT: -7.783149975      1.984      8.164
REMARK  10 active torsions:
REMARK  status: ('A' for Active; 'I' for Inactive)
REMARK    1  A    between atoms: N1_1  and  C1_4 
REMARK    2  A    between atoms: C3_10  and  C4_11 
REMARK    3  A    between atoms: N5_14  and  C5_15 
REMARK    4  A    between atoms: C5_15  and  C6_16 
REMARK    5  A    between atoms: C6_16  and  N6_17 
REMARK    6  A    between atoms: C6_16  and  C7_21 
REMARK    7  A    between atoms: C7_21  and  C8_22 
REMARK    8  A    between atoms: C10_26  and  C11_27 
REMARK    9  A    between atoms: N10_33  and  N11_34 
REMARK   10  A    between atoms: N12_37  and  N13_38 
ROOT
HETATM    1  C6  UNL     1      -7.423  37.386  34.708  1.00  0.00     0.207 C 
ENDROOT
BRANCH   1   2
HETATM    2  C5  UNL     1      -5.967  37.278  34.249  1.00  0.00     0.162 C 
BRANCH   2   3
HETATM    3  N5  UNL     1      -5.864  36.820  32.901  1.00  0.00    -0.348 N 
HETATM    4  C3  UNL     1      -5.261  37.399  31.864  1.00  0.00     0.129 A 
HETATM    5  C2  UNL     1      -5.422  36.576  30.769  1.00  0.00     0.095 A 
HETATM    6  N3  UNL     1      -5.151  36.425  29.461  1.00  0.00    -0.296 N 
HETATM    7  C14 UNL     1      -6.136  35.475  31.150  1.00  0.00     0.055 A 
HETATM    8  N2  UNL     1      -5.671  35.276  29.029  1.00  0.00    -0.285 N 
ATOM      9  H3  UNL     1      -4.628  37.087  28.887  1.00  0.00     0.187 HD
HETATM   10  C1  UNL     1      -6.285  34.660  30.031  1.00  0.00     0.127 A 
ATOM     11  H2  UNL     1      -5.607  34.924  28.074  1.00  0.00     0.188 HD
HETATM   12  C13 UNL     1      -6.394  35.660  32.482  1.00  0.00     0.109 A 
BRANCH   4  13
HETATM   13  C4  UNL     1      -4.542  38.695  31.849  1.00  0.00     0.283 C 
HETATM   14  N4  UNL     1      -3.414  38.849  31.021  1.00  0.00    -0.056 NA
HETATM   15  O1  UNL     1      -4.888  39.676  32.545  1.00  0.00    -0.269 OA
ENDBRANCH   4  13
BRANCH  10  16
HETATM   16  N1  UNL     1      -6.900  33.537  29.999  1.00  0.00    -0.384 N 
ATOM     17  H12 UNL     1      -6.609  32.684  30.478  1.00  0.00     0.157 HD
ATOM     18  H11 UNL     1      -7.762  33.312  29.502  1.00  0.00     0.157 HD
ENDBRANCH  10  16
ENDBRANCH   2   3
ENDBRANCH   1   2
BRANCH   1  19
HETATM   19  N6  UNL     1      -7.496  37.656  36.122  1.00  0.00    -0.073 N 
ATOM     20  H63 UNL     1      -6.856  38.401  36.397  1.00  0.00     0.274 HD
ATOM     21  H62 UNL     1      -8.375  38.107  36.375  1.00  0.00     0.274 HD
ATOM     22  H61 UNL     1      -7.340  36.805  36.661  1.00  0.00     0.274 HD
ENDBRANCH   1  19
BRANCH   1  23
HETATM   23  C7  UNL     1      -8.052  38.428  33.851  1.00  0.00     0.095 C 
BRANCH  23  24
HETATM   24  C8  UNL     1      -9.347  38.904  34.330  1.00  0.00     0.053 A 
HETATM   25  C9  UNL     1     -10.552  38.276  34.386  1.00  0.00     0.117 A 
HETATM   26  N7  UNL     1     -11.412  39.143  34.907  1.00  0.00    -0.346 N 
HETATM   27  C10 UNL     1     -10.788  40.346  35.199  1.00  0.00     0.174 A 
ATOM     28  H7  UNL     1     -12.400  38.950  35.070  1.00  0.00     0.167 HD
HETATM   29  N12 UNL     1      -9.539  40.164  34.836  1.00  0.00    -0.246 N 
BRANCH  27  30
HETATM   30  C11 UNL     1     -11.539  41.455  35.782  1.00  0.00     0.189 A 
HETATM   31  N8  UNL     1     -11.119  42.092  36.933  1.00  0.00    -0.280 N 
HETATM   32  N9  UNL     1     -11.970  43.039  37.230  1.00  0.00    -0.293 N 
ATOM     33  H8  UNL     1     -10.280  41.861  37.465  1.00  0.00     0.188 HD
HETATM   34  C12 UNL     1     -12.956  43.082  36.334  1.00  0.00     0.224 A 
ATOM     35  H9  UNL     1     -11.890  43.660  38.036  1.00  0.00     0.187 HD
HETATM   36  N10 UNL     1     -12.650  42.067  35.435  1.00  0.00    -0.236 N 
BRANCH  36  37
HETATM   37  N11 UNL     1     -13.480  41.820  34.347  1.00  0.00    -0.336 N 
ATOM     38 2H11 UNL     1     -13.972  40.930  34.268  1.00  0.00     0.177 HD
ATOM     39 1H11 UNL     1     -13.696  42.426  33.555  1.00  0.00     0.177 HD
ENDBRANCH  36  37
ENDBRANCH  27  30
BRANCH  29  40
HETATM   40  N13 UNL     1      -8.478  41.094  34.924  1.00  0.00    -0.337 N 
ATOM     41 2H13 UNL     1      -7.625  41.112  34.364  1.00  0.00     0.177 HD
ATOM     42 1H13 UNL     1      -8.495  41.859  35.598  1.00  0.00     0.177 HD
ENDBRANCH  29  40
ENDBRANCH  23  24
ENDBRANCH   1  23
TORSDOF 10
ENDMDL
MODEL 5
REMARK VINA RESULT: -7.764137005      1.225      1.327
REMARK  10 active torsions:
REMARK  status: ('A' for Active; 'I' for Inactive)
REMARK    1  A    between atoms: N1_1  and  C1_4 
REMARK    2  A    between atoms: C3_10  and  C4_11 
REMARK    3  A    between atoms: N5_14  and  C5_15 
REMARK    4  A    between atoms: C5_15  and  C6_16 
REMARK    5  A    between atoms: C6_16  and  N6_17 
REMARK    6  A    between atoms: C6_16  and  C7_21 
REMARK    7  A    between atoms: C7_21  and  C8_22 
REMARK    8  A    between atoms: C10_26  and  C11_27 
REMARK    9  A    between atoms: N10_33  and  N11_34 
REMARK   10  A    between atoms: N12_37  and  N13_38 
ROOT
HETATM    1  C6  UNL     1      -8.798  38.164  34.460  1.00  0.00     0.207 C 
ENDROOT
BRANCH   1   2
HETATM    2  C5  UNL     1     -10.324  38.060  34.525  1.00  0.00     0.162 C 
BRANCH   2   3
HETATM    3  N5  UNL     1     -10.943  39.341  34.649  1.00  0.00    -0.348 N 
HETATM    4  C3  UNL     1     -10.910  40.372  33.806  1.00  0.00     0.129 A 
HETATM    5  C2  UNL     1     -11.662  41.389  34.355  1.00  0.00     0.095 A 
HETATM    6  N3  UNL     1     -12.105  42.645  34.175  1.00  0.00    -0.296 N 
HETATM    7  C14 UNL     1     -12.162  40.966  35.554  1.00  0.00     0.055 A 
HETATM    8  N2  UNL     1     -12.854  43.006  35.217  1.00  0.00    -0.285 N 
ATOM      9  H3  UNL     1     -11.899  43.233  33.367  1.00  0.00     0.187 HD
HETATM   10  C1  UNL     1     -12.916  42.008  36.088  1.00  0.00     0.127 A 
ATOM     11  H2  UNL     1     -13.310  43.912  35.327  1.00  0.00     0.188 HD
HETATM   12  C13 UNL     1     -11.694  39.689  35.706  1.00  0.00     0.109 A 
BRANCH   4  13
HETATM   13  C4  UNL     1     -10.201  40.451  32.507  1.00  0.00     0.283 C 
HETATM   14  N4  UNL     1      -9.269  41.483  32.290  1.00  0.00    -0.056 NA
HETATM   15  O1  UNL     1     -10.390  39.636  31.575  1.00  0.00    -0.269 OA
ENDBRANCH   4  13
BRANCH  10  16
HETATM   16  N1  UNL     1     -13.541  41.983  37.206  1.00  0.00    -0.384 N 
ATOM     17  H12 UNL     1     -13.498  41.233  37.897  1.00  0.00     0.157 HD
ATOM     18  H11 UNL     1     -14.171  42.690  37.583  1.00  0.00     0.157 HD
ENDBRANCH  10  16
ENDBRANCH   2   3
ENDBRANCH   1   2
BRANCH   1  19
HETATM   19  N6  UNL     1      -8.268  38.692  35.691  1.00  0.00    -0.073 N 
ATOM     20  H63 UNL     1      -8.936  39.307  36.156  1.00  0.00     0.274 HD
ATOM     21  H62 UNL     1      -8.195  37.973  36.410  1.00  0.00     0.274 HD
ATOM     22  H61 UNL     1      -7.374  39.157  35.530  1.00  0.00     0.274 HD
ENDBRANCH   1  19
BRANCH   1  23
HETATM   23  C7  UNL     1      -8.305  36.802  34.113  1.00  0.00     0.095 C 
BRANCH  23  24
HETATM   24  C8  UNL     1      -7.016  36.783  33.428  1.00  0.00     0.053 A 
HETATM   25  C9  UNL     1      -5.785  36.413  33.874  1.00  0.00     0.117 A 
HETATM   26  N7  UNL     1      -4.945  36.580  32.861  1.00  0.00    -0.346 N 
HETATM   27  C10 UNL     1      -5.606  37.059  31.741  1.00  0.00     0.174 A 
ATOM     28  H7  UNL     1      -3.944  36.383  32.901  1.00  0.00     0.167 HD
HETATM   29  N12 UNL     1      -6.858  37.169  32.122  1.00  0.00    -0.246 N 
BRANCH  27  30
HETATM   30  C11 UNL     1      -4.881  37.321  30.499  1.00  0.00     0.189 A 
HETATM   31  N8  UNL     1      -3.676  37.995  30.490  1.00  0.00    -0.280 N 
HETATM   32  N9  UNL     1      -3.251  38.089  29.257  1.00  0.00    -0.293 N 
ATOM     33  H8  UNL     1      -3.196  38.361  31.312  1.00  0.00     0.188 HD
HETATM   34  C12 UNL     1      -4.110  37.509  28.419  1.00  0.00     0.224 A 
ATOM     35  H9  UNL     1      -2.383  38.544  28.976  1.00  0.00     0.187 HD
HETATM   36  N10 UNL     1      -5.127  37.035  29.240  1.00  0.00    -0.236 N 
BRANCH  36  37
HETATM   37  N11 UNL     1      -6.213  36.361  28.693  1.00  0.00    -0.336 N 
ATOM     38 2H11 UNL     1      -6.551  35.499  29.119  1.00  0.00     0.177 HD
ATOM     39 1H11 UNL     1      -6.771  36.603  27.873  1.00  0.00     0.177 HD
ENDBRANCH  36  37
ENDBRANCH  27  30
BRANCH  29  40
HETATM   40  N13 UNL     1      -7.952  37.619  31.348  1.00  0.00    -0.337 N 
ATOM     41 2H13 UNL     1      -8.365  38.552  31.347  1.00  0.00     0.177 HD
ATOM     42 1H13 UNL     1      -8.434  37.000  30.696  1.00  0.00     0.177 HD
ENDBRANCH  29  40
ENDBRANCH  23  24
ENDBRANCH   1  23
TORSDOF 10
ENDMDL
