MODEL 1
REMARK VINA RESULT: -3.793050220      0.000      0.000
REMARK  11 active torsions:
REMARK  status: ('A' for Active; 'I' for Inactive)
REMARK    1  A    between atoms: C2_2  and  N1_3 
REMARK    2  A    between atoms: N1_3  and  C3_6 
REMARK    3  A    between atoms: C3_6  and  C4_7 
REMARK    4  A    between atoms: C4_7  and  C5_8 
REMARK    5  A    between atoms: C5_8  and  C6_9 
REMARK    6  A    between atoms: C6_9  and  C7_10 
REMARK    7  A    between atoms: C7_10  and  N2_11 
REMARK    8  A    between atoms: N2_11  and  C8_12 
REMARK    9  A    between atoms: C9_15  and  N4_16 
REMARK   10  A    between atoms: C11_22  and  N6_23 
REMARK   11  A    between atoms: C12_28  and  N8_29 
ROOT
HETATM    1  C8  UNL     1      28.775  12.345  23.705  1.00  0.00     0.217 A 
HETATM    2  N3  UNL     1      28.402  11.269  24.463  1.00  0.00    -0.163 N 
ATOM      3  H3  UNL     1      28.894  10.388  24.318  1.00  0.00     0.187 HD
HETATM    4  C9  UNL     1      27.436  11.302  25.377  1.00  0.00     0.678 A 
HETATM    5  N5  UNL     1      26.766  12.450  25.592  1.00  0.00    -0.186 N 
ATOM      6  H5  UNL     1      26.025  12.470  26.293  1.00  0.00     0.184 HD
HETATM    7  C10 UNL     1      27.047  13.563  24.911  1.00  0.00     0.125 A 
HETATM    8  C11 UNL     1      26.352  14.755  25.141  1.00  0.00     0.144 A 
HETATM    9  N7  UNL     1      26.702  15.822  24.416  1.00  0.00    -0.175 N 
ATOM     10  H7  UNL     1      26.214  16.706  24.561  1.00  0.00     0.186 HD
HETATM   11  C12 UNL     1      27.684  15.755  23.500  1.00  0.00     0.678 A 
HETATM   12  N9  UNL     1      28.377  14.612  23.253  1.00  0.00    -0.185 N 
ATOM     13  H9  UNL     1      29.117  14.588  22.551  1.00  0.00     0.184 HD
HETATM   14  C13 UNL     1      28.059  13.515  23.959  1.00  0.00     0.138 A 
ENDROOT
BRANCH   1  15
HETATM   15  N2  UNL     1      29.669  12.199  22.907  1.00  0.00    -0.428 NA
BRANCH  15  16
HETATM   16  C7  UNL     1      30.478  11.715  21.958  1.00  0.00     0.220 C 
BRANCH  16  17
HETATM   17  C6  UNL     1      30.158  10.220  21.686  1.00  0.00     0.033 C 
BRANCH  17  18
HETATM   18  C5  UNL     1      31.111   9.436  22.558  1.00  0.00     0.004 C 
BRANCH  18  19
HETATM   19  C4  UNL     1      30.426   8.864  23.788  1.00  0.00     0.027 C 
BRANCH  19  20
HETATM   20  C3  UNL     1      31.074   9.325  25.053  1.00  0.00     0.232 C 
BRANCH  20  21
HETATM   21  N1  UNL     1      31.904  10.481  24.886  1.00  0.00    -0.075 N 
ATOM     22  H12 UNL     1      31.355  11.341  24.890  1.00  0.00     0.277 HD
ATOM     23  H11 UNL     1      32.279  10.540  23.939  1.00  0.00     0.277 HD
BRANCH  21  24
HETATM   24  C2  UNL     1      32.957  10.517  25.880  1.00  0.00     0.228 C 
HETATM   25  C1  UNL     1      33.544   9.162  26.141  1.00  0.00     0.034 C 
ENDBRANCH  21  24
ENDBRANCH  20  21
ENDBRANCH  19  20
ENDBRANCH  18  19
ENDBRANCH  17  18
ENDBRANCH  16  17
ENDBRANCH  15  16
ENDBRANCH   1  15
BRANCH   4  26
HETATM   26  N4  UNL     1      27.126  10.229  26.069  1.00  0.00    -0.234 N 
ATOM     27  H42 UNL     1      27.206  10.244  27.086  1.00  0.00     0.174 HD
ATOM     28  H41 UNL     1      26.805   9.381  25.603  1.00  0.00     0.174 HD
ENDBRANCH   4  26
BRANCH   8  29
HETATM   29  N6  UNL     1      25.428  14.757  26.025  1.00  0.00    -0.383 N 
ATOM     30  H62 UNL     1      25.572  14.995  27.006  1.00  0.00     0.157 HD
ATOM     31  H61 UNL     1      24.483  14.504  25.736  1.00  0.00     0.157 HD
ENDBRANCH   8  29
BRANCH  11  32
HETATM   32  N8  UNL     1      28.030  16.789  22.793  1.00  0.00    -0.234 N 
ATOM     33  H82 UNL     1      27.513  17.648  22.983  1.00  0.00     0.174 HD
ATOM     34  H81 UNL     1      28.771  16.737  22.093  1.00  0.00     0.174 HD
ENDBRANCH  11  32
TORSDOF 11
ENDMDL
MODEL 2
REMARK VINA RESULT: -3.385871242      2.252      3.426
REMARK  11 active torsions:
REMARK  status: ('A' for Active; 'I' for Inactive)
REMARK    1  A    between atoms: C2_2  and  N1_3 
REMARK    2  A    between atoms: N1_3  and  C3_6 
REMARK    3  A    between atoms: C3_6  and  C4_7 
REMARK    4  A    between atoms: C4_7  and  C5_8 
REMARK    5  A    between atoms: C5_8  and  C6_9 
REMARK    6  A    between atoms: C6_9  and  C7_10 
REMARK    7  A    between atoms: C7_10  and  N2_11 
REMARK    8  A    between atoms: N2_11  and  C8_12 
REMARK    9  A    between atoms: C9_15  and  N4_16 
REMARK   10  A    between atoms: C11_22  and  N6_23 
REMARK   11  A    between atoms: C12_28  and  N8_29 
ROOT
HETATM    1  C8  UNL     1      29.838  10.676  24.835  1.00  0.00     0.217 A 
HETATM    2  N3  UNL     1      29.345   9.561  25.454  1.00  0.00    -0.163 N 
ATOM      3  H3  UNL     1      29.978   8.775  25.601  1.00  0.00     0.187 HD
HETATM    4  C9  UNL     1      28.089   9.437  25.876  1.00  0.00     0.678 A 
HETATM    5  N5  UNL     1      27.227  10.456  25.697  1.00  0.00    -0.186 N 
ATOM      6  H5  UNL     1      26.265  10.356  26.022  1.00  0.00     0.184 HD
HETATM    7  C10 UNL     1      27.599  11.593  25.107  1.00  0.00     0.125 A 
HETATM    8  C11 UNL     1      26.701  12.651  24.927  1.00  0.00     0.144 A 
HETATM    9  N7  UNL     1      27.160  13.754  24.328  1.00  0.00    -0.175 N 
ATOM     10  H7  UNL     1      26.530  14.543  24.183  1.00  0.00     0.186 HD
HETATM   11  C12 UNL     1      28.436  13.846  23.913  1.00  0.00     0.678 A 
HETATM   12  N9  UNL     1      29.332  12.837  24.072  1.00  0.00    -0.185 N 
ATOM     13  H9  UNL     1      30.294  12.933  23.747  1.00  0.00     0.184 HD
HETATM   14  C13 UNL     1      28.914  11.709  24.670  1.00  0.00     0.138 A 
ENDROOT
BRANCH   1  15
HETATM   15  N2  UNL     1      30.996  10.677  24.497  1.00  0.00    -0.428 NA
BRANCH  15  16
HETATM   16  C7  UNL     1      32.308  10.432  24.405  1.00  0.00     0.220 C 
BRANCH  16  17
HETATM   17  C6  UNL     1      32.957  10.430  25.815  1.00  0.00     0.033 C 
BRANCH  17  18
HETATM   18  C5  UNL     1      33.334   8.992  26.086  1.00  0.00     0.004 C 
BRANCH  18  19
HETATM   19  C4  UNL     1      34.396   8.871  27.167  1.00  0.00     0.027 C 
BRANCH  19  20
HETATM   20  C3  UNL     1      34.990   7.501  27.215  1.00  0.00     0.232 C 
BRANCH  20  21
HETATM   21  N1  UNL     1      34.108   6.509  27.756  1.00  0.00    -0.075 N 
ATOM     22  H12 UNL     1      33.136   6.699  27.512  1.00  0.00     0.277 HD
ATOM     23  H11 UNL     1      34.033   6.589  28.771  1.00  0.00     0.277 HD
BRANCH  21  24
HETATM   24  C2  UNL     1      34.508   5.177  27.354  1.00  0.00     0.228 C 
HETATM   25  C1  UNL     1      35.955   4.903  27.641  1.00  0.00     0.034 C 
ENDBRANCH  21  24
ENDBRANCH  20  21
ENDBRANCH  19  20
ENDBRANCH  18  19
ENDBRANCH  17  18
ENDBRANCH  16  17
ENDBRANCH  15  16
ENDBRANCH   1  15
BRANCH   4  26
HETATM   26  N4  UNL     1      27.681   8.335  26.462  1.00  0.00    -0.234 N 
ATOM     27  H42 UNL     1      27.879   8.186  27.452  1.00  0.00     0.174 HD
ATOM     28  H41 UNL     1      27.166   7.625  25.941  1.00  0.00     0.174 HD
ENDBRANCH   4  26
BRANCH   8  29
HETATM   29  N6  UNL     1      25.501  12.503  25.342  1.00  0.00    -0.383 N 
ATOM     30  H62 UNL     1      25.169  12.804  26.259  1.00  0.00     0.157 HD
ATOM     31  H61 UNL     1      24.827  12.057  24.721  1.00  0.00     0.157 HD
ENDBRANCH   8  29
BRANCH  11  32
HETATM   32  N8  UNL     1      28.889  14.917  23.332  1.00  0.00    -0.234 N 
ATOM     33  H82 UNL     1      29.856  14.871  23.012  1.00  0.00     0.174 HD
ATOM     34  H81 UNL     1      28.308  15.747  23.210  1.00  0.00     0.174 HD
ENDBRANCH  11  32
TORSDOF 11
ENDMDL
MODEL 3
REMARK VINA RESULT: -3.319012687      1.163      1.534
REMARK  11 active torsions:
REMARK  status: ('A' for Active; 'I' for Inactive)
REMARK    1  A    between atoms: C2_2  and  N1_3 
REMARK    2  A    between atoms: N1_3  and  C3_6 
REMARK    3  A    between atoms: C3_6  and  C4_7 
REMARK    4  A    between atoms: C4_7  and  C5_8 
REMARK    5  A    between atoms: C5_8  and  C6_9 
REMARK    6  A    between atoms: C6_9  and  C7_10 
REMARK    7  A    between atoms: C7_10  and  N2_11 
REMARK    8  A    between atoms: N2_11  and  C8_12 
REMARK    9  A    between atoms: C9_15  and  N4_16 
REMARK   10  A    between atoms: C11_22  and  N6_23 
REMARK   11  A    between atoms: C12_28  and  N8_29 
ROOT
HETATM    1  C8  UNL     1      28.721  12.043  23.838  1.00  0.00     0.217 A 
HETATM    2  N3  UNL     1      28.261  10.995  24.589  1.00  0.00    -0.163 N 
ATOM      3  H3  UNL     1      28.748  10.102  24.513  1.00  0.00     0.187 HD
HETATM    4  C9  UNL     1      27.219  11.070  25.412  1.00  0.00     0.678 A 
HETATM    5  N5  UNL     1      26.555  12.235  25.535  1.00  0.00    -0.186 N 
ATOM      6  H5  UNL     1      25.755  12.286  26.167  1.00  0.00     0.184 HD
HETATM    7  C10 UNL     1      26.915  13.323  24.852  1.00  0.00     0.125 A 
HETATM    8  C11 UNL     1      26.225  14.532  24.987  1.00  0.00     0.144 A 
HETATM    9  N7  UNL     1      26.658  15.572  24.267  1.00  0.00    -0.175 N 
ATOM     10  H7  UNL     1      26.175  16.468  24.344  1.00  0.00     0.186 HD
HETATM   11  C12 UNL     1      27.716  15.463  23.444  1.00  0.00     0.678 A 
HETATM   12  N9  UNL     1      28.406  14.302  23.291  1.00  0.00    -0.185 N 
ATOM     13  H9  UNL     1      29.205  14.246  22.659  1.00  0.00     0.184 HD
HETATM   14  C13 UNL     1      28.007  13.231  23.995  1.00  0.00     0.138 A 
ENDROOT
BRANCH   1  15
HETATM   15  N2  UNL     1      29.679  11.859  23.127  1.00  0.00    -0.428 NA
BRANCH  15  16
HETATM   16  C7  UNL     1      30.614  11.302  22.349  1.00  0.00     0.220 C 
BRANCH  16  17
HETATM   17  C6  UNL     1      31.220  10.053  23.043  1.00  0.00     0.033 C 
BRANCH  17  18
HETATM   18  C5  UNL     1      31.651  10.519  24.414  1.00  0.00     0.004 C 
BRANCH  18  19
HETATM   19  C4  UNL     1      32.149   9.373  25.280  1.00  0.00     0.027 C 
BRANCH  19  20
HETATM   20  C3  UNL     1      33.270   9.795  26.173  1.00  0.00     0.232 C 
BRANCH  20  21
HETATM   21  N1  UNL     1      34.355   8.860  26.216  1.00  0.00    -0.075 N 
ATOM     22  H12 UNL     1      35.258   9.328  26.136  1.00  0.00     0.277 HD
ATOM     23  H11 UNL     1      34.397   8.295  25.367  1.00  0.00     0.277 HD
BRANCH  21  24
HETATM   24  C2  UNL     1      34.287   8.034  27.404  1.00  0.00     0.228 C 
HETATM   25  C1  UNL     1      35.264   6.897  27.366  1.00  0.00     0.034 C 
ENDBRANCH  21  24
ENDBRANCH  20  21
ENDBRANCH  19  20
ENDBRANCH  18  19
ENDBRANCH  17  18
ENDBRANCH  16  17
ENDBRANCH  15  16
ENDBRANCH   1  15
BRANCH   4  26
HETATM   26  N4  UNL     1      26.830  10.023  26.102  1.00  0.00    -0.234 N 
ATOM     27  H42 UNL     1      25.855   9.724  26.060  1.00  0.00     0.174 HD
ATOM     28  H41 UNL     1      27.490   9.502  26.680  1.00  0.00     0.174 HD
ENDBRANCH   4  26
BRANCH   8  29
HETATM   29  N6  UNL     1      25.227  14.574  25.785  1.00  0.00    -0.383 N 
ATOM     30  H62 UNL     1      25.266  14.307  26.769  1.00  0.00     0.157 HD
ATOM     31  H61 UNL     1      24.331  14.895  25.420  1.00  0.00     0.157 HD
ENDBRANCH   8  29
BRANCH  11  32
HETATM   32  N8  UNL     1      28.142  16.470  22.743  1.00  0.00    -0.234 N 
ATOM     33  H82 UNL     1      27.645  16.644  21.870  1.00  0.00     0.174 HD
ATOM     34  H81 UNL     1      28.926  17.046  23.054  1.00  0.00     0.174 HD
ENDBRANCH  11  32
TORSDOF 11
ENDMDL
MODEL 4
REMARK VINA RESULT: -3.183771640      3.484      5.653
REMARK  11 active torsions:
REMARK  status: ('A' for Active; 'I' for Inactive)
REMARK    1  A    between atoms: C2_2  and  N1_3 
REMARK    2  A    between atoms: N1_3  and  C3_6 
REMARK    3  A    between atoms: C3_6  and  C4_7 
REMARK    4  A    between atoms: C4_7  and  C5_8 
REMARK    5  A    between atoms: C5_8  and  C6_9 
REMARK    6  A    between atoms: C6_9  and  C7_10 
REMARK    7  A    between atoms: C7_10  and  N2_11 
REMARK    8  A    between atoms: N2_11  and  C8_12 
REMARK    9  A    between atoms: C9_15  and  N4_16 
REMARK   10  A    between atoms: C11_22  and  N6_23 
REMARK   11  A    between atoms: C12_28  and  N8_29 
ROOT
HETATM    1  C8  UNL     1      30.686   9.752  25.203  1.00  0.00     0.217 A 
HETATM    2  N3  UNL     1      29.614   9.870  26.045  1.00  0.00    -0.163 N 
ATOM      3  H3  UNL     1      29.794   9.891  27.049  1.00  0.00     0.187 HD
HETATM    4  C9  UNL     1      28.352   9.958  25.636  1.00  0.00     0.678 A 
HETATM    5  N5  UNL     1      28.080   9.932  24.317  1.00  0.00    -0.186 N 
ATOM      6  H5  UNL     1      27.110   9.998  24.008  1.00  0.00     0.184 HD
HETATM    7  C10 UNL     1      29.046   9.821  23.404  1.00  0.00     0.125 A 
HETATM    8  C11 UNL     1      28.760   9.800  22.035  1.00  0.00     0.144 A 
HETATM    9  N7  UNL     1      29.792   9.690  21.191  1.00  0.00    -0.175 N 
ATOM     10  H7  UNL     1      29.615   9.672  20.187  1.00  0.00     0.186 HD
HETATM   11  C12 UNL     1      31.057   9.604  21.639  1.00  0.00     0.678 A 
HETATM   12  N9  UNL     1      31.367   9.621  22.962  1.00  0.00    -0.185 N 
ATOM     13  H9  UNL     1      32.336   9.553  23.275  1.00  0.00     0.184 HD
HETATM   14  C13 UNL     1      30.362   9.731  23.846  1.00  0.00     0.138 A 
ENDROOT
BRANCH   1  15
HETATM   15  N2  UNL     1      31.789   9.683  25.689  1.00  0.00    -0.428 NA
BRANCH  15  16
HETATM   16  C7  UNL     1      33.012   9.973  26.145  1.00  0.00     0.220 C 
BRANCH  16  17
HETATM   17  C6  UNL     1      33.952   8.748  25.984  1.00  0.00     0.033 C 
BRANCH  17  18
HETATM   18  C5  UNL     1      34.374   8.374  27.386  1.00  0.00     0.004 C 
BRANCH  18  19
HETATM   19  C4  UNL     1      35.122   7.051  27.426  1.00  0.00     0.027 C 
BRANCH  19  20
HETATM   20  C3  UNL     1      34.190   5.883  27.441  1.00  0.00     0.232 C 
BRANCH  20  21
HETATM   21  N1  UNL     1      34.658   4.783  28.232  1.00  0.00    -0.075 N 
ATOM     22  H12 UNL     1      34.380   3.888  27.830  1.00  0.00     0.277 HD
ATOM     23  H11 UNL     1      34.156   4.719  29.118  1.00  0.00     0.277 HD
BRANCH  21  24
HETATM   24  C2  UNL     1      36.090   4.855  28.434  1.00  0.00     0.228 C 
HETATM   25  C1  UNL     1      36.521   4.200  29.712  1.00  0.00     0.034 C 
ENDBRANCH  21  24
ENDBRANCH  20  21
ENDBRANCH  19  20
ENDBRANCH  18  19
ENDBRANCH  17  18
ENDBRANCH  16  17
ENDBRANCH  15  16
ENDBRANCH   1  15
BRANCH   4  26
HETATM   26  N4  UNL     1      27.369  10.067  26.500  1.00  0.00    -0.234 N 
ATOM     27  H42 UNL     1      27.521   9.800  27.473  1.00  0.00     0.174 HD
ATOM     28  H41 UNL     1      26.455  10.416  26.212  1.00  0.00     0.174 HD
ENDBRANCH   4  26
BRANCH   8  29
HETATM   29  N6  UNL     1      27.538   9.885  21.671  1.00  0.00    -0.383 N 
ATOM     30  H62 UNL     1      26.765   9.405  22.133  1.00  0.00     0.157 HD
ATOM     31  H61 UNL     1      27.314  10.471  20.866  1.00  0.00     0.157 HD
ENDBRANCH   8  29
BRANCH  11  32
HETATM   32  N8  UNL     1      32.063   9.499  20.824  1.00  0.00    -0.234 N 
ATOM     33  H82 UNL     1      32.860  10.104  21.024  1.00  0.00     0.174 HD
ATOM     34  H81 UNL     1      32.049   8.851  20.035  1.00  0.00     0.174 HD
ENDBRANCH  11  32
TORSDOF 11
ENDMDL
MODEL 5
REMARK VINA RESULT: -3.010515189      1.908      5.997
REMARK  11 active torsions:
REMARK  status: ('A' for Active; 'I' for Inactive)
REMARK    1  A    between atoms: C2_2  and  N1_3 
REMARK    2  A    between atoms: N1_3  and  C3_6 
REMARK    3  A    between atoms: C3_6  and  C4_7 
REMARK    4  A    between atoms: C4_7  and  C5_8 
REMARK    5  A    between atoms: C5_8  and  C6_9 
REMARK    6  A    between atoms: C6_9  and  C7_10 
REMARK    7  A    between atoms: C7_10  and  N2_11 
REMARK    8  A    between atoms: N2_11  and  C8_12 
REMARK    9  A    between atoms: C9_15  and  N4_16 
REMARK   10  A    between atoms: C11_22  and  N6_23 
REMARK   11  A    between atoms: C12_28  and  N8_29 
ROOT
HETATM    1  C8  UNL     1      29.296  11.793  23.244  1.00  0.00     0.217 A 
HETATM    2  N3  UNL     1      28.258  11.340  22.476  1.00  0.00    -0.163 N 
ATOM      3  H3  UNL     1      27.683  12.030  21.993  1.00  0.00     0.187 HD
HETATM    4  C9  UNL     1      27.954  10.054  22.320  1.00  0.00     0.678 A 
HETATM    5  N5  UNL     1      28.694   9.118  22.944  1.00  0.00    -0.186 N 
ATOM      6  H5  UNL     1      28.456   8.134  22.822  1.00  0.00     0.184 HD
HETATM    7  C10 UNL     1      29.730   9.445  23.717  1.00  0.00     0.125 A 
HETATM    8  C11 UNL     1      30.499   8.469  24.360  1.00  0.00     0.144 A 
HETATM    9  N7  UNL     1      31.522   8.887  25.113  1.00  0.00    -0.175 N 
ATOM     10  H7  UNL     1      32.102   8.199  25.594  1.00  0.00     0.186 HD
HETATM   11  C12 UNL     1      31.803  10.195  25.249  1.00  0.00     0.678 A 
HETATM   12  N9  UNL     1      31.075  11.167  24.639  1.00  0.00    -0.185 N 
ATOM     13  H9  UNL     1      31.309  12.152  24.760  1.00  0.00     0.184 HD
HETATM   14  C13 UNL     1      30.038  10.793  23.871  1.00  0.00     0.138 A 
ENDROOT
BRANCH   1  15
HETATM   15  N2  UNL     1      29.480  12.984  23.309  1.00  0.00    -0.428 NA
BRANCH  15  16
HETATM   16  C7  UNL     1      29.326  14.300  23.494  1.00  0.00     0.220 C 
BRANCH  16  17
HETATM   17  C6  UNL     1      27.969  14.773  22.907  1.00  0.00     0.033 C 
BRANCH  17  18
HETATM   18  C5  UNL     1      27.403  15.741  23.919  1.00  0.00     0.004 C 
BRANCH  18  19
HETATM   19  C4  UNL     1      26.737  15.030  25.086  1.00  0.00     0.027 C 
BRANCH  19  20
HETATM   20  C3  UNL     1      25.504  14.300  24.663  1.00  0.00     0.232 C 
BRANCH  20  21
HETATM   21  N1  UNL     1      25.464  12.935  25.100  1.00  0.00    -0.075 N 
ATOM     22  H12 UNL     1      25.073  12.324  24.383  1.00  0.00     0.277 HD
ATOM     23  H11 UNL     1      24.762  12.794  25.826  1.00  0.00     0.277 HD
BRANCH  21  24
HETATM   24  C2  UNL     1      26.772  12.485  25.529  1.00  0.00     0.228 C 
HETATM   25  C1  UNL     1      26.835  10.997  25.705  1.00  0.00     0.034 C 
ENDBRANCH  21  24
ENDBRANCH  20  21
ENDBRANCH  19  20
ENDBRANCH  18  19
ENDBRANCH  17  18
ENDBRANCH  16  17
ENDBRANCH  15  16
ENDBRANCH   1  15
BRANCH   4  26
HETATM   26  N4  UNL     1      26.941   9.688  21.568  1.00  0.00    -0.234 N 
ATOM     27  H42 UNL     1      26.677  10.259  20.764  1.00  0.00     0.174 HD
ATOM     28  H41 UNL     1      26.415   8.839  21.776  1.00  0.00     0.174 HD
ENDBRANCH   4  26
BRANCH   8  29
HETATM   29  N6  UNL     1      30.183   7.242  24.192  1.00  0.00    -0.383 N 
ATOM     30  H62 UNL     1      30.269   6.742  23.307  1.00  0.00     0.157 HD
ATOM     31  H61 UNL     1      29.821   6.724  24.992  1.00  0.00     0.157 HD
ENDBRANCH   8  29
BRANCH  11  32
HETATM   32  N8  UNL     1      32.796  10.607  25.978  1.00  0.00    -0.234 N 
ATOM     33  H82 UNL     1      33.667  10.086  25.875  1.00  0.00     0.174 HD
ATOM     34  H81 UNL     1      32.703  11.402  26.611  1.00  0.00     0.174 HD
ENDBRANCH  11  32
TORSDOF 11
ENDMDL
