MODEL 1
REMARK VINA RESULT: -5.940962969      0.000      0.000
REMARK  11 active torsions:
REMARK  status: ('A' for Active; 'I' for Inactive)
REMARK       I    between atoms: C1_4  and  N3_6 
REMARK    1  A    between atoms: N3_6  and  C2_8 
REMARK    2  A    between atoms: C3_11  and  N5_12 
REMARK    3  A    between atoms: C4_17  and  O1_18 
REMARK    4  A    between atoms: O1_18  and  C5_19 
REMARK    5  A    between atoms: C5_19  and  C6_20 
REMARK    6  A    between atoms: C6_20  and  C7_21 
REMARK    7  A    between atoms: C7_21  and  C8_22 
REMARK    8  A    between atoms: C8_22  and  C9_23 
REMARK    9  A    between atoms: C9_23  and  C10_24 
REMARK   10  A    between atoms: C10_24  and  C11_25 
REMARK   11  A    between atoms: C11_25  and  N7_26 
ROOT
HETATM    1  C2  UNL     1      27.621  14.241  24.187  1.00  0.00     0.152 A 
HETATM    2  N4  UNL     1      26.281  14.293  24.329  1.00  0.00    -0.175 N 
ATOM      3  H4  UNL     1      25.753  15.098  23.993  1.00  0.00     0.186 HD
HETATM    4  C3  UNL     1      25.657  13.261  24.923  1.00  0.00     0.679 A 
HETATM    5  N6  UNL     1      26.377  12.202  25.361  1.00  0.00    -0.169 N 
ATOM      6  H6  UNL     1      25.874  11.434  25.806  1.00  0.00     0.186 HD
HETATM    7  C4  UNL     1      27.708  12.096  25.247  1.00  0.00     0.185 A 
HETATM    8  C12 UNL     1      28.362  13.159  24.635  1.00  0.00     0.142 A 
HETATM    9  N8  UNL     1      29.772  13.151  24.462  1.00  0.00    -0.094 NA
ENDROOT
BRANCH   7  10
HETATM   10  O1  UNL     1      28.421  10.998  25.705  1.00  0.00    -0.334 OA
BRANCH  10  11
HETATM   11  C5  UNL     1      28.155   9.717  25.245  1.00  0.00     0.177 C 
BRANCH  11  12
HETATM   12  C6  UNL     1      29.303   8.868  24.871  1.00  0.00     0.027 C 
BRANCH  12  13
HETATM   13  C7  UNL     1      30.665   9.359  25.170  1.00  0.00     0.002 C 
BRANCH  13  14
HETATM   14  C8  UNL     1      31.329  10.109  24.046  1.00  0.00     0.000 C 
BRANCH  14  15
HETATM   15  C9  UNL     1      30.804   9.602  22.719  1.00  0.00     0.002 C 
BRANCH  15  16
HETATM   16  C10 UNL     1      29.943  10.614  22.035  1.00  0.00     0.027 C 
BRANCH  16  17
HETATM   17  C11 UNL     1      28.898   9.977  21.156  1.00  0.00     0.229 C 
BRANCH  17  18
HETATM   18  N7  UNL     1      27.637   9.889  21.863  1.00  0.00    -0.079 N 
ATOM     19  H73 UNL     1      27.770   9.715  22.859  1.00  0.00     0.274 HD
ATOM     20  H72 UNL     1      27.172  10.794  21.928  1.00  0.00     0.274 HD
ATOM     21  H71 UNL     1      27.040   9.185  21.430  1.00  0.00     0.274 HD
ENDBRANCH  17  18
ENDBRANCH  16  17
ENDBRANCH  15  16
ENDBRANCH  14  15
ENDBRANCH  13  14
ENDBRANCH  12  13
ENDBRANCH  11  12
ENDBRANCH  10  11
ENDBRANCH   7  10
BRANCH   4  22
HETATM   22  N5  UNL     1      24.360  13.290  25.071  1.00  0.00    -0.234 N 
ATOM     23  H52 UNL     1      23.769  13.760  24.384  1.00  0.00     0.174 HD
ATOM     24  H51 UNL     1      23.935  12.840  25.881  1.00  0.00     0.174 HD
ENDBRANCH   4  22
BRANCH   1  25
HETATM   25  N3  UNL     1      28.258  15.190  23.633  1.00  0.00    -0.315 N 
HETATM   26  C1  UNL     1      27.814  16.533  23.509  1.00  0.00     0.187 C 
HETATM   27  N1  UNL     1      27.641  16.974  22.315  1.00  0.00    -0.373 N 
HETATM   28  N2  UNL     1      27.563  17.381  24.599  1.00  0.00    -0.064 NA
ATOM     29  H12 UNL     1      27.323  17.939  22.226  1.00  0.00     0.158 HD
ATOM     30  H11 UNL     1      27.824  16.358  21.523  1.00  0.00     0.158 HD
ATOM     31  H3  UNL     1      29.173  14.967  23.241  1.00  0.00     0.170 HD
ENDBRANCH   1  25
TORSDOF 11
ENDMDL
MODEL 2
REMARK VINA RESULT: -5.839632332      2.781      3.728
REMARK  11 active torsions:
REMARK  status: ('A' for Active; 'I' for Inactive)
REMARK       I    between atoms: C1_4  and  N3_6 
REMARK    1  A    between atoms: N3_6  and  C2_8 
REMARK    2  A    between atoms: C3_11  and  N5_12 
REMARK    3  A    between atoms: C4_17  and  O1_18 
REMARK    4  A    between atoms: O1_18  and  C5_19 
REMARK    5  A    between atoms: C5_19  and  C6_20 
REMARK    6  A    between atoms: C6_20  and  C7_21 
REMARK    7  A    between atoms: C7_21  and  C8_22 
REMARK    8  A    between atoms: C8_22  and  C9_23 
REMARK    9  A    between atoms: C9_23  and  C10_24 
REMARK   10  A    between atoms: C10_24  and  C11_25 
REMARK   11  A    between atoms: C11_25  and  N7_26 
ROOT
HETATM    1  C2  UNL     1      28.090  13.938  23.913  1.00  0.00     0.152 A 
HETATM    2  N4  UNL     1      26.951  13.797  24.621  1.00  0.00    -0.175 N 
ATOM      3  H4  UNL     1      26.385  14.610  24.864  1.00  0.00     0.186 HD
HETATM    4  C3  UNL     1      26.579  12.562  24.999  1.00  0.00     0.679 A 
HETATM    5  N6  UNL     1      27.343  11.497  24.666  1.00  0.00    -0.169 N 
ATOM      6  H6  UNL     1      27.033  10.573  24.967  1.00  0.00     0.186 HD
HETATM    7  C4  UNL     1      28.483  11.577  23.965  1.00  0.00     0.185 A 
HETATM    8  C12 UNL     1      28.877  12.850  23.570  1.00  0.00     0.142 A 
HETATM    9  N8  UNL     1      30.069  13.051  22.823  1.00  0.00    -0.094 NA
ENDROOT
BRANCH   7  10
HETATM   10  O1  UNL     1      29.249  10.468  23.637  1.00  0.00    -0.334 OA
BRANCH  10  11
HETATM   11  C5  UNL     1      29.395   9.403  24.513  1.00  0.00     0.177 C 
BRANCH  11  12
HETATM   12  C6  UNL     1      30.697   9.244  25.191  1.00  0.00     0.027 C 
BRANCH  12  13
HETATM   13  C7  UNL     1      31.794  10.165  24.826  1.00  0.00     0.002 C 
BRANCH  13  14
HETATM   14  C8  UNL     1      32.946  10.195  25.795  1.00  0.00     0.000 C 
BRANCH  14  15
HETATM   15  C9  UNL     1      33.353   8.778  26.142  1.00  0.00     0.002 C 
BRANCH  15  16
HETATM   16  C10 UNL     1      34.451   8.744  27.155  1.00  0.00     0.027 C 
BRANCH  16  17
HETATM   17  C11 UNL     1      35.186   7.429  27.158  1.00  0.00     0.229 C 
BRANCH  17  18
HETATM   18  N7  UNL     1      36.574   7.632  26.795  1.00  0.00    -0.079 N 
ATOM     19  H73 UNL     1      36.959   6.828  26.299  1.00  0.00     0.274 HD
ATOM     20  H72 UNL     1      36.677   8.328  26.057  1.00  0.00     0.274 HD
ATOM     21  H71 UNL     1      37.123   7.868  27.621  1.00  0.00     0.274 HD
ENDBRANCH  17  18
ENDBRANCH  16  17
ENDBRANCH  15  16
ENDBRANCH  14  15
ENDBRANCH  13  14
ENDBRANCH  12  13
ENDBRANCH  11  12
ENDBRANCH  10  11
ENDBRANCH   7  10
BRANCH   4  22
HETATM   22  N5  UNL     1      25.478  12.402  25.685  1.00  0.00    -0.234 N 
ATOM     23  H52 UNL     1      24.855  11.618  25.490  1.00  0.00     0.174 HD
ATOM     24  H51 UNL     1      25.241  13.068  26.420  1.00  0.00     0.174 HD
ENDBRANCH   4  22
BRANCH   1  25
HETATM   25  N3  UNL     1      28.486  15.084  23.532  1.00  0.00    -0.315 N 
HETATM   26  C1  UNL     1      27.771  16.302  23.667  1.00  0.00     0.187 C 
HETATM   27  N1  UNL     1      27.443  16.900  22.578  1.00  0.00    -0.373 N 
HETATM   28  N2  UNL     1      27.415  16.871  24.900  1.00  0.00    -0.064 NA
ATOM     29  H12 UNL     1      26.928  17.776  22.675  1.00  0.00     0.158 HD
ATOM     30  H11 UNL     1      27.701  16.486  21.682  1.00  0.00     0.158 HD
ATOM     31  H3  UNL     1      29.404  15.132  23.087  1.00  0.00     0.170 HD
ENDBRANCH   1  25
TORSDOF 11
ENDMDL
MODEL 3
REMARK VINA RESULT: -5.768240890      1.790      3.275
REMARK  11 active torsions:
REMARK  status: ('A' for Active; 'I' for Inactive)
REMARK       I    between atoms: C1_4  and  N3_6 
REMARK    1  A    between atoms: N3_6  and  C2_8 
REMARK    2  A    between atoms: C3_11  and  N5_12 
REMARK    3  A    between atoms: C4_17  and  O1_18 
REMARK    4  A    between atoms: O1_18  and  C5_19 
REMARK    5  A    between atoms: C5_19  and  C6_20 
REMARK    6  A    between atoms: C6_20  and  C7_21 
REMARK    7  A    between atoms: C7_21  and  C8_22 
REMARK    8  A    between atoms: C8_22  and  C9_23 
REMARK    9  A    between atoms: C9_23  and  C10_24 
REMARK   10  A    between atoms: C10_24  and  C11_25 
REMARK   11  A    between atoms: C11_25  and  N7_26 
ROOT
HETATM    1  C2  UNL     1      27.454  14.249  24.174  1.00  0.00     0.152 A 
HETATM    2  N4  UNL     1      28.473  14.066  23.311  1.00  0.00    -0.175 N 
ATOM      3  H4  UNL     1      28.783  14.824  22.702  1.00  0.00     0.186 HD
HETATM    4  C3  UNL     1      29.071  12.863  23.269  1.00  0.00     0.679 A 
HETATM    5  N6  UNL     1      28.646  11.871  24.086  1.00  0.00    -0.169 N 
ATOM      6  H6  UNL     1      29.121  10.971  24.030  1.00  0.00     0.186 HD
HETATM    7  C4  UNL     1      27.639  11.996  24.962  1.00  0.00     0.185 A 
HETATM    8  C12 UNL     1      27.013  13.236  25.011  1.00  0.00     0.142 A 
HETATM    9  N8  UNL     1      25.935  13.479  25.904  1.00  0.00    -0.094 NA
ENDROOT
BRANCH   7  10
HETATM   10  O1  UNL     1      27.223  10.962  25.787  1.00  0.00    -0.334 OA
BRANCH  10  11
HETATM   11  C5  UNL     1      28.074   9.923  26.133  1.00  0.00     0.177 C 
BRANCH  11  12
HETATM   12  C6  UNL     1      28.443   8.956  25.080  1.00  0.00     0.027 C 
BRANCH  12  13
HETATM   13  C7  UNL     1      29.865   8.575  24.947  1.00  0.00     0.002 C 
BRANCH  13  14
HETATM   14  C8  UNL     1      30.528   9.038  23.677  1.00  0.00     0.000 C 
BRANCH  14  15
HETATM   15  C9  UNL     1      31.627  10.026  24.011  1.00  0.00     0.002 C 
BRANCH  15  16
HETATM   16  C10 UNL     1      31.855  10.133  25.483  1.00  0.00     0.027 C 
BRANCH  16  17
HETATM   17  C11 UNL     1      33.286  10.461  25.819  1.00  0.00     0.229 C 
BRANCH  17  18
HETATM   18  N7  UNL     1      33.995   9.261  26.215  1.00  0.00    -0.079 N 
ATOM     19  H73 UNL     1      34.617   8.926  25.480  1.00  0.00     0.274 HD
ATOM     20  H72 UNL     1      34.697   9.452  26.930  1.00  0.00     0.274 HD
ATOM     21  H71 UNL     1      33.335   8.544  26.512  1.00  0.00     0.274 HD
ENDBRANCH  17  18
ENDBRANCH  16  17
ENDBRANCH  15  16
ENDBRANCH  14  15
ENDBRANCH  13  14
ENDBRANCH  12  13
ENDBRANCH  11  12
ENDBRANCH  10  11
ENDBRANCH   7  10
BRANCH   4  22
HETATM   22  N5  UNL     1      30.061  12.664  22.441  1.00  0.00    -0.234 N 
ATOM     23  H52 UNL     1      30.995  12.445  22.790  1.00  0.00     0.174 HD
ATOM     24  H51 UNL     1      29.899  12.728  21.436  1.00  0.00     0.174 HD
ENDBRANCH   4  22
BRANCH   1  25
HETATM   25  N3  UNL     1      26.854  15.367  24.252  1.00  0.00    -0.315 N 
HETATM   26  C1  UNL     1      27.343  16.611  23.773  1.00  0.00     0.187 C 
HETATM   27  N1  UNL     1      27.545  17.526  24.652  1.00  0.00    -0.373 N 
HETATM   28  N2  UNL     1      27.607  16.883  22.422  1.00  0.00    -0.064 NA
ATOM     29  H12 UNL     1      27.896  18.420  24.308  1.00  0.00     0.158 HD
ATOM     30  H11 UNL     1      27.353  17.328  25.634  1.00  0.00     0.158 HD
ATOM     31  H3  UNL     1      25.938  15.371  24.700  1.00  0.00     0.170 HD
ENDBRANCH   1  25
TORSDOF 11
ENDMDL
MODEL 4
REMARK VINA RESULT: -5.719803737      1.544      2.529
REMARK  11 active torsions:
REMARK  status: ('A' for Active; 'I' for Inactive)
REMARK       I    between atoms: C1_4  and  N3_6 
REMARK    1  A    between atoms: N3_6  and  C2_8 
REMARK    2  A    between atoms: C3_11  and  N5_12 
REMARK    3  A    between atoms: C4_17  and  O1_18 
REMARK    4  A    between atoms: O1_18  and  C5_19 
REMARK    5  A    between atoms: C5_19  and  C6_20 
REMARK    6  A    between atoms: C6_20  and  C7_21 
REMARK    7  A    between atoms: C7_21  and  C8_22 
REMARK    8  A    between atoms: C8_22  and  C9_23 
REMARK    9  A    between atoms: C9_23  and  C10_24 
REMARK   10  A    between atoms: C10_24  and  C11_25 
REMARK   11  A    between atoms: C11_25  and  N7_26 
ROOT
HETATM    1  C2  UNL     1      27.533  14.319  24.167  1.00  0.00     0.152 A 
HETATM    2  N4  UNL     1      26.203  14.465  24.333  1.00  0.00    -0.175 N 
ATOM      3  H4  UNL     1      25.732  15.323  24.045  1.00  0.00     0.186 HD
HETATM    4  C3  UNL     1      25.511  13.454  24.887  1.00  0.00     0.679 A 
HETATM    5  N6  UNL     1      26.154  12.324  25.261  1.00  0.00    -0.169 N 
ATOM      6  H6  UNL     1      25.600  11.575  25.677  1.00  0.00     0.186 HD
HETATM    7  C4  UNL     1      27.471  12.124  25.120  1.00  0.00     0.185 A 
HETATM    8  C12 UNL     1      28.196  13.164  24.549  1.00  0.00     0.142 A 
HETATM    9  N8  UNL     1      29.599  13.060  24.352  1.00  0.00    -0.094 NA
ENDROOT
BRANCH   7  10
HETATM   10  O1  UNL     1      28.105  10.954  25.512  1.00  0.00    -0.334 OA
BRANCH  10  11
HETATM   11  C5  UNL     1      28.172   9.851  24.675  1.00  0.00     0.177 C 
BRANCH  11  12
HETATM   12  C6  UNL     1      28.178  10.091  23.219  1.00  0.00     0.027 C 
BRANCH  12  13
HETATM   13  C7  UNL     1      29.464   9.987  22.497  1.00  0.00     0.002 C 
BRANCH  13  14
HETATM   14  C8  UNL     1      30.526   9.188  23.207  1.00  0.00     0.000 C 
BRANCH  14  15
HETATM   15  C9  UNL     1      31.488  10.129  23.902  1.00  0.00     0.002 C 
BRANCH  15  16
HETATM   16  C10 UNL     1      31.823   9.667  25.282  1.00  0.00     0.027 C 
BRANCH  16  17
HETATM   17  C11 UNL     1      33.062  10.331  25.824  1.00  0.00     0.229 C 
BRANCH  17  18
HETATM   18  N7  UNL     1      34.027   9.331  26.232  1.00  0.00    -0.079 N 
ATOM     19  H73 UNL     1      34.033   9.198  27.243  1.00  0.00     0.274 HD
ATOM     20  H72 UNL     1      33.742   8.391  25.958  1.00  0.00     0.274 HD
ATOM     21  H71 UNL     1      34.952   9.568  25.875  1.00  0.00     0.274 HD
ENDBRANCH  17  18
ENDBRANCH  16  17
ENDBRANCH  15  16
ENDBRANCH  14  15
ENDBRANCH  13  14
ENDBRANCH  12  13
ENDBRANCH  11  12
ENDBRANCH  10  11
ENDBRANCH   7  10
BRANCH   4  22
HETATM   22  N5  UNL     1      24.221  13.573  25.057  1.00  0.00    -0.234 N 
ATOM     23  H52 UNL     1      23.828  14.416  25.476  1.00  0.00     0.174 HD
ATOM     24  H51 UNL     1      23.603  12.814  24.771  1.00  0.00     0.174 HD
ENDBRANCH   4  22
BRANCH   1  25
HETATM   25  N3  UNL     1      28.233  15.245  23.648  1.00  0.00    -0.315 N 
HETATM   26  C1  UNL     1      27.823  16.590  23.450  1.00  0.00     0.187 C 
HETATM   27  N1  UNL     1      27.766  17.001  22.235  1.00  0.00    -0.373 N 
HETATM   28  N2  UNL     1      27.488  17.470  24.491  1.00  0.00    -0.064 NA
ATOM     29  H12 UNL     1      27.472  17.967  22.092  1.00  0.00     0.158 HD
ATOM     30  H11 UNL     1      28.010  16.361  21.478  1.00  0.00     0.158 HD
ATOM     31  H3  UNL     1      29.176  14.999  23.347  1.00  0.00     0.170 HD
ENDBRANCH   1  25
TORSDOF 11
ENDMDL
MODEL 5
REMARK VINA RESULT: -5.395123240      1.046      2.269
REMARK  11 active torsions:
REMARK  status: ('A' for Active; 'I' for Inactive)
REMARK       I    between atoms: C1_4  and  N3_6 
REMARK    1  A    between atoms: N3_6  and  C2_8 
REMARK    2  A    between atoms: C3_11  and  N5_12 
REMARK    3  A    between atoms: C4_17  and  O1_18 
REMARK    4  A    between atoms: O1_18  and  C5_19 
REMARK    5  A    between atoms: C5_19  and  C6_20 
REMARK    6  A    between atoms: C6_20  and  C7_21 
REMARK    7  A    between atoms: C7_21  and  C8_22 
REMARK    8  A    between atoms: C8_22  and  C9_23 
REMARK    9  A    between atoms: C9_23  and  C10_24 
REMARK   10  A    between atoms: C10_24  and  C11_25 
REMARK   11  A    between atoms: C11_25  and  N7_26 
ROOT
HETATM    1  C2  UNL     1      27.421  14.338  24.257  1.00  0.00     0.152 A 
HETATM    2  N4  UNL     1      28.484  14.183  23.442  1.00  0.00    -0.175 N 
ATOM      3  H4  UNL     1      28.844  14.968  22.899  1.00  0.00     0.186 HD
HETATM    4  C3  UNL     1      29.059  12.970  23.361  1.00  0.00     0.679 A 
HETATM    5  N6  UNL     1      28.567  11.942  24.090  1.00  0.00    -0.169 N 
ATOM      6  H6  UNL     1      29.026  11.035  24.007  1.00  0.00     0.186 HD
HETATM    7  C4  UNL     1      27.515  12.039  24.915  1.00  0.00     0.185 A 
HETATM    8  C12 UNL     1      26.913  13.289  25.005  1.00  0.00     0.142 A 
HETATM    9  N8  UNL     1      25.791  13.504  25.850  1.00  0.00    -0.094 NA
ENDROOT
BRANCH   7  10
HETATM   10  O1  UNL     1      27.031  10.967  25.652  1.00  0.00    -0.334 OA
BRANCH  10  11
HETATM   11  C5  UNL     1      27.681   9.743  25.663  1.00  0.00     0.177 C 
BRANCH  11  12
HETATM   12  C6  UNL     1      29.123   9.732  25.977  1.00  0.00     0.027 C 
BRANCH  12  13
HETATM   13  C7  UNL     1      30.022   8.936  25.115  1.00  0.00     0.002 C 
BRANCH  13  14
HETATM   14  C8  UNL     1      31.143   9.715  24.479  1.00  0.00     0.000 C 
BRANCH  14  15
HETATM   15  C9  UNL     1      31.037   9.615  22.971  1.00  0.00     0.002 C 
BRANCH  15  16
HETATM   16  C10 UNL     1      29.735   9.024  22.540  1.00  0.00     0.027 C 
BRANCH  16  17
HETATM   17  C11 UNL     1      29.080   9.821  21.441  1.00  0.00     0.229 C 
BRANCH  17  18
HETATM   18  N7  UNL     1      27.640   9.797  21.596  1.00  0.00    -0.079 N 
ATOM     19  H73 UNL     1      27.203  10.640  21.222  1.00  0.00     0.274 HD
ATOM     20  H72 UNL     1      27.202   9.113  20.979  1.00  0.00     0.274 HD
ATOM     21  H71 UNL     1      27.393   9.642  22.573  1.00  0.00     0.274 HD
ENDBRANCH  17  18
ENDBRANCH  16  17
ENDBRANCH  15  16
ENDBRANCH  14  15
ENDBRANCH  13  14
ENDBRANCH  12  13
ENDBRANCH  11  12
ENDBRANCH  10  11
ENDBRANCH   7  10
BRANCH   4  22
HETATM   22  N5  UNL     1      30.090  12.796  22.578  1.00  0.00    -0.234 N 
ATOM     23  H52 UNL     1      30.424  13.555  21.983  1.00  0.00     0.174 HD
ATOM     24  H51 UNL     1      30.563  11.893  22.561  1.00  0.00     0.174 HD
ENDBRANCH   4  22
BRANCH   1  25
HETATM   25  N3  UNL     1      26.842  15.464  24.369  1.00  0.00    -0.315 N 
HETATM   26  C1  UNL     1      27.305  16.698  23.840  1.00  0.00     0.187 C 
HETATM   27  N1  UNL     1      27.585  17.619  24.690  1.00  0.00    -0.373 N 
HETATM   28  N2  UNL     1      27.465  16.953  22.469  1.00  0.00    -0.064 NA
ATOM     29  H12 UNL     1      27.917  18.506  24.310  1.00  0.00     0.158 HD
ATOM     30  H11 UNL     1      27.469  17.433  25.686  1.00  0.00     0.158 HD
ATOM     31  H3  UNL     1      25.963  15.483  24.888  1.00  0.00     0.170 HD
ENDBRANCH   1  25
TORSDOF 11
ENDMDL
