MODEL 1
REMARK VINA RESULT: -6.363447988      0.000      0.000
REMARK  15 active torsions:
REMARK  status: ('A' for Active; 'I' for Inactive)
REMARK    1  A    between atoms: N1_1  and  C1_4 
REMARK    2  A    between atoms: C2_7  and  N3_8 
REMARK    3  A    between atoms: C3_13  and  N5_14 
REMARK    4  A    between atoms: N5_14  and  C4_16 
REMARK    5  A    between atoms: C4_16  and  N6_17 
REMARK    6  A    between atoms: C4_16  and  N7_21 
REMARK    7  A    between atoms: C4_16  and  C5_25 
REMARK    8  A    between atoms: C5_25  and  C6_26 
REMARK    9  A    between atoms: C6_26  and  C7_27 
REMARK   10  A    between atoms: C7_27  and  C8_28 
REMARK   11  A    between atoms: C8_28  and  C9_29 
REMARK   12  A    between atoms: C9_29  and  C10_30 
REMARK   13  A    between atoms: C10_30  and  C11_31 
REMARK   14  A    between atoms: C11_31  and  C12_32 
REMARK   15  A    between atoms: C12_32  and  N8_33 
ROOT
HETATM    1  C4  UNL     1      29.166  10.051  23.892  1.00  0.00     0.371 C 
ENDROOT
BRANCH   1   2
HETATM    2  N5  UNL     1      29.302  11.379  24.424  1.00  0.00    -0.167 N 
ATOM      3  H5  UNL     1      30.193  11.603  24.868  1.00  0.00     0.182 HD
BRANCH   2   4
HETATM    4  C3  UNL     1      28.426  12.310  24.400  1.00  0.00     0.710 A 
HETATM    5  N4  UNL     1      28.717  13.523  23.848  1.00  0.00    -0.022 N 
HETATM    6  C2  UNL     1      27.819  14.514  23.808  1.00  0.00     0.705 A 
ATOM      7  H4  UNL     1      29.645  13.679  23.454  1.00  0.00     0.203 HD
HETATM    8  N2  UNL     1      26.585  14.357  24.315  1.00  0.00    -0.022 N 
HETATM    9  C1  UNL     1      26.268  13.190  24.860  1.00  0.00     0.705 A 
ATOM     10  H2  UNL     1      25.907  15.118  24.282  1.00  0.00     0.203 HD
HETATM   11  N9  UNL     1      27.182  12.196  24.894  1.00  0.00    -0.022 N 
ATOM     12  H9  UNL     1      26.911  11.309  25.318  1.00  0.00     0.203 HD
BRANCH   6  13
HETATM   13  N3  UNL     1      28.096  15.666  23.284  1.00  0.00    -0.234 N 
ATOM     14  H32 UNL     1      27.636  15.994  22.435  1.00  0.00     0.174 HD
ATOM     15  H31 UNL     1      28.800  16.232  23.758  1.00  0.00     0.174 HD
ENDBRANCH   6  13
BRANCH   9  16
HETATM   16  N1  UNL     1      25.089  13.028  25.348  1.00  0.00    -0.234 N 
ATOM     17  H12 UNL     1      24.648  13.752  25.914  1.00  0.00     0.174 HD
ATOM     18  H11 UNL     1      24.592  12.156  25.163  1.00  0.00     0.174 HD
ENDBRANCH   9  16
ENDBRANCH   2   4
ENDBRANCH   1   2
BRANCH   1  19
HETATM   19  N6  UNL     1      28.475   9.187  24.859  1.00  0.00    -0.026 N 
ATOM     20  H63 UNL     1      28.742   9.400  25.820  1.00  0.00     0.279 HD
ATOM     21  H62 UNL     1      27.482   9.410  24.927  1.00  0.00     0.279 HD
ATOM     22  H61 UNL     1      28.631   8.206  24.628  1.00  0.00     0.279 HD
ENDBRANCH   1  19
BRANCH   1  23
HETATM   23  N7  UNL     1      28.489  10.112  22.630  1.00  0.00    -0.026 N 
ATOM     24  H73 UNL     1      28.413   9.197  22.187  1.00  0.00     0.279 HD
ATOM     25  H72 UNL     1      27.493  10.306  22.735  1.00  0.00     0.279 HD
ATOM     26  H71 UNL     1      28.954  10.794  22.030  1.00  0.00     0.279 HD
ENDBRANCH   1  23
BRANCH   1  27
HETATM   27  C5  UNL     1      30.549   9.418  23.743  1.00  0.00     0.093 C 
BRANCH  27  28
HETATM   28  C6  UNL     1      31.233   9.317  25.111  1.00  0.00     0.006 C 
BRANCH  28  29
HETATM   29  C7  UNL     1      32.205  10.484  25.164  1.00  0.00     0.000 C 
BRANCH  29  30
HETATM   30  C8  UNL     1      33.377  10.164  26.044  1.00  0.00     0.000 C 
BRANCH  30  31
HETATM   31  C9  UNL     1      33.446   8.682  26.285  1.00  0.00     0.000 C 
BRANCH  31  32
HETATM   32  C10 UNL     1      34.557   8.362  27.226  1.00  0.00     0.002 C 
BRANCH  32  33
HETATM   33  C11 UNL     1      34.713   6.871  27.391  1.00  0.00     0.027 C 
BRANCH  33  34
HETATM   34  C12 UNL     1      36.211   6.538  27.253  1.00  0.00     0.229 C 
BRANCH  34  35
HETATM   35  N8  UNL     1      36.952   7.632  26.705  1.00  0.00    -0.079 N 
ATOM     36  H83 UNL     1      37.541   7.328  25.930  1.00  0.00     0.274 HD
ATOM     37  H82 UNL     1      36.343   8.275  26.200  1.00  0.00     0.274 HD
ATOM     38  H81 UNL     1      37.497   8.118  27.417  1.00  0.00     0.274 HD
ENDBRANCH  34  35
ENDBRANCH  33  34
ENDBRANCH  32  33
ENDBRANCH  31  32
ENDBRANCH  30  31
ENDBRANCH  29  30
ENDBRANCH  28  29
ENDBRANCH  27  28
ENDBRANCH   1  27
TORSDOF 15
ENDMDL
MODEL 2
REMARK VINA RESULT: -6.347092204      0.047      1.712
REMARK  15 active torsions:
REMARK  status: ('A' for Active; 'I' for Inactive)
REMARK    1  A    between atoms: N1_1  and  C1_4 
REMARK    2  A    between atoms: C2_7  and  N3_8 
REMARK    3  A    between atoms: C3_13  and  N5_14 
REMARK    4  A    between atoms: N5_14  and  C4_16 
REMARK    5  A    between atoms: C4_16  and  N6_17 
REMARK    6  A    between atoms: C4_16  and  N7_21 
REMARK    7  A    between atoms: C4_16  and  C5_25 
REMARK    8  A    between atoms: C5_25  and  C6_26 
REMARK    9  A    between atoms: C6_26  and  C7_27 
REMARK   10  A    between atoms: C7_27  and  C8_28 
REMARK   11  A    between atoms: C8_28  and  C9_29 
REMARK   12  A    between atoms: C9_29  and  C10_30 
REMARK   13  A    between atoms: C10_30  and  C11_31 
REMARK   14  A    between atoms: C11_31  and  C12_32 
REMARK   15  A    between atoms: C12_32  and  N8_33 
ROOT
HETATM    1  C4  UNL     1      29.193  10.076  23.882  1.00  0.00     0.371 C 
ENDROOT
BRANCH   1   2
HETATM    2  N5  UNL     1      29.312  11.377  24.482  1.00  0.00    -0.167 N 
ATOM      3  H5  UNL     1      30.159  11.554  25.020  1.00  0.00     0.182 HD
BRANCH   2   4
HETATM    4  C3  UNL     1      28.468  12.334  24.412  1.00  0.00     0.710 A 
HETATM    5  N4  UNL     1      27.208  12.187  24.913  1.00  0.00    -0.022 N 
HETATM    6  C2  UNL     1      26.305  13.173  24.854  1.00  0.00     0.705 A 
ATOM      7  H4  UNL     1      26.946  11.301  25.345  1.00  0.00     0.203 HD
HETATM    8  N2  UNL     1      26.602  14.358  24.294  1.00  0.00    -0.022 N 
HETATM    9  C1  UNL     1      27.819  14.535  23.796  1.00  0.00     0.705 A 
ATOM     10  H2  UNL     1      25.908  15.103  24.252  1.00  0.00     0.203 HD
HETATM   11  N9  UNL     1      28.723  13.534  23.862  1.00  0.00    -0.022 N 
ATOM     12  H9  UNL     1      29.651  13.698  23.473  1.00  0.00     0.203 HD
BRANCH   6  13
HETATM   13  N3  UNL     1      25.109  13.032  25.330  1.00  0.00    -0.234 N 
ATOM     14  H32 UNL     1      24.349  13.660  25.067  1.00  0.00     0.174 HD
ATOM     15  H31 UNL     1      24.958  12.264  25.983  1.00  0.00     0.174 HD
ENDBRANCH   6  13
BRANCH   9  16
HETATM   16  N1  UNL     1      28.116  15.665  23.258  1.00  0.00    -0.234 N 
ATOM     17  H12 UNL     1      27.591  16.511  23.483  1.00  0.00     0.174 HD
ATOM     18  H11 UNL     1      28.890  15.711  22.596  1.00  0.00     0.174 HD
ENDBRANCH   9  16
ENDBRANCH   2   4
ENDBRANCH   1   2
BRANCH   1  19
HETATM   19  N6  UNL     1      28.495   9.160  24.795  1.00  0.00    -0.026 N 
ATOM     20  H63 UNL     1      29.030   8.987  25.646  1.00  0.00     0.279 HD
ATOM     21  H62 UNL     1      27.675   9.596  25.219  1.00  0.00     0.279 HD
ATOM     22  H61 UNL     1      28.259   8.294  24.311  1.00  0.00     0.279 HD
ENDBRANCH   1  19
BRANCH   1  23
HETATM   23  N7  UNL     1      28.535  10.195  22.615  1.00  0.00    -0.026 N 
ATOM     24  H73 UNL     1      28.470  11.164  22.303  1.00  0.00     0.279 HD
ATOM     25  H72 UNL     1      29.103   9.834  21.849  1.00  0.00     0.279 HD
ATOM     26  H71 UNL     1      27.622   9.743  22.665  1.00  0.00     0.279 HD
ENDBRANCH   1  23
BRANCH   1  27
HETATM   27  C5  UNL     1      30.583   9.460  23.722  1.00  0.00     0.093 C 
BRANCH  27  28
HETATM   28  C6  UNL     1      31.259   9.323  25.091  1.00  0.00     0.006 C 
BRANCH  28  29
HETATM   29  C7  UNL     1      32.185  10.523  25.207  1.00  0.00     0.000 C 
BRANCH  29  30
HETATM   30  C8  UNL     1      33.399  10.185  26.020  1.00  0.00     0.000 C 
BRANCH  30  31
HETATM   31  C9  UNL     1      33.445   8.705  26.279  1.00  0.00     0.000 C 
BRANCH  31  32
HETATM   32  C10 UNL     1      34.553   8.380  27.223  1.00  0.00     0.002 C 
BRANCH  32  33
HETATM   33  C11 UNL     1      34.678   6.889  27.415  1.00  0.00     0.027 C 
BRANCH  33  34
HETATM   34  C12 UNL     1      36.163   6.518  27.241  1.00  0.00     0.229 C 
BRANCH  34  35
HETATM   35  N8  UNL     1      36.931   7.613  26.738  1.00  0.00    -0.079 N 
ATOM     36  H83 UNL     1      37.820   7.700  27.231  1.00  0.00     0.274 HD
ATOM     37  H82 UNL     1      37.286   7.418  25.802  1.00  0.00     0.274 HD
ATOM     38  H81 UNL     1      36.408   8.489  26.762  1.00  0.00     0.274 HD
ENDBRANCH  34  35
ENDBRANCH  33  34
ENDBRANCH  32  33
ENDBRANCH  31  32
ENDBRANCH  30  31
ENDBRANCH  29  30
ENDBRANCH  28  29
ENDBRANCH  27  28
ENDBRANCH   1  27
TORSDOF 15
ENDMDL
MODEL 3
REMARK VINA RESULT: -6.179564385      1.124      2.192
REMARK  15 active torsions:
REMARK  status: ('A' for Active; 'I' for Inactive)
REMARK    1  A    between atoms: N1_1  and  C1_4 
REMARK    2  A    between atoms: C2_7  and  N3_8 
REMARK    3  A    between atoms: C3_13  and  N5_14 
REMARK    4  A    between atoms: N5_14  and  C4_16 
REMARK    5  A    between atoms: C4_16  and  N6_17 
REMARK    6  A    between atoms: C4_16  and  N7_21 
REMARK    7  A    between atoms: C4_16  and  C5_25 
REMARK    8  A    between atoms: C5_25  and  C6_26 
REMARK    9  A    between atoms: C6_26  and  C7_27 
REMARK   10  A    between atoms: C7_27  and  C8_28 
REMARK   11  A    between atoms: C8_28  and  C9_29 
REMARK   12  A    between atoms: C9_29  and  C10_30 
REMARK   13  A    between atoms: C10_30  and  C11_31 
REMARK   14  A    between atoms: C11_31  and  C12_32 
REMARK   15  A    between atoms: C12_32  and  N8_33 
ROOT
HETATM    1  C4  UNL     1      29.335  10.628  23.097  1.00  0.00     0.371 C 
ENDROOT
BRANCH   1   2
HETATM    2  N5  UNL     1      29.236  11.640  24.112  1.00  0.00    -0.167 N 
ATOM      3  H5  UNL     1      29.913  11.590  24.873  1.00  0.00     0.182 HD
BRANCH   2   4
HETATM    4  C3  UNL     1      28.390  12.597  24.163  1.00  0.00     0.710 A 
HETATM    5  N4  UNL     1      27.169  12.415  24.744  1.00  0.00    -0.022 N 
HETATM    6  C2  UNL     1      26.265  13.399  24.812  1.00  0.00     0.705 A 
ATOM      7  H4  UNL     1      26.939  11.503  25.138  1.00  0.00     0.203 HD
HETATM    8  N2  UNL     1      26.521  14.617  24.306  1.00  0.00    -0.022 N 
HETATM    9  C1  UNL     1      27.699  14.829  23.733  1.00  0.00     0.705 A 
ATOM     10  H2  UNL     1      25.826  15.361  24.361  1.00  0.00     0.203 HD
HETATM   11  N9  UNL     1      28.604  13.829  23.672  1.00  0.00    -0.022 N 
ATOM     12  H9  UNL     1      29.502  14.020  23.227  1.00  0.00     0.203 HD
BRANCH   6  13
HETATM   13  N3  UNL     1      25.106  13.224  25.364  1.00  0.00    -0.234 N 
ATOM     14  H32 UNL     1      24.886  13.606  26.284  1.00  0.00     0.174 HD
ATOM     15  H31 UNL     1      24.420  12.684  24.837  1.00  0.00     0.174 HD
ENDBRANCH   6  13
BRANCH   9  16
HETATM   16  N1  UNL     1      27.956  15.991  23.246  1.00  0.00    -0.234 N 
ATOM     17  H12 UNL     1      27.523  16.308  22.379  1.00  0.00     0.174 HD
ATOM     18  H11 UNL     1      28.606  16.603  23.740  1.00  0.00     0.174 HD
ENDBRANCH   9  16
ENDBRANCH   2   4
ENDBRANCH   1   2
BRANCH   1  19
HETATM   19  N6  UNL     1      28.019  10.395  22.485  1.00  0.00    -0.026 N 
ATOM     20  H63 UNL     1      27.429  11.227  22.520  1.00  0.00     0.279 HD
ATOM     21  H62 UNL     1      28.082  10.298  21.471  1.00  0.00     0.279 HD
ATOM     22  H61 UNL     1      27.568   9.590  22.918  1.00  0.00     0.279 HD
ENDBRANCH   1  19
BRANCH   1  23
HETATM   23  N7  UNL     1      30.326  11.015  22.136  1.00  0.00    -0.026 N 
ATOM     24  H73 UNL     1      29.925  11.181  21.213  1.00  0.00     0.279 HD
ATOM     25  H72 UNL     1      30.686  11.953  22.309  1.00  0.00     0.279 HD
ATOM     26  H71 UNL     1      31.067  10.314  22.115  1.00  0.00     0.279 HD
ENDBRANCH   1  23
BRANCH   1  27
HETATM   27  C5  UNL     1      29.691   9.290  23.744  1.00  0.00     0.093 C 
BRANCH  27  28
HETATM   28  C6  UNL     1      30.168   9.512  25.183  1.00  0.00     0.006 C 
BRANCH  28  29
HETATM   29  C7  UNL     1      31.661   9.231  25.163  1.00  0.00     0.000 C 
BRANCH  29  30
HETATM   30  C8  UNL     1      32.443  10.463  25.512  1.00  0.00     0.000 C 
BRANCH  30  31
HETATM   31  C9  UNL     1      33.700  10.080  26.243  1.00  0.00     0.000 C 
BRANCH  31  32
HETATM   32  C10 UNL     1      33.824   8.597  26.315  1.00  0.00     0.002 C 
BRANCH  32  33
HETATM   33  C11 UNL     1      34.831   8.189  27.362  1.00  0.00     0.027 C 
BRANCH  33  34
HETATM   34  C12 UNL     1      34.951   6.654  27.324  1.00  0.00     0.229 C 
BRANCH  34  35
HETATM   35  N8  UNL     1      33.745   6.014  27.748  1.00  0.00    -0.079 N 
ATOM     36  H83 UNL     1      33.586   6.147  28.747  1.00  0.00     0.274 HD
ATOM     37  H82 UNL     1      32.923   6.499  27.390  1.00  0.00     0.274 HD
ATOM     38  H81 UNL     1      33.731   5.025  27.499  1.00  0.00     0.274 HD
ENDBRANCH  34  35
ENDBRANCH  33  34
ENDBRANCH  32  33
ENDBRANCH  31  32
ENDBRANCH  30  31
ENDBRANCH  29  30
ENDBRANCH  28  29
ENDBRANCH  27  28
ENDBRANCH   1  27
TORSDOF 15
ENDMDL
MODEL 4
REMARK VINA RESULT: -6.175835934      1.113      1.374
REMARK  15 active torsions:
REMARK  status: ('A' for Active; 'I' for Inactive)
REMARK    1  A    between atoms: N1_1  and  C1_4 
REMARK    2  A    between atoms: C2_7  and  N3_8 
REMARK    3  A    between atoms: C3_13  and  N5_14 
REMARK    4  A    between atoms: N5_14  and  C4_16 
REMARK    5  A    between atoms: C4_16  and  N6_17 
REMARK    6  A    between atoms: C4_16  and  N7_21 
REMARK    7  A    between atoms: C4_16  and  C5_25 
REMARK    8  A    between atoms: C5_25  and  C6_26 
REMARK    9  A    between atoms: C6_26  and  C7_27 
REMARK   10  A    between atoms: C7_27  and  C8_28 
REMARK   11  A    between atoms: C8_28  and  C9_29 
REMARK   12  A    between atoms: C9_29  and  C10_30 
REMARK   13  A    between atoms: C10_30  and  C11_31 
REMARK   14  A    between atoms: C11_31  and  C12_32 
REMARK   15  A    between atoms: C12_32  and  N8_33 
ROOT
HETATM    1  C4  UNL     1      29.324  10.613  23.066  1.00  0.00     0.371 C 
ENDROOT
BRANCH   1   2
HETATM    2  N5  UNL     1      29.256  11.646  24.063  1.00  0.00    -0.167 N 
ATOM      3  H5  UNL     1      29.987  11.641  24.775  1.00  0.00     0.182 HD
BRANCH   2   4
HETATM    4  C3  UNL     1      28.377  12.570  24.154  1.00  0.00     0.710 A 
HETATM    5  N4  UNL     1      28.624  13.814  23.652  1.00  0.00    -0.022 N 
HETATM    6  C2  UNL     1      27.722  14.799  23.732  1.00  0.00     0.705 A 
ATOM      7  H4  UNL     1      29.520  13.999  23.203  1.00  0.00     0.203 HD
HETATM    8  N2  UNL     1      26.527  14.605  24.315  1.00  0.00    -0.022 N 
HETATM    9  C1  UNL     1      26.254  13.406  24.814  1.00  0.00     0.705 A 
ATOM     10  H2  UNL     1      25.846  15.361  24.373  1.00  0.00     0.203 HD
HETATM   11  N9  UNL     1      27.171  12.419  24.727  1.00  0.00    -0.022 N 
ATOM     12  H9  UNL     1      26.935  11.507  25.118  1.00  0.00     0.203 HD
BRANCH   6  13
HETATM   13  N3  UNL     1      27.957  15.980  23.256  1.00  0.00    -0.234 N 
ATOM     14  H32 UNL     1      27.345  16.772  23.456  1.00  0.00     0.174 HD
ATOM     15  H31 UNL     1      28.783  16.085  22.667  1.00  0.00     0.174 HD
ENDBRANCH   6  13
BRANCH   9  16
HETATM   16  N1  UNL     1      25.113  13.208  25.374  1.00  0.00    -0.234 N 
ATOM     17  H12 UNL     1      24.309  13.797  25.158  1.00  0.00     0.174 HD
ATOM     18  H11 UNL     1      25.017  12.446  26.047  1.00  0.00     0.174 HD
ENDBRANCH   9  16
ENDBRANCH   2   4
ENDBRANCH   1   2
BRANCH   1  19
HETATM   19  N6  UNL     1      27.999  10.402  22.465  1.00  0.00    -0.026 N 
ATOM     20  H63 UNL     1      27.304  10.131  23.160  1.00  0.00     0.279 HD
ATOM     21  H62 UNL     1      27.574  11.279  22.163  1.00  0.00     0.279 HD
ATOM     22  H61 UNL     1      28.062   9.726  21.705  1.00  0.00     0.279 HD
ENDBRANCH   1  19
BRANCH   1  23
HETATM   23  N7  UNL     1      30.319  10.958  22.093  1.00  0.00    -0.026 N 
ATOM     24  H73 UNL     1      30.056  10.667  21.152  1.00  0.00     0.279 HD
ATOM     25  H72 UNL     1      30.365  11.963  21.927  1.00  0.00     0.279 HD
ATOM     26  H71 UNL     1      31.218  10.572  22.379  1.00  0.00     0.279 HD
ENDBRANCH   1  23
BRANCH   1  27
HETATM   27  C5  UNL     1      29.650   9.279  23.735  1.00  0.00     0.093 C 
BRANCH  27  28
HETATM   28  C6  UNL     1      30.113   9.512  25.178  1.00  0.00     0.006 C 
BRANCH  28  29
HETATM   29  C7  UNL     1      31.605   9.222  25.176  1.00  0.00     0.000 C 
BRANCH  29  30
HETATM   30  C8  UNL     1      32.393  10.461  25.481  1.00  0.00     0.000 C 
BRANCH  30  31
HETATM   31  C9  UNL     1      33.644  10.099  26.233  1.00  0.00     0.000 C 
BRANCH  31  32
HETATM   32  C10 UNL     1      33.787   8.618  26.314  1.00  0.00     0.002 C 
BRANCH  32  33
HETATM   33  C11 UNL     1      34.784   8.229  27.378  1.00  0.00     0.027 C 
BRANCH  33  34
HETATM   34  C12 UNL     1      34.983   6.704  27.299  1.00  0.00     0.229 C 
BRANCH  34  35
HETATM   35  N8  UNL     1      33.833   5.991  27.760  1.00  0.00    -0.079 N 
ATOM     36  H83 UNL     1      33.753   6.034  28.776  1.00  0.00     0.274 HD
ATOM     37  H82 UNL     1      32.971   6.476  27.511  1.00  0.00     0.274 HD
ATOM     38  H81 UNL     1      33.825   5.026  27.429  1.00  0.00     0.274 HD
ENDBRANCH  34  35
ENDBRANCH  33  34
ENDBRANCH  32  33
ENDBRANCH  31  32
ENDBRANCH  30  31
ENDBRANCH  29  30
ENDBRANCH  28  29
ENDBRANCH  27  28
ENDBRANCH   1  27
TORSDOF 15
ENDMDL
MODEL 5
REMARK VINA RESULT: -6.031773299      1.056      1.984
REMARK  15 active torsions:
REMARK  status: ('A' for Active; 'I' for Inactive)
REMARK    1  A    between atoms: N1_1  and  C1_4 
REMARK    2  A    between atoms: C2_7  and  N3_8 
REMARK    3  A    between atoms: C3_13  and  N5_14 
REMARK    4  A    between atoms: N5_14  and  C4_16 
REMARK    5  A    between atoms: C4_16  and  N6_17 
REMARK    6  A    between atoms: C4_16  and  N7_21 
REMARK    7  A    between atoms: C4_16  and  C5_25 
REMARK    8  A    between atoms: C5_25  and  C6_26 
REMARK    9  A    between atoms: C6_26  and  C7_27 
REMARK   10  A    between atoms: C7_27  and  C8_28 
REMARK   11  A    between atoms: C8_28  and  C9_29 
REMARK   12  A    between atoms: C9_29  and  C10_30 
REMARK   13  A    between atoms: C10_30  and  C11_31 
REMARK   14  A    between atoms: C11_31  and  C12_32 
REMARK   15  A    between atoms: C12_32  and  N8_33 
ROOT
HETATM    1  C4  UNL     1      29.283   9.669  24.257  1.00  0.00     0.371 C 
ENDROOT
BRANCH   1   2
HETATM    2  N5  UNL     1      28.789  10.662  25.171  1.00  0.00    -0.167 N 
ATOM      3  H5  UNL     1      28.916  10.470  26.164  1.00  0.00     0.182 HD
BRANCH   2   4
HETATM    4  C3  UNL     1      28.206  11.759  24.871  1.00  0.00     0.710 A 
HETATM    5  N4  UNL     1      26.888  11.950  25.168  1.00  0.00    -0.022 N 
HETATM    6  C2  UNL     1      26.254  13.089  24.866  1.00  0.00     0.705 A 
ATOM      7  H4  UNL     1      26.372  11.203  25.633  1.00  0.00     0.203 HD
HETATM    8  N2  UNL     1      26.891  14.100  24.253  1.00  0.00    -0.022 N 
HETATM    9  C1  UNL     1      28.174  13.948  23.949  1.00  0.00     0.705 A 
ATOM     10  H2  UNL     1      26.400  14.964  24.026  1.00  0.00     0.203 HD
HETATM   11  N9  UNL     1      28.805  12.795  24.259  1.00  0.00    -0.022 N 
ATOM     12  H9  UNL     1      29.791  12.706  24.015  1.00  0.00     0.203 HD
BRANCH   6  13
HETATM   13  N3  UNL     1      25.003  13.268  25.148  1.00  0.00    -0.234 N 
ATOM     14  H32 UNL     1      24.648  14.170  25.467  1.00  0.00     0.174 HD
ATOM     15  H31 UNL     1      24.384  12.465  25.039  1.00  0.00     0.174 HD
ENDBRANCH   6  13
BRANCH   9  16
HETATM   16  N1  UNL     1      28.795  14.910  23.362  1.00  0.00    -0.234 N 
ATOM     17  H12 UNL     1      29.115  15.727  23.883  1.00  0.00     0.174 HD
ATOM     18  H11 UNL     1      28.967  14.849  22.359  1.00  0.00     0.174 HD
ENDBRANCH   9  16
ENDBRANCH   2   4
ENDBRANCH   1   2
BRANCH   1  19
HETATM   19  N6  UNL     1      29.260   8.342  24.889  1.00  0.00    -0.026 N 
ATOM     20  H63 UNL     1      28.316   7.961  24.941  1.00  0.00     0.279 HD
ATOM     21  H62 UNL     1      29.679   7.628  24.293  1.00  0.00     0.279 HD
ATOM     22  H61 UNL     1      29.705   8.383  25.806  1.00  0.00     0.279 HD
ENDBRANCH   1  19
BRANCH   1  23
HETATM   23  N7  UNL     1      28.516   9.713  23.047  1.00  0.00    -0.026 N 
ATOM     24  H73 UNL     1      29.018  10.172  22.287  1.00  0.00     0.279 HD
ATOM     25  H72 UNL     1      28.416   8.792  22.619  1.00  0.00     0.279 HD
ATOM     26  H71 UNL     1      27.614  10.151  23.235  1.00  0.00     0.279 HD
ENDBRANCH   1  23
BRANCH   1  27
HETATM   27  C5  UNL     1      30.764   9.926  23.977  1.00  0.00     0.093 C 
BRANCH  27  28
HETATM   28  C6  UNL     1      31.615   9.434  25.152  1.00  0.00     0.006 C 
BRANCH  28  29
HETATM   29  C7  UNL     1      32.554  10.583  25.481  1.00  0.00     0.000 C 
BRANCH  29  30
HETATM   30  C8  UNL     1      33.739  10.099  26.264  1.00  0.00     0.000 C 
BRANCH  30  31
HETATM   31  C9  UNL     1      33.771   8.595  26.266  1.00  0.00     0.000 C 
BRANCH  31  32
HETATM   32  C10 UNL     1      34.654   8.099  27.359  1.00  0.00     0.002 C 
BRANCH  32  33
HETATM   33  C11 UNL     1      35.655   7.100  26.832  1.00  0.00     0.027 C 
BRANCH  33  34
HETATM   34  C12 UNL     1      35.640   5.882  27.774  1.00  0.00     0.229 C 
BRANCH  34  35
HETATM   35  N8  UNL     1      34.320   5.363  27.954  1.00  0.00    -0.079 N 
ATOM     36  H83 UNL     1      33.690   6.073  28.326  1.00  0.00     0.274 HD
ATOM     37  H82 UNL     1      33.862   5.196  27.058  1.00  0.00     0.274 HD
ATOM     38  H81 UNL     1      34.317   4.523  28.534  1.00  0.00     0.274 HD
ENDBRANCH  34  35
ENDBRANCH  33  34
ENDBRANCH  32  33
ENDBRANCH  31  32
ENDBRANCH  30  31
ENDBRANCH  29  30
ENDBRANCH  28  29
ENDBRANCH  27  28
ENDBRANCH   1  27
TORSDOF 15
ENDMDL
