MODEL 1
REMARK VINA RESULT: -3.428878952      0.000      0.000
REMARK  11 active torsions:
REMARK  status: ('A' for Active; 'I' for Inactive)
REMARK    1  A    between atoms: C2_2  and  C3_3 
REMARK    2  A    between atoms: C3_3  and  N1_4 
REMARK    3  A    between atoms: N1_4  and  C4_6 
REMARK    4  A    between atoms: C4_6  and  C5_7 
REMARK    5  A    between atoms: C5_7  and  C6_8 
REMARK    6  A    between atoms: C6_8  and  C7_9 
REMARK    7  A    between atoms: C7_9  and  N2_10 
REMARK    8  A    between atoms: N2_10  and  C8_11 
REMARK    9  A    between atoms: C9_14  and  N4_15 
REMARK   10  A    between atoms: C11_21  and  N6_22 
REMARK   11  A    between atoms: C12_27  and  N8_28 
ROOT
HETATM    1  C8  UNL     1      28.549  12.208  23.798  1.00  0.00     0.222 A 
HETATM    2  N3  UNL     1      28.091  11.176  24.568  1.00  0.00    -0.162 N 
ATOM      3  H3  UNL     1      28.518  10.257  24.454  1.00  0.00     0.187 HD
HETATM    4  C9  UNL     1      27.119  11.319  25.454  1.00  0.00     0.678 A 
HETATM    5  N5  UNL     1      26.531  12.530  25.627  1.00  0.00    -0.186 N 
ATOM      6  H5  UNL     1      25.781  12.638  26.310  1.00  0.00     0.184 HD
HETATM    7  C10 UNL     1      26.931  13.584  24.906  1.00  0.00     0.125 A 
HETATM    8  C11 UNL     1      26.364  14.843  25.043  1.00  0.00     0.144 A 
HETATM    9  N7  UNL     1      26.817  15.885  24.274  1.00  0.00    -0.175 N 
ATOM     10  H7  UNL     1      26.397  16.808  24.380  1.00  0.00     0.186 HD
HETATM   11  C12 UNL     1      27.795  15.705  23.394  1.00  0.00     0.678 A 
HETATM   12  N9  UNL     1      28.364  14.500  23.237  1.00  0.00    -0.185 N 
ATOM     13  H9  UNL     1      29.116  14.371  22.560  1.00  0.00     0.184 HD
HETATM   14  C13 UNL     1      27.931  13.447  23.991  1.00  0.00     0.138 A 
ENDROOT
BRANCH   1  15
HETATM   15  N2  UNL     1      29.441  12.081  22.984  1.00  0.00    -0.401 NA
BRANCH  15  16
HETATM   16  C7  UNL     1      30.384  11.838  22.081  1.00  0.00     0.157 C 
BRANCH  16  17
HETATM   17  C6  UNL     1      30.364  10.375  21.642  1.00  0.00     0.061 C 
BRANCH  17  18
HETATM   18  C5  UNL     1      31.024   9.474  22.620  1.00  0.00     0.025 C 
BRANCH  18  19
HETATM   19  C4  UNL     1      30.088   8.658  23.474  1.00  0.00     0.114 C 
BRANCH  19  20
HETATM   20  N1  UNL     1      30.517   8.711  24.828  1.00  0.00    -0.418 N 
ATOM     21  H1  UNL     1      30.316   7.960  25.488  1.00  0.00     0.153 HD
BRANCH  20  22
HETATM   22  C3  UNL     1      31.244   9.874  25.209  1.00  0.00     0.140 C 
BRANCH  22  23
HETATM   23  C2  UNL     1      32.618   9.609  25.669  1.00  0.00    -0.018 C 
HETATM   24  C1  UNL     1      33.421  10.599  25.996  1.00  0.00     0.008 C 
ENDBRANCH  22  23
ENDBRANCH  20  22
ENDBRANCH  19  20
ENDBRANCH  18  19
ENDBRANCH  17  18
ENDBRANCH  16  17
ENDBRANCH  15  16
ENDBRANCH   1  15
BRANCH   4  25
HETATM   25  N4  UNL     1      26.690  10.322  26.182  1.00  0.00    -0.234 N 
ATOM     26  H42 UNL     1      27.302   9.515  26.295  1.00  0.00     0.174 HD
ATOM     27  H41 UNL     1      25.775  10.334  26.634  1.00  0.00     0.174 HD
ENDBRANCH   4  25
BRANCH   8  28
HETATM   28  N6  UNL     1      25.430  15.046  25.873  1.00  0.00    -0.383 N 
ATOM     29  H62 UNL     1      25.590  15.678  26.659  1.00  0.00     0.157 HD
ATOM     30  H61 UNL     1      24.526  14.587  25.766  1.00  0.00     0.157 HD
ENDBRANCH   8  28
BRANCH  11  31
HETATM   31  N8  UNL     1      28.185  16.720  22.694  1.00  0.00    -0.234 N 
ATOM     32  H82 UNL     1      27.637  17.579  22.667  1.00  0.00     0.174 HD
ATOM     33  H81 UNL     1      29.055  16.640  22.168  1.00  0.00     0.174 HD
ENDBRANCH  11  31
TORSDOF 11
ENDMDL
MODEL 2
REMARK VINA RESULT: -3.209787300      3.460      5.658
REMARK  11 active torsions:
REMARK  status: ('A' for Active; 'I' for Inactive)
REMARK    1  A    between atoms: C2_2  and  C3_3 
REMARK    2  A    between atoms: C3_3  and  N1_4 
REMARK    3  A    between atoms: N1_4  and  C4_6 
REMARK    4  A    between atoms: C4_6  and  C5_7 
REMARK    5  A    between atoms: C5_7  and  C6_8 
REMARK    6  A    between atoms: C6_8  and  C7_9 
REMARK    7  A    between atoms: C7_9  and  N2_10 
REMARK    8  A    between atoms: N2_10  and  C8_11 
REMARK    9  A    between atoms: C9_14  and  N4_15 
REMARK   10  A    between atoms: C11_21  and  N6_22 
REMARK   11  A    between atoms: C12_27  and  N8_28 
ROOT
HETATM    1  C8  UNL     1      30.593   9.941  25.220  1.00  0.00     0.222 A 
HETATM    2  N3  UNL     1      29.529  10.052  26.070  1.00  0.00    -0.162 N 
ATOM      3  H3  UNL     1      29.711  10.117  27.072  1.00  0.00     0.187 HD
HETATM    4  C9  UNL     1      28.274  10.079  25.651  1.00  0.00     0.678 A 
HETATM    5  N5  UNL     1      28.002   9.994  24.324  1.00  0.00    -0.186 N 
ATOM      6  H5  UNL     1      27.033  10.014  24.003  1.00  0.00     0.184 HD
HETATM    7  C10 UNL     1      28.996   9.882  23.436  1.00  0.00     0.125 A 
HETATM    8  C11 UNL     1      28.771   9.791  22.070  1.00  0.00     0.144 A 
HETATM    9  N7  UNL     1      29.832   9.678  21.208  1.00  0.00    -0.175 N 
ATOM     10  H7  UNL     1      29.662   9.612  20.204  1.00  0.00     0.186 HD
HETATM   11  C12 UNL     1      31.079   9.654  21.664  1.00  0.00     0.678 A 
HETATM   12  N9  UNL     1      31.330   9.741  22.980  1.00  0.00    -0.185 N 
ATOM     13  H9  UNL     1      32.291   9.723  23.322  1.00  0.00     0.184 HD
HETATM   14  C13 UNL     1      30.290   9.854  23.858  1.00  0.00     0.138 A 
ENDROOT
BRANCH   1  15
HETATM   15  N2  UNL     1      31.745   9.916  25.601  1.00  0.00    -0.401 NA
BRANCH  15  16
HETATM   16  C7  UNL     1      33.002   9.999  26.022  1.00  0.00     0.157 C 
BRANCH  16  17
HETATM   17  C6  UNL     1      33.658   8.621  26.075  1.00  0.00     0.061 C 
BRANCH  17  18
HETATM   18  C5  UNL     1      34.513   8.439  27.276  1.00  0.00     0.025 C 
BRANCH  18  19
HETATM   19  C4  UNL     1      35.278   7.142  27.327  1.00  0.00     0.114 C 
BRANCH  19  20
HETATM   20  N1  UNL     1      34.412   6.101  27.759  1.00  0.00    -0.418 N 
ATOM     21  H1  UNL     1      33.437   6.276  28.005  1.00  0.00     0.153 HD
BRANCH  20  22
HETATM   22  C3  UNL     1      34.985   4.800  27.831  1.00  0.00     0.140 C 
BRANCH  22  23
HETATM   23  C2  UNL     1      36.457   4.785  27.866  1.00  0.00    -0.018 C 
HETATM   24  C1  UNL     1      37.101   4.406  28.950  1.00  0.00     0.008 C 
ENDBRANCH  22  23
ENDBRANCH  20  22
ENDBRANCH  19  20
ENDBRANCH  18  19
ENDBRANCH  17  18
ENDBRANCH  16  17
ENDBRANCH  15  16
ENDBRANCH   1  15
BRANCH   4  25
HETATM   25  N4  UNL     1      27.267  10.184  26.476  1.00  0.00    -0.234 N 
ATOM     26  H42 UNL     1      27.451  10.060  27.472  1.00  0.00     0.174 HD
ATOM     27  H41 UNL     1      26.320  10.386  26.155  1.00  0.00     0.174 HD
ENDBRANCH   4  25
BRANCH   8  28
HETATM   28  N6  UNL     1      27.594   9.811  21.603  1.00  0.00    -0.383 N 
ATOM     29  H62 UNL     1      27.401  10.352  20.759  1.00  0.00     0.157 HD
ATOM     30  H61 UNL     1      26.841   9.297  22.060  1.00  0.00     0.157 HD
ENDBRANCH   8  28
BRANCH  11  31
HETATM   31  N8  UNL     1      32.044   9.547  20.810  1.00  0.00    -0.234 N 
ATOM     32  H82 UNL     1      32.926  10.039  20.950  1.00  0.00     0.174 HD
ATOM     33  H81 UNL     1      31.900   8.958  19.990  1.00  0.00     0.174 HD
ENDBRANCH  11  31
TORSDOF 11
ENDMDL
MODEL 3
REMARK VINA RESULT: -2.998291447      0.618      3.153
REMARK  11 active torsions:
REMARK  status: ('A' for Active; 'I' for Inactive)
REMARK    1  A    between atoms: C2_2  and  C3_3 
REMARK    2  A    between atoms: C3_3  and  N1_4 
REMARK    3  A    between atoms: N1_4  and  C4_6 
REMARK    4  A    between atoms: C4_6  and  C5_7 
REMARK    5  A    between atoms: C5_7  and  C6_8 
REMARK    6  A    between atoms: C6_8  and  C7_9 
REMARK    7  A    between atoms: C7_9  and  N2_10 
REMARK    8  A    between atoms: N2_10  and  C8_11 
REMARK    9  A    between atoms: C9_14  and  N4_15 
REMARK   10  A    between atoms: C11_21  and  N6_22 
REMARK   11  A    between atoms: C12_27  and  N8_28 
ROOT
HETATM    1  C8  UNL     1      28.886  13.495  23.152  1.00  0.00     0.222 A 
HETATM    2  N3  UNL     1      28.768  14.815  22.818  1.00  0.00    -0.162 N 
ATOM      3  H3  UNL     1      29.429  15.209  22.147  1.00  0.00     0.187 HD
HETATM    4  C9  UNL     1      27.836  15.604  23.327  1.00  0.00     0.678 A 
HETATM    5  N5  UNL     1      26.943  15.108  24.222  1.00  0.00    -0.186 N 
ATOM      6  H5  UNL     1      26.225  15.718  24.614  1.00  0.00     0.184 HD
HETATM    7  C10 UNL     1      27.001  13.825  24.594  1.00  0.00     0.125 A 
HETATM    8  C11 UNL     1      26.115  13.269  25.505  1.00  0.00     0.144 A 
HETATM    9  N7  UNL     1      26.225  11.945  25.847  1.00  0.00    -0.175 N 
ATOM     10  H7  UNL     1      25.570  11.541  26.516  1.00  0.00     0.186 HD
HETATM   11  C12 UNL     1      27.175  11.182  25.316  1.00  0.00     0.678 A 
HETATM   12  N9  UNL     1      28.048  11.690  24.432  1.00  0.00    -0.185 N 
ATOM     13  H9  UNL     1      28.773  11.097  24.028  1.00  0.00     0.184 HD
HETATM   14  C13 UNL     1      27.958  13.005  24.075  1.00  0.00     0.138 A 
ENDROOT
BRANCH   1  15
HETATM   15  N2  UNL     1      29.740  12.769  22.687  1.00  0.00    -0.401 NA
BRANCH  15  16
HETATM   16  C7  UNL     1      30.598  11.935  22.110  1.00  0.00     0.157 C 
BRANCH  16  17
HETATM   17  C6  UNL     1      29.990  10.545  21.945  1.00  0.00     0.061 C 
BRANCH  17  18
HETATM   18  C5  UNL     1      30.737   9.500  22.690  1.00  0.00     0.025 C 
BRANCH  18  19
HETATM   19  C4  UNL     1      29.903   8.648  23.611  1.00  0.00     0.114 C 
BRANCH  19  20
HETATM   20  N1  UNL     1      30.443   8.705  24.925  1.00  0.00    -0.418 N 
ATOM     21  H1  UNL     1      30.313   7.947  25.595  1.00  0.00     0.153 HD
BRANCH  20  22
HETATM   22  C3  UNL     1      31.176   9.880  25.249  1.00  0.00     0.140 C 
BRANCH  22  23
HETATM   23  C2  UNL     1      32.573   9.635  25.649  1.00  0.00    -0.018 C 
HETATM   24  C1  UNL     1      33.371  10.637  25.953  1.00  0.00     0.008 C 
ENDBRANCH  22  23
ENDBRANCH  20  22
ENDBRANCH  19  20
ENDBRANCH  18  19
ENDBRANCH  17  18
ENDBRANCH  16  17
ENDBRANCH  15  16
ENDBRANCH   1  15
BRANCH   4  25
HETATM   25  N4  UNL     1      27.736  16.865  23.000  1.00  0.00    -0.234 N 
ATOM     26  H42 UNL     1      27.402  17.090  22.063  1.00  0.00     0.174 HD
ATOM     27  H41 UNL     1      27.978  17.615  23.647  1.00  0.00     0.174 HD
ENDBRANCH   4  25
BRANCH   8  28
HETATM   28  N6  UNL     1      25.199  13.969  26.028  1.00  0.00    -0.383 N 
ATOM     29  H62 UNL     1      24.872  14.806  25.544  1.00  0.00     0.157 HD
ATOM     30  H61 UNL     1      24.788  13.707  26.924  1.00  0.00     0.157 HD
ENDBRANCH   8  28
BRANCH  11  31
HETATM   31  N8  UNL     1      27.235   9.941  25.672  1.00  0.00    -0.234 N 
ATOM     32  H82 UNL     1      27.791   9.270  25.142  1.00  0.00     0.174 HD
ATOM     33  H81 UNL     1      26.712   9.648  26.496  1.00  0.00     0.174 HD
ENDBRANCH  11  31
TORSDOF 11
ENDMDL
MODEL 4
REMARK VINA RESULT: -2.969373241      1.936      6.330
REMARK  11 active torsions:
REMARK  status: ('A' for Active; 'I' for Inactive)
REMARK    1  A    between atoms: C2_2  and  C3_3 
REMARK    2  A    between atoms: C3_3  and  N1_4 
REMARK    3  A    between atoms: N1_4  and  C4_6 
REMARK    4  A    between atoms: C4_6  and  C5_7 
REMARK    5  A    between atoms: C5_7  and  C6_8 
REMARK    6  A    between atoms: C6_8  and  C7_9 
REMARK    7  A    between atoms: C7_9  and  N2_10 
REMARK    8  A    between atoms: N2_10  and  C8_11 
REMARK    9  A    between atoms: C9_14  and  N4_15 
REMARK   10  A    between atoms: C11_21  and  N6_22 
REMARK   11  A    between atoms: C12_27  and  N8_28 
ROOT
HETATM    1  C8  UNL     1      29.500  10.120  25.165  1.00  0.00     0.222 A 
HETATM    2  N3  UNL     1      30.693  10.146  25.830  1.00  0.00    -0.162 N 
ATOM      3  H3  UNL     1      30.685  10.283  26.841  1.00  0.00     0.187 HD
HETATM    4  C9  UNL     1      31.859  10.002  25.220  1.00  0.00     0.678 A 
HETATM    5  N5  UNL     1      31.901   9.818  23.875  1.00  0.00    -0.186 N 
ATOM      6  H5  UNL     1      32.800   9.708  23.406  1.00  0.00     0.184 HD
HETATM    7  C10 UNL     1      30.770   9.783  23.162  1.00  0.00     0.125 A 
HETATM    8  C11 UNL     1      30.758   9.599  21.787  1.00  0.00     0.144 A 
HETATM    9  N7  UNL     1      29.564   9.571  21.111  1.00  0.00    -0.175 N 
ATOM     10  H7  UNL     1      29.561   9.435  20.100  1.00  0.00     0.186 HD
HETATM   11  C12 UNL     1      28.413   9.720  21.757  1.00  0.00     0.678 A 
HETATM   12  N9  UNL     1      28.391   9.899  23.086  1.00  0.00    -0.185 N 
ATOM     13  H9  UNL     1      27.502  10.012  23.575  1.00  0.00     0.184 HD
HETATM   14  C13 UNL     1      29.565   9.930  23.782  1.00  0.00     0.138 A 
ENDROOT
BRANCH   1  15
HETATM   15  N2  UNL     1      28.430  10.252  25.723  1.00  0.00    -0.401 NA
BRANCH  15  16
HETATM   16  C7  UNL     1      27.238  10.478  26.264  1.00  0.00     0.157 C 
BRANCH  16  17
HETATM   17  C6  UNL     1      26.565  11.692  25.628  1.00  0.00     0.061 C 
BRANCH  17  18
HETATM   18  C5  UNL     1      27.440  12.892  25.615  1.00  0.00     0.025 C 
BRANCH  18  19
HETATM   19  C4  UNL     1      27.852  13.369  24.246  1.00  0.00     0.114 C 
BRANCH  19  20
HETATM   20  N1  UNL     1      26.897  14.306  23.767  1.00  0.00    -0.418 N 
ATOM     21  H1  UNL     1      26.449  14.202  22.856  1.00  0.00     0.153 HD
BRANCH  20  22
HETATM   22  C3  UNL     1      26.603  15.397  24.631  1.00  0.00     0.140 C 
BRANCH  22  23
HETATM   23  C2  UNL     1      27.307  16.647  24.294  1.00  0.00    -0.018 C 
HETATM   24  C1  UNL     1      27.761  16.857  23.076  1.00  0.00     0.008 C 
ENDBRANCH  22  23
ENDBRANCH  20  22
ENDBRANCH  19  20
ENDBRANCH  18  19
ENDBRANCH  17  18
ENDBRANCH  16  17
ENDBRANCH  15  16
ENDBRANCH   1  15
BRANCH   4  25
HETATM   25  N4  UNL     1      32.992  10.031  25.868  1.00  0.00    -0.234 N 
ATOM     26  H42 UNL     1      33.554  10.880  25.809  1.00  0.00     0.174 HD
ATOM     27  H41 UNL     1      33.322   9.241  26.423  1.00  0.00     0.174 HD
ENDBRANCH   4  25
BRANCH   8  28
HETATM   28  N6  UNL     1      31.838   9.454  21.143  1.00  0.00    -0.383 N 
ATOM     29  H62 UNL     1      32.690   9.892  21.493  1.00  0.00     0.157 HD
ATOM     30  H61 UNL     1      31.863   8.909  20.281  1.00  0.00     0.157 HD
ENDBRANCH   8  28
BRANCH  11  31
HETATM   31  N8  UNL     1      27.317   9.686  21.073  1.00  0.00    -0.234 N 
ATOM     32  H82 UNL     1      27.224  10.212  20.204  1.00  0.00     0.174 HD
ATOM     33  H81 UNL     1      26.544   9.120  21.423  1.00  0.00     0.174 HD
ENDBRANCH  11  31
TORSDOF 11
ENDMDL
MODEL 5
REMARK VINA RESULT: -2.833914798      1.096      1.330
REMARK  11 active torsions:
REMARK  status: ('A' for Active; 'I' for Inactive)
REMARK    1  A    between atoms: C2_2  and  C3_3 
REMARK    2  A    between atoms: C3_3  and  N1_4 
REMARK    3  A    between atoms: N1_4  and  C4_6 
REMARK    4  A    between atoms: C4_6  and  C5_7 
REMARK    5  A    between atoms: C5_7  and  C6_8 
REMARK    6  A    between atoms: C6_8  and  C7_9 
REMARK    7  A    between atoms: C7_9  and  N2_10 
REMARK    8  A    between atoms: N2_10  and  C8_11 
REMARK    9  A    between atoms: C9_14  and  N4_15 
REMARK   10  A    between atoms: C11_21  and  N6_22 
REMARK   11  A    between atoms: C12_27  and  N8_28 
ROOT
HETATM    1  C8  UNL     1      28.682  11.769  23.848  1.00  0.00     0.222 A 
HETATM    2  N3  UNL     1      28.283  10.715  24.621  1.00  0.00    -0.162 N 
ATOM      3  H3  UNL     1      28.752   9.817  24.501  1.00  0.00     0.187 HD
HETATM    4  C9  UNL     1      27.315  10.809  25.519  1.00  0.00     0.678 A 
HETATM    5  N5  UNL     1      26.672  11.991  25.700  1.00  0.00    -0.186 N 
ATOM      6  H5  UNL     1      25.926  12.061  26.392  1.00  0.00     0.184 HD
HETATM    7  C10 UNL     1      27.012  13.063  24.977  1.00  0.00     0.125 A 
HETATM    8  C11 UNL     1      26.386  14.293  25.123  1.00  0.00     0.144 A 
HETATM    9  N7  UNL     1      26.780  15.357  24.351  1.00  0.00    -0.175 N 
ATOM     10  H7  UNL     1      26.317  16.259  24.463  1.00  0.00     0.186 HD
HETATM   11  C12 UNL     1      27.756  15.226  23.459  1.00  0.00     0.678 A 
HETATM   12  N9  UNL     1      28.380  14.050  23.294  1.00  0.00    -0.185 N 
ATOM     13  H9  UNL     1      29.129  13.958  22.608  1.00  0.00     0.184 HD
HETATM   14  C13 UNL     1      28.007  12.976  24.051  1.00  0.00     0.138 A 
ENDROOT
BRANCH   1  15
HETATM   15  N2  UNL     1      29.570  11.686  23.024  1.00  0.00    -0.401 NA
BRANCH  15  16
HETATM   16  C7  UNL     1      30.561  11.494  22.162  1.00  0.00     0.157 C 
BRANCH  16  17
HETATM   17  C6  UNL     1      31.036  10.043  22.179  1.00  0.00     0.061 C 
BRANCH  17  18
HETATM   18  C5  UNL     1      31.015   9.450  23.541  1.00  0.00     0.025 C 
BRANCH  18  19
HETATM   19  C4  UNL     1      31.815  10.195  24.577  1.00  0.00     0.114 C 
BRANCH  19  20
HETATM   20  N1  UNL     1      32.395   9.266  25.483  1.00  0.00    -0.418 N 
ATOM     21  H1  UNL     1      31.957   8.367  25.689  1.00  0.00     0.153 HD
BRANCH  20  22
HETATM   22  C3  UNL     1      33.621   9.662  26.086  1.00  0.00     0.140 C 
BRANCH  22  23
HETATM   23  C2  UNL     1      34.038   8.824  27.225  1.00  0.00    -0.018 C 
HETATM   24  C1  UNL     1      34.834   7.792  27.044  1.00  0.00     0.008 C 
ENDBRANCH  22  23
ENDBRANCH  20  22
ENDBRANCH  19  20
ENDBRANCH  18  19
ENDBRANCH  17  18
ENDBRANCH  16  17
ENDBRANCH  15  16
ENDBRANCH   1  15
BRANCH   4  25
HETATM   25  N4  UNL     1      26.943   9.792  26.250  1.00  0.00    -0.234 N 
ATOM     26  H42 UNL     1      27.428   9.637  27.133  1.00  0.00     0.174 HD
ATOM     27  H41 UNL     1      26.192   9.164  25.965  1.00  0.00     0.174 HD
ENDBRANCH   4  25
BRANCH   8  28
HETATM   28  N6  UNL     1      25.454  14.450  25.964  1.00  0.00    -0.383 N 
ATOM     29  H62 UNL     1      24.516  14.680  25.633  1.00  0.00     0.157 HD
ATOM     30  H61 UNL     1      25.629  14.352  26.964  1.00  0.00     0.157 HD
ENDBRANCH   8  28
BRANCH  11  31
HETATM   31  N8  UNL     1      28.088  16.259  22.757  1.00  0.00    -0.234 N 
ATOM     32  H82 UNL     1      28.278  17.156  23.203  1.00  0.00     0.174 HD
ATOM     33  H81 UNL     1      28.154  16.156  21.745  1.00  0.00     0.174 HD
ENDBRANCH  11  31
TORSDOF 11
ENDMDL
