MODEL 1
REMARK VINA RESULT: -3.460360998      0.000      0.000
REMARK  11 active torsions:
REMARK  status: ('A' for Active; 'I' for Inactive)
REMARK    1  A    between atoms: C2_2  and  C3_3 
REMARK    2  A    between atoms: C3_3  and  C4_4 
REMARK    3  A    between atoms: C4_4  and  C5_5 
REMARK    4  A    between atoms: C5_5  and  N1_6 
REMARK    5  A    between atoms: N1_6  and  C6_8 
REMARK    6  A    between atoms: C6_8  and  C7_9 
REMARK    7  A    between atoms: C7_9  and  N2_10 
REMARK    8  A    between atoms: N2_10  and  C8_11 
REMARK    9  A    between atoms: C9_14  and  N4_15 
REMARK   10  A    between atoms: C11_21  and  N6_22 
REMARK   11  A    between atoms: C12_27  and  N8_28 
ROOT
HETATM    1  C8  UNL     1      30.745   9.816  25.218  1.00  0.00     0.222 A 
HETATM    2  N3  UNL     1      29.693   9.921  26.079  1.00  0.00    -0.162 N 
ATOM      3  H3  UNL     1      29.884   9.953  27.081  1.00  0.00     0.187 HD
HETATM    4  C9  UNL     1      28.452   9.981  25.678  1.00  0.00     0.678 A 
HETATM    5  N5  UNL     1      28.126   9.943  24.359  1.00  0.00    -0.186 N 
ATOM      6  H5  UNL     1      27.153   9.991  24.058  1.00  0.00     0.184 HD
HETATM    7  C10 UNL     1      29.126   9.840  23.461  1.00  0.00     0.125 A 
HETATM    8  C11 UNL     1      28.876   9.794  22.090  1.00  0.00     0.144 A 
HETATM    9  N7  UNL     1      29.893   9.690  21.204  1.00  0.00    -0.175 N 
ATOM     10  H7  UNL     1      29.701   9.657  20.203  1.00  0.00     0.186 HD
HETATM   11  C12 UNL     1      31.148   9.632  21.649  1.00  0.00     0.678 A 
HETATM   12  N9  UNL     1      31.442   9.671  22.949  1.00  0.00    -0.185 N 
ATOM     13  H9  UNL     1      32.412   9.623  23.262  1.00  0.00     0.184 HD
HETATM   14  C13 UNL     1      30.433   9.775  23.851  1.00  0.00     0.138 A 
ENDROOT
BRANCH   1  15
HETATM   15  N2  UNL     1      31.884   9.763  25.581  1.00  0.00    -0.399 NA
BRANCH  15  16
HETATM   16  C7  UNL     1      33.134   9.746  25.974  1.00  0.00     0.176 C 
BRANCH  16  17
HETATM   17  C6  UNL     1      33.581   8.436  26.696  1.00  0.00     0.173 C 
BRANCH  17  18
HETATM   18  N1  UNL     1      34.988   8.553  26.845  1.00  0.00    -0.416 N 
ATOM     19  H1  UNL     1      35.465   9.455  26.818  1.00  0.00     0.153 HD
BRANCH  18  20
HETATM   20  C5  UNL     1      35.700   7.316  27.038  1.00  0.00     0.114 C 
BRANCH  20  21
HETATM   21  C4  UNL     1      34.713   6.255  27.446  1.00  0.00     0.023 C 
BRANCH  21  22
HETATM   22  C3  UNL     1      35.345   4.902  27.472  1.00  0.00     0.028 C 
BRANCH  22  23
HETATM   23  C2  UNL     1      36.777   5.029  27.814  1.00  0.00    -0.037 C 
HETATM   24  C1  UNL     1      37.219   4.500  28.940  1.00  0.00     0.007 C 
ENDBRANCH  22  23
ENDBRANCH  21  22
ENDBRANCH  20  21
ENDBRANCH  18  20
ENDBRANCH  17  18
ENDBRANCH  16  17
ENDBRANCH  15  16
ENDBRANCH   1  15
BRANCH   4  25
HETATM   25  N4  UNL     1      27.449  10.078  26.509  1.00  0.00    -0.234 N 
ATOM     26  H42 UNL     1      27.582  10.719  27.293  1.00  0.00     0.174 HD
ATOM     27  H41 UNL     1      26.584   9.552  26.389  1.00  0.00     0.174 HD
ENDBRANCH   4  25
BRANCH   8  28
HETATM   28  N6  UNL     1      27.691   9.849  21.652  1.00  0.00    -0.383 N 
ATOM     29  H62 UNL     1      26.925   9.600  22.277  1.00  0.00     0.157 HD
ATOM     30  H61 UNL     1      27.507  10.135  20.690  1.00  0.00     0.157 HD
ENDBRANCH   8  28
BRANCH  11  31
HETATM   31  N8  UNL     1      32.084   9.532  20.746  1.00  0.00    -0.234 N 
ATOM     32  H82 UNL     1      32.927  10.104  20.793  1.00  0.00     0.174 HD
ATOM     33  H81 UNL     1      31.930   8.855  19.999  1.00  0.00     0.174 HD
ENDBRANCH  11  31
TORSDOF 11
ENDMDL
MODEL 2
REMARK VINA RESULT: -3.310165299      3.436      5.579
REMARK  11 active torsions:
REMARK  status: ('A' for Active; 'I' for Inactive)
REMARK    1  A    between atoms: C2_2  and  C3_3 
REMARK    2  A    between atoms: C3_3  and  C4_4 
REMARK    3  A    between atoms: C4_4  and  C5_5 
REMARK    4  A    between atoms: C5_5  and  N1_6 
REMARK    5  A    between atoms: N1_6  and  C6_8 
REMARK    6  A    between atoms: C6_8  and  C7_9 
REMARK    7  A    between atoms: C7_9  and  N2_10 
REMARK    8  A    between atoms: N2_10  and  C8_11 
REMARK    9  A    between atoms: C9_14  and  N4_15 
REMARK   10  A    between atoms: C11_21  and  N6_22 
REMARK   11  A    between atoms: C12_27  and  N8_28 
ROOT
HETATM    1  C8  UNL     1      28.589  12.121  23.823  1.00  0.00     0.222 A 
HETATM    2  N3  UNL     1      28.159  11.105  24.624  1.00  0.00    -0.162 N 
ATOM      3  H3  UNL     1      28.581  10.183  24.512  1.00  0.00     0.187 HD
HETATM    4  C9  UNL     1      27.230  11.261  25.529  1.00  0.00     0.678 A 
HETATM    5  N5  UNL     1      26.626  12.462  25.731  1.00  0.00    -0.186 N 
ATOM      6  H5  UNL     1      25.902  12.571  26.441  1.00  0.00     0.184 HD
HETATM    7  C10 UNL     1      27.012  13.503  24.967  1.00  0.00     0.125 A 
HETATM    8  C11 UNL     1      26.440  14.767  25.111  1.00  0.00     0.144 A 
HETATM    9  N7  UNL     1      26.840  15.800  24.334  1.00  0.00    -0.175 N 
ATOM     10  H7  UNL     1      26.417  16.721  24.446  1.00  0.00     0.186 HD
HETATM   11  C12 UNL     1      27.791  15.605  23.422  1.00  0.00     0.678 A 
HETATM   12  N9  UNL     1      28.369  14.416  23.242  1.00  0.00    -0.185 N 
ATOM     13  H9  UNL     1      29.094  14.296  22.535  1.00  0.00     0.184 HD
HETATM   14  C13 UNL     1      27.979  13.370  24.014  1.00  0.00     0.138 A 
ENDROOT
BRANCH   1  15
HETATM   15  N2  UNL     1      29.441  11.983  22.994  1.00  0.00    -0.399 NA
BRANCH  15  16
HETATM   16  C7  UNL     1      30.356  11.796  22.075  1.00  0.00     0.176 C 
BRANCH  16  17
HETATM   17  C6  UNL     1      30.617  10.303  21.700  1.00  0.00     0.173 C 
BRANCH  17  18
HETATM   18  N1  UNL     1      31.374   9.773  22.779  1.00  0.00    -0.416 N 
ATOM     19  H1  UNL     1      32.374   9.947  22.878  1.00  0.00     0.153 HD
BRANCH  18  20
HETATM   20  C5  UNL     1      30.638   8.975  23.725  1.00  0.00     0.114 C 
BRANCH  20  21
HETATM   21  C4  UNL     1      31.150   9.278  25.108  1.00  0.00     0.023 C 
BRANCH  21  22
HETATM   22  C3  UNL     1      31.936  10.548  25.132  1.00  0.00     0.028 C 
BRANCH  22  23
HETATM   23  C2  UNL     1      33.167  10.355  25.925  1.00  0.00    -0.037 C 
HETATM   24  C1  UNL     1      33.548   9.129  26.232  1.00  0.00     0.007 C 
ENDBRANCH  22  23
ENDBRANCH  21  22
ENDBRANCH  20  21
ENDBRANCH  18  20
ENDBRANCH  17  18
ENDBRANCH  16  17
ENDBRANCH  15  16
ENDBRANCH   1  15
BRANCH   4  25
HETATM   25  N4  UNL     1      26.821  10.283  26.291  1.00  0.00    -0.234 N 
ATOM     26  H42 UNL     1      26.674   9.387  25.825  1.00  0.00     0.174 HD
ATOM     27  H41 UNL     1      26.658  10.398  27.292  1.00  0.00     0.174 HD
ENDBRANCH   4  25
BRANCH   8  28
HETATM   28  N6  UNL     1      25.537  14.969  25.973  1.00  0.00    -0.383 N 
ATOM     29  H62 UNL     1      25.747  15.568  26.772  1.00  0.00     0.157 HD
ATOM     30  H61 UNL     1      24.617  14.540  25.871  1.00  0.00     0.157 HD
ENDBRANCH   8  28
BRANCH  11  31
HETATM   31  N8  UNL     1      28.133  16.639  22.703  1.00  0.00    -0.234 N 
ATOM     32  H82 UNL     1      27.611  16.897  21.866  1.00  0.00     0.174 HD
ATOM     33  H81 UNL     1      28.943  17.170  23.022  1.00  0.00     0.174 HD
ENDBRANCH  11  31
TORSDOF 11
ENDMDL
MODEL 3
REMARK VINA RESULT: -2.892434918      3.462      5.991
REMARK  11 active torsions:
REMARK  status: ('A' for Active; 'I' for Inactive)
REMARK    1  A    between atoms: C2_2  and  C3_3 
REMARK    2  A    between atoms: C3_3  and  C4_4 
REMARK    3  A    between atoms: C4_4  and  C5_5 
REMARK    4  A    between atoms: C5_5  and  N1_6 
REMARK    5  A    between atoms: N1_6  and  C6_8 
REMARK    6  A    between atoms: C6_8  and  C7_9 
REMARK    7  A    between atoms: C7_9  and  N2_10 
REMARK    8  A    between atoms: N2_10  and  C8_11 
REMARK    9  A    between atoms: C9_14  and  N4_15 
REMARK   10  A    between atoms: C11_21  and  N6_22 
REMARK   11  A    between atoms: C12_27  and  N8_28 
ROOT
HETATM    1  C8  UNL     1      28.877  13.482  23.104  1.00  0.00     0.222 A 
HETATM    2  N3  UNL     1      28.765  14.804  22.787  1.00  0.00    -0.162 N 
ATOM      3  H3  UNL     1      29.414  15.199  22.107  1.00  0.00     0.187 HD
HETATM    4  C9  UNL     1      27.864  15.586  23.317  1.00  0.00     0.678 A 
HETATM    5  N5  UNL     1      26.968  15.126  24.230  1.00  0.00    -0.186 N 
ATOM      6  H5  UNL     1      26.268  15.746  24.637  1.00  0.00     0.184 HD
HETATM    7  C10 UNL     1      27.031  13.826  24.582  1.00  0.00     0.125 A 
HETATM    8  C11 UNL     1      26.149  13.277  25.513  1.00  0.00     0.144 A 
HETATM    9  N7  UNL     1      26.229  11.970  25.853  1.00  0.00    -0.175 N 
ATOM     10  H7  UNL     1      25.580  11.577  26.535  1.00  0.00     0.186 HD
HETATM   11  C12 UNL     1      27.161  11.201  25.292  1.00  0.00     0.678 A 
HETATM   12  N9  UNL     1      28.029  11.676  24.398  1.00  0.00    -0.185 N 
ATOM     13  H9  UNL     1      28.733  11.064  23.985  1.00  0.00     0.184 HD
HETATM   14  C13 UNL     1      27.962  12.985  24.045  1.00  0.00     0.138 A 
ENDROOT
BRANCH   1  15
HETATM   15  N2  UNL     1      29.700  12.762  22.620  1.00  0.00    -0.399 NA
BRANCH  15  16
HETATM   16  C7  UNL     1      30.571  11.951  22.070  1.00  0.00     0.176 C 
BRANCH  16  17
HETATM   17  C6  UNL     1      30.042  10.509  21.790  1.00  0.00     0.173 C 
BRANCH  17  18
HETATM   18  N1  UNL     1      30.779   9.665  22.664  1.00  0.00    -0.416 N 
ATOM     19  H1  UNL     1      31.797   9.692  22.716  1.00  0.00     0.153 HD
BRANCH  18  20
HETATM   20  C5  UNL     1      29.994   8.768  23.474  1.00  0.00     0.114 C 
BRANCH  20  21
HETATM   21  C4  UNL     1      30.400   8.944  24.913  1.00  0.00     0.023 C 
BRANCH  21  22
HETATM   22  C3  UNL     1      31.297  10.126  25.086  1.00  0.00     0.028 C 
BRANCH  22  23
HETATM   23  C2  UNL     1      32.585   9.691  25.664  1.00  0.00    -0.037 C 
HETATM   24  C1  UNL     1      33.471  10.603  26.019  1.00  0.00     0.007 C 
ENDBRANCH  22  23
ENDBRANCH  21  22
ENDBRANCH  20  21
ENDBRANCH  18  20
ENDBRANCH  17  18
ENDBRANCH  16  17
ENDBRANCH  15  16
ENDBRANCH   1  15
BRANCH   4  25
HETATM   25  N4  UNL     1      27.764  16.852  23.011  1.00  0.00    -0.234 N 
ATOM     26  H42 UNL     1      28.227  17.501  23.647  1.00  0.00     0.174 HD
ATOM     27  H41 UNL     1      27.258  17.178  22.187  1.00  0.00     0.174 HD
ENDBRANCH   4  25
BRANCH   8  28
HETATM   28  N6  UNL     1      25.259  13.993  26.054  1.00  0.00    -0.383 N 
ATOM     29  H62 UNL     1      24.524  13.536  26.594  1.00  0.00     0.157 HD
ATOM     30  H61 UNL     1      25.275  15.007  25.950  1.00  0.00     0.157 HD
ENDBRANCH   8  28
BRANCH  11  31
HETATM   31  N8  UNL     1      27.188   9.950  25.662  1.00  0.00    -0.234 N 
ATOM     32  H82 UNL     1      26.860   9.209  25.043  1.00  0.00     0.174 HD
ATOM     33  H81 UNL     1      27.552   9.756  26.594  1.00  0.00     0.174 HD
ENDBRANCH  11  31
TORSDOF 11
ENDMDL
MODEL 4
REMARK VINA RESULT: -2.810892416      1.810      2.578
REMARK  11 active torsions:
REMARK  status: ('A' for Active; 'I' for Inactive)
REMARK    1  A    between atoms: C2_2  and  C3_3 
REMARK    2  A    between atoms: C3_3  and  C4_4 
REMARK    3  A    between atoms: C4_4  and  C5_5 
REMARK    4  A    between atoms: C5_5  and  N1_6 
REMARK    5  A    between atoms: N1_6  and  C6_8 
REMARK    6  A    between atoms: C6_8  and  C7_9 
REMARK    7  A    between atoms: C7_9  and  N2_10 
REMARK    8  A    between atoms: N2_10  and  C8_11 
REMARK    9  A    between atoms: C9_14  and  N4_15 
REMARK   10  A    between atoms: C11_21  and  N6_22 
REMARK   11  A    between atoms: C12_27  and  N8_28 
ROOT
HETATM    1  C8  UNL     1      31.207   9.617  24.674  1.00  0.00     0.222 A 
HETATM    2  N3  UNL     1      31.153   8.295  24.343  1.00  0.00    -0.162 N 
ATOM      3  H3  UNL     1      31.921   7.689  24.631  1.00  0.00     0.187 HD
HETATM    4  C9  UNL     1      30.162   7.771  23.673  1.00  0.00     0.678 A 
HETATM    5  N5  UNL     1      29.106   8.521  23.259  1.00  0.00    -0.186 N 
ATOM      6  H5  UNL     1      28.337   8.101  22.738  1.00  0.00     0.184 HD
HETATM    7  C10 UNL     1      29.105   9.836  23.559  1.00  0.00     0.125 A 
HETATM    8  C11 UNL     1      28.061  10.673  23.169  1.00  0.00     0.144 A 
HETATM    9  N7  UNL     1      28.078  11.991  23.478  1.00  0.00    -0.175 N 
ATOM     10  H7  UNL     1      27.310  12.596  23.189  1.00  0.00     0.186 HD
HETATM   11  C12 UNL     1      29.105  12.491  24.163  1.00  0.00     0.678 A 
HETATM   12  N9  UNL     1      30.130  11.734  24.558  1.00  0.00    -0.185 N 
ATOM     13  H9  UNL     1      30.905  12.144  25.081  1.00  0.00     0.184 HD
HETATM   14  C13 UNL     1      30.128  10.410  24.256  1.00  0.00     0.138 A 
ENDROOT
BRANCH   1  15
HETATM   15  N2  UNL     1      32.113  10.100  25.289  1.00  0.00    -0.399 NA
BRANCH  15  16
HETATM   16  C7  UNL     1      33.130  10.599  25.948  1.00  0.00     0.176 C 
BRANCH  16  17
HETATM   17  C6  UNL     1      33.721   9.666  27.051  1.00  0.00     0.173 C 
BRANCH  17  18
HETATM   18  N1  UNL     1      34.409   8.643  26.346  1.00  0.00    -0.416 N 
ATOM     19  H1  UNL     1      34.446   8.616  25.327  1.00  0.00     0.153 HD
BRANCH  18  20
HETATM   20  C5  UNL     1      35.052   7.646  27.163  1.00  0.00     0.114 C 
BRANCH  20  21
HETATM   21  C4  UNL     1      34.067   6.538  27.428  1.00  0.00     0.023 C 
BRANCH  21  22
HETATM   22  C3  UNL     1      34.719   5.197  27.344  1.00  0.00     0.028 C 
BRANCH  22  23
HETATM   23  C2  UNL     1      36.103   5.285  27.850  1.00  0.00    -0.037 C 
HETATM   24  C1  UNL     1      36.448   4.575  28.908  1.00  0.00     0.007 C 
ENDBRANCH  22  23
ENDBRANCH  21  22
ENDBRANCH  20  21
ENDBRANCH  18  20
ENDBRANCH  17  18
ENDBRANCH  16  17
ENDBRANCH  15  16
ENDBRANCH   1  15
BRANCH   4  25
HETATM   25  N4  UNL     1      30.118   6.505  23.358  1.00  0.00    -0.234 N 
ATOM     26  H42 UNL     1      29.539   6.267  22.553  1.00  0.00     0.174 HD
ATOM     27  H41 UNL     1      30.630   5.792  23.878  1.00  0.00     0.174 HD
ENDBRANCH   4  25
BRANCH   8  28
HETATM   28  N6  UNL     1      27.078  10.215  22.519  1.00  0.00    -0.383 N 
ATOM     29  H62 UNL     1      26.366   9.682  23.019  1.00  0.00     0.157 HD
ATOM     30  H61 UNL     1      27.000  10.374  21.515  1.00  0.00     0.157 HD
ENDBRANCH   8  28
BRANCH  11  31
HETATM   31  N8  UNL     1      29.065  13.767  24.430  1.00  0.00    -0.234 N 
ATOM     32  H82 UNL     1      29.779  14.209  25.009  1.00  0.00     0.174 HD
ATOM     33  H81 UNL     1      28.289  14.294  24.030  1.00  0.00     0.174 HD
ENDBRANCH  11  31
TORSDOF 11
ENDMDL
MODEL 5
REMARK VINA RESULT: -2.753606574      3.353      7.271
REMARK  11 active torsions:
REMARK  status: ('A' for Active; 'I' for Inactive)
REMARK    1  A    between atoms: C2_2  and  C3_3 
REMARK    2  A    between atoms: C3_3  and  C4_4 
REMARK    3  A    between atoms: C4_4  and  C5_5 
REMARK    4  A    between atoms: C5_5  and  N1_6 
REMARK    5  A    between atoms: N1_6  and  C6_8 
REMARK    6  A    between atoms: C6_8  and  C7_9 
REMARK    7  A    between atoms: C7_9  and  N2_10 
REMARK    8  A    between atoms: N2_10  and  C8_11 
REMARK    9  A    between atoms: C9_14  and  N4_15 
REMARK   10  A    between atoms: C11_21  and  N6_22 
REMARK   11  A    between atoms: C12_27  and  N8_28 
ROOT
HETATM    1  C8  UNL     1      29.521   9.940  25.297  1.00  0.00     0.222 A 
HETATM    2  N3  UNL     1      30.730   9.982  25.926  1.00  0.00    -0.162 N 
ATOM      3  H3  UNL     1      30.748  10.046  26.944  1.00  0.00     0.187 HD
HETATM    4  C9  UNL     1      31.865   9.946  25.282  1.00  0.00     0.678 A 
HETATM    5  N5  UNL     1      31.915   9.861  23.926  1.00  0.00    -0.186 N 
ATOM      6  H5  UNL     1      32.808   9.833  23.435  1.00  0.00     0.184 HD
HETATM    7  C10 UNL     1      30.749   9.815  23.251  1.00  0.00     0.125 A 
HETATM    8  C11 UNL     1      30.713   9.730  21.859  1.00  0.00     0.144 A 
HETATM    9  N7  UNL     1      29.533   9.685  21.199  1.00  0.00    -0.175 N 
ATOM     10  H7  UNL     1      29.516   9.623  20.181  1.00  0.00     0.186 HD
HETATM   11  C12 UNL     1      28.393   9.724  21.888  1.00  0.00     0.678 A 
HETATM   12  N9  UNL     1      28.372   9.807  23.219  1.00  0.00    -0.185 N 
ATOM     13  H9  UNL     1      27.484   9.837  23.721  1.00  0.00     0.184 HD
HETATM   14  C13 UNL     1      29.547   9.852  23.896  1.00  0.00     0.138 A 
ENDROOT
BRANCH   1  15
HETATM   15  N2  UNL     1      28.478   9.971  25.882  1.00  0.00    -0.399 NA
BRANCH  15  16
HETATM   16  C7  UNL     1      27.334  10.047  26.518  1.00  0.00     0.176 C 
BRANCH  16  17
HETATM   17  C6  UNL     1      26.402  11.212  26.058  1.00  0.00     0.173 C 
BRANCH  17  18
HETATM   18  N1  UNL     1      27.080  11.827  24.972  1.00  0.00    -0.416 N 
ATOM     19  H1  UNL     1      27.177  11.371  24.064  1.00  0.00     0.153 HD
BRANCH  18  20
HETATM   20  C5  UNL     1      27.622  13.135  25.234  1.00  0.00     0.114 C 
BRANCH  20  21
HETATM   21  C4  UNL     1      28.559  13.498  24.113  1.00  0.00     0.023 C 
BRANCH  21  22
HETATM   22  C3  UNL     1      28.026  14.633  23.301  1.00  0.00     0.028 C 
BRANCH  22  23
HETATM   23  C2  UNL     1      27.124  15.456  24.131  1.00  0.00    -0.037 C 
HETATM   24  C1  UNL     1      27.308  16.763  24.179  1.00  0.00     0.007 C 
ENDBRANCH  22  23
ENDBRANCH  21  22
ENDBRANCH  20  21
ENDBRANCH  18  20
ENDBRANCH  17  18
ENDBRANCH  16  17
ENDBRANCH  15  16
ENDBRANCH   1  15
BRANCH   4  25
HETATM   25  N4  UNL     1      33.020   9.990  25.892  1.00  0.00    -0.234 N 
ATOM     26  H42 UNL     1      33.469   9.089  26.058  1.00  0.00     0.174 HD
ATOM     27  H41 UNL     1      33.453  10.865  26.184  1.00  0.00     0.174 HD
ENDBRANCH   4  25
BRANCH   8  28
HETATM   28  N6  UNL     1      31.785   9.691  21.191  1.00  0.00    -0.383 N 
ATOM     29  H62 UNL     1      32.666   9.542  21.684  1.00  0.00     0.157 HD
ATOM     30  H61 UNL     1      31.769   9.809  20.178  1.00  0.00     0.157 HD
ENDBRANCH   8  28
BRANCH  11  31
HETATM   31  N8  UNL     1      27.289   9.679  21.195  1.00  0.00    -0.234 N 
ATOM     32  H82 UNL     1      27.292   9.821  20.185  1.00  0.00     0.174 HD
ATOM     33  H81 UNL     1      26.431   9.494  21.714  1.00  0.00     0.174 HD
ENDBRANCH  11  31
TORSDOF 11
ENDMDL
