MODEL 1
REMARK VINA RESULT: -4.310720116      0.000      0.000
REMARK  12 active torsions:
REMARK  status: ('A' for Active; 'I' for Inactive)
REMARK    1  A    between atoms: C2_2  and  N1_3 
REMARK    2  A    between atoms: N1_3  and  C3_5 
REMARK    3  A    between atoms: C3_5  and  C5_7 
REMARK    4  A    between atoms: C3_5  and  C7_13 
REMARK    5  A    between atoms: C5_7  and  C6_8 
REMARK    6  A    between atoms: C6_8  and  N2_9 
REMARK    7  A    between atoms: C7_13  and  C8_14 
REMARK    8  A    between atoms: C8_14  and  N3_15 
REMARK    9  A    between atoms: C8_14  and  C9_19 
REMARK   10  A    between atoms: C8_14  and  C13_30 
REMARK   11  A    between atoms: C9_19  and  C10_20 
REMARK   12  A    between atoms: C12_24  and  N5_25 
ROOT
HETATM    1  C8  UNL     1      28.343  11.683  24.879  1.00  0.00     0.185 C 
ENDROOT
BRANCH   1   2
HETATM    2  C7  UNL     1      29.723  11.523  24.453  1.00  0.00     0.077 C 
BRANCH   2   3
HETATM    3  C3  UNL     1      30.177  10.841  23.250  1.00  0.00     0.026 C 
HETATM    4  C4  UNL     1      30.480  11.629  22.029  1.00  0.00     0.038 C 
BRANCH   3   5
HETATM    5  N1  UNL     1      31.442  10.165  23.629  1.00  0.00    -0.413 N 
ATOM      6  H1  UNL     1      32.237  10.110  22.991  1.00  0.00     0.154 HD
BRANCH   5   7
HETATM    7  C2  UNL     1      31.481   9.606  24.914  1.00  0.00     0.110 C 
HETATM    8  C1  UNL     1      32.770  10.148  25.568  1.00  0.00     0.026 C 
ENDBRANCH   5   7
ENDBRANCH   3   5
BRANCH   3   9
HETATM    9  C5  UNL     1      29.312   9.654  22.797  1.00  0.00     0.057 C 
BRANCH   9  10
HETATM   10  C6  UNL     1      28.780   9.842  21.389  1.00  0.00     0.232 C 
BRANCH  10  11
HETATM   11  N2  UNL     1      27.315   9.722  21.522  1.00  0.00    -0.079 N 
ATOM     12  H23 UNL     1      26.987   8.764  21.645  1.00  0.00     0.274 HD
ATOM     13  H22 UNL     1      26.948  10.083  22.403  1.00  0.00     0.274 HD
ATOM     14  H21 UNL     1      26.941  10.186  20.695  1.00  0.00     0.274 HD
ENDBRANCH  10  11
ENDBRANCH   9  10
ENDBRANCH   3   9
ENDBRANCH   2   3
ENDBRANCH   1   2
BRANCH   1  15
HETATM   15  N3  UNL     1      28.522  12.832  25.906  1.00  0.00    -0.063 N 
ATOM     16  H33 UNL     1      29.212  12.671  26.641  1.00  0.00     0.275 HD
ATOM     17  H32 UNL     1      28.974  13.677  25.559  1.00  0.00     0.275 HD
ATOM     18  H31 UNL     1      27.555  12.935  26.215  1.00  0.00     0.275 HD
ENDBRANCH   1  15
BRANCH   1  19
HETATM   19  C9  UNL     1      27.382  12.353  23.928  1.00  0.00     0.105 C 
BRANCH  19  20
HETATM   20  C10 UNL     1      27.215  13.811  24.158  1.00  0.00     0.045 A 
HETATM   21  C11 UNL     1      26.243  14.364  25.016  1.00  0.00     0.131 A 
HETATM   22  N4  UNL     1      26.364  15.690  24.982  1.00  0.00    -0.200 N 
HETATM   23  C12 UNL     1      27.355  16.027  24.155  1.00  0.00     0.675 A 
ATOM     24  H4  UNL     1      25.788  16.347  25.507  1.00  0.00     0.183 HD
HETATM   25  N6  UNL     1      27.853  14.879  23.670  1.00  0.00    -0.194 N 
ATOM     26  H6  UNL     1      28.627  14.827  23.008  1.00  0.00     0.184 HD
BRANCH  23  27
HETATM   27  N5  UNL     1      27.724  17.231  23.903  1.00  0.00    -0.234 N 
ATOM     28  H52 UNL     1      27.860  17.678  22.997  1.00  0.00     0.174 HD
ATOM     29  H51 UNL     1      27.940  17.935  24.609  1.00  0.00     0.174 HD
ENDBRANCH  23  27
ENDBRANCH  19  20
ENDBRANCH   1  19
BRANCH   1  30
HETATM   30  C13 UNL     1      27.719  10.687  25.760  1.00  0.00     0.123 C 
HETATM   31  N7  UNL     1      28.279   9.627  26.198  1.00  0.00    -0.389 N 
ATOM     32  H72 UNL     1      29.230   9.469  25.864  1.00  0.00     0.157 HD
ATOM     33  H71 UNL     1      27.846   8.935  26.810  1.00  0.00     0.157 HD
HETATM   34  N8  UNL     1      26.393  10.909  26.226  1.00  0.00    -0.085 NA
ENDBRANCH   1  30
TORSDOF 12
ENDMDL
MODEL 2
REMARK VINA RESULT: -3.523810845      1.319      2.144
REMARK  12 active torsions:
REMARK  status: ('A' for Active; 'I' for Inactive)
REMARK    1  A    between atoms: C2_2  and  N1_3 
REMARK    2  A    between atoms: N1_3  and  C3_5 
REMARK    3  A    between atoms: C3_5  and  C5_7 
REMARK    4  A    between atoms: C3_5  and  C7_13 
REMARK    5  A    between atoms: C5_7  and  C6_8 
REMARK    6  A    between atoms: C6_8  and  N2_9 
REMARK    7  A    between atoms: C7_13  and  C8_14 
REMARK    8  A    between atoms: C8_14  and  N3_15 
REMARK    9  A    between atoms: C8_14  and  C9_19 
REMARK   10  A    between atoms: C8_14  and  C13_30 
REMARK   11  A    between atoms: C9_19  and  C10_20 
REMARK   12  A    between atoms: C12_24  and  N5_25 
ROOT
HETATM    1  C8  UNL     1      29.099  11.893  24.083  1.00  0.00     0.185 C 
ENDROOT
BRANCH   1   2
HETATM    2  C7  UNL     1      30.346  11.198  24.353  1.00  0.00     0.077 C 
BRANCH   2   3
HETATM    3  C3  UNL     1      30.829  10.007  23.670  1.00  0.00     0.026 C 
HETATM    4  C4  UNL     1      31.220  10.086  22.241  1.00  0.00     0.038 C 
BRANCH   3   5
HETATM    5  N1  UNL     1      32.048   9.592  24.408  1.00  0.00    -0.413 N 
ATOM      6  H1  UNL     1      32.552   8.734  24.180  1.00  0.00     0.154 HD
BRANCH   5   7
HETATM    7  C2  UNL     1      32.466  10.447  25.437  1.00  0.00     0.110 C 
HETATM    8  C1  UNL     1      33.552   9.670  26.212  1.00  0.00     0.026 C 
ENDBRANCH   5   7
ENDBRANCH   3   5
BRANCH   3   9
HETATM    9  C5  UNL     1      29.941   8.760  23.808  1.00  0.00     0.057 C 
BRANCH   9  10
HETATM   10  C6  UNL     1      29.941   8.213  25.223  1.00  0.00     0.232 C 
BRANCH  10  11
HETATM   11  N2  UNL     1      28.623   8.586  25.770  1.00  0.00    -0.079 N 
ATOM     12  H23 UNL     1      27.859   8.507  25.100  1.00  0.00     0.274 HD
ATOM     13  H22 UNL     1      28.252   7.921  26.448  1.00  0.00     0.274 HD
ATOM     14  H21 UNL     1      28.753   9.528  26.141  1.00  0.00     0.274 HD
ENDBRANCH  10  11
ENDBRANCH   9  10
ENDBRANCH   3   9
ENDBRANCH   2   3
ENDBRANCH   1   2
BRANCH   1  15
HETATM   15  N3  UNL     1      28.915  12.625  25.439  1.00  0.00    -0.063 N 
ATOM     16  H33 UNL     1      28.382  12.124  26.149  1.00  0.00     0.275 HD
ATOM     17  H32 UNL     1      29.750  12.715  26.017  1.00  0.00     0.275 HD
ATOM     18  H31 UNL     1      28.505  13.499  25.105  1.00  0.00     0.275 HD
ENDBRANCH   1  15
BRANCH   1  19
HETATM   19  C9  UNL     1      29.138  13.088  23.163  1.00  0.00     0.105 C 
BRANCH  19  20
HETATM   20  C10 UNL     1      28.261  14.210  23.584  1.00  0.00     0.045 A 
HETATM   21  C11 UNL     1      28.402  15.534  23.119  1.00  0.00     0.131 A 
HETATM   22  N4  UNL     1      27.464  16.280  23.700  1.00  0.00    -0.200 N 
HETATM   23  C12 UNL     1      26.725  15.520  24.510  1.00  0.00     0.675 A 
ATOM     24  H4  UNL     1      27.330  17.279  23.549  1.00  0.00     0.183 HD
HETATM   25  N6  UNL     1      27.223  14.276  24.424  1.00  0.00    -0.194 N 
ATOM     26  H6  UNL     1      26.854  13.476  24.938  1.00  0.00     0.184 HD
BRANCH  23  27
HETATM   27  N5  UNL     1      25.739  15.941  25.216  1.00  0.00    -0.234 N 
ATOM     28  H52 UNL     1      25.274  16.848  25.182  1.00  0.00     0.174 HD
ATOM     29  H51 UNL     1      25.265  15.399  25.938  1.00  0.00     0.174 HD
ENDBRANCH  23  27
ENDBRANCH  19  20
ENDBRANCH   1  19
BRANCH   1  30
HETATM   30  C13 UNL     1      27.830  11.153  24.053  1.00  0.00     0.123 C 
HETATM   31  N7  UNL     1      27.433  10.398  23.104  1.00  0.00    -0.389 N 
ATOM     32  H72 UNL     1      28.057  10.348  22.298  1.00  0.00     0.157 HD
ATOM     33  H71 UNL     1      26.552   9.884  23.082  1.00  0.00     0.157 HD
HETATM   34  N8  UNL     1      26.961  11.222  25.177  1.00  0.00    -0.085 NA
ENDBRANCH   1  30
TORSDOF 12
ENDMDL
MODEL 3
REMARK VINA RESULT: -3.522005146      1.921      5.845
REMARK  12 active torsions:
REMARK  status: ('A' for Active; 'I' for Inactive)
REMARK    1  A    between atoms: C2_2  and  N1_3 
REMARK    2  A    between atoms: N1_3  and  C3_5 
REMARK    3  A    between atoms: C3_5  and  C5_7 
REMARK    4  A    between atoms: C3_5  and  C7_13 
REMARK    5  A    between atoms: C5_7  and  C6_8 
REMARK    6  A    between atoms: C6_8  and  N2_9 
REMARK    7  A    between atoms: C7_13  and  C8_14 
REMARK    8  A    between atoms: C8_14  and  N3_15 
REMARK    9  A    between atoms: C8_14  and  C9_19 
REMARK   10  A    between atoms: C8_14  and  C13_30 
REMARK   11  A    between atoms: C9_19  and  C10_20 
REMARK   12  A    between atoms: C12_24  and  N5_25 
ROOT
HETATM    1  C8  UNL     1      29.446  10.035  23.904  1.00  0.00     0.185 C 
ENDROOT
BRANCH   1   2
HETATM    2  C7  UNL     1      28.398  11.012  23.661  1.00  0.00     0.077 C 
BRANCH   2   3
HETATM    3  C3  UNL     1      28.109  12.180  24.479  1.00  0.00     0.026 C 
HETATM    4  C4  UNL     1      29.132  12.684  25.429  1.00  0.00     0.038 C 
BRANCH   3   5
HETATM    5  N1  UNL     1      27.856  13.285  23.521  1.00  0.00    -0.413 N 
ATOM      6  H1  UNL     1      27.122  13.230  22.815  1.00  0.00     0.154 HD
BRANCH   5   7
HETATM    7  C2  UNL     1      28.687  14.408  23.644  1.00  0.00     0.110 C 
HETATM    8  C1  UNL     1      27.808  15.621  23.271  1.00  0.00     0.026 C 
ENDBRANCH   5   7
ENDBRANCH   3   5
BRANCH   3   9
HETATM    9  C5  UNL     1      26.783  12.132  25.256  1.00  0.00     0.057 C 
BRANCH   9  10
HETATM   10  C6  UNL     1      26.233  13.518  25.531  1.00  0.00     0.232 C 
BRANCH  10  11
HETATM   11  N2  UNL     1      24.915  13.537  24.869  1.00  0.00    -0.079 N 
ATOM     12  H23 UNL     1      24.745  12.737  24.260  1.00  0.00     0.274 HD
ATOM     13  H22 UNL     1      24.131  13.370  25.500  1.00  0.00     0.274 HD
ATOM     14  H21 UNL     1      24.878  14.437  24.390  1.00  0.00     0.274 HD
ENDBRANCH  10  11
ENDBRANCH   9  10
ENDBRANCH   3   9
ENDBRANCH   2   3
ENDBRANCH   1   2
BRANCH   1  15
HETATM   15  N3  UNL     1      29.119   9.022  22.774  1.00  0.00    -0.063 N 
ATOM     16  H33 UNL     1      28.238   9.169  22.283  1.00  0.00     0.275 HD
ATOM     17  H32 UNL     1      29.690   9.092  21.932  1.00  0.00     0.275 HD
ATOM     18  H31 UNL     1      29.200   8.151  23.299  1.00  0.00     0.275 HD
ENDBRANCH   1  15
BRANCH   1  19
HETATM   19  C9  UNL     1      30.856  10.396  23.509  1.00  0.00     0.105 C 
BRANCH  19  20
HETATM   20  C10 UNL     1      31.856  10.220  24.594  1.00  0.00     0.045 A 
HETATM   21  C11 UNL     1      32.347  11.277  25.388  1.00  0.00     0.131 A 
HETATM   22  N4  UNL     1      33.228  10.773  26.251  1.00  0.00    -0.200 N 
HETATM   23  C12 UNL     1      33.335   9.456  26.064  1.00  0.00     0.675 A 
ATOM     24  H4  UNL     1      33.742  11.311  26.948  1.00  0.00     0.183 HD
HETATM   25  N6  UNL     1      32.499   9.145  25.061  1.00  0.00    -0.194 N 
ATOM     26  H6  UNL     1      32.369   8.201  24.698  1.00  0.00     0.184 HD
BRANCH  23  27
HETATM   27  N5  UNL     1      34.103   8.679  26.738  1.00  0.00    -0.234 N 
ATOM     28  H52 UNL     1      33.979   8.328  27.687  1.00  0.00     0.174 HD
ATOM     29  H51 UNL     1      34.982   8.289  26.398  1.00  0.00     0.174 HD
ENDBRANCH  23  27
ENDBRANCH  19  20
ENDBRANCH   1  19
BRANCH   1  30
HETATM   30  C13 UNL     1      29.359   9.125  25.054  1.00  0.00     0.123 C 
HETATM   31  N7  UNL     1      28.779   9.380  26.162  1.00  0.00    -0.389 N 
ATOM     32  H72 UNL     1      28.379  10.315  26.237  1.00  0.00     0.157 HD
ATOM     33  H71 UNL     1      28.718   8.748  26.961  1.00  0.00     0.157 HD
HETATM   34  N8  UNL     1      29.916   7.819  24.949  1.00  0.00    -0.085 NA
ENDBRANCH   1  30
TORSDOF 12
ENDMDL
MODEL 4
REMARK VINA RESULT: -3.464522638      1.182      1.488
REMARK  12 active torsions:
REMARK  status: ('A' for Active; 'I' for Inactive)
REMARK    1  A    between atoms: C2_2  and  N1_3 
REMARK    2  A    between atoms: N1_3  and  C3_5 
REMARK    3  A    between atoms: C3_5  and  C5_7 
REMARK    4  A    between atoms: C3_5  and  C7_13 
REMARK    5  A    between atoms: C5_7  and  C6_8 
REMARK    6  A    between atoms: C6_8  and  N2_9 
REMARK    7  A    between atoms: C7_13  and  C8_14 
REMARK    8  A    between atoms: C8_14  and  N3_15 
REMARK    9  A    between atoms: C8_14  and  C9_19 
REMARK   10  A    between atoms: C8_14  and  C13_30 
REMARK   11  A    between atoms: C9_19  and  C10_20 
REMARK   12  A    between atoms: C12_24  and  N5_25 
ROOT
HETATM    1  C8  UNL     1      28.436  11.800  24.839  1.00  0.00     0.185 C 
ENDROOT
BRANCH   1   2
HETATM    2  C7  UNL     1      29.826  11.494  24.547  1.00  0.00     0.077 C 
BRANCH   2   3
HETATM    3  C3  UNL     1      30.307  10.584  23.518  1.00  0.00     0.026 C 
HETATM    4  C4  UNL     1      30.632  11.108  22.168  1.00  0.00     0.038 C 
BRANCH   3   5
HETATM    5  N1  UNL     1      31.566  10.009  24.051  1.00  0.00    -0.413 N 
ATOM      6  H1  UNL     1      32.019   9.204  23.617  1.00  0.00     0.154 HD
BRANCH   5   7
HETATM    7  C2  UNL     1      32.097  10.636  25.187  1.00  0.00     0.110 C 
HETATM    8  C1  UNL     1      33.090   9.623  25.798  1.00  0.00     0.026 C 
ENDBRANCH   5   7
ENDBRANCH   3   5
BRANCH   3   9
HETATM    9  C5  UNL     1      29.455   9.323  23.300  1.00  0.00     0.057 C 
BRANCH   9  10
HETATM   10  C6  UNL     1      30.209   8.057  23.656  1.00  0.00     0.232 C 
BRANCH  10  11
HETATM   11  N2  UNL     1      29.796   7.750  25.038  1.00  0.00    -0.079 N 
ATOM     12  H23 UNL     1      30.495   7.236  25.575  1.00  0.00     0.274 HD
ATOM     13  H22 UNL     1      29.757   8.565  25.650  1.00  0.00     0.274 HD
ATOM     14  H21 UNL     1      28.907   7.261  24.941  1.00  0.00     0.274 HD
ENDBRANCH  10  11
ENDBRANCH   9  10
ENDBRANCH   3   9
ENDBRANCH   2   3
ENDBRANCH   1   2
BRANCH   1  15
HETATM   15  N3  UNL     1      28.635  12.974  25.834  1.00  0.00    -0.063 N 
ATOM     16  H33 UNL     1      29.502  12.964  26.371  1.00  0.00     0.275 HD
ATOM     17  H32 UNL     1      28.812  13.888  25.418  1.00  0.00     0.275 HD
ATOM     18  H31 UNL     1      27.773  12.886  26.373  1.00  0.00     0.275 HD
ENDBRANCH   1  15
BRANCH   1  19
HETATM   19  C9  UNL     1      27.630  12.510  23.780  1.00  0.00     0.105 C 
BRANCH  19  20
HETATM   20  C10 UNL     1      27.363  13.942  24.075  1.00  0.00     0.045 A 
HETATM   21  C11 UNL     1      26.350  14.388  24.949  1.00  0.00     0.131 A 
HETATM   22  N4  UNL     1      26.382  15.719  24.977  1.00  0.00    -0.200 N 
HETATM   23  C12 UNL     1      27.354  16.160  24.177  1.00  0.00     0.675 A 
ATOM     24  H4  UNL     1      25.759  16.310  25.526  1.00  0.00     0.183 HD
HETATM   25  N6  UNL     1      27.932  15.072  23.644  1.00  0.00    -0.194 N 
ATOM     26  H6  UNL     1      28.712  15.103  22.988  1.00  0.00     0.184 HD
BRANCH  23  27
HETATM   27  N5  UNL     1      27.642  17.396  23.985  1.00  0.00    -0.234 N 
ATOM     28  H52 UNL     1      28.450  17.794  23.507  1.00  0.00     0.174 HD
ATOM     29  H51 UNL     1      27.076  18.183  24.300  1.00  0.00     0.174 HD
ENDBRANCH  23  27
ENDBRANCH  19  20
ENDBRANCH   1  19
BRANCH   1  30
HETATM   30  C13 UNL     1      27.645  10.908  25.698  1.00  0.00     0.123 C 
HETATM   31  N7  UNL     1      26.382  10.967  25.867  1.00  0.00    -0.389 N 
ATOM     32  H72 UNL     1      25.913  11.729  25.376  1.00  0.00     0.157 HD
ATOM     33  H71 UNL     1      25.832  10.348  26.463  1.00  0.00     0.157 HD
HETATM   34  N8  UNL     1      28.299   9.845  26.382  1.00  0.00    -0.085 NA
ENDBRANCH   1  30
TORSDOF 12
ENDMDL
MODEL 5
REMARK VINA RESULT: -3.405342407      1.527      3.350
REMARK  12 active torsions:
REMARK  status: ('A' for Active; 'I' for Inactive)
REMARK    1  A    between atoms: C2_2  and  N1_3 
REMARK    2  A    between atoms: N1_3  and  C3_5 
REMARK    3  A    between atoms: C3_5  and  C5_7 
REMARK    4  A    between atoms: C3_5  and  C7_13 
REMARK    5  A    between atoms: C5_7  and  C6_8 
REMARK    6  A    between atoms: C6_8  and  N2_9 
REMARK    7  A    between atoms: C7_13  and  C8_14 
REMARK    8  A    between atoms: C8_14  and  N3_15 
REMARK    9  A    between atoms: C8_14  and  C9_19 
REMARK   10  A    between atoms: C8_14  and  C13_30 
REMARK   11  A    between atoms: C9_19  and  C10_20 
REMARK   12  A    between atoms: C12_24  and  N5_25 
ROOT
HETATM    1  C8  UNL     1      29.551  11.257  23.094  1.00  0.00     0.185 C 
ENDROOT
BRANCH   1   2
HETATM    2  C7  UNL     1      29.930  10.728  24.393  1.00  0.00     0.077 C 
BRANCH   2   3
HETATM    3  C3  UNL     1      29.967   9.323  24.769  1.00  0.00     0.026 C 
HETATM    4  C4  UNL     1      29.960   8.279  23.714  1.00  0.00     0.038 C 
BRANCH   3   5
HETATM    5  N1  UNL     1      31.235   9.144  25.517  1.00  0.00    -0.413 N 
ATOM      6  H1  UNL     1      31.377   8.365  26.162  1.00  0.00     0.154 HD
BRANCH   5   7
HETATM    7  C2  UNL     1      32.227  10.108  25.287  1.00  0.00     0.110 C 
HETATM    8  C1  UNL     1      33.418   9.705  26.184  1.00  0.00     0.026 C 
ENDBRANCH   5   7
ENDBRANCH   3   5
BRANCH   3   9
HETATM    9  C5  UNL     1      28.925   8.890  25.813  1.00  0.00     0.057 C 
BRANCH   9  10
HETATM   10  C6  UNL     1      28.355  10.072  26.574  1.00  0.00     0.232 C 
BRANCH  10  11
HETATM   11  N2  UNL     1      26.972  10.207  26.079  1.00  0.00    -0.079 N 
ATOM     12  H23 UNL     1      26.268   9.824  26.709  1.00  0.00     0.274 HD
ATOM     13  H22 UNL     1      26.622  11.165  26.083  1.00  0.00     0.274 HD
ATOM     14  H21 UNL     1      26.983   9.773  25.156  1.00  0.00     0.274 HD
ENDBRANCH  10  11
ENDBRANCH   9  10
ENDBRANCH   3   9
ENDBRANCH   2   3
ENDBRANCH   1   2
BRANCH   1  15
HETATM   15  N3  UNL     1      28.021  11.008  23.151  1.00  0.00    -0.063 N 
ATOM     16  H33 UNL     1      27.696  10.124  22.759  1.00  0.00     0.275 HD
ATOM     17  H32 UNL     1      27.630  10.832  24.076  1.00  0.00     0.275 HD
ATOM     18  H31 UNL     1      27.694  11.853  22.681  1.00  0.00     0.275 HD
ENDBRANCH   1  15
BRANCH   1  19
HETATM   19  C9  UNL     1      29.549  12.755  22.912  1.00  0.00     0.105 C 
BRANCH  19  20
HETATM   20  C10 UNL     1      28.449  13.453  23.625  1.00  0.00     0.045 A 
HETATM   21  C11 UNL     1      28.114  14.808  23.418  1.00  0.00     0.131 A 
HETATM   22  N4  UNL     1      27.094  15.110  24.220  1.00  0.00    -0.200 N 
HETATM   23  C12 UNL     1      26.749  14.035  24.931  1.00  0.00     0.675 A 
ATOM     24  H4  UNL     1      26.645  16.023  24.281  1.00  0.00     0.183 HD
HETATM   25  N6  UNL     1      27.579  13.049  24.556  1.00  0.00    -0.194 N 
ATOM     26  H6  UNL     1      27.549  12.103  24.935  1.00  0.00     0.184 HD
BRANCH  23  27
HETATM   27  N5  UNL     1      25.800  14.000  25.794  1.00  0.00    -0.234 N 
ATOM     28  H52 UNL     1      24.847  14.352  25.707  1.00  0.00     0.174 HD
ATOM     29  H51 UNL     1      25.875  13.595  26.727  1.00  0.00     0.174 HD
ENDBRANCH  23  27
ENDBRANCH  19  20
ENDBRANCH   1  19
BRANCH   1  30
HETATM   30  C13 UNL     1      29.856  10.505  21.869  1.00  0.00     0.123 C 
HETATM   31  N7  UNL     1      29.008  10.146  20.986  1.00  0.00    -0.389 N 
ATOM     32  H72 UNL     1      28.039  10.389  21.192  1.00  0.00     0.157 HD
ATOM     33  H71 UNL     1      29.219   9.624  20.136  1.00  0.00     0.157 HD
HETATM   34  N8  UNL     1      31.209  10.167  21.583  1.00  0.00    -0.085 NA
ENDBRANCH   1  30
TORSDOF 12
ENDMDL
