MODEL 1
REMARK VINA RESULT: -6.163998217      0.000      0.000
REMARK  13 active torsions:
REMARK  status: ('A' for Active; 'I' for Inactive)
REMARK    1  A    between atoms: C2_2  and  C3_3 
REMARK    2  A    between atoms: C3_3  and  C4_4 
REMARK    3  A    between atoms: C3_3  and  C5_7 
REMARK    4  A    between atoms: C3_3  and  C8_14 
REMARK    5  A    between atoms: C4_4  and  O1_5 
REMARK    6  A    between atoms: C5_7  and  C6_8 
REMARK    7  A    between atoms: C6_8  and  C7_9 
REMARK    8  A    between atoms: C7_9  and  N1_10 
REMARK    9  A    between atoms: C8_14  and  C9_15 
REMARK   10  A    between atoms: C9_15  and  N2_16 
REMARK   11  A    between atoms: N2_16  and  C10_18 
REMARK   12  A    between atoms: C11_21  and  N4_22 
REMARK   13  A    between atoms: C12_27  and  N6_28 
ROOT
HETATM    1  N2  UNL     1      29.336  13.090  23.620  1.00  0.00    -0.204 N 
ATOM      2  H2  UNL     1      30.210  13.321  24.091  1.00  0.00     0.183 HD
ENDROOT
BRANCH   1   3
HETATM    3  C9  UNL     1      29.408  12.011  22.738  1.00  0.00     0.080 C 
BRANCH   3   4
HETATM    4  C8  UNL     1      29.071  10.643  23.176  1.00  0.00     0.056 C 
BRANCH   4   5
HETATM    5  C3  UNL     1      30.008   9.853  23.954  1.00  0.00    -0.015 C 
BRANCH   5   6
HETATM    6  C2  UNL     1      29.249   9.191  25.122  1.00  0.00     0.007 C 
HETATM    7  C1  UNL     1      28.164  10.047  25.675  1.00  0.00     0.006 C 
ENDBRANCH   5   6
BRANCH   5   8
HETATM    8  C4  UNL     1      30.281   8.573  23.067  1.00  0.00     0.173 C 
BRANCH   8   9
HETATM    9  O1  UNL     1      29.842   7.485  23.819  1.00  0.00    -0.400 OA
ATOM     10  H1  UNL     1      30.236   7.586  24.678  1.00  0.00     0.209 HD
ENDBRANCH   8   9
ENDBRANCH   5   8
BRANCH   5  11
HETATM   11  C5  UNL     1      31.316  10.356  24.393  1.00  0.00     0.013 C 
BRANCH  11  12
HETATM   12  C6  UNL     1      32.042   9.752  25.510  1.00  0.00     0.028 C 
BRANCH  12  13
HETATM   13  C7  UNL     1      33.356  10.237  25.953  1.00  0.00     0.229 C 
BRANCH  13  14
HETATM   14  N1  UNL     1      34.158   9.059  26.342  1.00  0.00    -0.079 N 
ATOM     15  H13 UNL     1      34.094   8.295  25.670  1.00  0.00     0.274 HD
ATOM     16  H12 UNL     1      35.163   9.220  26.267  1.00  0.00     0.274 HD
ATOM     17  H11 UNL     1      33.868   8.787  27.282  1.00  0.00     0.274 HD
ENDBRANCH  13  14
ENDBRANCH  12  13
ENDBRANCH  11  12
ENDBRANCH   5  11
ENDBRANCH   4   5
ENDBRANCH   3   4
ENDBRANCH   1   3
BRANCH   1  18
HETATM   18  C10 UNL     1      28.355  13.826  23.924  1.00  0.00     0.710 A 
HETATM   19  N3  UNL     1      27.205  13.298  24.385  1.00  0.00    -0.021 N 
HETATM   20  C11 UNL     1      26.142  14.054  24.717  1.00  0.00     0.705 A 
ATOM     21  H3  UNL     1      27.136  12.285  24.486  1.00  0.00     0.203 HD
HETATM   22  N5  UNL     1      26.234  15.374  24.583  1.00  0.00    -0.022 N 
HETATM   23  C12 UNL     1      27.359  15.960  24.127  1.00  0.00     0.705 A 
ATOM     24  H5  UNL     1      25.435  15.957  24.830  1.00  0.00     0.203 HD
HETATM   25  N7  UNL     1      28.405  15.162  23.804  1.00  0.00    -0.021 N 
ATOM     26  H7  UNL     1      29.263  15.593  23.457  1.00  0.00     0.203 HD
BRANCH  20  27
HETATM   27  N4  UNL     1      25.057  13.504  25.155  1.00  0.00    -0.234 N 
ATOM     28  H42 UNL     1      25.070  12.902  25.978  1.00  0.00     0.174 HD
ATOM     29  H41 UNL     1      24.168  13.666  24.684  1.00  0.00     0.174 HD
ENDBRANCH  20  27
BRANCH  23  30
HETATM   30  N6  UNL     1      27.392  17.241  24.017  1.00  0.00    -0.234 N 
ATOM     31  H62 UNL     1      27.486  17.867  24.818  1.00  0.00     0.174 HD
ATOM     32  H61 UNL     1      27.323  17.658  23.089  1.00  0.00     0.174 HD
ENDBRANCH  23  30
ENDBRANCH   1  18
TORSDOF 13
ENDMDL
MODEL 2
REMARK VINA RESULT: -6.128945130      0.619      1.872
REMARK  13 active torsions:
REMARK  status: ('A' for Active; 'I' for Inactive)
REMARK    1  A    between atoms: C2_2  and  C3_3 
REMARK    2  A    between atoms: C3_3  and  C4_4 
REMARK    3  A    between atoms: C3_3  and  C5_7 
REMARK    4  A    between atoms: C3_3  and  C8_14 
REMARK    5  A    between atoms: C4_4  and  O1_5 
REMARK    6  A    between atoms: C5_7  and  C6_8 
REMARK    7  A    between atoms: C6_8  and  C7_9 
REMARK    8  A    between atoms: C7_9  and  N1_10 
REMARK    9  A    between atoms: C8_14  and  C9_15 
REMARK   10  A    between atoms: C9_15  and  N2_16 
REMARK   11  A    between atoms: N2_16  and  C10_18 
REMARK   12  A    between atoms: C11_21  and  N4_22 
REMARK   13  A    between atoms: C12_27  and  N6_28 
ROOT
HETATM    1  N2  UNL     1      29.458  12.705  23.748  1.00  0.00    -0.204 N 
ATOM      2  H2  UNL     1      30.250  12.890  24.362  1.00  0.00     0.183 HD
ENDROOT
BRANCH   1   3
HETATM    3  C9  UNL     1      29.677  11.721  22.784  1.00  0.00     0.080 C 
BRANCH   3   4
HETATM    4  C8  UNL     1      29.318  10.312  23.033  1.00  0.00     0.056 C 
BRANCH   4   5
HETATM    5  C3  UNL     1      29.658   9.664  24.287  1.00  0.00    -0.015 C 
BRANCH   5   6
HETATM    6  C2  UNL     1      28.356   9.325  25.041  1.00  0.00     0.007 C 
HETATM    7  C1  UNL     1      28.227  10.046  26.337  1.00  0.00     0.006 C 
ENDBRANCH   5   6
BRANCH   5   8
HETATM    8  C4  UNL     1      30.099   8.203  23.871  1.00  0.00     0.173 C 
BRANCH   8   9
HETATM    9  O1  UNL     1      29.881   7.403  24.991  1.00  0.00    -0.400 OA
ATOM     10  H1  UNL     1      30.011   6.507  24.701  1.00  0.00     0.209 HD
ENDBRANCH   8   9
ENDBRANCH   5   8
BRANCH   5  11
HETATM   11  C5  UNL     1      30.683  10.174  25.206  1.00  0.00     0.013 C 
BRANCH  11  12
HETATM   12  C6  UNL     1      32.108   9.910  24.999  1.00  0.00     0.028 C 
BRANCH  12  13
HETATM   13  C7  UNL     1      33.145  10.426  25.902  1.00  0.00     0.229 C 
BRANCH  13  14
HETATM   14  N1  UNL     1      34.058   9.307  26.216  1.00  0.00    -0.079 N 
ATOM     15  H13 UNL     1      34.007   9.015  27.192  1.00  0.00     0.274 HD
ATOM     16  H12 UNL     1      33.764   8.425  25.797  1.00  0.00     0.274 HD
ATOM     17  H11 UNL     1      34.997   9.588  25.933  1.00  0.00     0.274 HD
ENDBRANCH  13  14
ENDBRANCH  12  13
ENDBRANCH  11  12
ENDBRANCH   5  11
ENDBRANCH   4   5
ENDBRANCH   3   4
ENDBRANCH   1   3
BRANCH   1  18
HETATM   18  C10 UNL     1      28.430  13.403  23.978  1.00  0.00     0.710 A 
HETATM   19  N3  UNL     1      28.403  14.718  23.690  1.00  0.00    -0.021 N 
HETATM   20  C11 UNL     1      27.325  15.489  23.923  1.00  0.00     0.705 A 
ATOM     21  H3  UNL     1      29.232  15.147  23.279  1.00  0.00     0.203 HD
HETATM   22  N5  UNL     1      26.246  14.927  24.461  1.00  0.00    -0.022 N 
HETATM   23  C12 UNL     1      26.214  13.616  24.770  1.00  0.00     0.705 A 
ATOM     24  H5  UNL     1      25.423  15.502  24.644  1.00  0.00     0.203 HD
HETATM   25  N7  UNL     1      27.320  12.876  24.519  1.00  0.00    -0.021 N 
ATOM     26  H7  UNL     1      27.310  11.882  24.749  1.00  0.00     0.203 HD
BRANCH  20  27
HETATM   27  N4  UNL     1      27.343  16.748  23.631  1.00  0.00    -0.234 N 
ATOM     28  H42 UNL     1      28.193  17.301  23.744  1.00  0.00     0.174 HD
ATOM     29  H41 UNL     1      26.505  17.211  23.279  1.00  0.00     0.174 HD
ENDBRANCH  20  27
BRANCH  23  30
HETATM   30  N6  UNL     1      25.143  13.125  25.289  1.00  0.00    -0.234 N 
ATOM     31  H62 UNL     1      24.844  13.326  26.243  1.00  0.00     0.174 HD
ATOM     32  H61 UNL     1      24.561  12.506  24.725  1.00  0.00     0.174 HD
ENDBRANCH  23  30
ENDBRANCH   1  18
TORSDOF 13
ENDMDL
MODEL 3
REMARK VINA RESULT: -5.839531022      0.791      1.941
REMARK  13 active torsions:
REMARK  status: ('A' for Active; 'I' for Inactive)
REMARK    1  A    between atoms: C2_2  and  C3_3 
REMARK    2  A    between atoms: C3_3  and  C4_4 
REMARK    3  A    between atoms: C3_3  and  C5_7 
REMARK    4  A    between atoms: C3_3  and  C8_14 
REMARK    5  A    between atoms: C4_4  and  O1_5 
REMARK    6  A    between atoms: C5_7  and  C6_8 
REMARK    7  A    between atoms: C6_8  and  C7_9 
REMARK    8  A    between atoms: C7_9  and  N1_10 
REMARK    9  A    between atoms: C8_14  and  C9_15 
REMARK   10  A    between atoms: C9_15  and  N2_16 
REMARK   11  A    between atoms: N2_16  and  C10_18 
REMARK   12  A    between atoms: C11_21  and  N4_22 
REMARK   13  A    between atoms: C12_27  and  N6_28 
ROOT
HETATM    1  N2  UNL     1      29.419  13.189  23.532  1.00  0.00    -0.204 N 
ATOM      2  H2  UNL     1      30.288  13.459  23.991  1.00  0.00     0.183 HD
ENDROOT
BRANCH   1   3
HETATM    3  C9  UNL     1      29.537  12.144  22.614  1.00  0.00     0.080 C 
BRANCH   3   4
HETATM    4  C8  UNL     1      29.218  10.754  22.993  1.00  0.00     0.056 C 
BRANCH   4   5
HETATM    5  C3  UNL     1      30.145   9.961  23.779  1.00  0.00    -0.015 C 
BRANCH   5   6
HETATM    6  C2  UNL     1      29.340   8.998  24.676  1.00  0.00     0.007 C 
HETATM    7  C1  UNL     1      28.394   9.700  25.586  1.00  0.00     0.006 C 
ENDBRANCH   5   6
BRANCH   5   8
HETATM    8  C4  UNL     1      30.742   8.916  22.752  1.00  0.00     0.173 C 
BRANCH   8   9
HETATM    9  O1  UNL     1      31.487   9.659  21.839  1.00  0.00    -0.400 OA
ATOM     10  H1  UNL     1      31.210   9.367  20.978  1.00  0.00     0.209 HD
ENDBRANCH   8   9
ENDBRANCH   5   8
BRANCH   5  11
HETATM   11  C5  UNL     1      31.280  10.538  24.510  1.00  0.00     0.013 C 
BRANCH  11  12
HETATM   12  C6  UNL     1      32.097   9.739  25.425  1.00  0.00     0.028 C 
BRANCH  12  13
HETATM   13  C7  UNL     1      33.364  10.229  25.984  1.00  0.00     0.229 C 
BRANCH  13  14
HETATM   14  N1  UNL     1      34.173   9.050  26.356  1.00  0.00    -0.079 N 
ATOM     15  H13 UNL     1      33.609   8.214  26.511  1.00  0.00     0.274 HD
ATOM     16  H12 UNL     1      34.732   8.691  25.581  1.00  0.00     0.274 HD
ATOM     17  H11 UNL     1      34.736   9.306  27.167  1.00  0.00     0.274 HD
ENDBRANCH  13  14
ENDBRANCH  12  13
ENDBRANCH  11  12
ENDBRANCH   5  11
ENDBRANCH   4   5
ENDBRANCH   3   4
ENDBRANCH   1   3
BRANCH   1  18
HETATM   18  C10 UNL     1      28.402  13.853  23.881  1.00  0.00     0.710 A 
HETATM   19  N3  UNL     1      28.389  15.197  23.806  1.00  0.00    -0.021 N 
HETATM   20  C11 UNL     1      27.323  15.934  24.171  1.00  0.00     0.705 A 
ATOM     21  H3  UNL     1      29.220  15.677  23.460  1.00  0.00     0.203 HD
HETATM   22  N5  UNL     1      26.242  15.305  24.625  1.00  0.00    -0.022 N 
HETATM   23  C12 UNL     1      26.196  13.961  24.722  1.00  0.00     0.705 A 
ATOM     24  H5  UNL     1      25.429  15.852  24.905  1.00  0.00     0.203 HD
HETATM   25  N7  UNL     1      27.291  13.259  24.344  1.00  0.00    -0.021 N 
ATOM     26  H7  UNL     1      27.270  12.241  24.413  1.00  0.00     0.203 HD
BRANCH  20  27
HETATM   27  N4  UNL     1      27.354  17.223  24.082  1.00  0.00    -0.234 N 
ATOM     28  H42 UNL     1      27.305  17.687  23.176  1.00  0.00     0.174 HD
ATOM     29  H41 UNL     1      27.428  17.798  24.921  1.00  0.00     0.174 HD
ENDBRANCH  20  27
BRANCH  23  30
HETATM   30  N6  UNL     1      25.124  13.406  25.168  1.00  0.00    -0.234 N 
ATOM     31  H62 UNL     1      25.129  12.543  25.712  1.00  0.00     0.174 HD
ATOM     32  H61 UNL     1      24.224  13.845  24.972  1.00  0.00     0.174 HD
ENDBRANCH  23  30
ENDBRANCH   1  18
TORSDOF 13
ENDMDL
MODEL 4
REMARK VINA RESULT: -5.800066923      1.784      2.960
REMARK  13 active torsions:
REMARK  status: ('A' for Active; 'I' for Inactive)
REMARK    1  A    between atoms: C2_2  and  C3_3 
REMARK    2  A    between atoms: C3_3  and  C4_4 
REMARK    3  A    between atoms: C3_3  and  C5_7 
REMARK    4  A    between atoms: C3_3  and  C8_14 
REMARK    5  A    between atoms: C4_4  and  O1_5 
REMARK    6  A    between atoms: C5_7  and  C6_8 
REMARK    7  A    between atoms: C6_8  and  C7_9 
REMARK    8  A    between atoms: C7_9  and  N1_10 
REMARK    9  A    between atoms: C8_14  and  C9_15 
REMARK   10  A    between atoms: C9_15  and  N2_16 
REMARK   11  A    between atoms: N2_16  and  C10_18 
REMARK   12  A    between atoms: C11_21  and  N4_22 
REMARK   13  A    between atoms: C12_27  and  N6_28 
ROOT
HETATM    1  N2  UNL     1      28.730  12.240  24.942  1.00  0.00    -0.204 N 
ATOM      2  H2  UNL     1      29.718  12.406  24.754  1.00  0.00     0.183 HD
ENDROOT
BRANCH   1   3
HETATM    3  C9  UNL     1      28.437  10.999  25.506  1.00  0.00     0.080 C 
BRANCH   3   4
HETATM    4  C8  UNL     1      28.705   9.744  24.777  1.00  0.00     0.056 C 
BRANCH   4   5
HETATM    5  C3  UNL     1      30.032   9.440  24.274  1.00  0.00    -0.015 C 
BRANCH   5   6
HETATM    6  C2  UNL     1      31.028   9.466  25.453  1.00  0.00     0.007 C 
HETATM    7  C1  UNL     1      32.236  10.290  25.179  1.00  0.00     0.006 C 
ENDBRANCH   5   6
BRANCH   5   8
HETATM    8  C4  UNL     1      30.004   7.883  23.997  1.00  0.00     0.173 C 
BRANCH   8   9
HETATM    9  O1  UNL     1      29.909   7.273  25.246  1.00  0.00    -0.400 OA
ATOM     10  H1  UNL     1      30.022   7.968  25.885  1.00  0.00     0.209 HD
ENDBRANCH   8   9
ENDBRANCH   5   8
BRANCH   5  11
HETATM   11  C5  UNL     1      30.608  10.076  23.083  1.00  0.00     0.013 C 
BRANCH  11  12
HETATM   12  C6  UNL     1      29.772  10.719  22.069  1.00  0.00     0.028 C 
BRANCH  12  13
HETATM   13  C7  UNL     1      29.034   9.955  21.054  1.00  0.00     0.229 C 
BRANCH  13  14
HETATM   14  N1  UNL     1      27.653   9.776  21.549  1.00  0.00    -0.079 N 
ATOM     15  H13 UNL     1      27.317  10.574  22.088  1.00  0.00     0.274 HD
ATOM     16  H12 UNL     1      26.956   9.815  20.804  1.00  0.00     0.274 HD
ATOM     17  H11 UNL     1      27.625   8.901  22.074  1.00  0.00     0.274 HD
ENDBRANCH  13  14
ENDBRANCH  12  13
ENDBRANCH  11  12
ENDBRANCH   5  11
ENDBRANCH   4   5
ENDBRANCH   3   4
ENDBRANCH   1   3
BRANCH   1  18
HETATM   18  C10 UNL     1      27.960  13.192  24.626  1.00  0.00     0.710 A 
HETATM   19  N3  UNL     1      26.645  13.147  24.911  1.00  0.00    -0.021 N 
HETATM   20  C11 UNL     1      25.799  14.143  24.589  1.00  0.00     0.705 A 
ATOM     21  H3  UNL     1      26.275  12.326  25.391  1.00  0.00     0.203 HD
HETATM   22  N5  UNL     1      26.284  15.211  23.961  1.00  0.00    -0.022 N 
HETATM   23  C12 UNL     1      27.591  15.312  23.650  1.00  0.00     0.705 A 
ATOM     24  H5  UNL     1      25.652  15.971  23.711  1.00  0.00     0.203 HD
HETATM   25  N7  UNL     1      28.408  14.288  23.993  1.00  0.00    -0.021 N 
ATOM     26  H7  UNL     1      29.400  14.351  23.762  1.00  0.00     0.203 HD
BRANCH  20  27
HETATM   27  N4  UNL     1      24.543  14.058  24.882  1.00  0.00    -0.234 N 
ATOM     28  H42 UNL     1      24.236  13.959  25.850  1.00  0.00     0.174 HD
ATOM     29  H41 UNL     1      23.836  14.090  24.148  1.00  0.00     0.174 HD
ENDBRANCH  20  27
BRANCH  23  30
HETATM   30  N6  UNL     1      28.006  16.368  23.043  1.00  0.00    -0.234 N 
ATOM     31  H62 UNL     1      28.479  17.136  23.520  1.00  0.00     0.174 HD
ATOM     32  H61 UNL     1      27.859  16.448  22.037  1.00  0.00     0.174 HD
ENDBRANCH  23  30
ENDBRANCH   1  18
TORSDOF 13
ENDMDL
MODEL 5
REMARK VINA RESULT: -5.725841325      1.828      3.346
REMARK  13 active torsions:
REMARK  status: ('A' for Active; 'I' for Inactive)
REMARK    1  A    between atoms: C2_2  and  C3_3 
REMARK    2  A    between atoms: C3_3  and  C4_4 
REMARK    3  A    between atoms: C3_3  and  C5_7 
REMARK    4  A    between atoms: C3_3  and  C8_14 
REMARK    5  A    between atoms: C4_4  and  O1_5 
REMARK    6  A    between atoms: C5_7  and  C6_8 
REMARK    7  A    between atoms: C6_8  and  C7_9 
REMARK    8  A    between atoms: C7_9  and  N1_10 
REMARK    9  A    between atoms: C8_14  and  C9_15 
REMARK   10  A    between atoms: C9_15  and  N2_16 
REMARK   11  A    between atoms: N2_16  and  C10_18 
REMARK   12  A    between atoms: C11_21  and  N4_22 
REMARK   13  A    between atoms: C12_27  and  N6_28 
ROOT
HETATM    1  N2  UNL     1      28.548  12.167  24.863  1.00  0.00    -0.204 N 
ATOM      2  H2  UNL     1      29.547  12.371  24.877  1.00  0.00     0.183 HD
ENDROOT
BRANCH   1   3
HETATM    3  C9  UNL     1      28.215  10.836  25.115  1.00  0.00     0.080 C 
BRANCH   3   4
HETATM    4  C8  UNL     1      29.240   9.856  25.524  1.00  0.00     0.056 C 
BRANCH   4   5
HETATM    5  C3  UNL     1      30.365   9.545  24.662  1.00  0.00    -0.015 C 
BRANCH   5   6
HETATM    6  C2  UNL     1      31.594   9.233  25.541  1.00  0.00     0.007 C 
HETATM    7  C1  UNL     1      32.615  10.315  25.524  1.00  0.00     0.006 C 
ENDBRANCH   5   6
BRANCH   5   8
HETATM    8  C4  UNL     1      30.061   8.090  24.121  1.00  0.00     0.173 C 
BRANCH   8   9
HETATM    9  O1  UNL     1      29.918   7.285  25.248  1.00  0.00    -0.400 OA
ATOM     10  H1  UNL     1      30.083   7.849  25.995  1.00  0.00     0.209 HD
ENDBRANCH   8   9
ENDBRANCH   5   8
BRANCH   5  11
HETATM   11  C5  UNL     1      30.741  10.363  23.502  1.00  0.00     0.013 C 
BRANCH  11  12
HETATM   12  C6  UNL     1      30.312  10.023  22.144  1.00  0.00     0.028 C 
BRANCH  12  13
HETATM   13  C7  UNL     1      29.137  10.637  21.511  1.00  0.00     0.229 C 
BRANCH  13  14
HETATM   14  N1  UNL     1      28.010   9.693  21.654  1.00  0.00    -0.079 N 
ATOM     15  H13 UNL     1      28.219   8.915  22.281  1.00  0.00     0.274 HD
ATOM     16  H12 UNL     1      27.229  10.083  22.182  1.00  0.00     0.274 HD
ATOM     17  H11 UNL     1      27.743   9.388  20.718  1.00  0.00     0.274 HD
ENDBRANCH  13  14
ENDBRANCH  12  13
ENDBRANCH  11  12
ENDBRANCH   5  11
ENDBRANCH   4   5
ENDBRANCH   3   4
ENDBRANCH   1   3
BRANCH   1  18
HETATM   18  C10 UNL     1      27.804  13.159  24.619  1.00  0.00     0.710 A 
HETATM   19  N3  UNL     1      28.302  14.287  24.078  1.00  0.00    -0.021 N 
HETATM   20  C11 UNL     1      27.537  15.360  23.807  1.00  0.00     0.705 A 
ATOM     21  H3  UNL     1      29.299  14.329  23.864  1.00  0.00     0.203 HD
HETATM   22  N5  UNL     1      26.238  15.302  24.088  1.00  0.00    -0.022 N 
HETATM   23  C12 UNL     1      25.683  14.200  24.630  1.00  0.00     0.705 A 
ATOM     24  H5  UNL     1      25.649  16.110  23.889  1.00  0.00     0.203 HD
HETATM   25  N7  UNL     1      26.488  13.143  24.887  1.00  0.00    -0.021 N 
ATOM     26  H7  UNL     1      26.081  12.302  25.298  1.00  0.00     0.203 HD
BRANCH  20  27
HETATM   27  N4  UNL     1      28.058  16.423  23.287  1.00  0.00    -0.234 N 
ATOM     28  H42 UNL     1      29.066  16.576  23.306  1.00  0.00     0.174 HD
ATOM     29  H41 UNL     1      27.467  17.126  22.845  1.00  0.00     0.174 HD
ENDBRANCH  20  27
BRANCH  23  30
HETATM   30  N6  UNL     1      24.421  14.200  24.882  1.00  0.00    -0.234 N 
ATOM     31  H62 UNL     1      23.743  14.726  24.330  1.00  0.00     0.174 HD
ATOM     32  H61 UNL     1      24.075  13.650  25.668  1.00  0.00     0.174 HD
ENDBRANCH  23  30
ENDBRANCH   1  18
TORSDOF 13
ENDMDL
