MODEL 1
REMARK VINA RESULT: -7.188259498      0.000      0.000
REMARK  7 active torsions:
REMARK  status: ('A' for Active; 'I' for Inactive)
REMARK    1  A    between atoms: C2_2  and  C4_4 
REMARK    2  A    between atoms: C4_4  and  C5_5 
REMARK    3  A    between atoms: C5_5  and  C6_6 
REMARK    4  A    between atoms: C5_5  and  C13_18 
REMARK    5  A    between atoms: N1_7  and  N2_9 
REMARK    6  A    between atoms: N2_9  and  C7_11 
REMARK    7  A    between atoms: C7_11  and  C9_13 
ROOT
HETATM    1  C6  UNL     1      27.198  57.278  88.830  1.00  0.00     0.093 C 
HETATM    2  N1  UNL     1      28.385  57.077  88.309  1.00  0.00    -0.319 N 
ATOM      3  H1  UNL     1      28.907  56.221  88.498  1.00  0.00     0.185 HD
ENDROOT
BRANCH   2   4
HETATM    4  N2  UNL     1      28.905  58.072  87.492  1.00  0.00    -0.331 N 
ATOM      5  H2  UNL     1      29.890  58.029  87.231  1.00  0.00     0.180 HD
BRANCH   4   6
HETATM    6  C7  UNL     1      28.092  59.178  86.991  1.00  0.00     0.128 C 
HETATM    7  C8  UNL     1      28.595  60.419  87.617  1.00  0.00     0.036 C 
BRANCH   6   8
HETATM    8  C9  UNL     1      28.018  59.095  85.535  1.00  0.00     0.239 A 
HETATM    9  C10 UNL     1      26.638  59.464  84.977  1.00  0.00     0.272 A 
HETATM   10  N3  UNL     1      27.343  58.222  84.706  1.00  0.00    -0.065 N 
HETATM   11  C11 UNL     1      27.793  58.152  83.302  1.00  0.00     0.272 C 
HETATM   12  C12 UNL     1      26.635  57.045  85.110  1.00  0.00     0.272 C 
ENDBRANCH   6   8
ENDBRANCH   4   6
ENDBRANCH   2   4
BRANCH   1  13
HETATM   13  C5  UNL     1      26.625  56.252  89.692  1.00  0.00     0.115 C 
BRANCH  13  14
HETATM   14  C4  UNL     1      25.248  56.474  90.206  1.00  0.00     0.023 C 
BRANCH  14  15
HETATM   15  C2  UNL     1      24.350  55.304  90.032  1.00  0.00    -0.022 C 
HETATM   16  C1  UNL     1      23.240  55.492  89.072  1.00  0.00     0.009 C 
HETATM   17  C3  UNL     1      23.840  54.835  91.405  1.00  0.00     0.009 C 
ENDBRANCH  14  15
ENDBRANCH  13  14
BRANCH  13  18
HETATM   18  C13 UNL     1      27.505  55.992  90.879  1.00  0.00     0.240 C 
HETATM   19  N4  UNL     1      27.094  56.408  92.178  1.00  0.00    -0.061 NA
HETATM   20  O1  UNL     1      28.593  55.407  90.684  1.00  0.00    -0.276 OA
ENDBRANCH  13  18
ENDBRANCH   1  13
TORSDOF 7
ENDMDL
MODEL 2
REMARK VINA RESULT: -6.943383715      3.223      4.336
REMARK  7 active torsions:
REMARK  status: ('A' for Active; 'I' for Inactive)
REMARK    1  A    between atoms: C2_2  and  C4_4 
REMARK    2  A    between atoms: C4_4  and  C5_5 
REMARK    3  A    between atoms: C5_5  and  C6_6 
REMARK    4  A    between atoms: C5_5  and  C13_18 
REMARK    5  A    between atoms: N1_7  and  N2_9 
REMARK    6  A    between atoms: N2_9  and  C7_11 
REMARK    7  A    between atoms: C7_11  and  C9_13 
ROOT
HETATM    1  C6  UNL     1      24.277  55.578  88.629  1.00  0.00     0.093 C 
HETATM    2  N1  UNL     1      23.805  55.348  87.427  1.00  0.00    -0.319 N 
ATOM      3  H1  UNL     1      22.883  54.934  87.290  1.00  0.00     0.185 HD
ENDROOT
BRANCH   2   4
HETATM    4  N2  UNL     1      24.609  55.689  86.346  1.00  0.00    -0.331 N 
ATOM      5  H2  UNL     1      25.532  55.262  86.267  1.00  0.00     0.180 HD
BRANCH   4   6
HETATM    6  C7  UNL     1      24.180  56.635  85.320  1.00  0.00     0.128 C 
HETATM    7  C8  UNL     1      22.708  56.737  85.395  1.00  0.00     0.036 C 
BRANCH   6   8
HETATM    8  C9  UNL     1      24.983  57.851  85.426  1.00  0.00     0.239 A 
HETATM    9  C10 UNL     1      25.170  58.571  84.085  1.00  0.00     0.272 A 
HETATM   10  N3  UNL     1      26.250  58.148  84.962  1.00  0.00    -0.065 N 
HETATM   11  C11 UNL     1      26.930  59.305  85.577  1.00  0.00     0.272 C 
HETATM   12  C12 UNL     1      27.169  57.232  84.360  1.00  0.00     0.272 C 
ENDBRANCH   6   8
ENDBRANCH   4   6
ENDBRANCH   2   4
BRANCH   1  13
HETATM   13  C5  UNL     1      23.456  55.231  89.784  1.00  0.00     0.115 C 
BRANCH  13  14
HETATM   14  C4  UNL     1      24.060  54.351  90.818  1.00  0.00     0.023 C 
BRANCH  14  15
HETATM   15  C2  UNL     1      24.602  55.089  91.987  1.00  0.00    -0.022 C 
HETATM   16  C1  UNL     1      26.035  55.446  91.905  1.00  0.00     0.009 C 
HETATM   17  C3  UNL     1      24.281  54.318  93.279  1.00  0.00     0.009 C 
ENDBRANCH  14  15
ENDBRANCH  13  14
BRANCH  13  18
HETATM   18  C13 UNL     1      22.167  54.594  89.357  1.00  0.00     0.240 C 
HETATM   19  N4  UNL     1      22.058  53.174  89.295  1.00  0.00    -0.061 NA
HETATM   20  O1  UNL     1      21.212  55.346  89.064  1.00  0.00    -0.276 OA
ENDBRANCH  13  18
ENDBRANCH   1  13
TORSDOF 7
ENDMDL
MODEL 3
REMARK VINA RESULT: -6.894729980      3.404      4.707
REMARK  7 active torsions:
REMARK  status: ('A' for Active; 'I' for Inactive)
REMARK    1  A    between atoms: C2_2  and  C4_4 
REMARK    2  A    between atoms: C4_4  and  C5_5 
REMARK    3  A    between atoms: C5_5  and  C6_6 
REMARK    4  A    between atoms: C5_5  and  C13_18 
REMARK    5  A    between atoms: N1_7  and  N2_9 
REMARK    6  A    between atoms: N2_9  and  C7_11 
REMARK    7  A    between atoms: C7_11  and  C9_13 
ROOT
HETATM    1  C6  UNL     1      23.221  56.024  88.817  1.00  0.00     0.093 C 
HETATM    2  N1  UNL     1      22.786  55.774  87.605  1.00  0.00    -0.319 N 
ATOM      3  H1  UNL     1      22.220  54.949  87.406  1.00  0.00     0.185 HD
ENDROOT
BRANCH   2   4
HETATM    4  N2  UNL     1      23.125  56.674  86.603  1.00  0.00    -0.331 N 
ATOM      5  H2  UNL     1      22.820  57.644  86.690  1.00  0.00     0.180 HD
BRANCH   4   6
HETATM    6  C7  UNL     1      23.903  56.284  85.430  1.00  0.00     0.128 C 
HETATM    7  C8  UNL     1      22.948  55.973  84.346  1.00  0.00     0.036 C 
BRANCH   6   8
HETATM    8  C9  UNL     1      24.946  57.279  85.195  1.00  0.00     0.239 A 
HETATM    9  C10 UNL     1      26.322  56.660  84.926  1.00  0.00     0.272 A 
HETATM   10  N3  UNL     1      26.039  57.648  85.954  1.00  0.00    -0.065 N 
HETATM   11  C11 UNL     1      26.661  58.949  85.639  1.00  0.00     0.272 C 
HETATM   12  C12 UNL     1      26.334  57.212  87.284  1.00  0.00     0.272 C 
ENDBRANCH   6   8
ENDBRANCH   4   6
ENDBRANCH   2   4
BRANCH   1  13
HETATM   13  C5  UNL     1      22.881  55.097  89.891  1.00  0.00     0.115 C 
BRANCH  13  14
HETATM   14  C4  UNL     1      23.998  54.383  90.563  1.00  0.00     0.023 C 
BRANCH  14  15
HETATM   15  C2  UNL     1      24.289  54.884  91.930  1.00  0.00    -0.022 C 
HETATM   16  C1  UNL     1      25.690  55.291  92.174  1.00  0.00     0.009 C 
HETATM   17  C3  UNL     1      23.807  53.858  92.970  1.00  0.00     0.009 C 
ENDBRANCH  14  15
ENDBRANCH  13  14
BRANCH  13  18
HETATM   18  C13 UNL     1      21.910  54.056  89.417  1.00  0.00     0.240 C 
HETATM   19  N4  UNL     1      20.519  54.355  89.349  1.00  0.00    -0.061 NA
HETATM   20  O1  UNL     1      22.365  52.937  89.090  1.00  0.00    -0.276 OA
ENDBRANCH  13  18
ENDBRANCH   1  13
TORSDOF 7
ENDMDL
MODEL 4
REMARK VINA RESULT: -6.847988537      2.930      6.745
REMARK  7 active torsions:
REMARK  status: ('A' for Active; 'I' for Inactive)
REMARK    1  A    between atoms: C2_2  and  C4_4 
REMARK    2  A    between atoms: C4_4  and  C5_5 
REMARK    3  A    between atoms: C5_5  and  C6_6 
REMARK    4  A    between atoms: C5_5  and  C13_18 
REMARK    5  A    between atoms: N1_7  and  N2_9 
REMARK    6  A    between atoms: N2_9  and  C7_11 
REMARK    7  A    between atoms: C7_11  and  C9_13 
ROOT
HETATM    1  C6  UNL     1      26.415  59.305  85.326  1.00  0.00     0.093 C 
HETATM    2  N1  UNL     1      27.099  58.222  85.043  1.00  0.00    -0.319 N 
ATOM      3  H1  UNL     1      27.859  58.239  84.363  1.00  0.00     0.185 HD
ENDROOT
BRANCH   2   4
HETATM    4  N2  UNL     1      26.751  57.052  85.705  1.00  0.00    -0.331 N 
ATOM      5  H2  UNL     1      27.239  56.189  85.467  1.00  0.00     0.180 HD
BRANCH   4   6
HETATM    6  C7  UNL     1      25.710  57.012  86.729  1.00  0.00     0.128 C 
HETATM    7  C8  UNL     1      24.580  56.229  86.187  1.00  0.00     0.036 C 
BRANCH   6   8
HETATM    8  C9  UNL     1      26.307  56.612  88.001  1.00  0.00     0.239 A 
HETATM    9  C10 UNL     1      25.761  57.397  89.199  1.00  0.00     0.272 A 
HETATM   10  N3  UNL     1      27.167  57.277  88.852  1.00  0.00    -0.065 N 
HETATM   11  C11 UNL     1      27.898  56.455  89.837  1.00  0.00     0.272 C 
HETATM   12  C12 UNL     1      27.817  58.525  88.595  1.00  0.00     0.272 C 
ENDBRANCH   6   8
ENDBRANCH   4   6
ENDBRANCH   2   4
BRANCH   1  13
HETATM   13  C5  UNL     1      26.758  60.550  84.647  1.00  0.00     0.115 C 
BRANCH  13  14
HETATM   14  C4  UNL     1      26.513  60.626  83.184  1.00  0.00     0.023 C 
BRANCH  14  15
HETATM   15  C2  UNL     1      25.177  61.170  82.830  1.00  0.00    -0.022 C 
HETATM   16  C1  UNL     1      24.153  60.162  82.476  1.00  0.00     0.009 C 
HETATM   17  C3  UNL     1      25.327  62.236  81.732  1.00  0.00     0.009 C 
ENDBRANCH  14  15
ENDBRANCH  13  14
BRANCH  13  18
HETATM   18  C13 UNL     1      28.197  60.910  84.876  1.00  0.00     0.240 C 
HETATM   19  N4  UNL     1      28.532  62.028  85.692  1.00  0.00    -0.061 NA
HETATM   20  O1  UNL     1      29.071  60.201  84.331  1.00  0.00    -0.276 OA
ENDBRANCH  13  18
ENDBRANCH   1  13
TORSDOF 7
ENDMDL
MODEL 5
REMARK VINA RESULT: -6.833640792      3.287      7.327
REMARK  7 active torsions:
REMARK  status: ('A' for Active; 'I' for Inactive)
REMARK    1  A    between atoms: C2_2  and  C4_4 
REMARK    2  A    between atoms: C4_4  and  C5_5 
REMARK    3  A    between atoms: C5_5  and  C6_6 
REMARK    4  A    between atoms: C5_5  and  C13_18 
REMARK    5  A    between atoms: N1_7  and  N2_9 
REMARK    6  A    between atoms: N2_9  and  C7_11 
REMARK    7  A    between atoms: C7_11  and  C9_13 
ROOT
HETATM    1  C6  UNL     1      25.745  58.255  84.850  1.00  0.00     0.093 C 
HETATM    2  N1  UNL     1      25.801  56.995  84.491  1.00  0.00    -0.319 N 
ATOM      3  H1  UNL     1      26.545  56.650  83.884  1.00  0.00     0.185 HD
ENDROOT
BRANCH   2   4
HETATM    4  N2  UNL     1      24.810  56.147  84.968  1.00  0.00    -0.331 N 
ATOM      5  H2  UNL     1      24.957  55.139  84.912  1.00  0.00     0.180 HD
BRANCH   4   6
HETATM    6  C7  UNL     1      23.565  56.646  85.546  1.00  0.00     0.128 C 
HETATM    7  C8  UNL     1      22.534  56.603  84.488  1.00  0.00     0.036 C 
BRANCH   6   8
HETATM    8  C9  UNL     1      23.316  55.957  86.810  1.00  0.00     0.239 A 
HETATM    9  C10 UNL     1      22.694  56.863  87.880  1.00  0.00     0.272 A 
HETATM   10  N3  UNL     1      23.911  56.086  88.049  1.00  0.00    -0.065 N 
HETATM   11  C11 UNL     1      23.714  54.975  89.002  1.00  0.00     0.272 C 
HETATM   12  C12 UNL     1      25.069  56.869  88.356  1.00  0.00     0.272 C 
ENDBRANCH   6   8
ENDBRANCH   4   6
ENDBRANCH   2   4
BRANCH   1  13
HETATM   13  C5  UNL     1      26.772  59.171  84.365  1.00  0.00     0.115 C 
BRANCH  13  14
HETATM   14  C4  UNL     1      26.391  60.594  84.175  1.00  0.00     0.023 C 
BRANCH  14  15
HETATM   15  C2  UNL     1      27.552  61.503  83.989  1.00  0.00    -0.022 C 
HETATM   16  C1  UNL     1      28.234  61.927  85.231  1.00  0.00     0.009 C 
HETATM   17  C3  UNL     1      27.130  62.709  83.132  1.00  0.00     0.009 C 
ENDBRANCH  14  15
ENDBRANCH  13  14
BRANCH  13  18
HETATM   18  C13 UNL     1      27.354  58.690  83.068  1.00  0.00     0.240 C 
HETATM   19  N4  UNL     1      26.611  58.823  81.860  1.00  0.00    -0.061 NA
HETATM   20  O1  UNL     1      28.495  58.178  83.093  1.00  0.00    -0.276 OA
ENDBRANCH  13  18
ENDBRANCH   1  13
TORSDOF 7
ENDMDL
