MODEL 1
REMARK VINA RESULT: -6.852179111      0.000      0.000
REMARK  7 active torsions:
REMARK  status: ('A' for Active; 'I' for Inactive)
REMARK    1  A    between atoms: C2_2  and  C3_3 
REMARK    2  A    between atoms: C3_3  and  N1_4 
REMARK       I    between atoms: N1_4  and  C5_6 
REMARK       I    between atoms: C5_6  and  N2_8 
REMARK    3  A    between atoms: N2_8  and  C6_10 
REMARK    4  A    between atoms: C6_10  and  C7_11 
REMARK    5  A    between atoms: C7_11  and  C8_12 
REMARK    6  A    between atoms: C8_12  and  N3_13 
REMARK       I    between atoms: N3_13  and  C9_15 
REMARK    7  A    between atoms: C9_15  and  C10_17 
ROOT
HETATM    1  C6  UNL     1      27.582  56.716  89.994  1.00  0.00     0.126 C 
ENDROOT
BRANCH   1   2
HETATM    2  N2  UNL     1      27.931  57.976  89.399  1.00  0.00    -0.343 N 
HETATM    3  C5  UNL     1      28.143  58.174  88.015  1.00  0.00     0.318 C 
HETATM    4  N1  UNL     1      28.484  59.459  87.528  1.00  0.00    -0.335 N 
HETATM    5  O1  UNL     1      28.023  57.204  87.238  1.00  0.00    -0.247 OA
HETATM    6  C4  UNL     1      28.631  60.604  88.407  1.00  0.00     0.154 C 
ATOM      7  H2  UNL     1      28.032  58.782  90.016  1.00  0.00     0.164 HD
BRANCH   4   8
HETATM    8  C3  UNL     1      28.700  59.652  86.107  1.00  0.00     0.153 C 
BRANCH   8   9
HETATM    9  C2  UNL     1      27.635  60.428  85.457  1.00  0.00    -0.017 C 
HETATM   10  C1  UNL     1      27.931  61.605  84.924  1.00  0.00     0.008 C 
ENDBRANCH   8   9
ENDBRANCH   4   8
ENDBRANCH   1   2
BRANCH   1  11
HETATM   11  C7  UNL     1      26.174  56.715  90.586  1.00  0.00     0.039 C 
BRANCH  11  12
HETATM   12  C8  UNL     1      25.271  55.880  89.707  1.00  0.00     0.124 C 
BRANCH  12  13
HETATM   13  N3  UNL     1      25.274  56.337  88.335  1.00  0.00    -0.360 N 
HETATM   14  C9  UNL     1      24.228  55.947  87.471  1.00  0.00     0.225 C 
HETATM   15  O2  UNL     1      23.295  55.208  87.880  1.00  0.00    -0.273 OA
ATOM     16  H3  UNL     1      26.027  56.935  87.994  1.00  0.00     0.162 HD
BRANCH  14  17
HETATM   17  C10 UNL     1      24.246  56.423  86.066  1.00  0.00     0.030 C 
HETATM   18  C11 UNL     1      25.150  57.615  85.951  1.00  0.00     0.024 C 
HETATM   19  C12 UNL     1      24.730  55.331  85.122  1.00  0.00     0.024 C 
HETATM   20  C13 UNL     1      22.804  56.803  85.726  1.00  0.00     0.024 C 
ENDBRANCH  14  17
ENDBRANCH  12  13
ENDBRANCH  11  12
ENDBRANCH   1  11
TORSDOF 7
ENDMDL
MODEL 2
REMARK VINA RESULT: -6.806011639      2.425      5.822
REMARK  7 active torsions:
REMARK  status: ('A' for Active; 'I' for Inactive)
REMARK    1  A    between atoms: C2_2  and  C3_3 
REMARK    2  A    between atoms: C3_3  and  N1_4 
REMARK       I    between atoms: N1_4  and  C5_6 
REMARK       I    between atoms: C5_6  and  N2_8 
REMARK    3  A    between atoms: N2_8  and  C6_10 
REMARK    4  A    between atoms: C6_10  and  C7_11 
REMARK    5  A    between atoms: C7_11  and  C8_12 
REMARK    6  A    between atoms: C8_12  and  N3_13 
REMARK       I    between atoms: N3_13  and  C9_15 
REMARK    7  A    between atoms: C9_15  and  C10_17 
ROOT
HETATM    1  C6  UNL     1      26.935  56.752  89.718  1.00  0.00     0.126 C 
ENDROOT
BRANCH   1   2
HETATM    2  N2  UNL     1      25.577  56.562  89.293  1.00  0.00    -0.343 N 
HETATM    3  C5  UNL     1      24.683  55.630  89.868  1.00  0.00     0.318 C 
HETATM    4  N1  UNL     1      23.361  55.519  89.374  1.00  0.00    -0.335 N 
HETATM    5  O1  UNL     1      25.078  54.913  90.811  1.00  0.00    -0.247 OA
HETATM    6  C4  UNL     1      22.875  56.338  88.278  1.00  0.00     0.154 C 
ATOM      7  H2  UNL     1      25.234  57.139  88.524  1.00  0.00     0.164 HD
BRANCH   4   8
HETATM    8  C3  UNL     1      22.451  54.560  89.970  1.00  0.00     0.153 C 
BRANCH   8   9
HETATM    9  C2  UNL     1      21.144  54.504  89.301  1.00  0.00    -0.017 C 
HETATM   10  C1  UNL     1      20.171  53.790  89.850  1.00  0.00     0.008 C 
ENDBRANCH   8   9
ENDBRANCH   4   8
ENDBRANCH   1   2
BRANCH   1  11
HETATM   11  C7  UNL     1      27.675  57.791  88.878  1.00  0.00     0.039 C 
BRANCH  11  12
HETATM   12  C8  UNL     1      28.183  57.133  87.616  1.00  0.00     0.124 C 
BRANCH  12  13
HETATM   13  N3  UNL     1      28.012  57.978  86.455  1.00  0.00    -0.360 N 
HETATM   14  C9  UNL     1      26.764  58.011  85.798  1.00  0.00     0.225 C 
HETATM   15  O2  UNL     1      25.799  57.316  86.209  1.00  0.00    -0.273 OA
ATOM     16  H3  UNL     1      28.789  58.545  86.114  1.00  0.00     0.162 HD
BRANCH  14  17
HETATM   17  C10 UNL     1      26.605  58.884  84.608  1.00  0.00     0.030 C 
HETATM   18  C11 UNL     1      25.177  58.850  84.147  1.00  0.00     0.024 C 
HETATM   19  C12 UNL     1      26.996  60.321  84.926  1.00  0.00     0.024 C 
HETATM   20  C13 UNL     1      27.535  58.317  83.535  1.00  0.00     0.024 C 
ENDBRANCH  14  17
ENDBRANCH  12  13
ENDBRANCH  11  12
ENDBRANCH   1  11
TORSDOF 7
ENDMDL
MODEL 3
REMARK VINA RESULT: -6.791701287      2.824      6.036
REMARK  7 active torsions:
REMARK  status: ('A' for Active; 'I' for Inactive)
REMARK    1  A    between atoms: C2_2  and  C3_3 
REMARK    2  A    between atoms: C3_3  and  N1_4 
REMARK       I    between atoms: N1_4  and  C5_6 
REMARK       I    between atoms: C5_6  and  N2_8 
REMARK    3  A    between atoms: N2_8  and  C6_10 
REMARK    4  A    between atoms: C6_10  and  C7_11 
REMARK    5  A    between atoms: C7_11  and  C8_12 
REMARK    6  A    between atoms: C8_12  and  N3_13 
REMARK       I    between atoms: N3_13  and  C9_15 
REMARK    7  A    between atoms: C9_15  and  C10_17 
ROOT
HETATM    1  C6  UNL     1      22.927  55.121  89.098  1.00  0.00     0.126 C 
ENDROOT
BRANCH   1   2
HETATM    2  N2  UNL     1      24.057  55.399  89.939  1.00  0.00    -0.343 N 
HETATM    3  C5  UNL     1      24.155  55.015  91.297  1.00  0.00     0.318 C 
HETATM    4  N1  UNL     1      25.315  55.338  92.042  1.00  0.00    -0.335 N 
HETATM    5  O1  UNL     1      23.209  54.391  91.821  1.00  0.00    -0.247 OA
HETATM    6  C4  UNL     1      26.429  56.064  91.459  1.00  0.00     0.154 C 
ATOM      7  H2  UNL     1      24.841  55.907  89.530  1.00  0.00     0.164 HD
BRANCH   4   8
HETATM    8  C3  UNL     1      25.406  54.942  93.433  1.00  0.00     0.153 C 
BRANCH   8   9
HETATM    9  C2  UNL     1      26.183  55.879  94.256  1.00  0.00    -0.017 C 
HETATM   10  C1  UNL     1      25.798  56.111  95.503  1.00  0.00     0.008 C 
ENDBRANCH   8   9
ENDBRANCH   4   8
ENDBRANCH   1   2
BRANCH   1  11
HETATM   11  C7  UNL     1      22.503  56.329  88.265  1.00  0.00     0.039 C 
BRANCH  11  12
HETATM   12  C8  UNL     1      23.071  56.188  86.870  1.00  0.00     0.124 C 
BRANCH  12  13
HETATM   13  N3  UNL     1      24.395  56.759  86.762  1.00  0.00    -0.360 N 
HETATM   14  C9  UNL     1      24.877  57.160  85.497  1.00  0.00     0.225 C 
HETATM   15  O2  UNL     1      24.169  57.026  84.465  1.00  0.00    -0.273 OA
ATOM     16  H3  UNL     1      24.976  56.872  87.593  1.00  0.00     0.162 HD
BRANCH  14  17
HETATM   17  C10 UNL     1      26.237  57.745  85.403  1.00  0.00     0.030 C 
HETATM   18  C11 UNL     1      27.098  56.876  84.533  1.00  0.00     0.024 C 
HETATM   19  C12 UNL     1      26.190  59.151  84.820  1.00  0.00     0.024 C 
HETATM   20  C13 UNL     1      26.782  57.792  86.830  1.00  0.00     0.024 C 
ENDBRANCH  14  17
ENDBRANCH  12  13
ENDBRANCH  11  12
ENDBRANCH   1  11
TORSDOF 7
ENDMDL
MODEL 4
REMARK VINA RESULT: -6.785387192      6.192      8.594
REMARK  7 active torsions:
REMARK  status: ('A' for Active; 'I' for Inactive)
REMARK    1  A    between atoms: C2_2  and  C3_3 
REMARK    2  A    between atoms: C3_3  and  N1_4 
REMARK       I    between atoms: N1_4  and  C5_6 
REMARK       I    between atoms: C5_6  and  N2_8 
REMARK    3  A    between atoms: N2_8  and  C6_10 
REMARK    4  A    between atoms: C6_10  and  C7_11 
REMARK    5  A    between atoms: C7_11  and  C8_12 
REMARK    6  A    between atoms: C8_12  and  N3_13 
REMARK       I    between atoms: N3_13  and  C9_15 
REMARK    7  A    between atoms: C9_15  and  C10_17 
ROOT
HETATM    1  C6  UNL     1      26.140  55.614  95.280  1.00  0.00     0.126 C 
ENDROOT
BRANCH   1   2
HETATM    2  N2  UNL     1      26.258  55.860  93.870  1.00  0.00    -0.343 N 
HETATM    3  C5  UNL     1      25.378  55.341  92.893  1.00  0.00     0.318 C 
HETATM    4  N1  UNL     1      25.582  55.642  91.524  1.00  0.00    -0.335 N 
HETATM    5  O1  UNL     1      24.426  54.618  93.255  1.00  0.00    -0.247 OA
HETATM    6  C4  UNL     1      26.680  56.477  91.073  1.00  0.00     0.154 C 
ATOM      7  H2  UNL     1      27.028  56.449  93.552  1.00  0.00     0.164 HD
BRANCH   4   8
HETATM    8  C3  UNL     1      24.674  55.105  90.529  1.00  0.00     0.153 C 
BRANCH   8   9
HETATM    9  C2  UNL     1      24.557  55.949  89.332  1.00  0.00    -0.017 C 
HETATM   10  C1  UNL     1      23.389  56.021  88.709  1.00  0.00     0.008 C 
ENDBRANCH   8   9
ENDBRANCH   4   8
ENDBRANCH   1   2
BRANCH   1  11
HETATM   11  C7  UNL     1      25.351  56.705  96.002  1.00  0.00     0.039 C 
BRANCH  11  12
HETATM   12  C8  UNL     1      24.164  56.076  96.695  1.00  0.00     0.124 C 
BRANCH  12  13
HETATM   13  N3  UNL     1      24.042  54.667  96.395  1.00  0.00    -0.360 N 
HETATM   14  C9  UNL     1      23.129  53.878  97.127  1.00  0.00     0.225 C 
HETATM   15  O2  UNL     1      22.422  54.384  98.036  1.00  0.00    -0.273 OA
ATOM     16  H3  UNL     1      24.611  54.247  95.660  1.00  0.00     0.162 HD
BRANCH  14  17
HETATM   17  C10 UNL     1      23.015  52.434  96.806  1.00  0.00     0.030 C 
HETATM   18  C11 UNL     1      21.711  51.904  97.327  1.00  0.00     0.024 C 
HETATM   19  C12 UNL     1      23.089  52.198  95.303  1.00  0.00     0.024 C 
HETATM   20  C13 UNL     1      24.193  51.748  97.498  1.00  0.00     0.024 C 
ENDBRANCH  14  17
ENDBRANCH  12  13
ENDBRANCH  11  12
ENDBRANCH   1  11
TORSDOF 7
ENDMDL
MODEL 5
REMARK VINA RESULT: -6.777953955      4.105      6.919
REMARK  7 active torsions:
REMARK  status: ('A' for Active; 'I' for Inactive)
REMARK    1  A    between atoms: C2_2  and  C3_3 
REMARK    2  A    between atoms: C3_3  and  N1_4 
REMARK       I    between atoms: N1_4  and  C5_6 
REMARK       I    between atoms: C5_6  and  N2_8 
REMARK    3  A    between atoms: N2_8  and  C6_10 
REMARK    4  A    between atoms: C6_10  and  C7_11 
REMARK    5  A    between atoms: C7_11  and  C8_12 
REMARK    6  A    between atoms: C8_12  and  N3_13 
REMARK       I    between atoms: N3_13  and  C9_15 
REMARK    7  A    between atoms: C9_15  and  C10_17 
ROOT
HETATM    1  C6  UNL     1      26.334  55.597  91.478  1.00  0.00     0.126 C 
ENDROOT
BRANCH   1   2
HETATM    2  N2  UNL     1      25.462  55.147  92.527  1.00  0.00    -0.343 N 
HETATM    3  C5  UNL     1      25.656  55.427  93.899  1.00  0.00     0.318 C 
HETATM    4  N1  UNL     1      24.736  54.936  94.859  1.00  0.00    -0.335 N 
HETATM    5  O1  UNL     1      26.642  56.109  94.247  1.00  0.00    -0.247 OA
HETATM    6  C4  UNL     1      23.582  54.139  94.484  1.00  0.00     0.154 C 
ATOM      7  H2  UNL     1      24.649  54.589  92.265  1.00  0.00     0.164 HD
BRANCH   4   8
HETATM    8  C3  UNL     1      24.943  55.227  96.264  1.00  0.00     0.153 C 
BRANCH   8   9
HETATM    9  C2  UNL     1      23.942  56.148  96.821  1.00  0.00    -0.017 C 
HETATM   10  C1  UNL     1      24.270  57.419  97.005  1.00  0.00     0.008 C 
ENDBRANCH   8   9
ENDBRANCH   4   8
ENDBRANCH   1   2
BRANCH   1  11
HETATM   11  C7  UNL     1      25.570  56.100  90.255  1.00  0.00     0.039 C 
BRANCH  11  12
HETATM   12  C8  UNL     1      26.509  56.904  89.384  1.00  0.00     0.124 C 
BRANCH  12  13
HETATM   13  N3  UNL     1      25.990  57.086  88.047  1.00  0.00    -0.360 N 
HETATM   14  C9  UNL     1      26.879  57.388  86.993  1.00  0.00     0.225 C 
HETATM   15  O2  UNL     1      28.114  57.501  87.203  1.00  0.00    -0.273 OA
ATOM     16  H3  UNL     1      24.990  56.997  87.867  1.00  0.00     0.162 HD
BRANCH  14  17
HETATM   17  C10 UNL     1      26.331  57.572  85.626  1.00  0.00     0.030 C 
HETATM   18  C11 UNL     1      26.433  59.017  85.234  1.00  0.00     0.024 C 
HETATM   19  C12 UNL     1      27.086  56.721  84.613  1.00  0.00     0.024 C 
HETATM   20  C13 UNL     1      24.869  57.129  85.689  1.00  0.00     0.024 C 
ENDBRANCH  14  17
ENDBRANCH  12  13
ENDBRANCH  11  12
ENDBRANCH   1  11
TORSDOF 7
ENDMDL
