MODEL 1
REMARK VINA RESULT: -7.794408046      0.000      0.000
REMARK  6 active torsions:
REMARK  status: ('A' for Active; 'I' for Inactive)
REMARK    1  A    between atoms: C2_2  and  C3_3 
REMARK    2  A    between atoms: C3_3  and  C4_4 
REMARK    3  A    between atoms: C4_4  and  C5_5 
REMARK    4  A    between atoms: C5_5  and  N1_7 
REMARK       I    between atoms: N1_7  and  C7_9 
REMARK    5  A    between atoms: C7_9  and  C8_11 
REMARK    6  A    between atoms: C10_13  and  C12_15 
REMARK       I    between atoms: C12_15  and  N2_17 
REMARK       I    between atoms: N2_17  and  C13_19 
ROOT
HETATM    1  C8  UNL     1      24.730  55.783  87.864  1.00  0.00     0.096 A 
HETATM    2  C9  UNL     1      24.419  56.866  88.820  1.00  0.00     0.035 A 
HETATM    3  C10 UNL     1      23.263  56.146  88.295  1.00  0.00     0.051 A 
HETATM    4  C11 UNL     1      22.431  56.591  87.142  1.00  0.00     0.026 C 
ENDROOT
BRANCH   1   5
HETATM    5  C7  UNL     1      24.933  56.130  86.402  1.00  0.00     0.223 C 
HETATM    6  N1  UNL     1      25.577  57.318  86.055  1.00  0.00    -0.356 N 
ATOM      7  H1  UNL     1      25.825  57.906  86.851  1.00  0.00     0.162 HD
HETATM    8  O1  UNL     1      24.518  55.310  85.564  1.00  0.00    -0.273 OA
BRANCH   6   9
HETATM    9  C5  UNL     1      25.947  57.857  84.807  1.00  0.00     0.090 C 
HETATM   10  C6  UNL     1      27.228  57.312  84.268  1.00  0.00     0.033 C 
BRANCH   9  11
HETATM   11  C4  UNL     1      25.862  59.374  84.741  1.00  0.00     0.109 C 
BRANCH  11  12
HETATM   12  C3  UNL     1      26.830  60.110  84.997  1.00  0.00    -0.155 C 
BRANCH  12  13
HETATM   13  C2  UNL     1      27.918  60.952  85.294  1.00  0.00     0.040 C 
HETATM   14  C1  UNL     1      28.168  62.073  84.635  1.00  0.00     0.020 C 
ENDBRANCH  12  13
ENDBRANCH  11  12
ENDBRANCH   9  11
ENDBRANCH   6   9
ENDBRANCH   1   5
BRANCH   3  15
HETATM   15  C12 UNL     1      22.677  55.102  89.129  1.00  0.00     0.233 C 
HETATM   16  O2  UNL     1      21.978  54.189  88.525  1.00  0.00    -0.272 OA
HETATM   17  N2  UNL     1      22.763  54.924  90.526  1.00  0.00    -0.297 N 
HETATM   18  C13 UNL     1      22.136  53.857  91.221  1.00  0.00     0.220 C 
ATOM     19  H2  UNL     1      23.304  55.599  91.065  1.00  0.00     0.171 HD
HETATM   20  C14 UNL     1      22.256  53.694  92.670  1.00  0.00     0.117 C 
HETATM   21  O3  UNL     1      21.455  53.022  90.539  1.00  0.00    -0.274 OA
ENDBRANCH   3  15
TORSDOF 6
ENDMDL
MODEL 2
REMARK VINA RESULT: -7.762963158      4.060      7.190
REMARK  6 active torsions:
REMARK  status: ('A' for Active; 'I' for Inactive)
REMARK    1  A    between atoms: C2_2  and  C3_3 
REMARK    2  A    between atoms: C3_3  and  C4_4 
REMARK    3  A    between atoms: C4_4  and  C5_5 
REMARK    4  A    between atoms: C5_5  and  N1_7 
REMARK       I    between atoms: N1_7  and  C7_9 
REMARK    5  A    between atoms: C7_9  and  C8_11 
REMARK    6  A    between atoms: C10_13  and  C12_15 
REMARK       I    between atoms: C12_15  and  N2_17 
REMARK       I    between atoms: N2_17  and  C13_19 
ROOT
HETATM    1  C8  UNL     1      21.075  53.181  93.549  1.00  0.00     0.096 A 
HETATM    2  C9  UNL     1      21.131  51.909  94.299  1.00  0.00     0.035 A 
HETATM    3  C10 UNL     1      22.310  52.761  94.427  1.00  0.00     0.051 A 
HETATM    4  C11 UNL     1      23.554  52.624  93.620  1.00  0.00     0.026 C 
ENDROOT
BRANCH   1   5
HETATM    5  C7  UNL     1      21.469  53.187  92.085  1.00  0.00     0.223 C 
HETATM    6  N1  UNL     1      22.209  54.252  91.570  1.00  0.00    -0.356 N 
ATOM      7  H1  UNL     1      22.389  54.997  92.243  1.00  0.00     0.162 HD
HETATM    8  O1  UNL     1      21.117  52.208  91.401  1.00  0.00    -0.273 OA
BRANCH   6   9
HETATM    9  C5  UNL     1      22.753  54.488  90.293  1.00  0.00     0.090 C 
HETATM   10  C6  UNL     1      23.986  55.330  90.304  1.00  0.00     0.033 C 
BRANCH   9  11
HETATM   11  C4  UNL     1      21.729  54.932  89.260  1.00  0.00     0.109 C 
BRANCH  11  12
HETATM   12  C3  UNL     1      22.013  55.700  88.325  1.00  0.00    -0.155 C 
BRANCH  12  13
HETATM   13  C2  UNL     1      22.329  56.560  87.256  1.00  0.00     0.040 C 
HETATM   14  C1  UNL     1      23.467  56.491  86.582  1.00  0.00     0.020 C 
ENDBRANCH  12  13
ENDBRANCH  11  12
ENDBRANCH   9  11
ENDBRANCH   6   9
ENDBRANCH   1   5
BRANCH   3  15
HETATM   15  C12 UNL     1      22.421  53.590  95.623  1.00  0.00     0.233 C 
HETATM   16  O2  UNL     1      21.835  53.154  96.697  1.00  0.00    -0.272 OA
HETATM   17  N2  UNL     1      23.092  54.818  95.797  1.00  0.00    -0.297 N 
HETATM   18  C13 UNL     1      23.121  55.529  97.025  1.00  0.00     0.220 C 
ATOM     19  H2  UNL     1      23.583  55.216  94.997  1.00  0.00     0.171 HD
HETATM   20  C14 UNL     1      23.837  56.796  97.175  1.00  0.00     0.117 C 
HETATM   21  O3  UNL     1      22.497  55.027  98.018  1.00  0.00    -0.274 OA
ENDBRANCH   3  15
TORSDOF 6
ENDMDL
MODEL 3
REMARK VINA RESULT: -7.686033944      2.423      7.888
REMARK  6 active torsions:
REMARK  status: ('A' for Active; 'I' for Inactive)
REMARK    1  A    between atoms: C2_2  and  C3_3 
REMARK    2  A    between atoms: C3_3  and  C4_4 
REMARK    3  A    between atoms: C4_4  and  C5_5 
REMARK    4  A    between atoms: C5_5  and  N1_7 
REMARK       I    between atoms: N1_7  and  C7_9 
REMARK    5  A    between atoms: C7_9  and  C8_11 
REMARK    6  A    between atoms: C10_13  and  C12_15 
REMARK       I    between atoms: C12_15  and  N2_17 
REMARK       I    between atoms: N2_17  and  C13_19 
ROOT
HETATM    1  C8  UNL     1      26.545  56.938  85.876  1.00  0.00     0.096 A 
HETATM    2  C9  UNL     1      26.993  56.943  84.468  1.00  0.00     0.035 A 
HETATM    3  C10 UNL     1      26.190  58.094  84.871  1.00  0.00     0.051 A 
HETATM    4  C11 UNL     1      24.721  58.225  84.661  1.00  0.00     0.026 C 
ENDROOT
BRANCH   1   5
HETATM    5  C7  UNL     1      25.287  56.177  86.243  1.00  0.00     0.223 C 
HETATM    6  N1  UNL     1      24.662  56.418  87.467  1.00  0.00    -0.356 N 
ATOM      7  H1  UNL     1      25.155  57.082  88.063  1.00  0.00     0.162 HD
HETATM    8  O1  UNL     1      24.854  55.364  85.405  1.00  0.00    -0.273 OA
BRANCH   6   9
HETATM    9  C5  UNL     1      23.474  55.912  88.031  1.00  0.00     0.090 C 
HETATM   10  C6  UNL     1      22.267  56.743  87.750  1.00  0.00     0.033 C 
BRANCH   9  11
HETATM   11  C4  UNL     1      23.608  55.518  89.494  1.00  0.00     0.109 C 
BRANCH  11  12
HETATM   12  C3  UNL     1      22.732  54.873  90.095  1.00  0.00    -0.155 C 
BRANCH  12  13
HETATM   13  C2  UNL     1      21.746  54.130  90.771  1.00  0.00     0.040 C 
HETATM   14  C1  UNL     1      20.605  53.758  90.210  1.00  0.00     0.020 C 
ENDBRANCH  12  13
ENDBRANCH  11  12
ENDBRANCH   9  11
ENDBRANCH   6   9
ENDBRANCH   1   5
BRANCH   3  15
HETATM   15  C12 UNL     1      26.892  59.328  85.206  1.00  0.00     0.233 C 
HETATM   16  O2  UNL     1      27.401  59.411  86.398  1.00  0.00    -0.272 OA
HETATM   17  N2  UNL     1      27.116  60.470  84.409  1.00  0.00    -0.297 N 
HETATM   18  C13 UNL     1      27.819  61.617  84.862  1.00  0.00     0.220 C 
ATOM     19  H2  UNL     1      26.752  60.473  83.457  1.00  0.00     0.171 HD
HETATM   20  C14 UNL     1      28.045  62.781  84.006  1.00  0.00     0.117 C 
HETATM   21  O3  UNL     1      28.264  61.609  86.057  1.00  0.00    -0.274 OA
ENDBRANCH   3  15
TORSDOF 6
ENDMDL
MODEL 4
REMARK VINA RESULT: -7.661739526      3.007      8.078
REMARK  6 active torsions:
REMARK  status: ('A' for Active; 'I' for Inactive)
REMARK    1  A    between atoms: C2_2  and  C3_3 
REMARK    2  A    between atoms: C3_3  and  C4_4 
REMARK    3  A    between atoms: C4_4  and  C5_5 
REMARK    4  A    between atoms: C5_5  and  N1_7 
REMARK       I    between atoms: N1_7  and  C7_9 
REMARK    5  A    between atoms: C7_9  and  C8_11 
REMARK    6  A    between atoms: C10_13  and  C12_15 
REMARK       I    between atoms: C12_15  and  N2_17 
REMARK       I    between atoms: N2_17  and  C13_19 
ROOT
HETATM    1  C8  UNL     1      27.518  58.712  87.769  1.00  0.00     0.096 A 
HETATM    2  C9  UNL     1      28.869  58.730  87.170  1.00  0.00     0.035 A 
HETATM    3  C10 UNL     1      27.782  58.413  86.248  1.00  0.00     0.051 A 
HETATM    4  C11 UNL     1      27.362  57.036  85.865  1.00  0.00     0.026 C 
ENDROOT
BRANCH   1   5
HETATM    5  C7  UNL     1      27.039  57.451  88.461  1.00  0.00     0.223 C 
HETATM    6  N1  UNL     1      25.672  57.183  88.546  1.00  0.00    -0.356 N 
ATOM      7  H1  UNL     1      25.079  57.917  88.160  1.00  0.00     0.162 HD
HETATM    8  O1  UNL     1      27.912  56.691  88.918  1.00  0.00    -0.273 OA
BRANCH   6   9
HETATM    9  C5  UNL     1      24.961  56.084  89.067  1.00  0.00     0.090 C 
HETATM   10  C6  UNL     1      23.538  56.016  88.621  1.00  0.00     0.033 C 
BRANCH   9  11
HETATM   11  C4  UNL     1      25.132  55.895  90.566  1.00  0.00     0.109 C 
BRANCH  11  12
HETATM   12  C3  UNL     1      24.355  55.202  91.245  1.00  0.00    -0.155 C 
BRANCH  12  13
HETATM   13  C2  UNL     1      23.485  54.406  92.014  1.00  0.00     0.040 C 
HETATM   14  C1  UNL     1      22.289  54.024  91.591  1.00  0.00     0.020 C 
ENDBRANCH  12  13
ENDBRANCH  11  12
ENDBRANCH   9  11
ENDBRANCH   6   9
ENDBRANCH   1   5
BRANCH   3  15
HETATM   15  C12 UNL     1      27.279  59.485  85.397  1.00  0.00     0.233 C 
HETATM   16  O2  UNL     1      26.086  59.335  84.905  1.00  0.00    -0.272 OA
HETATM   17  N2  UNL     1      27.903  60.694  85.024  1.00  0.00    -0.297 N 
HETATM   18  C13 UNL     1      27.298  61.661  84.179  1.00  0.00     0.220 C 
ATOM     19  H2  UNL     1      28.839  60.884  85.381  1.00  0.00     0.171 HD
HETATM   20  C14 UNL     1      27.968  62.911  83.821  1.00  0.00     0.117 C 
HETATM   21  O3  UNL     1      26.131  61.411  83.730  1.00  0.00    -0.274 OA
ENDBRANCH   3  15
TORSDOF 6
ENDMDL
MODEL 5
REMARK VINA RESULT: -7.660752064      2.556      7.305
REMARK  6 active torsions:
REMARK  status: ('A' for Active; 'I' for Inactive)
REMARK    1  A    between atoms: C2_2  and  C3_3 
REMARK    2  A    between atoms: C3_3  and  C4_4 
REMARK    3  A    between atoms: C4_4  and  C5_5 
REMARK    4  A    between atoms: C5_5  and  N1_7 
REMARK       I    between atoms: N1_7  and  C7_9 
REMARK    5  A    between atoms: C7_9  and  C8_11 
REMARK    6  A    between atoms: C10_13  and  C12_15 
REMARK       I    between atoms: C12_15  and  N2_17 
REMARK       I    between atoms: N2_17  and  C13_19 
ROOT
HETATM    1  C8  UNL     1      26.544  56.903  85.885  1.00  0.00     0.096 A 
HETATM    2  C9  UNL     1      26.999  56.917  84.478  1.00  0.00     0.035 A 
HETATM    3  C10 UNL     1      26.201  58.069  84.887  1.00  0.00     0.051 A 
HETATM    4  C11 UNL     1      24.734  58.211  84.670  1.00  0.00     0.026 C 
ENDROOT
BRANCH   1   5
HETATM    5  C7  UNL     1      25.279  56.146  86.238  1.00  0.00     0.223 C 
HETATM    6  N1  UNL     1      24.633  56.401  87.448  1.00  0.00    -0.356 N 
ATOM      7  H1  UNL     1      25.117  57.072  88.045  1.00  0.00     0.162 HD
HETATM    8  O1  UNL     1      24.860  55.325  85.402  1.00  0.00    -0.273 OA
BRANCH   6   9
HETATM    9  C5  UNL     1      23.436  55.902  87.998  1.00  0.00     0.090 C 
HETATM   10  C6  UNL     1      22.252  56.781  87.773  1.00  0.00     0.033 C 
BRANCH   9  11
HETATM   11  C4  UNL     1      23.571  55.429  89.438  1.00  0.00     0.109 C 
BRANCH  11  12
HETATM   12  C3  UNL     1      24.583  55.653  90.123  1.00  0.00    -0.155 C 
BRANCH  12  13
HETATM   13  C2  UNL     1      25.725  55.921  90.902  1.00  0.00     0.040 C 
HETATM   14  C1  UNL     1      26.684  56.751  90.521  1.00  0.00     0.020 C 
ENDBRANCH  12  13
ENDBRANCH  11  12
ENDBRANCH   9  11
ENDBRANCH   6   9
ENDBRANCH   1   5
BRANCH   3  15
HETATM   15  C12 UNL     1      26.908  59.296  85.235  1.00  0.00     0.233 C 
HETATM   16  O2  UNL     1      27.401  59.371  86.435  1.00  0.00    -0.272 OA
HETATM   17  N2  UNL     1      27.153  60.439  84.446  1.00  0.00    -0.297 N 
HETATM   18  C13 UNL     1      27.859  61.578  84.912  1.00  0.00     0.220 C 
ATOM     19  H2  UNL     1      26.802  60.447  83.488  1.00  0.00     0.171 HD
HETATM   20  C14 UNL     1      28.106  62.743  84.062  1.00  0.00     0.117 C 
HETATM   21  O3  UNL     1      28.286  61.563  86.113  1.00  0.00    -0.274 OA
ENDBRANCH   3  15
TORSDOF 6
ENDMDL
