MODEL 1
REMARK VINA RESULT: -5.886236806      0.000      0.000
REMARK  3 active torsions:
REMARK  status: ('A' for Active; 'I' for Inactive)
REMARK    1  A    between atoms: S1_3  and  C2_4 
REMARK    2  A    between atoms: C2_4  and  C3_5 
REMARK    3  A    between atoms: C3_5  and  N2_6 
ROOT
HETATM    1  N1  UNL     1       3.069  28.138  10.134  1.00  0.00    -0.184 NA
HETATM    2  C1  UNL     1       2.409  27.477  10.807  1.00  0.00     0.133 C 
HETATM    3  S1  UNL     1       1.372  26.480  11.883  1.00  0.00    -0.049 SA
ENDROOT
BRANCH   3   4
HETATM    4  C2  UNL     1      -0.193  26.190  10.985  1.00  0.00     0.120 C 
BRANCH   4   5
HETATM    5  C3  UNL     1      -1.254  25.675  11.956  1.00  0.00     0.283 C 
BRANCH   5   6
HETATM    6  N2  UNL     1      -1.930  26.724  12.655  1.00  0.00     0.089 N 
HETATM    7  C4  UNL     1      -3.146  26.153  13.228  1.00  0.00     0.272 C 
HETATM    8  C5  UNL     1      -4.280  27.149  13.232  1.00  0.00     0.030 C 
HETATM    9  C6  UNL     1      -3.694  28.475  13.697  1.00  0.00     0.003 C 
HETATM   10  C7  UNL     1      -2.826  28.981  12.548  1.00  0.00     0.030 C 
HETATM   11  C8  UNL     1      -2.262  27.811  11.759  1.00  0.00     0.272 C 
ENDBRANCH   5   6
ENDBRANCH   4   5
ENDBRANCH   3   4
TORSDOF 3
ENDMDL
MODEL 2
REMARK VINA RESULT: -5.824759653      1.982      2.030
REMARK  3 active torsions:
REMARK  status: ('A' for Active; 'I' for Inactive)
REMARK    1  A    between atoms: S1_3  and  C2_4 
REMARK    2  A    between atoms: C2_4  and  C3_5 
REMARK    3  A    between atoms: C3_5  and  N2_6 
ROOT
HETATM    1  N1  UNL     1       1.588  22.930  11.290  1.00  0.00    -0.184 NA
HETATM    2  C1  UNL     1       1.451  24.057  11.099  1.00  0.00     0.133 C 
HETATM    3  S1  UNL     1       1.249  25.809  10.760  1.00  0.00    -0.049 SA
ENDROOT
BRANCH   3   4
HETATM    4  C2  UNL     1      -0.549  26.129  10.691  1.00  0.00     0.120 C 
BRANCH   4   5
HETATM    5  C3  UNL     1      -1.202  25.672  11.994  1.00  0.00     0.283 C 
BRANCH   5   6
HETATM    6  N2  UNL     1      -1.905  26.721  12.666  1.00  0.00     0.089 N 
HETATM    7  C4  UNL     1      -3.128  26.144  13.216  1.00  0.00     0.272 C 
HETATM    8  C5  UNL     1      -4.272  27.128  13.183  1.00  0.00     0.030 C 
HETATM    9  C6  UNL     1      -3.710  28.465  13.647  1.00  0.00     0.003 C 
HETATM   10  C7  UNL     1      -2.820  28.968  12.514  1.00  0.00     0.030 C 
HETATM   11  C8  UNL     1      -2.227  27.795  11.751  1.00  0.00     0.272 C 
ENDBRANCH   5   6
ENDBRANCH   4   5
ENDBRANCH   3   4
TORSDOF 3
ENDMDL
MODEL 3
REMARK VINA RESULT: -5.797610953      2.440      3.314
REMARK  3 active torsions:
REMARK  status: ('A' for Active; 'I' for Inactive)
REMARK    1  A    between atoms: S1_3  and  C2_4 
REMARK    2  A    between atoms: C2_4  and  C3_5 
REMARK    3  A    between atoms: C3_5  and  N2_6 
ROOT
HETATM    1  N1  UNL     1       1.547  22.906  11.605  1.00  0.00    -0.184 NA
HETATM    2  C1  UNL     1       1.463  23.669  10.747  1.00  0.00     0.133 C 
HETATM    3  S1  UNL     1       1.306  24.832   9.387  1.00  0.00    -0.049 SA
ENDROOT
BRANCH   3   4
HETATM    4  C2  UNL     1       0.184  26.158   9.954  1.00  0.00     0.120 C 
BRANCH   4   5
HETATM    5  C3  UNL     1       0.686  26.722  11.282  1.00  0.00     0.283 C 
BRANCH   5   6
HETATM    6  N2  UNL     1      -0.286  26.640  12.328  1.00  0.00     0.089 N 
HETATM    7  C4  UNL     1       0.361  26.008  13.475  1.00  0.00     0.272 C 
HETATM    8  C5  UNL     1      -0.601  25.138  14.247  1.00  0.00     0.030 C 
HETATM    9  C6  UNL     1      -1.901  25.923  14.363  1.00  0.00     0.003 C 
HETATM   10  C7  UNL     1      -2.520  25.927  12.968  1.00  0.00     0.030 C 
HETATM   11  C8  UNL     1      -1.431  25.862  11.909  1.00  0.00     0.272 C 
ENDBRANCH   5   6
ENDBRANCH   4   5
ENDBRANCH   3   4
TORSDOF 3
ENDMDL
MODEL 4
REMARK VINA RESULT: -5.724641642      0.969      1.773
REMARK  3 active torsions:
REMARK  status: ('A' for Active; 'I' for Inactive)
REMARK    1  A    between atoms: S1_3  and  C2_4 
REMARK    2  A    between atoms: C2_4  and  C3_5 
REMARK    3  A    between atoms: C3_5  and  N2_6 
ROOT
HETATM    1  N1  UNL     1       3.131  28.131  10.374  1.00  0.00    -0.184 NA
HETATM    2  C1  UNL     1       2.290  27.381  10.138  1.00  0.00     0.133 C 
HETATM    3  S1  UNL     1       1.006  26.178   9.775  1.00  0.00    -0.049 SA
ENDROOT
BRANCH   3   4
HETATM    4  C2  UNL     1      -0.045  26.062  11.265  1.00  0.00     0.120 C 
BRANCH   4   5
HETATM    5  C3  UNL     1      -0.764  27.391  11.491  1.00  0.00     0.283 C 
BRANCH   5   6
HETATM    6  N2  UNL     1      -2.081  27.231  12.025  1.00  0.00     0.089 N 
HETATM    7  C4  UNL     1      -2.648  28.566  12.196  1.00  0.00     0.272 C 
HETATM    8  C5  UNL     1      -3.542  28.640  13.410  1.00  0.00     0.030 C 
HETATM    9  C6  UNL     1      -4.394  27.378  13.400  1.00  0.00     0.003 C 
HETATM   10  C7  UNL     1      -3.456  26.230  13.762  1.00  0.00     0.030 C 
HETATM   11  C8  UNL     1      -2.043  26.538  13.295  1.00  0.00     0.272 C 
ENDBRANCH   5   6
ENDBRANCH   4   5
ENDBRANCH   3   4
TORSDOF 3
ENDMDL
MODEL 5
REMARK VINA RESULT: -5.714550306      2.954      3.439
REMARK  3 active torsions:
REMARK  status: ('A' for Active; 'I' for Inactive)
REMARK    1  A    between atoms: S1_3  and  C2_4 
REMARK    2  A    between atoms: C2_4  and  C3_5 
REMARK    3  A    between atoms: C3_5  and  N2_6 
ROOT
HETATM    1  N1  UNL     1       1.629  22.912  11.260  1.00  0.00    -0.184 NA
HETATM    2  C1  UNL     1       1.486  23.781  10.519  1.00  0.00     0.133 C 
HETATM    3  S1  UNL     1       1.221  25.126   9.358  1.00  0.00    -0.049 SA
ENDROOT
BRANCH   3   4
HETATM    4  C2  UNL     1       1.139  26.663  10.341  1.00  0.00     0.120 C 
BRANCH   4   5
HETATM    5  C3  UNL     1      -0.113  26.647  11.217  1.00  0.00     0.283 C 
BRANCH   5   6
HETATM    6  N2  UNL     1       0.182  26.555  12.614  1.00  0.00     0.089 N 
HETATM    7  C4  UNL     1      -0.500  25.369  13.126  1.00  0.00     0.272 C 
HETATM    8  C5  UNL     1      -0.985  25.573  14.540  1.00  0.00     0.030 C 
HETATM    9  C6  UNL     1       0.145  26.264  15.292  1.00  0.00     0.003 C 
HETATM   10  C7  UNL     1       0.197  27.693  14.761  1.00  0.00     0.030 C 
HETATM   11  C8  UNL     1      -0.272  27.735  13.316  1.00  0.00     0.272 C 
ENDBRANCH   5   6
ENDBRANCH   4   5
ENDBRANCH   3   4
TORSDOF 3
ENDMDL
