MODEL 1
REMARK VINA RESULT: -5.684992844      0.000      0.000
REMARK  5 active torsions:
REMARK  status: ('A' for Active; 'I' for Inactive)
REMARK    1  A    between atoms: C2_2  and  C3_3 
REMARK    2  A    between atoms: C3_3  and  N1_4 
REMARK    3  A    between atoms: N1_4  and  C4_6 
REMARK    4  A    between atoms: C4_6  and  N2_7 
REMARK    5  A    between atoms: N2_7  and  C5_9 
ROOT
HETATM    1  N2  UNL     1      -1.212  25.558  14.187  1.00  0.00    -0.316 N 
ATOM      2  H2  UNL     1      -0.788  25.605  15.113  1.00  0.00     0.173 HD
ENDROOT
BRANCH   1   3
HETATM    3  C4  UNL     1      -2.439  25.862  14.023  1.00  0.00     0.045 C 
BRANCH   3   4
HETATM    4  N1  UNL     1      -3.677  26.172  14.099  1.00  0.00    -0.340 N 
ATOM      5  H1  UNL     1      -4.298  25.710  14.764  1.00  0.00     0.170 HD
BRANCH   4   6
HETATM    6  C3  UNL     1      -4.170  27.209  13.202  1.00  0.00     0.156 C 
BRANCH   6   7
HETATM    7  C2  UNL     1      -3.312  28.387  13.170  1.00  0.00    -0.017 C 
HETATM    8  C1  UNL     1      -2.917  28.900  12.019  1.00  0.00     0.008 C 
ENDBRANCH   6   7
ENDBRANCH   4   6
ENDBRANCH   3   4
ENDBRANCH   1   3
BRANCH   1   9
HETATM    9  C5  UNL     1      -0.434  25.148  13.055  1.00  0.00     0.228 C 
HETATM   10  C6  UNL     1      -1.237  25.479  11.801  1.00  0.00     0.054 C 
HETATM   11  C7  UNL     1      -0.295  25.967  10.698  1.00  0.00     0.006 C 
HETATM   12  C8  UNL     1       0.269  27.288  11.172  1.00  0.00     0.026 C 
HETATM   13  C9  UNL     1       0.670  27.131  12.622  1.00  0.00     0.170 C 
HETATM   14  O1  UNL     1       0.801  25.790  12.983  1.00  0.00    -0.366 OA
ENDBRANCH   1   9
TORSDOF 5
ENDMDL
MODEL 2
REMARK VINA RESULT: -5.680511028      2.179      3.296
REMARK  5 active torsions:
REMARK  status: ('A' for Active; 'I' for Inactive)
REMARK    1  A    between atoms: C2_2  and  C3_3 
REMARK    2  A    between atoms: C3_3  and  N1_4 
REMARK    3  A    between atoms: N1_4  and  C4_6 
REMARK    4  A    between atoms: C4_6  and  N2_7 
REMARK    5  A    between atoms: N2_7  and  C5_9 
ROOT
HETATM    1  N2  UNL     1      -0.597  25.368  11.104  1.00  0.00    -0.316 N 
ATOM      2  H2  UNL     1      -0.399  24.404  10.835  1.00  0.00     0.173 HD
ENDROOT
BRANCH   1   3
HETATM    3  C4  UNL     1      -1.419  25.618  12.046  1.00  0.00     0.045 C 
BRANCH   3   4
HETATM    4  N1  UNL     1      -2.343  25.657  12.930  1.00  0.00    -0.340 N 
ATOM      5  H1  UNL     1      -3.311  25.439  12.694  1.00  0.00     0.170 HD
BRANCH   4   6
HETATM    6  C3  UNL     1      -1.961  26.026  14.287  1.00  0.00     0.156 C 
BRANCH   6   7
HETATM    7  C2  UNL     1      -0.590  25.653  14.613  1.00  0.00    -0.017 C 
HETATM    8  C1  UNL     1       0.147  26.421  15.395  1.00  0.00     0.008 C 
ENDBRANCH   6   7
ENDBRANCH   4   6
ENDBRANCH   3   4
ENDBRANCH   1   3
BRANCH   1   9
HETATM    9  C5  UNL     1       0.048  26.454  10.429  1.00  0.00     0.228 C 
HETATM   10  C6  UNL     1       0.940  27.162  11.444  1.00  0.00     0.054 C 
HETATM   11  C7  UNL     1       2.238  27.611  10.768  1.00  0.00     0.006 C 
HETATM   12  C8  UNL     1       2.982  26.349  10.392  1.00  0.00     0.026 C 
HETATM   13  C9  UNL     1       1.990  25.388   9.773  1.00  0.00     0.170 C 
HETATM   14  O1  UNL     1       0.829  26.039   9.353  1.00  0.00    -0.366 OA
ENDBRANCH   1   9
TORSDOF 5
ENDMDL
MODEL 3
REMARK VINA RESULT: -5.678525443      2.138      3.101
REMARK  5 active torsions:
REMARK  status: ('A' for Active; 'I' for Inactive)
REMARK    1  A    between atoms: C2_2  and  C3_3 
REMARK    2  A    between atoms: C3_3  and  N1_4 
REMARK    3  A    between atoms: N1_4  and  C4_6 
REMARK    4  A    between atoms: C4_6  and  N2_7 
REMARK    5  A    between atoms: N2_7  and  C5_9 
ROOT
HETATM    1  N2  UNL     1      -1.021  26.345  11.252  1.00  0.00    -0.316 N 
ATOM      2  H2  UNL     1      -1.392  26.828  10.433  1.00  0.00     0.173 HD
ENDROOT
BRANCH   1   3
HETATM    3  C4  UNL     1      -1.805  25.950  12.177  1.00  0.00     0.045 C 
BRANCH   3   4
HETATM    4  N1  UNL     1      -2.595  25.786  13.169  1.00  0.00    -0.340 N 
ATOM      5  H1  UNL     1      -3.607  25.826  13.051  1.00  0.00     0.170 HD
BRANCH   4   6
HETATM    6  C3  UNL     1      -1.996  25.539  14.474  1.00  0.00     0.156 C 
BRANCH   6   7
HETATM    7  C2  UNL     1      -1.129  26.624  14.916  1.00  0.00    -0.017 C 
HETATM    8  C1  UNL     1       0.087  26.373  15.364  1.00  0.00     0.008 C 
ENDBRANCH   6   7
ENDBRANCH   4   6
ENDBRANCH   3   4
ENDBRANCH   1   3
BRANCH   1   9
HETATM    9  C5  UNL     1       0.385  26.103  11.373  1.00  0.00     0.228 C 
HETATM   10  C6  UNL     1       0.570  24.627  11.713  1.00  0.00     0.054 C 
HETATM   11  C7  UNL     1       1.804  24.080  10.991  1.00  0.00     0.006 C 
HETATM   12  C8  UNL     1       1.484  24.113   9.514  1.00  0.00     0.026 C 
HETATM   13  C9  UNL     1       0.841  25.448   9.204  1.00  0.00     0.170 C 
HETATM   14  O1  UNL     1       1.089  26.388  10.205  1.00  0.00    -0.366 OA
ENDBRANCH   1   9
TORSDOF 5
ENDMDL
MODEL 4
REMARK VINA RESULT: -5.582905748      2.397      5.023
REMARK  5 active torsions:
REMARK  status: ('A' for Active; 'I' for Inactive)
REMARK    1  A    between atoms: C2_2  and  C3_3 
REMARK    2  A    between atoms: C3_3  and  N1_4 
REMARK    3  A    between atoms: N1_4  and  C4_6 
REMARK    4  A    between atoms: C4_6  and  N2_7 
REMARK    5  A    between atoms: N2_7  and  C5_9 
ROOT
HETATM    1  N2  UNL     1      -0.976  27.074  11.214  1.00  0.00    -0.316 N 
ATOM      2  H2  UNL     1      -1.667  26.585  10.646  1.00  0.00     0.173 HD
ENDROOT
BRANCH   1   3
HETATM    3  C4  UNL     1       0.255  27.063  10.882  1.00  0.00     0.045 C 
BRANCH   3   4
HETATM    4  N1  UNL     1       1.406  27.053  10.324  1.00  0.00    -0.340 N 
ATOM      5  H1  UNL     1       1.549  26.613   9.414  1.00  0.00     0.170 HD
BRANCH   4   6
HETATM    6  C3  UNL     1       2.505  27.693  11.034  1.00  0.00     0.156 C 
BRANCH   6   7
HETATM    7  C2  UNL     1       2.834  27.029  12.289  1.00  0.00    -0.017 C 
HETATM    8  C1  UNL     1       3.610  25.961  12.301  1.00  0.00     0.008 C 
ENDBRANCH   6   7
ENDBRANCH   4   6
ENDBRANCH   3   4
ENDBRANCH   1   3
BRANCH   1   9
HETATM    9  C5  UNL     1      -1.378  27.782  12.393  1.00  0.00     0.228 C 
HETATM   10  C6  UNL     1      -2.555  28.675  12.014  1.00  0.00     0.054 C 
HETATM   11  C7  UNL     1      -3.570  28.707  13.160  1.00  0.00     0.006 C 
HETATM   12  C8  UNL     1      -4.143  27.311  13.260  1.00  0.00     0.026 C 
HETATM   13  C9  UNL     1      -2.997  26.327  13.169  1.00  0.00     0.170 C 
HETATM   14  O1  UNL     1      -1.768  26.935  13.429  1.00  0.00    -0.366 OA
ENDBRANCH   1   9
TORSDOF 5
ENDMDL
MODEL 5
REMARK VINA RESULT: -5.582004540      2.082      2.657
REMARK  5 active torsions:
REMARK  status: ('A' for Active; 'I' for Inactive)
REMARK    1  A    between atoms: C2_2  and  C3_3 
REMARK    2  A    between atoms: C3_3  and  N1_4 
REMARK    3  A    between atoms: N1_4  and  C4_6 
REMARK    4  A    between atoms: C4_6  and  N2_7 
REMARK    5  A    between atoms: N2_7  and  C5_9 
ROOT
HETATM    1  N2  UNL     1      -0.393  25.238  11.289  1.00  0.00    -0.316 N 
ATOM      2  H2  UNL     1       0.008  24.300  11.285  1.00  0.00     0.173 HD
ENDROOT
BRANCH   1   3
HETATM    3  C4  UNL     1      -1.378  25.515  12.049  1.00  0.00     0.045 C 
BRANCH   3   4
HETATM    4  N1  UNL     1      -2.501  25.722  12.626  1.00  0.00    -0.340 N 
ATOM      5  H1  UNL     1      -3.188  24.974  12.730  1.00  0.00     0.170 HD
BRANCH   4   6
HETATM    6  C3  UNL     1      -2.763  27.064  13.129  1.00  0.00     0.156 C 
BRANCH   6   7
HETATM    7  C2  UNL     1      -2.707  28.082  12.088  1.00  0.00    -0.017 C 
HETATM    8  C1  UNL     1      -1.963  29.162  12.245  1.00  0.00     0.008 C 
ENDBRANCH   6   7
ENDBRANCH   4   6
ENDBRANCH   3   4
ENDBRANCH   1   3
BRANCH   1   9
HETATM    9  C5  UNL     1       0.147  26.259  10.441  1.00  0.00     0.228 C 
HETATM   10  C6  UNL     1       1.039  27.147  11.302  1.00  0.00     0.054 C 
HETATM   11  C7  UNL     1       2.271  27.575  10.500  1.00  0.00     0.006 C 
HETATM   12  C8  UNL     1       3.076  26.319  10.252  1.00  0.00     0.026 C 
HETATM   13  C9  UNL     1       2.120  25.228   9.822  1.00  0.00     0.170 C 
HETATM   14  O1  UNL     1       0.900  25.748   9.386  1.00  0.00    -0.366 OA
ENDBRANCH   1   9
TORSDOF 5
ENDMDL
