MODEL 1
REMARK VINA RESULT: -7.119279027      0.000      0.000
REMARK  4 active torsions:
REMARK  status: ('A' for Active; 'I' for Inactive)
REMARK    1  A    between atoms: C2_2  and  N2_6 
REMARK    2  A    between atoms: N2_6  and  N3_8 
REMARK    3  A    between atoms: C3_10  and  C5_12 
REMARK    4  A    between atoms: C10_18  and  N4_19 
ROOT
HETATM    1  N3  UNL     1      -0.344  27.331  12.246  1.00  0.00    -0.303 N 
ATOM      2  H3  UNL     1       0.486  27.871  12.491  1.00  0.00     0.186 HD
HETATM    3  C3  UNL     1      -0.291  26.667  11.142  1.00  0.00     0.037 C 
HETATM    4  C4  UNL     1      -1.452  25.879  10.746  1.00  0.00     0.070 C 
ENDROOT
BRANCH   3   5
HETATM    5  C5  UNL     1       0.935  26.753  10.366  1.00  0.00     0.052 A 
HETATM    6  C6  UNL     1       2.030  25.894  10.345  1.00  0.00     0.064 A 
HETATM    7  C7  UNL     1       2.145  24.655  11.160  1.00  0.00     0.077 C 
HETATM    8  O1  UNL     1       2.934  26.363   9.486  1.00  0.00    -0.317 OA
HETATM    9  C8  UNL     1       2.551  27.455   8.931  1.00  0.00     0.083 A 
HETATM   10  C9  UNL     1       3.251  28.296   7.926  1.00  0.00     0.079 C 
HETATM   11  C10 UNL     1       1.285  27.747   9.456  1.00  0.00     0.146 A 
BRANCH  11  12
HETATM   12  N4  UNL     1       0.496  28.880   9.111  1.00  0.00    -0.112 N 
HETATM   13  O2  UNL     1       0.102  29.166   7.981  1.00  0.00    -0.532 OA
HETATM   14  O3  UNL     1       0.144  29.752  10.137  1.00  0.00    -0.532 OA
ENDBRANCH  11  12
ENDBRANCH   3   5
BRANCH   1  15
HETATM   15  N2  UNL     1      -1.387  27.391  13.124  1.00  0.00    -0.290 N 
ATOM     16  H2  UNL     1      -2.156  28.042  12.960  1.00  0.00     0.188 HD
BRANCH  15  17
HETATM   17  C2  UNL     1      -1.401  26.552  14.262  1.00  0.00     0.085 C 
HETATM   18  C1  UNL     1      -0.484  25.372  14.350  1.00  0.00     0.090 C 
HETATM   19  N1  UNL     1      -2.205  26.765  15.273  1.00  0.00    -0.388 N 
ATOM     20  H12 UNL     1      -2.215  26.159  16.093  1.00  0.00     0.157 HD
ATOM     21  H11 UNL     1      -2.829  27.569  15.213  1.00  0.00     0.157 HD
ENDBRANCH  15  17
ENDBRANCH   1  15
TORSDOF 4
ENDMDL
MODEL 2
REMARK VINA RESULT: -6.915022934      2.257      3.810
REMARK  4 active torsions:
REMARK  status: ('A' for Active; 'I' for Inactive)
REMARK    1  A    between atoms: C2_2  and  N2_6 
REMARK    2  A    between atoms: N2_6  and  N3_8 
REMARK    3  A    between atoms: C3_10  and  C5_12 
REMARK    4  A    between atoms: C10_18  and  N4_19 
ROOT
HETATM    1  N3  UNL     1       0.192  27.046  10.008  1.00  0.00    -0.303 N 
ATOM      2  H3  UNL     1       0.225  26.565   9.110  1.00  0.00     0.186 HD
HETATM    3  C3  UNL     1       0.715  28.224  10.048  1.00  0.00     0.037 C 
HETATM    4  C4  UNL     1       0.695  28.955  11.309  1.00  0.00     0.070 C 
ENDROOT
BRANCH   3   5
HETATM    5  C5  UNL     1       1.293  28.742   8.818  1.00  0.00     0.052 A 
HETATM    6  C6  UNL     1       0.848  29.775   7.999  1.00  0.00     0.064 A 
HETATM    7  C7  UNL     1      -0.373  30.587   8.254  1.00  0.00     0.077 C 
HETATM    8  O1  UNL     1       1.686  29.909   6.972  1.00  0.00    -0.317 OA
HETATM    9  C8  UNL     1       2.650  29.062   7.024  1.00  0.00     0.083 A 
HETATM   10  C9  UNL     1       3.788  28.873   6.088  1.00  0.00     0.079 C 
HETATM   11  C10 UNL     1       2.448  28.296   8.180  1.00  0.00     0.146 A 
BRANCH  11  12
HETATM   12  N4  UNL     1       3.289  27.236   8.618  1.00  0.00    -0.112 N 
HETATM   13  O2  UNL     1       2.911  26.131   9.005  1.00  0.00    -0.532 OA
HETATM   14  O3  UNL     1       4.661  27.466   8.620  1.00  0.00    -0.532 OA
ENDBRANCH  11  12
ENDBRANCH   3   5
BRANCH   1  15
HETATM   15  N2  UNL     1      -0.402  26.372  11.036  1.00  0.00    -0.290 N 
ATOM     16  H2  UNL     1      -1.328  26.651  11.362  1.00  0.00     0.188 HD
BRANCH  15  17
HETATM   17  C2  UNL     1       0.267  25.288  11.647  1.00  0.00     0.085 C 
HETATM   18  C1  UNL     1      -0.494  24.267  12.435  1.00  0.00     0.090 C 
HETATM   19  N1  UNL     1       1.564  25.131  11.555  1.00  0.00    -0.388 N 
ATOM     20  H12 UNL     1       2.047  24.349  11.996  1.00  0.00     0.157 HD
ATOM     21  H11 UNL     1       2.083  25.826  11.018  1.00  0.00     0.157 HD
ENDBRANCH  15  17
ENDBRANCH   1  15
TORSDOF 4
ENDMDL
MODEL 3
REMARK VINA RESULT: -6.897583247      2.133      3.285
REMARK  4 active torsions:
REMARK  status: ('A' for Active; 'I' for Inactive)
REMARK    1  A    between atoms: C2_2  and  N2_6 
REMARK    2  A    between atoms: N2_6  and  N3_8 
REMARK    3  A    between atoms: C3_10  and  C5_12 
REMARK    4  A    between atoms: C10_18  and  N4_19 
ROOT
HETATM    1  N3  UNL     1       2.483  26.295  10.524  1.00  0.00    -0.303 N 
ATOM      2  H3  UNL     1       2.536  27.261  10.847  1.00  0.00     0.186 HD
HETATM    3  C3  UNL     1       2.770  26.089   9.284  1.00  0.00     0.037 C 
HETATM    4  C4  UNL     1       2.709  24.725   8.771  1.00  0.00     0.070 C 
ENDROOT
BRANCH   3   5
HETATM    5  C5  UNL     1       3.139  27.243   8.481  1.00  0.00     0.052 A 
HETATM    6  C6  UNL     1       4.307  27.485   7.764  1.00  0.00     0.064 A 
HETATM    7  C7  UNL     1       5.457  26.544   7.684  1.00  0.00     0.077 C 
HETATM    8  O1  UNL     1       4.217  28.676   7.175  1.00  0.00    -0.317 OA
HETATM    9  C8  UNL     1       3.101  29.257   7.429  1.00  0.00     0.083 A 
HETATM   10  C9  UNL     1       2.604  30.581   6.975  1.00  0.00     0.079 C 
HETATM   11  C10 UNL     1       2.378  28.387   8.256  1.00  0.00     0.146 A 
BRANCH  11  12
HETATM   12  N4  UNL     1       1.079  28.644   8.779  1.00  0.00    -0.112 N 
HETATM   13  O2  UNL     1       0.057  28.812   8.116  1.00  0.00    -0.532 OA
HETATM   14  O3  UNL     1       0.950  28.724  10.162  1.00  0.00    -0.532 OA
ENDBRANCH  11  12
ENDBRANCH   3   5
BRANCH   1  15
HETATM   15  N2  UNL     1       2.116  25.364  11.453  1.00  0.00    -0.290 N 
ATOM     16  H2  UNL     1       2.824  24.780  11.898  1.00  0.00     0.188 HD
BRANCH  15  17
HETATM   17  C2  UNL     1       0.753  25.210  11.795  1.00  0.00     0.085 C 
HETATM   18  C1  UNL     1       0.131  23.850  11.862  1.00  0.00     0.090 C 
HETATM   19  N1  UNL     1      -0.016  26.236  12.065  1.00  0.00    -0.388 N 
ATOM     20  H12 UNL     1      -0.999  26.125  12.312  1.00  0.00     0.157 HD
ATOM     21  H11 UNL     1       0.408  27.163  12.020  1.00  0.00     0.157 HD
ENDBRANCH  15  17
ENDBRANCH   1  15
TORSDOF 4
ENDMDL
MODEL 4
REMARK VINA RESULT: -6.775956262      2.450      5.385
REMARK  4 active torsions:
REMARK  status: ('A' for Active; 'I' for Inactive)
REMARK    1  A    between atoms: C2_2  and  N2_6 
REMARK    2  A    between atoms: N2_6  and  N3_8 
REMARK    3  A    between atoms: C3_10  and  C5_12 
REMARK    4  A    between atoms: C10_18  and  N4_19 
ROOT
HETATM    1  N3  UNL     1       2.160  26.955   9.923  1.00  0.00    -0.303 N 
ATOM      2  H3  UNL     1       2.708  26.786  10.766  1.00  0.00     0.186 HD
HETATM    3  C3  UNL     1       1.028  26.342   9.843  1.00  0.00     0.037 C 
HETATM    4  C4  UNL     1       0.204  26.548   8.657  1.00  0.00     0.070 C 
ENDROOT
BRANCH   3   5
HETATM    5  C5  UNL     1       0.651  25.484  10.954  1.00  0.00     0.052 A 
HETATM    6  C6  UNL     1       1.141  24.230  11.309  1.00  0.00     0.064 A 
HETATM    7  C7  UNL     1       2.207  23.502  10.569  1.00  0.00     0.077 C 
HETATM    8  O1  UNL     1       0.506  23.807  12.400  1.00  0.00    -0.317 OA
HETATM    9  C8  UNL     1      -0.365  24.656  12.811  1.00  0.00     0.083 A 
HETATM   10  C9  UNL     1      -1.278  24.577  13.979  1.00  0.00     0.079 C 
HETATM   11  C10 UNL     1      -0.312  25.742  11.926  1.00  0.00     0.146 A 
BRANCH  11  12
HETATM   12  N4  UNL     1      -1.119  26.910  12.014  1.00  0.00    -0.112 N 
HETATM   13  O2  UNL     1      -0.746  28.015  12.404  1.00  0.00    -0.532 OA
HETATM   14  O3  UNL     1      -2.454  26.796  11.637  1.00  0.00    -0.532 OA
ENDBRANCH  11  12
ENDBRANCH   3   5
BRANCH   1  15
HETATM   15  N2  UNL     1       2.705  27.804   9.004  1.00  0.00    -0.290 N 
ATOM     16  H2  UNL     1       2.262  28.702   8.811  1.00  0.00     0.188 HD
BRANCH  15  17
HETATM   17  C2  UNL     1       3.886  27.436   8.318  1.00  0.00     0.085 C 
HETATM   18  C1  UNL     1       4.644  28.442   7.509  1.00  0.00     0.090 C 
HETATM   19  N1  UNL     1       4.361  26.216   8.360  1.00  0.00    -0.388 N 
ATOM     20  H12 UNL     1       5.213  25.951   7.865  1.00  0.00     0.157 HD
ATOM     21  H11 UNL     1       3.845  25.531   8.911  1.00  0.00     0.157 HD
ENDBRANCH  15  17
ENDBRANCH   1  15
TORSDOF 4
ENDMDL
MODEL 5
REMARK VINA RESULT: -6.765308817      2.383      5.050
REMARK  4 active torsions:
REMARK  status: ('A' for Active; 'I' for Inactive)
REMARK    1  A    between atoms: C2_2  and  N2_6 
REMARK    2  A    between atoms: N2_6  and  N3_8 
REMARK    3  A    between atoms: C3_10  and  C5_12 
REMARK    4  A    between atoms: C10_18  and  N4_19 
ROOT
HETATM    1  N3  UNL     1       1.358  26.679   9.841  1.00  0.00    -0.303 N 
ATOM      2  H3  UNL     1       1.679  26.924  10.777  1.00  0.00     0.186 HD
HETATM    3  C3  UNL     1       0.555  25.674   9.755  1.00  0.00     0.037 C 
HETATM    4  C4  UNL     1       0.067  25.281   8.438  1.00  0.00     0.070 C 
ENDROOT
BRANCH   3   5
HETATM    5  C5  UNL     1       0.190  25.000  10.991  1.00  0.00     0.052 A 
HETATM    6  C6  UNL     1       0.616  23.772  11.487  1.00  0.00     0.064 A 
HETATM    7  C7  UNL     1       1.585  22.875  10.799  1.00  0.00     0.077 C 
HETATM    8  O1  UNL     1       0.022  23.545  12.657  1.00  0.00    -0.317 OA
HETATM    9  C8  UNL     1      -0.764  24.503  12.992  1.00  0.00     0.083 A 
HETATM   10  C9  UNL     1      -1.608  24.647  14.206  1.00  0.00     0.079 C 
HETATM   11  C10 UNL     1      -0.693  25.456  11.966  1.00  0.00     0.146 A 
BRANCH  11  12
HETATM   12  N4  UNL     1      -1.414  26.682  11.936  1.00  0.00    -0.112 N 
HETATM   13  O2  UNL     1      -2.627  26.799  11.772  1.00  0.00    -0.532 OA
HETATM   14  O3  UNL     1      -0.686  27.857  12.094  1.00  0.00    -0.532 OA
ENDBRANCH  11  12
ENDBRANCH   3   5
BRANCH   1  15
HETATM   15  N2  UNL     1       1.826  27.452   8.818  1.00  0.00    -0.290 N 
ATOM     16  H2  UNL     1       2.584  27.111   8.226  1.00  0.00     0.188 HD
BRANCH  15  17
HETATM   17  C2  UNL     1       1.260  28.724   8.579  1.00  0.00     0.085 C 
HETATM   18  C1  UNL     1       1.656  29.523   7.376  1.00  0.00     0.090 C 
HETATM   19  N1  UNL     1       0.378  29.255   9.388  1.00  0.00    -0.388 N 
ATOM     20  H12 UNL     1      -0.031  30.173   9.216  1.00  0.00     0.157 HD
ATOM     21  H11 UNL     1       0.107  28.711  10.208  1.00  0.00     0.157 HD
ENDBRANCH  15  17
ENDBRANCH   1  15
TORSDOF 4
ENDMDL
