MODEL 1
REMARK VINA RESULT: -7.651422253      0.000      0.000
REMARK  4 active torsions:
REMARK  status: ('A' for Active; 'I' for Inactive)
REMARK    1  A    between atoms: C4_6  and  N2_7 
REMARK       I    between atoms: N2_7  and  C5_9 
REMARK    2  A    between atoms: C5_9  and  C6_11 
REMARK    3  A    between atoms: C9_14  and  N3_15 
REMARK    4  A    between atoms: N3_15  and  O2_17 
ROOT
HETATM    1  C6  UNL     1       1.745  28.361   8.601  1.00  0.00     0.032 A 
HETATM    2  C7  UNL     1       1.651  29.327   7.614  1.00  0.00     0.019 A 
HETATM    3  C8  UNL     1       2.694  29.525   6.739  1.00  0.00     0.032 A 
HETATM    4  C9  UNL     1       3.857  28.768   6.822  1.00  0.00     0.054 A 
HETATM    5  C10 UNL     1       3.930  27.818   7.802  1.00  0.00     0.032 A 
HETATM    6  C11 UNL     1       2.882  27.603   8.699  1.00  0.00     0.019 A 
ENDROOT
BRANCH   1   7
HETATM    7  C5  UNL     1       0.658  28.149   9.564  1.00  0.00     0.257 C 
HETATM    8  N2  UNL     1       0.110  26.936   9.870  1.00  0.00    -0.303 N 
ATOM      9  H2  UNL     1      -0.217  26.457   9.032  1.00  0.00     0.171 HD
HETATM   10  O1  UNL     1       0.216  29.204  10.137  1.00  0.00    -0.267 OA
BRANCH   8  11
HETATM   11  C4  UNL     1      -0.102  26.244  10.905  1.00  0.00     0.153 A 
HETATM   12  N1  UNL     1       0.523  25.297  11.592  1.00  0.00    -0.341 N 
HETATM   13  C1  UNL     1       1.849  24.802  11.112  1.00  0.00     0.158 C 
HETATM   14  C2  UNL     1      -0.038  24.812  12.668  1.00  0.00     0.100 A 
HETATM   15  C3  UNL     1      -1.261  25.308  13.045  1.00  0.00     0.070 A 
HETATM   16  S1  UNL     1      -1.558  26.457  11.831  1.00  0.00    -0.064 SA
ENDBRANCH   8  11
ENDBRANCH   1   7
BRANCH   4  17
HETATM   17  N3  UNL     1       4.938  28.986   5.928  1.00  0.00    -0.269 N 
ATOM     18  H3  UNL     1       5.448  29.869   5.936  1.00  0.00     0.194 HD
BRANCH  17  19
HETATM   19  O2  UNL     1       5.280  27.999   5.063  1.00  0.00    -0.289 OA
ATOM     20  H2  UNL     1       5.287  28.188   4.132  1.00  0.00     0.244 HD
ENDBRANCH  17  19
ENDBRANCH   4  17
TORSDOF 4
ENDMDL
MODEL 2
REMARK VINA RESULT: -7.624927192      0.061      1.151
REMARK  4 active torsions:
REMARK  status: ('A' for Active; 'I' for Inactive)
REMARK    1  A    between atoms: C4_6  and  N2_7 
REMARK       I    between atoms: N2_7  and  C5_9 
REMARK    2  A    between atoms: C5_9  and  C6_11 
REMARK    3  A    between atoms: C9_14  and  N3_15 
REMARK    4  A    between atoms: N3_15  and  O2_17 
ROOT
HETATM    1  C6  UNL     1       1.816  28.341   8.608  1.00  0.00     0.032 A 
HETATM    2  C7  UNL     1       2.974  27.588   8.684  1.00  0.00     0.019 A 
HETATM    3  C8  UNL     1       3.996  27.797   7.787  1.00  0.00     0.032 A 
HETATM    4  C9  UNL     1       3.894  28.762   6.792  1.00  0.00     0.054 A 
HETATM    5  C10 UNL     1       2.744  29.497   6.734  1.00  0.00     0.032 A 
HETATM    6  C11 UNL     1       1.696  29.299   7.635  1.00  0.00     0.019 A 
ENDROOT
BRANCH   1   7
HETATM    7  C5  UNL     1       0.701  28.119   9.535  1.00  0.00     0.257 C 
HETATM    8  N2  UNL     1       0.172  26.898   9.844  1.00  0.00    -0.303 N 
ATOM      9  H2  UNL     1      -0.113  26.396   9.004  1.00  0.00     0.171 HD
HETATM   10  O1  UNL     1       0.212  29.173  10.072  1.00  0.00    -0.267 OA
BRANCH   8  11
HETATM   11  C4  UNL     1      -0.061  26.220  10.884  1.00  0.00     0.153 A 
HETATM   12  N1  UNL     1       0.545  25.274  11.589  1.00  0.00    -0.341 N 
HETATM   13  C1  UNL     1       1.872  24.760  11.131  1.00  0.00     0.158 C 
HETATM   14  C2  UNL     1      -0.034  24.806  12.662  1.00  0.00     0.100 A 
HETATM   15  C3  UNL     1      -1.257  25.319  13.018  1.00  0.00     0.070 A 
HETATM   16  S1  UNL     1      -1.526  26.458  11.788  1.00  0.00    -0.064 SA
ENDBRANCH   8  11
ENDBRANCH   1   7
BRANCH   4  17
HETATM   17  N3  UNL     1       4.943  28.965   5.857  1.00  0.00    -0.269 N 
ATOM     18  H3  UNL     1       5.419  29.865   5.799  1.00  0.00     0.194 HD
BRANCH  17  19
HETATM   19  O2  UNL     1       5.301  27.940   5.044  1.00  0.00    -0.289 OA
ATOM     20  H2  UNL     1       4.847  27.110   5.126  1.00  0.00     0.244 HD
ENDBRANCH  17  19
ENDBRANCH   4  17
TORSDOF 4
ENDMDL
MODEL 3
REMARK VINA RESULT: -7.443527104      1.101      1.147
REMARK  4 active torsions:
REMARK  status: ('A' for Active; 'I' for Inactive)
REMARK    1  A    between atoms: C4_6  and  N2_7 
REMARK       I    between atoms: N2_7  and  C5_9 
REMARK    2  A    between atoms: C5_9  and  C6_11 
REMARK    3  A    between atoms: C9_14  and  N3_15 
REMARK    4  A    between atoms: N3_15  and  O2_17 
ROOT
HETATM    1  C6  UNL     1       1.157  28.380   9.179  1.00  0.00     0.032 A 
HETATM    2  C7  UNL     1       0.835  29.363   8.259  1.00  0.00     0.019 A 
HETATM    3  C8  UNL     1       1.711  29.675   7.245  1.00  0.00     0.032 A 
HETATM    4  C9  UNL     1       2.930  29.018   7.118  1.00  0.00     0.054 A 
HETATM    5  C10 UNL     1       3.229  28.050   8.035  1.00  0.00     0.032 A 
HETATM    6  C11 UNL     1       2.353  27.720   9.071  1.00  0.00     0.019 A 
ENDROOT
BRANCH   1   7
HETATM    7  C5  UNL     1       0.253  28.048  10.285  1.00  0.00     0.257 C 
HETATM    8  N2  UNL     1      -0.431  26.872  10.411  1.00  0.00    -0.303 N 
ATOM      9  H2  UNL     1      -0.990  26.680   9.580  1.00  0.00     0.171 HD
HETATM   10  O1  UNL     1       0.119  28.954  11.179  1.00  0.00    -0.267 OA
BRANCH   8  11
HETATM   11  C4  UNL     1      -0.561  25.957  11.271  1.00  0.00     0.153 A 
HETATM   12  N1  UNL     1      -0.472  24.634  11.311  1.00  0.00    -0.341 N 
HETATM   13  C1  UNL     1      -0.154  23.886  10.056  1.00  0.00     0.158 C 
HETATM   14  C2  UNL     1      -0.673  24.013  12.442  1.00  0.00     0.100 A 
HETATM   15  C3  UNL     1      -0.970  24.764  13.553  1.00  0.00     0.070 A 
HETATM   16  S1  UNL     1      -0.949  26.340  12.921  1.00  0.00    -0.064 SA
ENDBRANCH   8  11
ENDBRANCH   1   7
BRANCH   4  17
HETATM   17  N3  UNL     1       3.838  29.354   6.081  1.00  0.00    -0.269 N 
ATOM     18  H3  UNL     1       3.519  29.863   5.257  1.00  0.00     0.194 HD
BRANCH  17  19
HETATM   19  O2  UNL     1       5.137  28.985   6.205  1.00  0.00    -0.289 OA
ATOM     20  H2  UNL     1       5.798  29.660   6.300  1.00  0.00     0.244 HD
ENDBRANCH  17  19
ENDBRANCH   4  17
TORSDOF 4
ENDMDL
MODEL 4
REMARK VINA RESULT: -7.255960384      2.276      2.644
REMARK  4 active torsions:
REMARK  status: ('A' for Active; 'I' for Inactive)
REMARK    1  A    between atoms: C4_6  and  N2_7 
REMARK       I    between atoms: N2_7  and  C5_9 
REMARK    2  A    between atoms: C5_9  and  C6_11 
REMARK    3  A    between atoms: C9_14  and  N3_15 
REMARK    4  A    between atoms: N3_15  and  O2_17 
ROOT
HETATM    1  C6  UNL     1       1.221  27.611   8.813  1.00  0.00     0.032 A 
HETATM    2  C7  UNL     1       2.466  27.857   8.263  1.00  0.00     0.019 A 
HETATM    3  C8  UNL     1       2.679  28.991   7.513  1.00  0.00     0.032 A 
HETATM    4  C9  UNL     1       1.659  29.910   7.291  1.00  0.00     0.054 A 
HETATM    5  C10 UNL     1       0.437  29.649   7.845  1.00  0.00     0.032 A 
HETATM    6  C11 UNL     1       0.203  28.505   8.608  1.00  0.00     0.019 A 
ENDROOT
BRANCH   1   7
HETATM    7  C5  UNL     1       0.960  26.396   9.594  1.00  0.00     0.257 C 
HETATM    8  N2  UNL     1       0.885  26.343  10.957  1.00  0.00    -0.303 N 
ATOM      9  H2  UNL     1       1.726  26.727  11.388  1.00  0.00     0.171 HD
HETATM   10  O1  UNL     1       0.799  25.326   8.911  1.00  0.00    -0.267 OA
BRANCH   8  11
HETATM   11  C4  UNL     1       0.062  25.949  11.830  1.00  0.00     0.153 A 
HETATM   12  N1  UNL     1      -0.370  24.792  12.313  1.00  0.00    -0.341 N 
HETATM   13  C1  UNL     1       0.168  23.518  11.747  1.00  0.00     0.158 C 
HETATM   14  C2  UNL     1      -1.262  24.791  13.267  1.00  0.00     0.100 A 
HETATM   15  C3  UNL     1      -1.719  25.999  13.733  1.00  0.00     0.070 A 
HETATM   16  S1  UNL     1      -0.843  27.093  12.775  1.00  0.00    -0.064 SA
ENDBRANCH   8  11
ENDBRANCH   1   7
BRANCH   4  17
HETATM   17  N3  UNL     1       1.877  31.070   6.504  1.00  0.00    -0.269 N 
ATOM     18  H3  UNL     1       2.193  30.989   5.537  1.00  0.00     0.194 HD
BRANCH  17  19
HETATM   19  O2  UNL     1       1.659  32.288   7.059  1.00  0.00    -0.289 OA
ATOM     20  H2  UNL     1       0.855  32.748   6.852  1.00  0.00     0.244 HD
ENDBRANCH  17  19
ENDBRANCH   4  17
TORSDOF 4
ENDMDL
MODEL 5
REMARK VINA RESULT: -7.227330640      2.205      2.397
REMARK  4 active torsions:
REMARK  status: ('A' for Active; 'I' for Inactive)
REMARK    1  A    between atoms: C4_6  and  N2_7 
REMARK       I    between atoms: N2_7  and  C5_9 
REMARK    2  A    between atoms: C5_9  and  C6_11 
REMARK    3  A    between atoms: C9_14  and  N3_15 
REMARK    4  A    between atoms: N3_15  and  O2_17 
ROOT
HETATM    1  C6  UNL     1       1.139  27.502   8.739  1.00  0.00     0.032 A 
HETATM    2  C7  UNL     1       0.210  28.463   8.380  1.00  0.00     0.019 A 
HETATM    3  C8  UNL     1       0.609  29.590   7.698  1.00  0.00     0.032 A 
HETATM    4  C9  UNL     1       1.941  29.791   7.355  1.00  0.00     0.054 A 
HETATM    5  C10 UNL     1       2.843  28.830   7.717  1.00  0.00     0.032 A 
HETATM    6  C11 UNL     1       2.457  27.680   8.409  1.00  0.00     0.019 A 
ENDROOT
BRANCH   1   7
HETATM    7  C5  UNL     1       0.745  26.305   9.489  1.00  0.00     0.257 C 
HETATM    8  N2  UNL     1       0.814  26.175  10.848  1.00  0.00    -0.303 N 
ATOM      9  H2  UNL     1       1.755  26.371  11.189  1.00  0.00     0.171 HD
HETATM   10  O1  UNL     1       0.311  25.330   8.784  1.00  0.00    -0.267 OA
BRANCH   8  11
HETATM   11  C4  UNL     1       0.035  25.879  11.796  1.00  0.00     0.153 A 
HETATM   12  N1  UNL     1      -0.414  24.778  12.384  1.00  0.00    -0.341 N 
HETATM   13  C1  UNL     1       0.029  23.445  11.872  1.00  0.00     0.158 C 
HETATM   14  C2  UNL     1      -1.240  24.882  13.390  1.00  0.00     0.100 A 
HETATM   15  C3  UNL     1      -1.610  26.138  13.802  1.00  0.00     0.070 A 
HETATM   16  S1  UNL     1      -0.753  27.124  12.717  1.00  0.00    -0.064 SA
ENDBRANCH   8  11
ENDBRANCH   1   7
BRANCH   4  17
HETATM   17  N3  UNL     1       2.352  30.962   6.667  1.00  0.00    -0.269 N 
ATOM     18  H3  UNL     1       3.160  30.942   6.046  1.00  0.00     0.194 HD
BRANCH  17  19
HETATM   19  O2  UNL     1       1.651  32.108   6.851  1.00  0.00    -0.289 OA
ATOM     20  H2  UNL     1       1.490  32.410   7.737  1.00  0.00     0.244 HD
ENDBRANCH  17  19
ENDBRANCH   4  17
TORSDOF 4
ENDMDL
