MODEL 1
REMARK VINA RESULT: -7.394349171      0.000      0.000
REMARK  6 active torsions:
REMARK  status: ('A' for Active; 'I' for Inactive)
REMARK    1  A    between atoms: S1_2  and  C2_3 
REMARK    2  A    between atoms: C2_3  and  N2_8 
REMARK    3  A    between atoms: N1_4  and  O1_6 
REMARK    4  A    between atoms: N2_8  and  N3_10 
REMARK    5  A    between atoms: C3_12  and  C4_13 
REMARK    6  A    between atoms: C8_17  and  N4_18 
ROOT
HETATM    1  N3  UNL     1       1.107  27.267  10.557  1.00  0.00    -0.309 N 
ATOM      2  H3  UNL     1       0.432  27.055  11.291  1.00  0.00     0.186 HD
HETATM    3  C3  UNL     1       0.715  28.190   9.819  1.00  0.00     0.118 C 
ENDROOT
BRANCH   1   4
HETATM    4  N2  UNL     1       2.198  26.471  10.635  1.00  0.00    -0.279 N 
ATOM      5  H2  UNL     1       3.085  26.887  10.917  1.00  0.00     0.189 HD
BRANCH   4   6
HETATM    6  C2  UNL     1       2.162  25.068  10.337  1.00  0.00     0.178 C 
HETATM    7  N1  UNL     1       2.904  24.552   9.431  1.00  0.00    -0.246 N 
ATOM      8  H1  UNL     1       2.824  23.547   9.274  1.00  0.00     0.196 HD
BRANCH   6   9
HETATM    9  S1  UNL     1       1.058  24.022  11.251  1.00  0.00    -0.095 SA
HETATM   10  C1  UNL     1      -0.474  23.823  10.340  1.00  0.00     0.099 C 
ENDBRANCH   6   9
BRANCH   7  11
HETATM   11  O1  UNL     1       3.792  25.243   8.660  1.00  0.00    -0.288 OA
ATOM     12  H1  UNL     1       3.894  25.141   7.721  1.00  0.00     0.244 HD
ENDBRANCH   7  11
ENDBRANCH   4   6
ENDBRANCH   1   4
BRANCH   3  13
HETATM   13  C4  UNL     1       1.381  28.773   8.674  1.00  0.00    -0.017 A 
HETATM   14  C5  UNL     1       0.886  29.834   7.955  1.00  0.00     0.013 A 
HETATM   15  C6  UNL     1       1.560  30.371   6.851  1.00  0.00     0.003 A 
HETATM   16  C7  UNL     1       2.761  29.843   6.441  1.00  0.00     0.036 A 
HETATM   17  C8  UNL     1       3.284  28.783   7.135  1.00  0.00     0.103 A 
HETATM   18  C9  UNL     1       2.607  28.280   8.208  1.00  0.00     0.048 A 
BRANCH  17  19
HETATM   19  N4  UNL     1       4.546  28.214   6.722  1.00  0.00    -0.116 N 
HETATM   20  O2  UNL     1       4.934  28.377   5.547  1.00  0.00    -0.532 OA
HETATM   21  O3  UNL     1       5.249  27.518   7.657  1.00  0.00    -0.532 OA
ENDBRANCH  17  19
ENDBRANCH   3  13
TORSDOF 6
ENDMDL
MODEL 2
REMARK VINA RESULT: -7.177943770      2.600      2.928
REMARK  6 active torsions:
REMARK  status: ('A' for Active; 'I' for Inactive)
REMARK    1  A    between atoms: S1_2  and  C2_3 
REMARK    2  A    between atoms: C2_3  and  N2_8 
REMARK    3  A    between atoms: N1_4  and  O1_6 
REMARK    4  A    between atoms: N2_8  and  N3_10 
REMARK    5  A    between atoms: C3_12  and  C4_13 
REMARK    6  A    between atoms: C8_17  and  N4_18 
ROOT
HETATM    1  N3  UNL     1       0.005  26.280   9.916  1.00  0.00    -0.309 N 
ATOM      2  H3  UNL     1      -0.530  25.414   9.975  1.00  0.00     0.186 HD
HETATM    3  C3  UNL     1       0.188  26.631   8.735  1.00  0.00     0.118 C 
ENDROOT
BRANCH   1   4
HETATM    4  N2  UNL     1       0.334  26.751  11.141  1.00  0.00    -0.279 N 
ATOM      5  H2  UNL     1       1.149  27.356  11.227  1.00  0.00     0.189 HD
BRANCH   4   6
HETATM    6  C2  UNL     1      -0.416  26.435  12.323  1.00  0.00     0.178 C 
HETATM    7  N1  UNL     1      -0.996  27.342  13.014  1.00  0.00    -0.246 N 
ATOM      8  H1  UNL     1      -1.511  27.045  13.843  1.00  0.00     0.196 HD
BRANCH   6   9
HETATM    9  S1  UNL     1      -0.540  24.743  12.839  1.00  0.00    -0.095 SA
HETATM   10  C1  UNL     1      -1.640  24.623  14.250  1.00  0.00     0.099 C 
ENDBRANCH   6   9
BRANCH   7  11
HETATM   11  O1  UNL     1      -0.979  28.676  12.727  1.00  0.00    -0.288 OA
ATOM     12  H1  UNL     1      -0.230  29.249  12.843  1.00  0.00     0.244 HD
ENDBRANCH   7  11
ENDBRANCH   4   6
ENDBRANCH   1   4
BRANCH   3  13
HETATM   13  C4  UNL     1       0.897  27.793   8.241  1.00  0.00    -0.017 A 
HETATM   14  C5  UNL     1       0.280  28.927   7.773  1.00  0.00     0.013 A 
HETATM   15  C6  UNL     1       1.000  30.032   7.302  1.00  0.00     0.003 A 
HETATM   16  C7  UNL     1       2.374  30.018   7.291  1.00  0.00     0.036 A 
HETATM   17  C8  UNL     1       3.023  28.901   7.750  1.00  0.00     0.103 A 
HETATM   18  C9  UNL     1       2.297  27.838   8.205  1.00  0.00     0.048 A 
BRANCH  17  19
HETATM   19  N4  UNL     1       4.467  28.864   7.749  1.00  0.00    -0.116 N 
HETATM   20  O2  UNL     1       5.104  29.931   7.623  1.00  0.00    -0.532 OA
HETATM   21  O3  UNL     1       5.058  27.646   7.887  1.00  0.00    -0.532 OA
ENDBRANCH  17  19
ENDBRANCH   3  13
TORSDOF 6
ENDMDL
MODEL 3
REMARK VINA RESULT: -7.143274660      2.480      2.864
REMARK  6 active torsions:
REMARK  status: ('A' for Active; 'I' for Inactive)
REMARK    1  A    between atoms: S1_2  and  C2_3 
REMARK    2  A    between atoms: C2_3  and  N2_8 
REMARK    3  A    between atoms: N1_4  and  O1_6 
REMARK    4  A    between atoms: N2_8  and  N3_10 
REMARK    5  A    between atoms: C3_12  and  C4_13 
REMARK    6  A    between atoms: C8_17  and  N4_18 
ROOT
HETATM    1  N3  UNL     1       2.479  25.084  10.458  1.00  0.00    -0.309 N 
ATOM      2  H3  UNL     1       2.995  24.207  10.526  1.00  0.00     0.186 HD
HETATM    3  C3  UNL     1       2.629  25.623   9.346  1.00  0.00     0.118 C 
ENDROOT
BRANCH   1   4
HETATM    4  N2  UNL     1       1.808  25.361  11.599  1.00  0.00    -0.279 N 
ATOM      5  H2  UNL     1       2.258  25.951  12.298  1.00  0.00     0.189 HD
BRANCH   4   6
HETATM    6  C2  UNL     1       0.490  24.862  11.868  1.00  0.00     0.178 C 
HETATM    7  N1  UNL     1       0.211  23.616  11.783  1.00  0.00    -0.246 N 
ATOM      8  H1  UNL     1      -0.747  23.333  11.988  1.00  0.00     0.196 HD
BRANCH   6   9
HETATM    9  S1  UNL     1      -0.786  26.004  12.330  1.00  0.00    -0.095 SA
HETATM   10  C1  UNL     1      -0.843  26.153  14.116  1.00  0.00     0.099 C 
ENDBRANCH   6   9
BRANCH   7  11
HETATM   11  O1  UNL     1       1.098  22.637  11.439  1.00  0.00    -0.288 OA
ATOM     12  H1  UNL     1       0.884  21.717  11.344  1.00  0.00     0.244 HD
ENDBRANCH   7  11
ENDBRANCH   4   6
ENDBRANCH   1   4
BRANCH   3  13
HETATM   13  C4  UNL     1       2.067  26.869   8.865  1.00  0.00    -0.017 A 
HETATM   14  C5  UNL     1       0.727  27.166   8.890  1.00  0.00     0.013 A 
HETATM   15  C6  UNL     1       0.220  28.382   8.416  1.00  0.00     0.003 A 
HETATM   16  C7  UNL     1       1.063  29.337   7.899  1.00  0.00     0.036 A 
HETATM   17  C8  UNL     1       2.407  29.073   7.859  1.00  0.00     0.103 A 
HETATM   18  C9  UNL     1       2.875  27.880   8.329  1.00  0.00     0.048 A 
BRANCH  17  19
HETATM   19  N4  UNL     1       3.312  30.063   7.321  1.00  0.00    -0.116 N 
HETATM   20  O2  UNL     1       2.851  31.015   6.658  1.00  0.00    -0.532 OA
HETATM   21  O3  UNL     1       4.639  29.894   7.574  1.00  0.00    -0.532 OA
ENDBRANCH  17  19
ENDBRANCH   3  13
TORSDOF 6
ENDMDL
MODEL 4
REMARK VINA RESULT: -7.127336997      1.737      1.986
REMARK  6 active torsions:
REMARK  status: ('A' for Active; 'I' for Inactive)
REMARK    1  A    between atoms: S1_2  and  C2_3 
REMARK    2  A    between atoms: C2_3  and  N2_8 
REMARK    3  A    between atoms: N1_4  and  O1_6 
REMARK    4  A    between atoms: N2_8  and  N3_10 
REMARK    5  A    between atoms: C3_12  and  C4_13 
REMARK    6  A    between atoms: C8_17  and  N4_18 
ROOT
HETATM    1  N3  UNL     1       0.391  27.305  10.226  1.00  0.00    -0.309 N 
ATOM      2  H3  UNL     1      -0.446  27.101  10.772  1.00  0.00     0.186 HD
HETATM    3  C3  UNL     1       0.183  28.189   9.373  1.00  0.00     0.118 C 
ENDROOT
BRANCH   1   4
HETATM    4  N2  UNL     1       1.440  26.544  10.613  1.00  0.00    -0.279 N 
ATOM      5  H2  UNL     1       2.382  26.859  10.380  1.00  0.00     0.189 HD
BRANCH   4   6
HETATM    6  C2  UNL     1       1.286  25.315  11.336  1.00  0.00     0.178 C 
HETATM    7  N1  UNL     1       0.538  25.232  12.371  1.00  0.00    -0.246 N 
ATOM      8  H1  UNL     1       0.476  24.325  12.835  1.00  0.00     0.196 HD
BRANCH   6   9
HETATM    9  S1  UNL     1       2.157  23.873  10.781  1.00  0.00    -0.095 SA
HETATM   10  C1  UNL     1       2.609  24.071   9.057  1.00  0.00     0.099 C 
ENDBRANCH   6   9
BRANCH   7  11
HETATM   11  O1  UNL     1      -0.184  26.262  12.900  1.00  0.00    -0.288 OA
ATOM     12  H1  UNL     1      -1.091  26.207  13.176  1.00  0.00     0.244 HD
ENDBRANCH   7  11
ENDBRANCH   4   6
ENDBRANCH   1   4
BRANCH   3  13
HETATM   13  C4  UNL     1       1.110  28.747   8.411  1.00  0.00    -0.017 A 
HETATM   14  C5  UNL     1       0.852  29.868   7.659  1.00  0.00     0.013 A 
HETATM   15  C6  UNL     1       1.774  30.379   6.737  1.00  0.00     0.003 A 
HETATM   16  C7  UNL     1       2.989  29.764   6.549  1.00  0.00     0.036 A 
HETATM   17  C8  UNL     1       3.278  28.643   7.282  1.00  0.00     0.103 A 
HETATM   18  C9  UNL     1       2.362  28.166   8.175  1.00  0.00     0.048 A 
BRANCH  17  19
HETATM   19  N4  UNL     1       4.549  27.981   7.101  1.00  0.00    -0.116 N 
HETATM   20  O2  UNL     1       5.109  28.029   5.986  1.00  0.00    -0.532 OA
HETATM   21  O3  UNL     1       5.071  27.332   8.178  1.00  0.00    -0.532 OA
ENDBRANCH  17  19
ENDBRANCH   3  13
TORSDOF 6
ENDMDL
MODEL 5
REMARK VINA RESULT: -7.126676079      0.936      1.235
REMARK  6 active torsions:
REMARK  status: ('A' for Active; 'I' for Inactive)
REMARK    1  A    between atoms: S1_2  and  C2_3 
REMARK    2  A    between atoms: C2_3  and  N2_8 
REMARK    3  A    between atoms: N1_4  and  O1_6 
REMARK    4  A    between atoms: N2_8  and  N3_10 
REMARK    5  A    between atoms: C3_12  and  C4_13 
REMARK    6  A    between atoms: C8_17  and  N4_18 
ROOT
HETATM    1  N3  UNL     1       0.197  27.233  10.018  1.00  0.00    -0.309 N 
ATOM      2  H3  UNL     1      -0.676  26.884  10.412  1.00  0.00     0.186 HD
HETATM    3  C3  UNL     1      -0.003  28.022   9.075  1.00  0.00     0.118 C 
ENDROOT
BRANCH   1   4
HETATM    4  N2  UNL     1       1.275  26.718  10.653  1.00  0.00    -0.279 N 
ATOM      5  H2  UNL     1       1.920  27.359  11.115  1.00  0.00     0.189 HD
BRANCH   4   6
HETATM    6  C2  UNL     1       1.550  25.311  10.704  1.00  0.00     0.178 C 
HETATM    7  N1  UNL     1       2.511  24.788  10.039  1.00  0.00    -0.246 N 
ATOM      8  H1  UNL     1       2.648  23.781  10.124  1.00  0.00     0.196 HD
BRANCH   6   9
HETATM    9  S1  UNL     1       0.532  24.270  11.716  1.00  0.00    -0.095 SA
HETATM   10  C1  UNL     1      -0.322  25.267  12.937  1.00  0.00     0.099 C 
ENDBRANCH   6   9
BRANCH   7  11
HETATM   11  O1  UNL     1       3.365  25.475   9.227  1.00  0.00    -0.288 OA
ATOM     12  H1  UNL     1       3.328  25.482   8.278  1.00  0.00     0.244 HD
ENDBRANCH   7  11
ENDBRANCH   4   6
ENDBRANCH   1   4
BRANCH   3  13
HETATM   13  C4  UNL     1       0.971  28.720   8.263  1.00  0.00    -0.017 A 
HETATM   14  C5  UNL     1       0.746  29.939   7.672  1.00  0.00     0.013 A 
HETATM   15  C6  UNL     1       1.713  30.585   6.892  1.00  0.00     0.003 A 
HETATM   16  C7  UNL     1       2.944  30.008   6.687  1.00  0.00     0.036 A 
HETATM   17  C8  UNL     1       3.203  28.791   7.260  1.00  0.00     0.103 A 
HETATM   18  C9  UNL     1       2.242  28.184   8.017  1.00  0.00     0.048 A 
BRANCH  17  19
HETATM   19  N4  UNL     1       4.490  28.167   7.059  1.00  0.00    -0.116 N 
HETATM   20  O2  UNL     1       5.040  27.581   8.014  1.00  0.00    -0.532 OA
HETATM   21  O3  UNL     1       5.036  28.256   5.815  1.00  0.00    -0.532 OA
ENDBRANCH  17  19
ENDBRANCH   3  13
TORSDOF 6
ENDMDL
