MODEL 1
REMARK VINA RESULT: -7.569850951      0.000      0.000
REMARK  4 active torsions:
REMARK  status: ('A' for Active; 'I' for Inactive)
REMARK    1  A    between atoms: S1_2  and  N1_5 
REMARK    2  A    between atoms: C2_8  and  N2_9 
REMARK    3  A    between atoms: N3_11  and  N4_13 
REMARK    4  A    between atoms: N4_13  and  C3_15 
ROOT
HETATM    1  N2  UNL     1       1.877  25.569  10.720  1.00  0.00    -0.267 N 
ATOM      2  H2  UNL     1       2.691  25.194  11.207  1.00  0.00     0.190 HD
HETATM    3  N3  UNL     1       1.980  26.712  10.161  1.00  0.00    -0.241 N 
ATOM      4  H3  UNL     1       2.860  27.223  10.211  1.00  0.00     0.208 HD
ENDROOT
BRANCH   1   5
HETATM    5  C2  UNL     1       0.683  24.789  10.699  1.00  0.00     0.188 A 
HETATM    6  N1  UNL     1      -0.530  24.947  11.228  1.00  0.00    -0.101 N 
HETATM    7  O4  UNL     1      -0.862  23.804  10.707  1.00  0.00    -0.226 OA
HETATM    8  C1  UNL     1       0.331  23.591  10.154  1.00  0.00     0.222 A 
BRANCH   6   9
HETATM    9  S1  UNL     1      -1.353  26.104  12.192  1.00  0.00     0.237 S 
HETATM   10  O1  UNL     1      -2.809  26.213  11.901  1.00  0.00    -0.576 OA
HETATM   11  O2  UNL     1      -1.223  25.687  13.656  1.00  0.00    -0.576 OA
HETATM   12  O3  UNL     1      -0.600  27.597  12.046  1.00  0.00    -0.576 OA
ENDBRANCH   6   9
ENDBRANCH   1   5
BRANCH   3  13
HETATM   13  N4  UNL     1       0.897  27.264   9.483  1.00  0.00    -0.286 N 
ATOM     14  H4  UNL     1      -0.008  26.800   9.565  1.00  0.00     0.188 HD
BRANCH  13  15
HETATM   15  C3  UNL     1       0.975  28.431   8.687  1.00  0.00     0.049 A 
HETATM   16  C4  UNL     1       1.636  28.353   7.467  1.00  0.00     0.031 A 
HETATM   17  C5  UNL     1       1.727  29.481   6.671  1.00  0.00     0.002 A 
HETATM   18  C6  UNL     1       1.185  30.697   7.039  1.00  0.00     0.000 A 
HETATM   19  C7  UNL     1       0.528  30.763   8.256  1.00  0.00     0.002 A 
HETATM   20  C8  UNL     1       0.432  29.649   9.052  1.00  0.00     0.031 A 
ENDBRANCH  13  15
ENDBRANCH   3  13
TORSDOF 4
ENDMDL
MODEL 2
REMARK VINA RESULT: -7.567286621      0.066      1.151
REMARK  4 active torsions:
REMARK  status: ('A' for Active; 'I' for Inactive)
REMARK    1  A    between atoms: S1_2  and  N1_5 
REMARK    2  A    between atoms: C2_8  and  N2_9 
REMARK    3  A    between atoms: N3_11  and  N4_13 
REMARK    4  A    between atoms: N4_13  and  C3_15 
ROOT
HETATM    1  N2  UNL     1       1.883  25.554  10.765  1.00  0.00    -0.267 N 
ATOM      2  H2  UNL     1       2.687  25.184  11.273  1.00  0.00     0.190 HD
HETATM    3  N3  UNL     1       2.002  26.683  10.181  1.00  0.00    -0.241 N 
ATOM      4  H3  UNL     1       2.886  27.189  10.233  1.00  0.00     0.208 HD
ENDROOT
BRANCH   1   5
HETATM    5  C2  UNL     1       0.683  24.782  10.744  1.00  0.00     0.188 A 
HETATM    6  N1  UNL     1      -0.531  24.953  11.265  1.00  0.00    -0.101 N 
HETATM    7  O4  UNL     1      -0.868  23.808  10.751  1.00  0.00    -0.226 OA
HETATM    8  C1  UNL     1       0.326  23.581  10.207  1.00  0.00     0.222 A 
BRANCH   6   9
HETATM    9  S1  UNL     1      -1.352  26.123  12.214  1.00  0.00     0.237 S 
HETATM   10  O1  UNL     1      -2.805  26.238  11.916  1.00  0.00    -0.576 OA
HETATM   11  O2  UNL     1      -1.230  25.719  13.682  1.00  0.00    -0.576 OA
HETATM   12  O3  UNL     1      -0.589  27.611  12.058  1.00  0.00    -0.576 OA
ENDBRANCH   6   9
ENDBRANCH   1   5
BRANCH   3  13
HETATM   13  N4  UNL     1       0.933  27.227   9.475  1.00  0.00    -0.286 N 
ATOM     14  H4  UNL     1       0.018  26.788   9.576  1.00  0.00     0.188 HD
BRANCH  13  15
HETATM   15  C3  UNL     1       1.040  28.353   8.625  1.00  0.00     0.049 A 
HETATM   16  C4  UNL     1       0.458  29.546   9.037  1.00  0.00     0.031 A 
HETATM   17  C5  UNL     1       0.547  30.662   8.223  1.00  0.00     0.002 A 
HETATM   18  C6  UNL     1       1.195  30.643   7.004  1.00  0.00     0.000 A 
HETATM   19  C7  UNL     1       1.770  29.449   6.603  1.00  0.00     0.002 A 
HETATM   20  C8  UNL     1       1.688  28.338   7.405  1.00  0.00     0.031 A 
ENDBRANCH  13  15
ENDBRANCH   3  13
TORSDOF 4
ENDMDL
MODEL 3
REMARK VINA RESULT: -7.561527681      0.138      1.573
REMARK  4 active torsions:
REMARK  status: ('A' for Active; 'I' for Inactive)
REMARK    1  A    between atoms: S1_2  and  N1_5 
REMARK    2  A    between atoms: C2_8  and  N2_9 
REMARK    3  A    between atoms: N3_11  and  N4_13 
REMARK    4  A    between atoms: N4_13  and  C3_15 
ROOT
HETATM    1  N2  UNL     1       1.866  25.605  10.788  1.00  0.00    -0.267 N 
ATOM      2  H2  UNL     1       2.674  25.248  11.298  1.00  0.00     0.190 HD
HETATM    3  N3  UNL     1       1.974  26.728  10.191  1.00  0.00    -0.241 N 
ATOM      4  H3  UNL     1       2.853  27.242  10.234  1.00  0.00     0.208 HD
ENDROOT
BRANCH   1   5
HETATM    5  C2  UNL     1       0.673  24.822  10.779  1.00  0.00     0.188 A 
HETATM    6  N1  UNL     1      -0.531  24.972  11.329  1.00  0.00    -0.101 N 
HETATM    7  O4  UNL     1      -0.870  23.835  10.802  1.00  0.00    -0.226 OA
HETATM    8  C1  UNL     1       0.314  23.629  10.227  1.00  0.00     0.222 A 
BRANCH   6   9
HETATM    9  S1  UNL     1      -1.341  26.118  12.317  1.00  0.00     0.237 S 
HETATM   10  O1  UNL     1      -1.243  25.840  13.776  1.00  0.00    -0.576 OA
HETATM   11  O2  UNL     1      -0.704  27.487  12.083  1.00  0.00    -0.576 OA
HETATM   12  O3  UNL     1      -2.945  26.243  11.838  1.00  0.00    -0.576 OA
ENDBRANCH   6   9
ENDBRANCH   1   5
BRANCH   3  13
HETATM   13  N4  UNL     1       0.899  27.255   9.480  1.00  0.00    -0.286 N 
ATOM     14  H4  UNL     1       0.006  26.765   9.530  1.00  0.00     0.188 HD
BRANCH  13  15
HETATM   15  C3  UNL     1       0.971  28.429   8.694  1.00  0.00     0.049 A 
HETATM   16  C4  UNL     1       0.398  29.592   9.194  1.00  0.00     0.031 A 
HETATM   17  C5  UNL     1       0.454  30.753   8.444  1.00  0.00     0.002 A 
HETATM   18  C6  UNL     1       1.060  30.809   7.204  1.00  0.00     0.000 A 
HETATM   19  C7  UNL     1       1.627  29.644   6.716  1.00  0.00     0.002 A 
HETATM   20  C8  UNL     1       1.577  28.488   7.454  1.00  0.00     0.031 A 
ENDBRANCH  13  15
ENDBRANCH   3  13
TORSDOF 4
ENDMDL
MODEL 4
REMARK VINA RESULT: -7.539736240      0.373      1.128
REMARK  4 active torsions:
REMARK  status: ('A' for Active; 'I' for Inactive)
REMARK    1  A    between atoms: S1_2  and  N1_5 
REMARK    2  A    between atoms: C2_8  and  N2_9 
REMARK    3  A    between atoms: N3_11  and  N4_13 
REMARK    4  A    between atoms: N4_13  and  C3_15 
ROOT
HETATM    1  N2  UNL     1       1.781  25.353  10.824  1.00  0.00    -0.267 N 
ATOM      2  H2  UNL     1       2.563  24.915  11.311  1.00  0.00     0.190 HD
HETATM    3  N3  UNL     1       1.963  26.499  10.292  1.00  0.00    -0.241 N 
ATOM      4  H3  UNL     1       2.874  26.952  10.364  1.00  0.00     0.208 HD
ENDROOT
BRANCH   1   5
HETATM    5  C2  UNL     1       0.540  24.651  10.771  1.00  0.00     0.188 A 
HETATM    6  N1  UNL     1      -0.663  24.867  11.302  1.00  0.00    -0.101 N 
HETATM    7  O4  UNL     1      -1.065  23.767  10.739  1.00  0.00    -0.226 OA
HETATM    8  C1  UNL     1       0.115  23.498  10.182  1.00  0.00     0.222 A 
BRANCH   6   9
HETATM    9  S1  UNL     1      -1.417  26.038  12.304  1.00  0.00     0.237 S 
HETATM   10  O1  UNL     1      -1.305  25.755  13.761  1.00  0.00    -0.576 OA
HETATM   11  O2  UNL     1      -0.736  27.384  12.061  1.00  0.00    -0.576 OA
HETATM   12  O3  UNL     1      -3.023  26.220  11.850  1.00  0.00    -0.576 OA
ENDBRANCH   6   9
ENDBRANCH   1   5
BRANCH   3  13
HETATM   13  N4  UNL     1       0.926  27.135   9.616  1.00  0.00    -0.286 N 
ATOM     14  H4  UNL     1      -0.030  26.839   9.816  1.00  0.00     0.188 HD
BRANCH  13  15
HETATM   15  C3  UNL     1       1.117  28.167   8.667  1.00  0.00     0.049 A 
HETATM   16  C4  UNL     1       1.884  27.893   7.542  1.00  0.00     0.031 A 
HETATM   17  C5  UNL     1       2.087  28.887   6.600  1.00  0.00     0.002 A 
HETATM   18  C6  UNL     1       1.556  30.155   6.731  1.00  0.00     0.000 A 
HETATM   19  C7  UNL     1       0.793  30.417   7.856  1.00  0.00     0.002 A 
HETATM   20  C8  UNL     1       0.586  29.436   8.795  1.00  0.00     0.031 A 
ENDBRANCH  13  15
ENDBRANCH   3  13
TORSDOF 4
ENDMDL
MODEL 5
REMARK VINA RESULT: -7.409328922      0.122      1.569
REMARK  4 active torsions:
REMARK  status: ('A' for Active; 'I' for Inactive)
REMARK    1  A    between atoms: S1_2  and  N1_5 
REMARK    2  A    between atoms: C2_8  and  N2_9 
REMARK    3  A    between atoms: N3_11  and  N4_13 
REMARK    4  A    between atoms: N4_13  and  C3_15 
ROOT
HETATM    1  N2  UNL     1       1.914  25.570  10.777  1.00  0.00    -0.267 N 
ATOM      2  H2  UNL     1       2.718  25.221  11.300  1.00  0.00     0.190 HD
HETATM    3  N3  UNL     1       2.032  26.677  10.152  1.00  0.00    -0.241 N 
ATOM      4  H3  UNL     1       2.914  27.187  10.187  1.00  0.00     0.208 HD
ENDROOT
BRANCH   1   5
HETATM    5  C2  UNL     1       0.716  24.795  10.782  1.00  0.00     0.188 A 
HETATM    6  N1  UNL     1      -0.495  24.975  11.307  1.00  0.00    -0.101 N 
HETATM    7  O4  UNL     1      -0.833  23.818  10.822  1.00  0.00    -0.226 OA
HETATM    8  C1  UNL     1       0.359  23.582  10.274  1.00  0.00     0.222 A 
BRANCH   6   9
HETATM    9  S1  UNL     1      -1.312  26.165  12.235  1.00  0.00     0.237 S 
HETATM   10  O1  UNL     1      -0.780  27.544  12.061  1.00  0.00    -0.576 OA
HETATM   11  O2  UNL     1      -2.774  26.195  11.793  1.00  0.00    -0.576 OA
HETATM   12  O3  UNL     1      -1.306  25.720  13.854  1.00  0.00    -0.576 OA
ENDBRANCH   6   9
ENDBRANCH   1   5
BRANCH   3  13
HETATM   13  N4  UNL     1       0.964  27.193   9.424  1.00  0.00    -0.286 N 
ATOM     14  H4  UNL     1       0.073  26.697   9.463  1.00  0.00     0.188 HD
BRANCH  13  15
HETATM   15  C3  UNL     1       1.038  28.363   8.633  1.00  0.00     0.049 A 
HETATM   16  C4  UNL     1       0.446  29.524   9.117  1.00  0.00     0.031 A 
HETATM   17  C5  UNL     1       0.504  30.681   8.361  1.00  0.00     0.002 A 
HETATM   18  C6  UNL     1       1.131  30.736   7.132  1.00  0.00     0.000 A 
HETATM   19  C7  UNL     1       1.718  29.574   6.660  1.00  0.00     0.002 A 
HETATM   20  C8  UNL     1       1.666  28.422   7.403  1.00  0.00     0.031 A 
ENDBRANCH  13  15
ENDBRANCH   3  13
TORSDOF 4
ENDMDL
