MODEL 1
REMARK VINA RESULT: -6.734106673      0.000      0.000
REMARK  3 active torsions:
REMARK  status: ('A' for Active; 'I' for Inactive)
REMARK       I    between atoms: C2_2  and  N1_4 
REMARK       I    between atoms: N1_4  and  C3_6 
REMARK    1  A    between atoms: C3_6  and  C4_8 
REMARK       I    between atoms: C4_8  and  N2_10 
REMARK    2  A    between atoms: N2_10  and  N3_12 
REMARK    3  A    between atoms: C5_14  and  C6_15 
ROOT
HETATM    1  C4  UNL     1      50.576  36.318   0.623  1.00  0.00     0.328 C 
HETATM    2  O3  UNL     1      49.797  36.344   1.608  1.00  0.00    -0.261 OA
HETATM    3  N2  UNL     1      50.456  35.339  -0.383  1.00  0.00    -0.262 N 
ATOM      4  H2  UNL     1      51.097  35.332  -1.176  1.00  0.00     0.190 HD
ENDROOT
BRANCH   3   5
HETATM    5  N3  UNL     1      49.450  34.380  -0.280  1.00  0.00    -0.308 N 
HETATM    6  C5  UNL     1      48.414  34.373  -1.037  1.00  0.00     0.120 C 
ATOM      7  H3  UNL     1      49.542  33.653   0.428  1.00  0.00     0.186 HD
BRANCH   6   8
HETATM    8  C6  UNL     1      47.370  33.367  -0.920  1.00  0.00     0.005 A 
HETATM    9  C7  UNL     1      47.381  32.203  -1.662  1.00  0.00     0.015 A 
HETATM   10  C8  UNL     1      46.382  31.261  -1.535  1.00  0.00     0.001 A 
HETATM   11  C9  UNL     1      45.361  31.513  -0.642  1.00  0.00     0.002 A 
HETATM   12  C10 UNL     1      45.336  32.677   0.111  1.00  0.00     0.027 A 
HETATM   13  C11 UNL     1      46.334  33.621  -0.014  1.00  0.00     0.058 A 
HETATM   14  N4  UNL     1      46.345  34.826   0.738  1.00  0.00    -0.102 NA
ENDBRANCH   6   8
ENDBRANCH   3   5
BRANCH   1  15
HETATM   15  C3  UNL     1      51.649  37.341   0.515  1.00  0.00     0.317 C 
HETATM   16  N1  UNL     1      51.759  38.329   1.507  1.00  0.00    -0.290 N 
HETATM   17  C2  UNL     1      52.755  39.324   1.457  1.00  0.00     0.220 C 
ATOM     18  H1  UNL     1      51.099  38.327   2.285  1.00  0.00     0.172 HD
HETATM   19  C1  UNL     1      53.762  39.421   0.374  1.00  0.00     0.117 C 
HETATM   20  O1  UNL     1      52.786  40.192   2.406  1.00  0.00    -0.274 OA
HETATM   21  O2  UNL     1      52.444  37.326  -0.445  1.00  0.00    -0.262 OA
ENDBRANCH   1  15
TORSDOF 3
ENDMDL
MODEL 2
REMARK VINA RESULT: -6.532233263      0.855      1.556
REMARK  3 active torsions:
REMARK  status: ('A' for Active; 'I' for Inactive)
REMARK       I    between atoms: C2_2  and  N1_4 
REMARK       I    between atoms: N1_4  and  C3_6 
REMARK    1  A    between atoms: C3_6  and  C4_8 
REMARK       I    between atoms: C4_8  and  N2_10 
REMARK    2  A    between atoms: N2_10  and  N3_12 
REMARK    3  A    between atoms: C5_14  and  C6_15 
ROOT
HETATM    1  C4  UNL     1      50.635  36.414   0.720  1.00  0.00     0.328 C 
HETATM    2  O3  UNL     1      49.902  36.419   1.739  1.00  0.00    -0.261 OA
HETATM    3  N2  UNL     1      50.471  35.454  -0.299  1.00  0.00    -0.262 N 
ATOM      4  H2  UNL     1      51.076  35.464  -1.120  1.00  0.00     0.190 HD
ENDROOT
BRANCH   3   5
HETATM    5  N3  UNL     1      49.472  34.492  -0.169  1.00  0.00    -0.308 N 
HETATM    6  C5  UNL     1      48.269  34.677  -0.576  1.00  0.00     0.120 C 
ATOM      7  H3  UNL     1      49.708  33.601   0.267  1.00  0.00     0.186 HD
BRANCH   6   8
HETATM    8  C6  UNL     1      47.234  33.665  -0.434  1.00  0.00     0.005 A 
HETATM    9  C7  UNL     1      46.058  33.904   0.249  1.00  0.00     0.015 A 
HETATM   10  C8  UNL     1      45.089  32.931   0.372  1.00  0.00     0.001 A 
HETATM   11  C9  UNL     1      45.325  31.703  -0.210  1.00  0.00     0.002 A 
HETATM   12  C10 UNL     1      46.500  31.447  -0.901  1.00  0.00     0.027 A 
HETATM   13  C11 UNL     1      47.471  32.419  -1.024  1.00  0.00     0.058 A 
HETATM   14  N4  UNL     1      48.689  32.198  -1.723  1.00  0.00    -0.102 NA
ENDBRANCH   6   8
ENDBRANCH   3   5
BRANCH   1  15
HETATM   15  C3  UNL     1      51.702  37.441   0.583  1.00  0.00     0.317 C 
HETATM   16  N1  UNL     1      51.816  38.446   1.558  1.00  0.00    -0.290 N 
HETATM   17  C2  UNL     1      52.806  39.445   1.482  1.00  0.00     0.220 C 
ATOM     18  H1  UNL     1      51.165  38.453   2.343  1.00  0.00     0.172 HD
HETATM   19  C1  UNL     1      53.801  39.530   0.387  1.00  0.00     0.117 C 
HETATM   20  O1  UNL     1      52.842  40.329   2.415  1.00  0.00    -0.274 OA
HETATM   21  O2  UNL     1      52.487  37.414  -0.384  1.00  0.00    -0.262 OA
ENDBRANCH   1  15
TORSDOF 3
ENDMDL
MODEL 3
REMARK VINA RESULT: -6.256212319      1.020      1.438
REMARK  3 active torsions:
REMARK  status: ('A' for Active; 'I' for Inactive)
REMARK       I    between atoms: C2_2  and  N1_4 
REMARK       I    between atoms: N1_4  and  C3_6 
REMARK    1  A    between atoms: C3_6  and  C4_8 
REMARK       I    between atoms: C4_8  and  N2_10 
REMARK    2  A    between atoms: N2_10  and  N3_12 
REMARK    3  A    between atoms: C5_14  and  C6_15 
ROOT
HETATM    1  C4  UNL     1      50.696  36.551   0.751  1.00  0.00     0.328 C 
HETATM    2  O3  UNL     1      49.921  36.482   1.737  1.00  0.00    -0.261 OA
HETATM    3  N2  UNL     1      50.613  35.631  -0.314  1.00  0.00    -0.262 N 
ATOM      4  H2  UNL     1      51.250  35.700  -1.107  1.00  0.00     0.190 HD
ENDROOT
BRANCH   3   5
HETATM    5  N3  UNL     1      49.651  34.625  -0.268  1.00  0.00    -0.308 N 
HETATM    6  C5  UNL     1      48.563  34.669  -0.948  1.00  0.00     0.120 C 
ATOM      7  H3  UNL     1      49.818  33.818   0.333  1.00  0.00     0.186 HD
BRANCH   6   8
HETATM    8  C6  UNL     1      47.564  33.613  -0.891  1.00  0.00     0.005 A 
HETATM    9  C7  UNL     1      47.643  32.482  -1.678  1.00  0.00     0.015 A 
HETATM   10  C8  UNL     1      46.687  31.492  -1.610  1.00  0.00     0.001 A 
HETATM   11  C9  UNL     1      45.639  31.661  -0.728  1.00  0.00     0.002 A 
HETATM   12  C10 UNL     1      45.546  32.791   0.070  1.00  0.00     0.027 A 
HETATM   13  C11 UNL     1      46.501  33.783   0.003  1.00  0.00     0.058 A 
HETATM   14  N4  UNL     1      46.443  34.956   0.802  1.00  0.00    -0.102 NA
ENDBRANCH   6   8
ENDBRANCH   3   5
BRANCH   1  15
HETATM   15  C3  UNL     1      51.723  37.624   0.704  1.00  0.00     0.317 C 
HETATM   16  N1  UNL     1      52.590  37.697  -0.399  1.00  0.00    -0.290 N 
HETATM   17  C2  UNL     1      53.582  38.692  -0.499  1.00  0.00     0.220 C 
ATOM     18  H1  UNL     1      52.498  37.011  -1.149  1.00  0.00     0.172 HD
HETATM   19  C1  UNL     1      53.802  39.735   0.530  1.00  0.00     0.117 C 
HETATM   20  O1  UNL     1      54.334  38.689  -1.542  1.00  0.00    -0.274 OA
HETATM   21  O2  UNL     1      51.817  38.452   1.630  1.00  0.00    -0.262 OA
ENDBRANCH   1  15
TORSDOF 3
ENDMDL
MODEL 4
REMARK VINA RESULT: -6.182875833      1.345      2.124
REMARK  3 active torsions:
REMARK  status: ('A' for Active; 'I' for Inactive)
REMARK       I    between atoms: C2_2  and  N1_4 
REMARK       I    between atoms: N1_4  and  C3_6 
REMARK    1  A    between atoms: C3_6  and  C4_8 
REMARK       I    between atoms: C4_8  and  N2_10 
REMARK    2  A    between atoms: N2_10  and  N3_12 
REMARK    3  A    between atoms: C5_14  and  C6_15 
ROOT
HETATM    1  C4  UNL     1      50.752  36.619   0.797  1.00  0.00     0.328 C 
HETATM    2  O3  UNL     1      49.999  36.541   1.799  1.00  0.00    -0.261 OA
HETATM    3  N2  UNL     1      50.652  35.705  -0.271  1.00  0.00    -0.262 N 
ATOM      4  H2  UNL     1      51.272  35.783  -1.077  1.00  0.00     0.190 HD
ENDROOT
BRANCH   3   5
HETATM    5  N3  UNL     1      49.696  34.694  -0.211  1.00  0.00    -0.308 N 
HETATM    6  C5  UNL     1      48.487  34.852  -0.614  1.00  0.00     0.120 C 
ATOM      7  H3  UNL     1      49.968  33.789   0.171  1.00  0.00     0.186 HD
BRANCH   6   8
HETATM    8  C6  UNL     1      47.497  33.789  -0.546  1.00  0.00     0.005 A 
HETATM    9  C7  UNL     1      46.300  33.940   0.124  1.00  0.00     0.015 A 
HETATM   10  C8  UNL     1      45.374  32.920   0.178  1.00  0.00     0.001 A 
HETATM   11  C9  UNL     1      45.676  31.734  -0.461  1.00  0.00     0.002 A 
HETATM   12  C10 UNL     1      46.874  31.568  -1.139  1.00  0.00     0.027 A 
HETATM   13  C11 UNL     1      47.802  32.587  -1.193  1.00  0.00     0.058 A 
HETATM   14  N4  UNL     1      49.041  32.457  -1.876  1.00  0.00    -0.102 NA
ENDBRANCH   6   8
ENDBRANCH   3   5
BRANCH   1  15
HETATM   15  C3  UNL     1      51.773  37.699   0.735  1.00  0.00     0.317 C 
HETATM   16  N1  UNL     1      52.638  37.762  -0.370  1.00  0.00    -0.290 N 
HETATM   17  C2  UNL     1      53.624  38.762  -0.484  1.00  0.00     0.220 C 
ATOM     18  H1  UNL     1      52.551  37.066  -1.110  1.00  0.00     0.172 HD
HETATM   19  C1  UNL     1      53.838  39.820   0.531  1.00  0.00     0.117 C 
HETATM   20  O1  UNL     1      54.376  38.749  -1.527  1.00  0.00    -0.274 OA
HETATM   21  O2  UNL     1      51.862  38.540   1.650  1.00  0.00    -0.262 OA
ENDBRANCH   1  15
TORSDOF 3
ENDMDL
MODEL 5
REMARK VINA RESULT: -5.963649020      1.471      1.641
REMARK  3 active torsions:
REMARK  status: ('A' for Active; 'I' for Inactive)
REMARK       I    between atoms: C2_2  and  N1_4 
REMARK       I    between atoms: N1_4  and  C3_6 
REMARK    1  A    between atoms: C3_6  and  C4_8 
REMARK       I    between atoms: C4_8  and  N2_10 
REMARK    2  A    between atoms: N2_10  and  N3_12 
REMARK    3  A    between atoms: C5_14  and  C6_15 
ROOT
HETATM    1  C4  UNL     1      50.853  36.258   0.523  1.00  0.00     0.328 C 
HETATM    2  O3  UNL     1      49.855  36.358   1.279  1.00  0.00    -0.261 OA
HETATM    3  N2  UNL     1      51.074  35.102  -0.253  1.00  0.00    -0.262 N 
ATOM      4  H2  UNL     1      51.890  35.036  -0.861  1.00  0.00     0.190 HD
ENDROOT
BRANCH   3   5
HETATM    5  N3  UNL     1      50.164  34.050  -0.177  1.00  0.00    -0.308 N 
HETATM    6  C5  UNL     1      49.483  33.642  -1.187  1.00  0.00     0.120 C 
ATOM      7  H3  UNL     1      50.032  33.584   0.720  1.00  0.00     0.186 HD
BRANCH   6   8
HETATM    8  C6  UNL     1      48.535  32.543  -1.095  1.00  0.00     0.005 A 
HETATM    9  C7  UNL     1      48.624  31.574  -0.117  1.00  0.00     0.015 A 
HETATM   10  C8  UNL     1      47.714  30.540  -0.047  1.00  0.00     0.001 A 
HETATM   11  C9  UNL     1      46.705  30.498  -0.987  1.00  0.00     0.002 A 
HETATM   12  C10 UNL     1      46.602  31.464  -1.975  1.00  0.00     0.027 A 
HETATM   13  C11 UNL     1      47.511  32.499  -2.048  1.00  0.00     0.058 A 
HETATM   14  N4  UNL     1      47.442  33.510  -3.044  1.00  0.00    -0.102 NA
ENDBRANCH   6   8
ENDBRANCH   3   5
BRANCH   1  15
HETATM   15  C3  UNL     1      51.824  37.380   0.443  1.00  0.00     0.317 C 
HETATM   16  N1  UNL     1      51.877  38.319   1.488  1.00  0.00    -0.290 N 
HETATM   17  C2  UNL     1      52.776  39.403   1.468  1.00  0.00     0.220 C 
ATOM     18  H1  UNL     1      51.246  38.212   2.283  1.00  0.00     0.172 HD
HETATM   19  C1  UNL     1      53.733  39.652   0.364  1.00  0.00     0.117 C 
HETATM   20  O1  UNL     1      52.759  40.216   2.463  1.00  0.00    -0.274 OA
HETATM   21  O2  UNL     1      52.585  37.492  -0.537  1.00  0.00    -0.262 OA
ENDBRANCH   1  15
TORSDOF 3
ENDMDL
