MODEL 1
REMARK VINA RESULT: -8.173636257      0.000      0.000
REMARK  5 active torsions:
REMARK  status: ('A' for Active; 'I' for Inactive)
REMARK    1  A    between atoms: O1_1  and  N1_3 
REMARK    2  A    between atoms: C1_4  and  C2_5 
REMARK    3  A    between atoms: C2_5  and  N2_6 
REMARK    4  A    between atoms: N2_6  and  N3_8 
REMARK    5  A    between atoms: N3_8  and  C3_10 
ROOT
HETATM    1  C2  UNL     1      47.977  32.886  -1.633  1.00  0.00     0.158 C 
ENDROOT
BRANCH   1   2
HETATM    2  C1  UNL     1      47.072  33.449  -0.664  1.00  0.00     0.151 A 
HETATM    3  N1  UNL     1      47.246  34.617  -0.004  1.00  0.00    -0.205 N 
HETATM    4  C9  UNL     1      46.210  34.818   0.809  1.00  0.00     0.091 A 
HETATM    5  C4  UNL     1      45.339  33.763   0.682  1.00  0.00     0.063 A 
HETATM    6  C8  UNL     1      45.900  35.851   1.698  1.00  0.00     0.034 A 
HETATM    7  N8  UNL     1      45.912  32.936  -0.243  1.00  0.00    -0.338 N 
HETATM    8  C5  UNL     1      44.170  33.720   1.421  1.00  0.00     0.032 A 
ATOM      9  H8  UNL     1      45.512  32.054  -0.565  1.00  0.00     0.167 HD
HETATM   10  C6  UNL     1      43.836  34.725   2.307  1.00  0.00     0.002 A 
HETATM   11  C7  UNL     1      44.732  35.773   2.414  1.00  0.00     0.002 A 
BRANCH   3  12
HETATM   12  O1  UNL     1      48.300  35.472  -0.129  1.00  0.00    -0.281 OA
ATOM     13  H1  UNL     1      48.329  36.264  -0.655  1.00  0.00     0.245 HD
ENDBRANCH   3  12
ENDBRANCH   1   2
BRANCH   1  14
HETATM   14  N2  UNL     1      48.913  32.077  -1.355  1.00  0.00    -0.294 N 
ATOM     15  H2  UNL     1      48.662  31.099  -1.493  1.00  0.00     0.186 HD
BRANCH  14  16
HETATM   16  N3  UNL     1      50.179  32.256  -0.912  1.00  0.00    -0.130 N 
ATOM     17  H3  UNL     1      50.864  31.521  -1.089  1.00  0.00     0.205 HD
BRANCH  16  18
HETATM   18  C3  UNL     1      50.560  33.312  -0.276  1.00  0.00     0.728 A 
HETATM   19  N4  UNL     1      50.502  33.508   1.050  1.00  0.00    -0.114 N 
HETATM   20  N5  UNL     1      50.994  34.724   1.284  1.00  0.00    -0.213 N 
ATOM     21  H4  UNL     1      50.149  32.851   1.746  1.00  0.00     0.207 HD
HETATM   22  N6  UNL     1      51.358  35.298   0.153  1.00  0.00    -0.213 N 
ATOM     23  H5  UNL     1      51.078  35.151   2.206  1.00  0.00     0.210 HD
HETATM   24  N7  UNL     1      51.090  34.430  -0.798  1.00  0.00    -0.114 N 
ATOM     25  H6  UNL     1      51.764  36.226   0.040  1.00  0.00     0.210 HD
ATOM     26  H7  UNL     1      51.261  34.584  -1.791  1.00  0.00     0.207 HD
ENDBRANCH  16  18
ENDBRANCH  14  16
ENDBRANCH   1  14
TORSDOF 5
ENDMDL
MODEL 2
REMARK VINA RESULT: -8.059314980      1.309      1.662
REMARK  5 active torsions:
REMARK  status: ('A' for Active; 'I' for Inactive)
REMARK    1  A    between atoms: O1_1  and  N1_3 
REMARK    2  A    between atoms: C1_4  and  C2_5 
REMARK    3  A    between atoms: C2_5  and  N2_6 
REMARK    4  A    between atoms: N2_6  and  N3_8 
REMARK    5  A    between atoms: N3_8  and  C3_10 
ROOT
HETATM    1  C2  UNL     1      46.253  31.688  -1.391  1.00  0.00     0.158 C 
ENDROOT
BRANCH   1   2
HETATM    2  C1  UNL     1      45.847  32.693  -0.442  1.00  0.00     0.151 A 
HETATM    3  N1  UNL     1      46.554  33.797  -0.109  1.00  0.00    -0.205 N 
HETATM    4  C9  UNL     1      45.871  34.496   0.796  1.00  0.00     0.091 A 
HETATM    5  C4  UNL     1      44.693  33.840   1.063  1.00  0.00     0.063 A 
HETATM    6  C8  UNL     1      46.146  35.695   1.460  1.00  0.00     0.034 A 
HETATM    7  N8  UNL     1      44.719  32.725   0.273  1.00  0.00    -0.338 N 
HETATM    8  C5  UNL     1      43.789  34.355   1.976  1.00  0.00     0.032 A 
ATOM      9  H8  UNL     1      43.983  32.019   0.235  1.00  0.00     0.167 HD
HETATM   10  C6  UNL     1      44.032  35.536   2.647  1.00  0.00     0.002 A 
HETATM   11  C7  UNL     1      45.225  36.174   2.359  1.00  0.00     0.002 A 
BRANCH   3  12
HETATM   12  O1  UNL     1      47.770  34.164  -0.602  1.00  0.00    -0.281 OA
ATOM     13  H1  UNL     1      48.067  34.081  -1.501  1.00  0.00     0.245 HD
ENDBRANCH   3  12
ENDBRANCH   1   2
BRANCH   1  14
HETATM   14  N2  UNL     1      47.219  30.885  -1.216  1.00  0.00    -0.294 N 
ATOM     15  H2  UNL     1      47.170  30.052  -1.804  1.00  0.00     0.186 HD
BRANCH  14  16
HETATM   16  N3  UNL     1      48.301  30.914  -0.405  1.00  0.00    -0.130 N 
ATOM     17  H3  UNL     1      48.371  30.218   0.338  1.00  0.00     0.205 HD
BRANCH  16  18
HETATM   18  C3  UNL     1      49.249  31.781  -0.526  1.00  0.00     0.728 A 
HETATM   19  N4  UNL     1      49.862  32.436   0.472  1.00  0.00    -0.114 N 
HETATM   20  N5  UNL     1      50.773  33.230  -0.089  1.00  0.00    -0.213 N 
ATOM     21  H4  UNL     1      49.667  32.344   1.469  1.00  0.00     0.207 HD
HETATM   22  N6  UNL     1      50.755  33.097  -1.401  1.00  0.00    -0.213 N 
ATOM     23  H5  UNL     1      51.398  33.853   0.424  1.00  0.00     0.210 HD
HETATM   24  N7  UNL     1      49.820  32.210  -1.663  1.00  0.00    -0.114 N 
ATOM     25  H6  UNL     1      51.344  33.585  -2.075  1.00  0.00     0.210 HD
ATOM     26  H7  UNL     1      49.566  31.892  -2.598  1.00  0.00     0.207 HD
ENDBRANCH  16  18
ENDBRANCH  14  16
ENDBRANCH   1  14
TORSDOF 5
ENDMDL
MODEL 3
REMARK VINA RESULT: -7.957669780      1.291      1.854
REMARK  5 active torsions:
REMARK  status: ('A' for Active; 'I' for Inactive)
REMARK    1  A    between atoms: O1_1  and  N1_3 
REMARK    2  A    between atoms: C1_4  and  C2_5 
REMARK    3  A    between atoms: C2_5  and  N2_6 
REMARK    4  A    between atoms: N2_6  and  N3_8 
REMARK    5  A    between atoms: N3_8  and  C3_10 
ROOT
HETATM    1  C2  UNL     1      47.698  32.496  -1.491  1.00  0.00     0.158 C 
ENDROOT
BRANCH   1   2
HETATM    2  C1  UNL     1      46.890  33.231  -0.552  1.00  0.00     0.151 A 
HETATM    3  N1  UNL     1      45.642  32.896  -0.151  1.00  0.00    -0.205 N 
HETATM    4  C9  UNL     1      45.206  33.804   0.721  1.00  0.00     0.091 A 
HETATM    5  C4  UNL     1      46.183  34.753   0.897  1.00  0.00     0.063 A 
HETATM    6  C8  UNL     1      44.005  33.928   1.425  1.00  0.00     0.034 A 
HETATM    7  N8  UNL     1      47.213  34.359   0.087  1.00  0.00    -0.338 N 
HETATM    8  C5  UNL     1      45.987  35.818   1.758  1.00  0.00     0.032 A 
ATOM      9  H8  UNL     1      48.098  34.855  -0.014  1.00  0.00     0.167 HD
HETATM   10  C6  UNL     1      44.813  35.968   2.467  1.00  0.00     0.002 A 
HETATM   11  C7  UNL     1      43.846  34.999   2.270  1.00  0.00     0.002 A 
BRANCH   3  12
HETATM   12  O1  UNL     1      44.921  31.812  -0.555  1.00  0.00    -0.281 OA
ATOM     13  H1  UNL     1      44.065  31.550  -0.237  1.00  0.00     0.245 HD
ENDBRANCH   3  12
ENDBRANCH   1   2
BRANCH   1  14
HETATM   14  N2  UNL     1      48.746  32.947  -2.044  1.00  0.00    -0.294 N 
ATOM     15  H2  UNL     1      48.577  33.366  -2.959  1.00  0.00     0.186 HD
BRANCH  14  16
HETATM   16  N3  UNL     1      50.043  32.984  -1.661  1.00  0.00    -0.130 N 
ATOM     17  H3  UNL     1      50.736  32.517  -2.246  1.00  0.00     0.205 HD
BRANCH  16  18
HETATM   18  C3  UNL     1      50.444  33.583  -0.591  1.00  0.00     0.728 A 
HETATM   19  N4  UNL     1      50.522  33.051   0.639  1.00  0.00    -0.114 N 
HETATM   20  N5  UNL     1      50.983  34.006   1.446  1.00  0.00    -0.213 N 
ATOM     21  H4  UNL     1      50.275  32.097   0.904  1.00  0.00     0.207 HD
HETATM   22  N6  UNL     1      51.198  35.116   0.768  1.00  0.00    -0.213 N 
ATOM     23  H5  UNL     1      51.148  33.893   2.446  1.00  0.00     0.210 HD
HETATM   24  N7  UNL     1      50.866  34.852  -0.477  1.00  0.00    -0.114 N 
ATOM     25  H6  UNL     1      51.549  36.001   1.135  1.00  0.00     0.210 HD
ATOM     26  H7  UNL     1      50.922  35.518  -1.248  1.00  0.00     0.207 HD
ENDBRANCH  16  18
ENDBRANCH  14  16
ENDBRANCH   1  14
TORSDOF 5
ENDMDL
MODEL 4
REMARK VINA RESULT: -7.425580632      1.413      2.155
REMARK  5 active torsions:
REMARK  status: ('A' for Active; 'I' for Inactive)
REMARK    1  A    between atoms: O1_1  and  N1_3 
REMARK    2  A    between atoms: C1_4  and  C2_5 
REMARK    3  A    between atoms: C2_5  and  N2_6 
REMARK    4  A    between atoms: N2_6  and  N3_8 
REMARK    5  A    between atoms: N3_8  and  C3_10 
ROOT
HETATM    1  C2  UNL     1      47.398  32.346  -1.325  1.00  0.00     0.158 C 
ENDROOT
BRANCH   1   2
HETATM    2  C1  UNL     1      46.654  33.170  -0.407  1.00  0.00     0.151 A 
HETATM    3  N1  UNL     1      45.409  32.913   0.055  1.00  0.00    -0.205 N 
HETATM    4  C9  UNL     1      45.041  33.889   0.884  1.00  0.00     0.091 A 
HETATM    5  C4  UNL     1      46.062  34.804   0.970  1.00  0.00     0.063 A 
HETATM    6  C8  UNL     1      43.872  34.106   1.619  1.00  0.00     0.034 A 
HETATM    7  N8  UNL     1      47.045  34.319   0.152  1.00  0.00    -0.338 N 
HETATM    8  C5  UNL     1      45.941  35.926   1.770  1.00  0.00     0.032 A 
ATOM      9  H8  UNL     1      47.947  34.769  -0.008  1.00  0.00     0.167 HD
HETATM   10  C6  UNL     1      44.800  36.168   2.507  1.00  0.00     0.002 A 
HETATM   11  C7  UNL     1      43.788  35.231   2.402  1.00  0.00     0.002 A 
BRANCH   3  12
HETATM   12  O1  UNL     1      44.631  31.839  -0.257  1.00  0.00    -0.281 OA
ATOM     13  H1  UNL     1      43.905  31.497   0.252  1.00  0.00     0.245 HD
ENDBRANCH   3  12
ENDBRANCH   1   2
BRANCH   1  14
HETATM   14  N2  UNL     1      48.486  31.759  -1.043  1.00  0.00    -0.294 N 
ATOM     15  H2  UNL     1      48.571  30.832  -1.459  1.00  0.00     0.186 HD
BRANCH  14  16
HETATM   16  N3  UNL     1      49.557  32.122  -0.300  1.00  0.00    -0.130 N 
ATOM     17  H3  UNL     1      49.710  31.653   0.594  1.00  0.00     0.205 HD
BRANCH  16  18
HETATM   18  C3  UNL     1      50.395  33.032  -0.667  1.00  0.00     0.728 A 
HETATM   19  N4  UNL     1      50.976  33.140  -1.872  1.00  0.00    -0.114 N 
HETATM   20  N5  UNL     1      51.765  34.214  -1.826  1.00  0.00    -0.213 N 
ATOM     21  H4  UNL     1      50.840  32.519  -2.669  1.00  0.00     0.207 HD
HETATM   22  N6  UNL     1      51.700  34.782  -0.637  1.00  0.00    -0.213 N 
ATOM     23  H5  UNL     1      52.338  34.549  -2.600  1.00  0.00     0.210 HD
HETATM   24  N7  UNL     1      50.860  34.055   0.067  1.00  0.00    -0.114 N 
ATOM     25  H6  UNL     1      52.199  35.615  -0.328  1.00  0.00     0.210 HD
ATOM     26  H7  UNL     1      50.599  34.242   1.035  1.00  0.00     0.207 HD
ENDBRANCH  16  18
ENDBRANCH  14  16
ENDBRANCH   1  14
TORSDOF 5
ENDMDL
MODEL 5
REMARK VINA RESULT: -7.401875536      1.182      1.970
REMARK  5 active torsions:
REMARK  status: ('A' for Active; 'I' for Inactive)
REMARK    1  A    between atoms: O1_1  and  N1_3 
REMARK    2  A    between atoms: C1_4  and  C2_5 
REMARK    3  A    between atoms: C2_5  and  N2_6 
REMARK    4  A    between atoms: N2_6  and  N3_8 
REMARK    5  A    between atoms: N3_8  and  C3_10 
ROOT
HETATM    1  C2  UNL     1      48.295  32.832  -1.312  1.00  0.00     0.158 C 
ENDROOT
BRANCH   1   2
HETATM    2  C1  UNL     1      47.297  33.435  -0.467  1.00  0.00     0.151 A 
HETATM    3  N1  UNL     1      46.076  32.920  -0.195  1.00  0.00    -0.205 N 
HETATM    4  C9  UNL     1      45.426  33.747   0.622  1.00  0.00     0.091 A 
HETATM    5  C4  UNL     1      46.233  34.825   0.893  1.00  0.00     0.063 A 
HETATM    6  C8  UNL     1      44.153  33.691   1.198  1.00  0.00     0.034 A 
HETATM    7  N8  UNL     1      47.386  34.591   0.197  1.00  0.00    -0.338 N 
HETATM    8  C5  UNL     1      45.798  35.843   1.723  1.00  0.00     0.032 A 
ATOM      9  H8  UNL     1      48.197  35.210   0.185  1.00  0.00     0.167 HD
HETATM   10  C6  UNL     1      44.547  35.816   2.306  1.00  0.00     0.002 A 
HETATM   11  C7  UNL     1      43.756  34.720   2.016  1.00  0.00     0.002 A 
BRANCH   3  12
HETATM   12  O1  UNL     1      45.564  31.748  -0.665  1.00  0.00    -0.281 OA
ATOM     13  H1  UNL     1      44.650  31.558  -0.844  1.00  0.00     0.245 HD
ENDBRANCH   3  12
ENDBRANCH   1   2
BRANCH   1  14
HETATM   14  N2  UNL     1      49.307  32.197  -0.888  1.00  0.00    -0.294 N 
ATOM     15  H2  UNL     1      49.210  31.184  -0.947  1.00  0.00     0.186 HD
BRANCH  14  16
HETATM   16  N3  UNL     1      50.492  32.600  -0.372  1.00  0.00    -0.130 N 
ATOM     17  H3  UNL     1      51.245  31.916  -0.294  1.00  0.00     0.205 HD
BRANCH  16  18
HETATM   18  C3  UNL     1      50.713  33.807   0.026  1.00  0.00     0.728 A 
HETATM   19  N4  UNL     1      51.162  34.824  -0.725  1.00  0.00    -0.114 N 
HETATM   20  N5  UNL     1      51.249  35.887   0.074  1.00  0.00    -0.213 N 
ATOM     21  H4  UNL     1      51.393  34.789  -1.718  1.00  0.00     0.207 HD
HETATM   22  N6  UNL     1      50.871  35.574   1.298  1.00  0.00    -0.213 N 
ATOM     23  H5  UNL     1      51.563  36.812  -0.219  1.00  0.00     0.210 HD
HETATM   24  N7  UNL     1      50.545  34.300   1.264  1.00  0.00    -0.114 N 
ATOM     25  H6  UNL     1      50.840  36.194   2.107  1.00  0.00     0.210 HD
ATOM     26  H7  UNL     1      50.211  33.763   2.063  1.00  0.00     0.207 HD
ENDBRANCH  16  18
ENDBRANCH  14  16
ENDBRANCH   1  14
TORSDOF 5
ENDMDL
