MODEL 1
REMARK VINA RESULT: -7.026050706      0.000      0.000
REMARK  3 active torsions:
REMARK  status: ('A' for Active; 'I' for Inactive)
REMARK    1  A    between atoms: C2_2  and  N1_4 
REMARK    2  A    between atoms: N1_4  and  C4_6 
REMARK    3  A    between atoms: C10_15  and  N2_16 
ROOT
HETATM    1  C4  UNL     1      48.180  34.147   0.482  1.00  0.00     0.245 C 
HETATM    2  O1  UNL     1      47.708  34.868   1.535  1.00  0.00    -0.332 OA
HETATM    3  C5  UNL     1      46.533  35.454   1.099  1.00  0.00     0.297 C 
HETATM    4  O2  UNL     1      45.721  35.844   2.124  1.00  0.00    -0.323 OA
HETATM    5  C6  UNL     1      44.848  34.788   2.400  1.00  0.00     0.160 C 
HETATM    6  C7  UNL     1      44.639  34.716   3.869  1.00  0.00     0.078 C 
HETATM    7  C8  UNL     1      43.546  35.055   1.661  1.00  0.00     0.078 C 
HETATM    8  O3  UNL     1      45.443  33.648   1.824  1.00  0.00    -0.343 OA
HETATM    9  C9  UNL     1      45.811  34.149   0.604  1.00  0.00     0.207 C 
HETATM   10  C10 UNL     1      46.899  33.570  -0.181  1.00  0.00     0.166 C 
ENDROOT
BRANCH   1  11
HETATM   11  N1  UNL     1      48.998  33.008   0.886  1.00  0.00    -0.391 N 
ATOM     12  H1  UNL     1      48.631  32.250   1.461  1.00  0.00     0.156 HD
BRANCH  11  13
HETATM   13  C2  UNL     1      50.336  33.029   0.424  1.00  0.00     0.071 C 
HETATM   14  C1  UNL     1      50.517  32.042  -0.712  1.00  0.00     0.031 C 
HETATM   15  C3  UNL     1      50.795  34.367  -0.114  1.00  0.00     0.031 C 
ENDBRANCH  11  13
ENDBRANCH   1  11
BRANCH  10  16
HETATM   16  N2  UNL     1      47.004  32.241  -0.484  1.00  0.00    -0.355 N 
HETATM   17  C11 UNL     1      46.826  31.567  -1.499  1.00  0.00     0.197 C 
HETATM   18  N3  UNL     1      46.420  32.022  -2.763  1.00  0.00    -0.067 NA
HETATM   19  N4  UNL     1      47.102  30.153  -1.414  1.00  0.00    -0.067 NA
ATOM     20  H2  UNL     1      47.299  31.679   0.314  1.00  0.00     0.162 HD
ENDBRANCH  10  16
TORSDOF 3
ENDMDL
MODEL 2
REMARK VINA RESULT: -6.420395503      2.349      4.811
REMARK  3 active torsions:
REMARK  status: ('A' for Active; 'I' for Inactive)
REMARK    1  A    between atoms: C2_2  and  N1_4 
REMARK    2  A    between atoms: N1_4  and  C4_6 
REMARK    3  A    between atoms: C10_15  and  N2_16 
ROOT
HETATM    1  C4  UNL     1      46.897  33.410  -0.838  1.00  0.00     0.245 C 
HETATM    2  O1  UNL     1      48.237  33.189  -0.923  1.00  0.00    -0.332 OA
HETATM    3  C5  UNL     1      48.833  34.437  -0.875  1.00  0.00     0.297 C 
HETATM    4  O2  UNL     1      50.149  34.384  -0.516  1.00  0.00    -0.323 OA
HETATM    5  C6  UNL     1      50.216  34.527   0.873  1.00  0.00     0.160 C 
HETATM    6  C7  UNL     1      51.293  33.642   1.389  1.00  0.00     0.078 C 
HETATM    7  C8  UNL     1      50.500  35.990   1.176  1.00  0.00     0.078 C 
HETATM    8  O3  UNL     1      48.922  34.233   1.345  1.00  0.00    -0.343 OA
HETATM    9  C9  UNL     1      48.164  34.945   0.453  1.00  0.00     0.207 C 
HETATM   10  C10 UNL     1      46.776  34.597   0.158  1.00  0.00     0.166 C 
ENDROOT
BRANCH   1  11
HETATM   11  N1  UNL     1      46.165  32.291  -0.255  1.00  0.00    -0.391 N 
ATOM     12  H1  UNL     1      45.733  32.344   0.667  1.00  0.00     0.156 HD
BRANCH  11  13
HETATM   13  C2  UNL     1      46.097  31.128  -1.059  1.00  0.00     0.071 C 
HETATM   14  C1  UNL     1      46.062  31.503  -2.527  1.00  0.00     0.031 C 
HETATM   15  C3  UNL     1      47.268  30.183  -0.900  1.00  0.00     0.031 C 
ENDBRANCH  11  13
ENDBRANCH   1  11
BRANCH  10  16
HETATM   16  N2  UNL     1      45.813  34.402   1.109  1.00  0.00    -0.355 N 
HETATM   17  C11 UNL     1      45.206  35.136   1.890  1.00  0.00     0.197 C 
HETATM   18  N3  UNL     1      45.348  36.523   2.039  1.00  0.00    -0.067 NA
HETATM   19  N4  UNL     1      44.199  34.526   2.724  1.00  0.00    -0.067 NA
ATOM     20  H2  UNL     1      45.534  33.425   1.189  1.00  0.00     0.162 HD
ENDBRANCH  10  16
TORSDOF 3
ENDMDL
MODEL 3
REMARK VINA RESULT: -6.131648605      1.255      1.363
REMARK  3 active torsions:
REMARK  status: ('A' for Active; 'I' for Inactive)
REMARK    1  A    between atoms: C2_2  and  N1_4 
REMARK    2  A    between atoms: N1_4  and  C4_6 
REMARK    3  A    between atoms: C10_15  and  N2_16 
ROOT
HETATM    1  C4  UNL     1      48.238  35.213   0.848  1.00  0.00     0.245 C 
HETATM    2  O1  UNL     1      47.536  35.670   1.920  1.00  0.00    -0.332 OA
HETATM    3  C5  UNL     1      46.269  35.966   1.448  1.00  0.00     0.297 C 
HETATM    4  O2  UNL     1      45.332  36.018   2.439  1.00  0.00    -0.323 OA
HETATM    5  C6  UNL     1      44.766  34.745   2.556  1.00  0.00     0.160 C 
HETATM    6  C7  UNL     1      44.511  34.470   3.994  1.00  0.00     0.078 C 
HETATM    7  C8  UNL     1      43.479  34.732   1.747  1.00  0.00     0.078 C 
HETATM    8  O3  UNL     1      45.676  33.870   1.931  1.00  0.00    -0.343 OA
HETATM    9  C9  UNL     1      45.954  34.574   0.790  1.00  0.00     0.207 C 
HETATM   10  C10 UNL     1      47.196  34.388   0.043  1.00  0.00     0.166 C 
ENDROOT
BRANCH   1  11
HETATM   11  N1  UNL     1      49.313  34.297   1.213  1.00  0.00    -0.391 N 
ATOM     12  H1  UNL     1      49.133  33.381   1.624  1.00  0.00     0.156 HD
BRANCH  11  13
HETATM   13  C2  UNL     1      50.624  34.769   0.957  1.00  0.00     0.071 C 
HETATM   14  C1  UNL     1      51.191  34.103  -0.281  1.00  0.00     0.031 C 
HETATM   15  C3  UNL     1      50.719  36.258   0.708  1.00  0.00     0.031 C 
ENDBRANCH  11  13
ENDBRANCH   1  11
BRANCH  10  16
HETATM   16  N2  UNL     1      47.673  33.173  -0.365  1.00  0.00    -0.355 N 
HETATM   17  C11 UNL     1      48.198  32.750  -1.395  1.00  0.00     0.197 C 
HETATM   18  N3  UNL     1      48.481  33.471  -2.564  1.00  0.00    -0.067 NA
HETATM   19  N4  UNL     1      48.616  31.369  -1.407  1.00  0.00    -0.067 NA
ATOM     20  H2  UNL     1      47.572  32.453   0.349  1.00  0.00     0.162 HD
ENDBRANCH  10  16
TORSDOF 3
ENDMDL
MODEL 4
REMARK VINA RESULT: -6.027525669      1.794      4.845
REMARK  3 active torsions:
REMARK  status: ('A' for Active; 'I' for Inactive)
REMARK    1  A    between atoms: C2_2  and  N1_4 
REMARK    2  A    between atoms: N1_4  and  C4_6 
REMARK    3  A    between atoms: C10_15  and  N2_16 
ROOT
HETATM    1  C4  UNL     1      46.959  33.552   0.995  1.00  0.00     0.245 C 
HETATM    2  O1  UNL     1      48.245  33.997   0.963  1.00  0.00    -0.332 OA
HETATM    3  C5  UNL     1      49.036  32.865   0.869  1.00  0.00     0.297 C 
HETATM    4  O2  UNL     1      50.290  33.132   0.398  1.00  0.00    -0.323 OA
HETATM    5  C6  UNL     1      50.263  32.976  -0.991  1.00  0.00     0.160 C 
HETATM    6  C7  UNL     1      51.127  34.019  -1.602  1.00  0.00     0.078 C 
HETATM    7  C8  UNL     1      50.762  31.576  -1.311  1.00  0.00     0.078 C 
HETATM    8  O3  UNL     1      48.902  33.041  -1.350  1.00  0.00    -0.343 OA
HETATM    9  C9  UNL     1      48.354  32.228  -0.394  1.00  0.00     0.207 C 
HETATM   10  C10 UNL     1      46.957  32.344   0.018  1.00  0.00     0.166 C 
ENDROOT
BRANCH   1  11
HETATM   11  N1  UNL     1      46.003  34.522   0.473  1.00  0.00    -0.391 N 
ATOM     12  H1  UNL     1      45.986  34.796  -0.510  1.00  0.00     0.156 HD
BRANCH  11  13
HETATM   13  C2  UNL     1      45.100  35.055   1.424  1.00  0.00     0.071 C 
HETATM   14  C1  UNL     1      43.901  34.142   1.582  1.00  0.00     0.031 C 
HETATM   15  C3  UNL     1      45.677  35.226   2.812  1.00  0.00     0.031 C 
ENDBRANCH  11  13
ENDBRANCH   1  11
BRANCH  10  16
HETATM   16  N2  UNL     1      45.898  32.356  -0.847  1.00  0.00    -0.355 N 
HETATM   17  C11 UNL     1      45.597  31.720  -1.858  1.00  0.00     0.197 C 
HETATM   18  N3  UNL     1      46.335  30.696  -2.469  1.00  0.00    -0.067 NA
HETATM   19  N4  UNL     1      44.326  32.015  -2.473  1.00  0.00    -0.067 NA
ATOM     20  H2  UNL     1      45.197  33.053  -0.598  1.00  0.00     0.162 HD
ENDBRANCH  10  16
TORSDOF 3
ENDMDL
MODEL 5
REMARK VINA RESULT: -5.288961382      1.774      4.815
REMARK  3 active torsions:
REMARK  status: ('A' for Active; 'I' for Inactive)
REMARK    1  A    between atoms: C2_2  and  N1_4 
REMARK    2  A    between atoms: N1_4  and  C4_6 
REMARK    3  A    between atoms: C10_15  and  N2_16 
ROOT
HETATM    1  C4  UNL     1      47.754  33.080   0.611  1.00  0.00     0.245 C 
HETATM    2  O1  UNL     1      48.617  33.973   1.170  1.00  0.00    -0.332 OA
HETATM    3  C5  UNL     1      49.887  33.511   0.873  1.00  0.00     0.297 C 
HETATM    4  O2  UNL     1      50.842  34.482   0.972  1.00  0.00    -0.323 OA
HETATM    5  C6  UNL     1      50.984  35.068  -0.290  1.00  0.00     0.160 C 
HETATM    6  C7  UNL     1      51.210  36.525  -0.113  1.00  0.00     0.078 C 
HETATM    7  C8  UNL     1      52.160  34.398  -0.983  1.00  0.00     0.078 C 
HETATM    8  O3  UNL     1      49.815  34.725  -0.998  1.00  0.00    -0.343 OA
HETATM    9  C9  UNL     1      49.716  33.395  -0.685  1.00  0.00     0.207 C 
HETATM   10  C10 UNL     1      48.443  32.678  -0.722  1.00  0.00     0.166 C 
ENDROOT
BRANCH   1  11
HETATM   11  N1  UNL     1      46.465  33.668   0.263  1.00  0.00    -0.391 N 
ATOM     12  H1  UNL     1      46.140  33.735  -0.702  1.00  0.00     0.156 HD
BRANCH  11  13
HETATM   13  C2  UNL     1      45.698  34.138   1.356  1.00  0.00     0.071 C 
HETATM   14  C1  UNL     1      45.848  35.639   1.498  1.00  0.00     0.031 C 
HETATM   15  C3  UNL     1      44.212  33.879   1.239  1.00  0.00     0.031 C 
ENDBRANCH  11  13
ENDBRANCH   1  11
BRANCH  10  16
HETATM   16  N2  UNL     1      47.589  32.684  -1.790  1.00  0.00    -0.355 N 
HETATM   17  C11 UNL     1      46.751  31.898  -2.234  1.00  0.00     0.197 C 
HETATM   18  N3  UNL     1      46.404  30.643  -1.714  1.00  0.00    -0.067 NA
HETATM   19  N4  UNL     1      46.001  32.315  -3.394  1.00  0.00    -0.067 NA
ATOM     20  H2  UNL     1      47.662  33.536  -2.346  1.00  0.00     0.162 HD
ENDBRANCH  10  16
TORSDOF 3
ENDMDL
