MODEL 1
REMARK VINA RESULT: -5.829670803      0.000      0.000
REMARK  4 active torsions:
REMARK  status: ('A' for Active; 'I' for Inactive)
REMARK    1  A    between atoms: C6_6  and  C7_7 
REMARK    2  A    between atoms: N1_8  and  N2_10 
REMARK    3  A    between atoms: N2_10  and  C8_12 
REMARK    4  A    between atoms: C9_21  and  C10_22 
ROOT
HETATM    1  C1  UNL     1      44.018  31.365  -2.502  1.00  0.00     0.018 C 
HETATM    2  C2  UNL     1      44.940  31.903  -1.926  1.00  0.00    -0.078 C 
HETATM    3  C3  UNL     1      46.019  32.529  -1.228  1.00  0.00     0.018 A 
HETATM    4  C4  UNL     1      47.327  32.184  -1.498  1.00  0.00     0.021 A 
HETATM    5  C5  UNL     1      48.385  32.766  -0.848  1.00  0.00     0.015 A 
HETATM    6  C6  UNL     1      48.111  33.751   0.132  1.00  0.00    -0.004 A 
HETATM    7  C9  UNL     1      46.835  34.110   0.421  1.00  0.00     0.042 A 
HETATM    8  C11 UNL     1      45.768  33.481  -0.280  1.00  0.00     0.038 A 
ENDROOT
BRANCH   7   9
HETATM    9  C10 UNL     1      46.486  35.057   1.452  1.00  0.00     0.265 C 
HETATM   10  N7  UNL     1      45.358  34.998   2.269  1.00  0.00    -0.057 NA
HETATM   11  O1  UNL     1      47.275  36.062   1.647  1.00  0.00    -0.271 OA
ENDBRANCH   7   9
BRANCH   6  12
HETATM   12  C7  UNL     1      49.265  34.360   0.722  1.00  0.00     0.120 C 
HETATM   13  N1  UNL     1      49.717  35.487   0.241  1.00  0.00    -0.297 N 
ATOM     14  H1  UNL     1      49.233  35.911  -0.550  1.00  0.00     0.186 HD
BRANCH  13  15
HETATM   15  N2  UNL     1      50.826  36.129   0.762  1.00  0.00    -0.130 N 
ATOM     16  H2  UNL     1      51.741  35.919   0.365  1.00  0.00     0.205 HD
BRANCH  15  17
HETATM   17  C8  UNL     1      50.754  36.982   1.729  1.00  0.00     0.728 A 
HETATM   18  N3  UNL     1      51.427  38.131   1.875  1.00  0.00    -0.114 N 
HETATM   19  N4  UNL     1      51.030  38.682   3.026  1.00  0.00    -0.213 N 
ATOM     20  H3  UNL     1      52.115  38.514   1.227  1.00  0.00     0.207 HD
HETATM   21  N5  UNL     1      50.128  37.922   3.615  1.00  0.00    -0.213 N 
ATOM     22  H4  UNL     1      51.376  39.566   3.397  1.00  0.00     0.210 HD
HETATM   23  N6  UNL     1      49.965  36.884   2.813  1.00  0.00    -0.114 N 
ATOM     24  H5  UNL     1      49.656  38.099   4.501  1.00  0.00     0.210 HD
ATOM     25  H6  UNL     1      49.325  36.110   2.994  1.00  0.00     0.207 HD
ENDBRANCH  15  17
ENDBRANCH  13  15
ENDBRANCH   6  12
TORSDOF 4
ENDMDL
MODEL 2
REMARK VINA RESULT: -5.708129750      0.788      1.133
REMARK  4 active torsions:
REMARK  status: ('A' for Active; 'I' for Inactive)
REMARK    1  A    between atoms: C6_6  and  C7_7 
REMARK    2  A    between atoms: N1_8  and  N2_10 
REMARK    3  A    between atoms: N2_10  and  C8_12 
REMARK    4  A    between atoms: C9_21  and  C10_22 
ROOT
HETATM    1  C1  UNL     1      43.707  31.375  -2.570  1.00  0.00     0.018 C 
HETATM    2  C2  UNL     1      44.641  31.881  -1.984  1.00  0.00    -0.078 C 
HETATM    3  C3  UNL     1      45.733  32.468  -1.275  1.00  0.00     0.018 A 
HETATM    4  C4  UNL     1      47.036  32.126  -1.577  1.00  0.00     0.021 A 
HETATM    5  C5  UNL     1      48.106  32.672  -0.916  1.00  0.00     0.015 A 
HETATM    6  C6  UNL     1      47.853  33.616   0.108  1.00  0.00    -0.004 A 
HETATM    7  C9  UNL     1      46.584  33.971   0.430  1.00  0.00     0.042 A 
HETATM    8  C11 UNL     1      45.503  33.381  -0.283  1.00  0.00     0.038 A 
ENDROOT
BRANCH   7   9
HETATM    9  C10 UNL     1      46.256  34.875   1.505  1.00  0.00     0.265 C 
HETATM   10  N7  UNL     1      47.003  35.987   1.896  1.00  0.00    -0.057 NA
HETATM   11  O1  UNL     1      45.180  34.650   2.184  1.00  0.00    -0.271 OA
ENDBRANCH   7   9
BRANCH   6  12
HETATM   12  C7  UNL     1      49.020  34.191   0.708  1.00  0.00     0.120 C 
HETATM   13  N1  UNL     1      49.511  35.301   0.229  1.00  0.00    -0.297 N 
ATOM     14  H1  UNL     1      49.049  35.737  -0.569  1.00  0.00     0.186 HD
BRANCH  13  15
HETATM   15  N2  UNL     1      50.634  35.910   0.759  1.00  0.00    -0.130 N 
ATOM     16  H2  UNL     1      51.546  35.674   0.370  1.00  0.00     0.205 HD
BRANCH  15  17
HETATM   17  C8  UNL     1      50.580  36.765   1.726  1.00  0.00     0.728 A 
HETATM   18  N3  UNL     1      49.860  36.701   2.852  1.00  0.00    -0.114 N 
HETATM   19  N4  UNL     1      50.121  37.806   3.556  1.00  0.00    -0.213 N 
ATOM     20  H3  UNL     1      49.229  35.947   3.123  1.00  0.00     0.207 HD
HETATM   21  N5  UNL     1      50.982  38.570   2.914  1.00  0.00    -0.213 N 
ATOM     22  H4  UNL     1      49.710  38.029   4.462  1.00  0.00     0.210 HD
HETATM   23  N6  UNL     1      51.258  37.924   1.795  1.00  0.00    -0.114 N 
ATOM     24  H5  UNL     1      51.356  39.469   3.218  1.00  0.00     0.210 HD
ATOM     25  H6  UNL     1      51.902  38.261   1.078  1.00  0.00     0.207 HD
ENDBRANCH  15  17
ENDBRANCH  13  15
ENDBRANCH   6  12
TORSDOF 4
ENDMDL
MODEL 3
REMARK VINA RESULT: -5.693232334      1.777      2.788
REMARK  4 active torsions:
REMARK  status: ('A' for Active; 'I' for Inactive)
REMARK    1  A    between atoms: C6_6  and  C7_7 
REMARK    2  A    between atoms: N1_8  and  N2_10 
REMARK    3  A    between atoms: N2_10  and  C8_12 
REMARK    4  A    between atoms: C9_21  and  C10_22 
ROOT
HETATM    1  C1  UNL     1      44.152  31.415  -2.505  1.00  0.00     0.018 C 
HETATM    2  C2  UNL     1      45.081  31.968  -1.954  1.00  0.00    -0.078 C 
HETATM    3  C3  UNL     1      46.180  32.629  -1.324  1.00  0.00     0.018 A 
HETATM    4  C4  UNL     1      45.974  33.473  -0.252  1.00  0.00     0.021 A 
HETATM    5  C5  UNL     1      47.007  34.122   0.376  1.00  0.00     0.015 A 
HETATM    6  C6  UNL     1      48.322  33.910  -0.104  1.00  0.00    -0.004 A 
HETATM    7  C9  UNL     1      48.557  33.089  -1.157  1.00  0.00     0.042 A 
HETATM    8  C11 UNL     1      47.455  32.434  -1.777  1.00  0.00     0.038 A 
ENDROOT
BRANCH   7   9
HETATM    9  C10 UNL     1      49.862  32.883  -1.734  1.00  0.00     0.265 C 
HETATM   10  N7  UNL     1      50.745  31.851  -1.414  1.00  0.00    -0.057 NA
HETATM   11  O1  UNL     1      50.274  33.722  -2.626  1.00  0.00    -0.271 OA
ENDBRANCH   7   9
BRANCH   6  12
HETATM   12  C7  UNL     1      49.354  34.569   0.641  1.00  0.00     0.120 C 
HETATM   13  N1  UNL     1      49.923  35.637   0.150  1.00  0.00    -0.297 N 
ATOM     14  H1  UNL     1      49.617  35.981  -0.760  1.00  0.00     0.186 HD
BRANCH  13  15
HETATM   15  N2  UNL     1      50.924  36.321   0.816  1.00  0.00    -0.130 N 
ATOM     16  H2  UNL     1      51.875  36.266   0.452  1.00  0.00     0.205 HD
BRANCH  15  17
HETATM   17  C8  UNL     1      50.709  37.026   1.876  1.00  0.00     0.728 A 
HETATM   18  N3  UNL     1      49.856  36.781   2.877  1.00  0.00    -0.114 N 
HETATM   19  N4  UNL     1      49.975  37.781   3.756  1.00  0.00    -0.213 N 
ATOM     20  H3  UNL     1      49.231  35.979   2.956  1.00  0.00     0.207 HD
HETATM   21  N5  UNL     1      50.875  38.651   3.346  1.00  0.00    -0.213 N 
ATOM     22  H4  UNL     1      49.443  37.859   4.623  1.00  0.00     0.210 HD
HETATM   23  N6  UNL     1      51.320  38.181   2.194  1.00  0.00    -0.114 N 
ATOM     24  H5  UNL     1      51.166  39.507   3.818  1.00  0.00     0.210 HD
ATOM     25  H6  UNL     1      52.032  38.635   1.622  1.00  0.00     0.207 HD
ENDBRANCH  15  17
ENDBRANCH  13  15
ENDBRANCH   6  12
TORSDOF 4
ENDMDL
MODEL 4
REMARK VINA RESULT: -4.688733094      1.691      2.751
REMARK  4 active torsions:
REMARK  status: ('A' for Active; 'I' for Inactive)
REMARK    1  A    between atoms: C6_6  and  C7_7 
REMARK    2  A    between atoms: N1_8  and  N2_10 
REMARK    3  A    between atoms: N2_10  and  C8_12 
REMARK    4  A    between atoms: C9_21  and  C10_22 
ROOT
HETATM    1  C1  UNL     1      44.213  31.534  -2.867  1.00  0.00     0.018 C 
HETATM    2  C2  UNL     1      45.072  32.035  -2.173  1.00  0.00    -0.078 C 
HETATM    3  C3  UNL     1      46.091  32.638  -1.373  1.00  0.00     0.018 A 
HETATM    4  C4  UNL     1      45.765  33.354  -0.239  1.00  0.00     0.021 A 
HETATM    5  C5  UNL     1      46.718  33.944   0.551  1.00  0.00     0.015 A 
HETATM    6  C6  UNL     1      48.078  33.806   0.179  1.00  0.00    -0.004 A 
HETATM    7  C9  UNL     1      48.430  33.111  -0.931  1.00  0.00     0.042 A 
HETATM    8  C11 UNL     1      47.407  32.514  -1.721  1.00  0.00     0.038 A 
ENDROOT
BRANCH   7   9
HETATM    9  C10 UNL     1      49.788  32.989  -1.399  1.00  0.00     0.265 C 
HETATM   10  N7  UNL     1      50.678  31.966  -1.072  1.00  0.00    -0.057 NA
HETATM   11  O1  UNL     1      50.244  33.903  -2.192  1.00  0.00    -0.271 OA
ENDBRANCH   7   9
BRANCH   6  12
HETATM   12  C7  UNL     1      49.019  34.392   1.086  1.00  0.00     0.120 C 
HETATM   13  N1  UNL     1      48.664  35.418   1.811  1.00  0.00    -0.297 N 
ATOM     14  H1  UNL     1      47.716  35.782   1.714  1.00  0.00     0.186 HD
BRANCH  13  15
HETATM   15  N2  UNL     1      49.522  36.032   2.706  1.00  0.00    -0.130 N 
ATOM     16  H2  UNL     1      49.530  35.708   3.673  1.00  0.00     0.205 HD
BRANCH  15  17
HETATM   17  C8  UNL     1      50.313  36.997   2.373  1.00  0.00     0.728 A 
HETATM   18  N3  UNL     1      50.982  37.164   1.225  1.00  0.00    -0.114 N 
HETATM   19  N4  UNL     1      51.673  38.303   1.329  1.00  0.00    -0.213 N 
ATOM     20  H3  UNL     1      50.966  36.538   0.421  1.00  0.00     0.207 HD
HETATM   21  N5  UNL     1      51.466  38.864   2.503  1.00  0.00    -0.213 N 
ATOM     22  H4  UNL     1      52.277  38.684   0.601  1.00  0.00     0.210 HD
HETATM   23  N6  UNL     1      50.631  38.057   3.136  1.00  0.00    -0.114 N 
ATOM     24  H5  UNL     1      51.865  39.736   2.850  1.00  0.00     0.210 HD
ATOM     25  H6  UNL     1      50.276  38.219   4.078  1.00  0.00     0.207 HD
ENDBRANCH  15  17
ENDBRANCH  13  15
ENDBRANCH   6  12
TORSDOF 4
ENDMDL
MODEL 5
REMARK VINA RESULT: -4.639123942      1.876      2.717
REMARK  4 active torsions:
REMARK  status: ('A' for Active; 'I' for Inactive)
REMARK    1  A    between atoms: C6_6  and  C7_7 
REMARK    2  A    between atoms: N1_8  and  N2_10 
REMARK    3  A    between atoms: N2_10  and  C8_12 
REMARK    4  A    between atoms: C9_21  and  C10_22 
ROOT
HETATM    1  C1  UNL     1      43.545  31.040  -2.840  1.00  0.00     0.018 C 
HETATM    2  C2  UNL     1      44.404  31.656  -2.246  1.00  0.00    -0.078 C 
HETATM    3  C3  UNL     1      45.420  32.396  -1.565  1.00  0.00     0.018 A 
HETATM    4  C4  UNL     1      45.144  33.040  -0.377  1.00  0.00     0.021 A 
HETATM    5  C5  UNL     1      46.096  33.757   0.303  1.00  0.00     0.015 A 
HETATM    6  C6  UNL     1      47.399  33.831  -0.245  1.00  0.00    -0.004 A 
HETATM    7  C9  UNL     1      47.700  33.210  -1.413  1.00  0.00     0.042 A 
HETATM    8  C11 UNL     1      46.682  32.475  -2.083  1.00  0.00     0.038 A 
ENDROOT
BRANCH   7   9
HETATM    9  C10 UNL     1      48.988  33.300  -2.056  1.00  0.00     0.265 C 
HETATM   10  N7  UNL     1      50.149  32.636  -1.660  1.00  0.00    -0.057 NA
HETATM   11  O1  UNL     1      49.099  34.065  -3.092  1.00  0.00    -0.271 OA
ENDBRANCH   7   9
BRANCH   6  12
HETATM   12  C7  UNL     1      48.355  34.540   0.552  1.00  0.00     0.120 C 
HETATM   13  N1  UNL     1      49.445  33.937   0.942  1.00  0.00    -0.297 N 
ATOM     14  H1  UNL     1      49.592  32.965   0.668  1.00  0.00     0.186 HD
BRANCH  13  15
HETATM   15  N2  UNL     1      50.409  34.562   1.712  1.00  0.00    -0.130 N 
ATOM     16  H2  UNL     1      50.995  33.989   2.319  1.00  0.00     0.205 HD
BRANCH  15  17
HETATM   17  C8  UNL     1      50.601  35.839   1.698  1.00  0.00     0.728 A 
HETATM   18  N3  UNL     1      51.216  36.576   0.765  1.00  0.00    -0.114 N 
HETATM   19  N4  UNL     1      51.177  37.849   1.173  1.00  0.00    -0.213 N 
ATOM     20  H3  UNL     1      51.637  36.231  -0.097  1.00  0.00     0.207 HD
HETATM   21  N5  UNL     1      50.557  37.943   2.332  1.00  0.00    -0.213 N 
ATOM     22  H4  UNL     1      51.572  38.636   0.659  1.00  0.00     0.210 HD
HETATM   23  N6  UNL     1      50.208  36.708   2.646  1.00  0.00    -0.114 N 
ATOM     24  H5  UNL     1      50.384  38.791   2.872  1.00  0.00     0.210 HD
ATOM     25  H6  UNL     1      49.705  36.448   3.495  1.00  0.00     0.207 HD
ENDBRANCH  15  17
ENDBRANCH  13  15
ENDBRANCH   6  12
TORSDOF 4
ENDMDL
