MODEL 1
REMARK VINA RESULT: -7.337535428      0.000      0.000
REMARK  4 active torsions:
REMARK  status: ('A' for Active; 'I' for Inactive)
REMARK    1  A    between atoms: C1_2  and  N2_4 
REMARK    2  A    between atoms: N2_4  and  N3_6 
REMARK       I    between atoms: N3_6  and  C2_8 
REMARK    3  A    between atoms: C2_8  and  C3_10 
REMARK    4  A    between atoms: C3_10  and  N4_11 
ROOT
HETATM    1  N4  UNL     1      46.262  34.554   0.776  1.00  0.00    -0.319 N 
HETATM    2  C4  UNL     1      45.041  34.357   1.307  1.00  0.00     0.185 A 
HETATM    3  N5  UNL     1      44.418  33.370   0.643  1.00  0.00    -0.349 N 
ATOM      4  H5  UNL     1      43.480  33.016   0.832  1.00  0.00     0.166 HD
HETATM    5  C5  UNL     1      45.261  32.927  -0.323  1.00  0.00     0.077 A 
HETATM    6  C6  UNL     1      45.118  31.928  -1.291  1.00  0.00     0.035 A 
HETATM    7  C7  UNL     1      46.194  31.751  -2.133  1.00  0.00     0.019 A 
HETATM    8  C8  UNL     1      47.355  32.482  -2.069  1.00  0.00     0.090 A 
HETATM    9  N6  UNL     1      47.413  33.421  -1.111  1.00  0.00    -0.350 N 
ATOM     10  H6  UNL     1      48.263  33.981  -1.037  1.00  0.00     0.166 HD
HETATM   11  C9  UNL     1      46.420  33.664  -0.248  1.00  0.00     0.136 A 
ENDROOT
BRANCH   1  12
HETATM   12  C3  UNL     1      47.273  35.496   1.140  1.00  0.00     0.235 C 
BRANCH  12  13
HETATM   13  C2  UNL     1      48.596  35.322   0.550  1.00  0.00     0.254 C 
HETATM   14  N3  UNL     1      49.596  34.502   1.138  1.00  0.00    -0.267 N 
ATOM     15  H3  UNL     1      49.344  34.023   2.002  1.00  0.00     0.190 HD
HETATM   16  O1  UNL     1      48.872  35.927  -0.530  1.00  0.00    -0.270 OA
BRANCH  14  17
HETATM   17  N2  UNL     1      50.869  34.288   0.662  1.00  0.00    -0.276 N 
ATOM     18  H2  UNL     1      51.629  34.552   1.287  1.00  0.00     0.189 HD
BRANCH  17  19
HETATM   19  C1  UNL     1      51.251  33.748  -0.582  1.00  0.00     0.199 C 
HETATM   20  N1  UNL     1      51.853  34.560  -1.601  1.00  0.00    -0.068 NA
HETATM   21  S1  UNL     1      51.020  32.165  -0.892  1.00  0.00    -0.043 SA
ENDBRANCH  17  19
ENDBRANCH  14  17
ENDBRANCH  12  13
ENDBRANCH   1  12
TORSDOF 4
ENDMDL
MODEL 2
REMARK VINA RESULT: -6.876272004      2.656      4.502
REMARK  4 active torsions:
REMARK  status: ('A' for Active; 'I' for Inactive)
REMARK    1  A    between atoms: C1_2  and  N2_4 
REMARK    2  A    between atoms: N2_4  and  N3_6 
REMARK       I    between atoms: N3_6  and  C2_8 
REMARK    3  A    between atoms: C2_8  and  C3_10 
REMARK    4  A    between atoms: C3_10  and  N4_11 
ROOT
HETATM    1  N4  UNL     1      48.776  33.746  -0.725  1.00  0.00    -0.319 N 
HETATM    2  C4  UNL     1      49.423  34.173  -1.824  1.00  0.00     0.185 A 
HETATM    3  N5  UNL     1      48.749  33.785  -2.919  1.00  0.00    -0.349 N 
ATOM      4  H5  UNL     1      49.016  33.968  -3.887  1.00  0.00     0.166 HD
HETATM    5  C5  UNL     1      47.651  33.104  -2.507  1.00  0.00     0.077 A 
HETATM    6  C6  UNL     1      46.621  32.485  -3.224  1.00  0.00     0.035 A 
HETATM    7  C7  UNL     1      45.652  31.865  -2.466  1.00  0.00     0.019 A 
HETATM    8  C8  UNL     1      45.651  31.828  -1.092  1.00  0.00     0.090 A 
HETATM    9  N6  UNL     1      46.674  32.446  -0.481  1.00  0.00    -0.350 N 
ATOM     10  H6  UNL     1      46.701  32.436   0.539  1.00  0.00     0.166 HD
HETATM   11  C9  UNL     1      47.659  33.074  -1.132  1.00  0.00     0.136 A 
ENDROOT
BRANCH   1  12
HETATM   12  C3  UNL     1      49.116  33.909   0.654  1.00  0.00     0.235 C 
BRANCH  12  13
HETATM   13  C2  UNL     1      48.433  34.965   1.393  1.00  0.00     0.254 C 
HETATM   14  N3  UNL     1      47.092  34.841   1.843  1.00  0.00    -0.267 N 
ATOM     15  H3  UNL     1      46.618  33.963   1.632  1.00  0.00     0.190 HD
HETATM   16  O1  UNL     1      49.055  36.040   1.645  1.00  0.00    -0.270 OA
BRANCH  14  17
HETATM   17  N2  UNL     1      46.365  35.784   2.533  1.00  0.00    -0.276 N 
ATOM     18  H2  UNL     1      46.906  36.446   3.089  1.00  0.00     0.189 HD
BRANCH  17  19
HETATM   19  C1  UNL     1      44.966  35.948   2.569  1.00  0.00     0.199 C 
HETATM   20  N1  UNL     1      44.358  37.093   3.183  1.00  0.00    -0.068 NA
HETATM   21  S1  UNL     1      43.995  34.824   1.896  1.00  0.00    -0.043 SA
ENDBRANCH  17  19
ENDBRANCH  14  17
ENDBRANCH  12  13
ENDBRANCH   1  12
TORSDOF 4
ENDMDL
MODEL 3
REMARK VINA RESULT: -6.550533018      1.476      3.024
REMARK  4 active torsions:
REMARK  status: ('A' for Active; 'I' for Inactive)
REMARK    1  A    between atoms: C1_2  and  N2_4 
REMARK    2  A    between atoms: N2_4  and  N3_6 
REMARK       I    between atoms: N3_6  and  C2_8 
REMARK    3  A    between atoms: C2_8  and  C3_10 
REMARK    4  A    between atoms: C3_10  and  N4_11 
ROOT
HETATM    1  N4  UNL     1      46.006  32.799  -0.804  1.00  0.00    -0.319 N 
HETATM    2  C4  UNL     1      44.782  32.393  -0.420  1.00  0.00     0.185 A 
HETATM    3  N5  UNL     1      44.368  33.139   0.618  1.00  0.00    -0.349 N 
ATOM      4  H5  UNL     1      43.480  33.045   1.110  1.00  0.00     0.166 HD
HETATM    5  C5  UNL     1      45.345  34.038   0.894  1.00  0.00     0.077 A 
HETATM    6  C6  UNL     1      45.435  35.039   1.867  1.00  0.00     0.035 A 
HETATM    7  C7  UNL     1      46.601  35.774   1.865  1.00  0.00     0.019 A 
HETATM    8  C8  UNL     1      47.638  35.576   0.985  1.00  0.00     0.090 A 
HETATM    9  N6  UNL     1      47.472  34.597   0.083  1.00  0.00    -0.350 N 
ATOM     10  H6  UNL     1      48.225  34.425  -0.585  1.00  0.00     0.166 HD
HETATM   11  C9  UNL     1      46.377  33.833   0.007  1.00  0.00     0.136 A 
ENDROOT
BRANCH   1  12
HETATM   12  C3  UNL     1      46.845  32.301  -1.849  1.00  0.00     0.235 C 
BRANCH  12  13
HETATM   13  C2  UNL     1      48.254  32.676  -1.813  1.00  0.00     0.254 C 
HETATM   14  N3  UNL     1      49.215  31.973  -1.038  1.00  0.00    -0.267 N 
ATOM     15  H3  UNL     1      48.875  31.174  -0.503  1.00  0.00     0.190 HD
HETATM   16  O1  UNL     1      48.644  33.669  -2.497  1.00  0.00    -0.270 OA
BRANCH  14  17
HETATM   17  N2  UNL     1      50.557  32.259  -0.934  1.00  0.00    -0.276 N 
ATOM     18  H2  UNL     1      51.195  31.520  -1.230  1.00  0.00     0.189 HD
BRANCH  17  19
HETATM   19  C1  UNL     1      51.159  33.445  -0.469  1.00  0.00     0.199 C 
HETATM   20  N1  UNL     1      51.870  34.324  -1.353  1.00  0.00    -0.068 NA
HETATM   21  S1  UNL     1      51.053  33.851   1.105  1.00  0.00    -0.043 SA
ENDBRANCH  17  19
ENDBRANCH  14  17
ENDBRANCH  12  13
ENDBRANCH   1  12
TORSDOF 4
ENDMDL
MODEL 4
REMARK VINA RESULT: -6.439825686      2.714      5.489
REMARK  4 active torsions:
REMARK  status: ('A' for Active; 'I' for Inactive)
REMARK    1  A    between atoms: C1_2  and  N2_4 
REMARK    2  A    between atoms: N2_4  and  N3_6 
REMARK       I    between atoms: N3_6  and  C2_8 
REMARK    3  A    between atoms: C2_8  and  C3_10 
REMARK    4  A    between atoms: C3_10  and  N4_11 
ROOT
HETATM    1  N4  UNL     1      47.603  33.105  -1.392  1.00  0.00    -0.319 N 
HETATM    2  C4  UNL     1      47.821  33.320  -2.703  1.00  0.00     0.185 A 
HETATM    3  N5  UNL     1      49.112  33.637  -2.896  1.00  0.00    -0.349 N 
ATOM      4  H5  UNL     1      49.551  33.854  -3.790  1.00  0.00     0.166 HD
HETATM    5  C5  UNL     1      49.726  33.617  -1.686  1.00  0.00     0.077 A 
HETATM    6  C6  UNL     1      51.051  33.872  -1.316  1.00  0.00     0.035 A 
HETATM    7  C7  UNL     1      51.327  33.768   0.030  1.00  0.00     0.019 A 
HETATM    8  C8  UNL     1      50.397  33.438   0.987  1.00  0.00     0.090 A 
HETATM    9  N6  UNL     1      49.150  33.209   0.548  1.00  0.00    -0.350 N 
ATOM     10  H6  UNL     1      48.436  32.961   1.235  1.00  0.00     0.166 HD
HETATM   11  C9  UNL     1      48.788  33.285  -0.737  1.00  0.00     0.136 A 
ENDROOT
BRANCH   1  12
HETATM   12  C3  UNL     1      46.394  32.756  -0.715  1.00  0.00     0.235 C 
BRANCH  12  13
HETATM   13  C2  UNL     1      45.802  33.762   0.161  1.00  0.00     0.254 C 
HETATM   14  N3  UNL     1      44.558  33.569   0.818  1.00  0.00    -0.267 N 
ATOM     15  H3  UNL     1      44.089  32.677   0.657  1.00  0.00     0.190 HD
HETATM   16  O1  UNL     1      46.416  34.855   0.346  1.00  0.00    -0.270 OA
BRANCH  14  17
HETATM   17  N2  UNL     1      43.919  34.460   1.650  1.00  0.00    -0.276 N 
ATOM     18  H2  UNL     1      42.913  34.556   1.514  1.00  0.00     0.189 HD
BRANCH  17  19
HETATM   19  C1  UNL     1      44.483  35.256   2.667  1.00  0.00     0.199 C 
HETATM   20  N1  UNL     1      44.902  34.693   3.918  1.00  0.00    -0.068 NA
HETATM   21  S1  UNL     1      44.679  36.857   2.435  1.00  0.00    -0.043 SA
ENDBRANCH  17  19
ENDBRANCH  14  17
ENDBRANCH  12  13
ENDBRANCH   1  12
TORSDOF 4
ENDMDL
MODEL 5
REMARK VINA RESULT: -6.347925467      3.015      5.254
REMARK  4 active torsions:
REMARK  status: ('A' for Active; 'I' for Inactive)
REMARK    1  A    between atoms: C1_2  and  N2_4 
REMARK    2  A    between atoms: N2_4  and  N3_6 
REMARK       I    between atoms: N3_6  and  C2_8 
REMARK    3  A    between atoms: C2_8  and  C3_10 
REMARK    4  A    between atoms: C3_10  and  N4_11 
ROOT
HETATM    1  N4  UNL     1      47.742  32.648  -1.889  1.00  0.00    -0.319 N 
HETATM    2  C4  UNL     1      47.741  33.270  -3.083  1.00  0.00     0.185 A 
HETATM    3  N5  UNL     1      48.917  33.894  -3.262  1.00  0.00    -0.349 N 
ATOM      4  H5  UNL     1      49.186  34.446  -4.076  1.00  0.00     0.166 HD
HETATM    5  C5  UNL     1      49.680  33.660  -2.166  1.00  0.00     0.077 A 
HETATM    6  C6  UNL     1      50.974  34.073  -1.832  1.00  0.00     0.035 A 
HETATM    7  C7  UNL     1      51.441  33.648  -0.607  1.00  0.00     0.019 A 
HETATM    8  C8  UNL     1      50.722  32.870   0.267  1.00  0.00     0.090 A 
HETATM    9  N6  UNL     1      49.489  32.517  -0.129  1.00  0.00    -0.350 N 
ATOM     10  H6  UNL     1      48.930  31.938   0.499  1.00  0.00     0.166 HD
HETATM   11  C9  UNL     1      48.952  32.879  -1.299  1.00  0.00     0.136 A 
ENDROOT
BRANCH   1  12
HETATM   12  C3  UNL     1      46.717  31.872  -1.265  1.00  0.00     0.235 C 
BRANCH  12  13
HETATM   13  C2  UNL     1      45.832  32.557  -0.330  1.00  0.00     0.254 C 
HETATM   14  N3  UNL     1      46.035  33.906   0.069  1.00  0.00    -0.267 N 
ATOM     15  H3  UNL     1      46.834  34.388  -0.341  1.00  0.00     0.190 HD
HETATM   16  O1  UNL     1      44.842  31.930   0.153  1.00  0.00    -0.270 OA
BRANCH  14  17
HETATM   17  N2  UNL     1      45.263  34.628   0.950  1.00  0.00    -0.276 N 
ATOM     18  H2  UNL     1      44.262  34.437   0.927  1.00  0.00     0.189 HD
BRANCH  17  19
HETATM   19  C1  UNL     1      45.685  35.599   1.879  1.00  0.00     0.199 C 
HETATM   20  N1  UNL     1      47.076  35.844   2.133  1.00  0.00    -0.068 NA
HETATM   21  S1  UNL     1      44.584  36.483   2.693  1.00  0.00    -0.043 SA
ENDBRANCH  17  19
ENDBRANCH  14  17
ENDBRANCH  12  13
ENDBRANCH   1  12
TORSDOF 4
ENDMDL
