MODEL 1
REMARK VINA RESULT: -6.518866003      0.000      0.000
REMARK  4 active torsions:
REMARK  status: ('A' for Active; 'I' for Inactive)
REMARK    1  A    between atoms: C1_4  and  N2_5 
REMARK    2  A    between atoms: C1_4  and  C8_18 
REMARK    3  A    between atoms: N2_5  and  N3_7 
REMARK       I    between atoms: N3_7  and  C2_9 
REMARK    4  A    between atoms: C2_9  and  C3_11 
ROOT
HETATM    1  N2  UNL     1      48.996  35.153  -1.055  1.00  0.00    -0.283 N 
ATOM      2  H2  UNL     1      49.567  35.987  -1.198  1.00  0.00     0.188 HD
ENDROOT
BRANCH   1   3
HETATM    3  C1  UNL     1      49.273  34.012  -1.814  1.00  0.00     0.124 C 
HETATM    4  N1  UNL     1      50.328  33.923  -2.506  1.00  0.00    -0.384 N 
ATOM      5  H12 UNL     1      50.995  34.693  -2.555  1.00  0.00     0.157 HD
ATOM      6  H11 UNL     1      50.530  33.090  -3.060  1.00  0.00     0.157 HD
BRANCH   3   7
HETATM    7  C8  UNL     1      48.308  32.898  -1.744  1.00  0.00     0.011 A 
HETATM    8  C9  UNL     1      47.224  32.849  -2.604  1.00  0.00     0.032 A 
HETATM    9  C10 UNL     1      46.260  31.870  -2.583  1.00  0.00     0.088 A 
HETATM   10  N6  UNL     1      46.405  30.913  -1.653  1.00  0.00    -0.375 N 
HETATM   11  C11 UNL     1      47.431  30.901  -0.788  1.00  0.00     0.088 A 
ATOM     12  H6  UNL     1      45.710  30.168  -1.601  1.00  0.00     0.164 HD
HETATM   13  C12 UNL     1      48.405  31.893  -0.815  1.00  0.00     0.032 A 
ENDBRANCH   3   7
ENDBRANCH   1   3
BRANCH   1  14
HETATM   14  N3  UNL     1      47.979  35.197  -0.116  1.00  0.00    -0.267 N 
HETATM   15  C2  UNL     1      48.085  35.566   1.235  1.00  0.00     0.256 C 
HETATM   16  O1  UNL     1      49.155  35.916   1.733  1.00  0.00    -0.270 OA
ATOM     17  H3  UNL     1      47.050  34.932  -0.442  1.00  0.00     0.190 HD
BRANCH  15  18
HETATM   18  C3  UNL     1      46.875  35.532   2.097  1.00  0.00     0.182 A 
HETATM   19  C4  UNL     1      46.197  34.149   2.038  1.00  0.00     0.139 A 
HETATM   20  N4  UNL     1      45.132  34.895   1.395  1.00  0.00    -0.247 NA
HETATM   21  C5  UNL     1      43.926  35.004   2.185  1.00  0.00     0.109 C 
HETATM   22  N5  UNL     1      45.752  36.130   1.372  1.00  0.00    -0.235 NA
HETATM   23  C6  UNL     1      44.322  36.095   3.164  1.00  0.00     0.032 C 
HETATM   24  C7  UNL     1      45.014  37.049   2.206  1.00  0.00     0.110 C 
ENDBRANCH  15  18
ENDBRANCH   1  14
TORSDOF 4
ENDMDL
MODEL 2
REMARK VINA RESULT: -6.487463060      0.913      1.194
REMARK  4 active torsions:
REMARK  status: ('A' for Active; 'I' for Inactive)
REMARK    1  A    between atoms: C1_4  and  N2_5 
REMARK    2  A    between atoms: C1_4  and  C8_18 
REMARK    3  A    between atoms: N2_5  and  N3_7 
REMARK       I    between atoms: N3_7  and  C2_9 
REMARK    4  A    between atoms: C2_9  and  C3_11 
ROOT
HETATM    1  N2  UNL     1      49.353  35.121  -1.194  1.00  0.00    -0.283 N 
ATOM      2  H2  UNL     1      50.106  35.809  -1.178  1.00  0.00     0.188 HD
ENDROOT
BRANCH   1   3
HETATM    3  C1  UNL     1      49.573  33.902  -1.843  1.00  0.00     0.124 C 
HETATM    4  N1  UNL     1      50.650  33.674  -2.467  1.00  0.00    -0.384 N 
ATOM      5  H12 UNL     1      51.379  34.383  -2.540  1.00  0.00     0.157 HD
ATOM      6  H11 UNL     1      50.810  32.784  -2.939  1.00  0.00     0.157 HD
BRANCH   3   7
HETATM    7  C8  UNL     1      48.519  32.874  -1.736  1.00  0.00     0.011 A 
HETATM    8  C9  UNL     1      47.419  32.904  -2.577  1.00  0.00     0.032 A 
HETATM    9  C10 UNL     1      46.376  32.011  -2.522  1.00  0.00     0.088 A 
HETATM   10  N6  UNL     1      46.456  31.060  -1.578  1.00  0.00    -0.375 N 
HETATM   11  C11 UNL     1      47.494  30.975  -0.731  1.00  0.00     0.088 A 
ATOM     12  H6  UNL     1      45.702  30.378  -1.501  1.00  0.00     0.164 HD
HETATM   13  C12 UNL     1      48.547  31.880  -0.792  1.00  0.00     0.032 A 
ENDBRANCH   3   7
ENDBRANCH   1   3
BRANCH   1  14
HETATM   14  N3  UNL     1      48.155  35.430  -0.573  1.00  0.00    -0.267 N 
HETATM   15  C2  UNL     1      47.785  35.140   0.751  1.00  0.00     0.256 C 
HETATM   16  O1  UNL     1      48.543  34.559   1.527  1.00  0.00    -0.270 OA
ATOM     17  H3  UNL     1      47.465  35.924  -1.138  1.00  0.00     0.190 HD
BRANCH  15  18
HETATM   18  C3  UNL     1      46.438  35.539   1.235  1.00  0.00     0.182 A 
HETATM   19  C4  UNL     1      46.498  36.011   2.701  1.00  0.00     0.139 A 
HETATM   20  N4  UNL     1      45.702  34.820   2.932  1.00  0.00    -0.247 NA
HETATM   21  C5  UNL     1      44.337  35.089   3.326  1.00  0.00     0.109 C 
HETATM   22  N5  UNL     1      45.697  34.341   1.637  1.00  0.00    -0.235 NA
HETATM   23  C6  UNL     1      43.717  35.443   1.985  1.00  0.00     0.032 C 
HETATM   24  C7  UNL     1      44.347  34.359   1.127  1.00  0.00     0.110 C 
ENDBRANCH  15  18
ENDBRANCH   1  14
TORSDOF 4
ENDMDL
MODEL 3
REMARK VINA RESULT: -6.405605459      1.439      1.682
REMARK  4 active torsions:
REMARK  status: ('A' for Active; 'I' for Inactive)
REMARK    1  A    between atoms: C1_4  and  N2_5 
REMARK    2  A    between atoms: C1_4  and  C8_18 
REMARK    3  A    between atoms: N2_5  and  N3_7 
REMARK       I    between atoms: N3_7  and  C2_9 
REMARK    4  A    between atoms: C2_9  and  C3_11 
ROOT
HETATM    1  N2  UNL     1      49.673  33.627   0.665  1.00  0.00    -0.283 N 
ATOM      2  H2  UNL     1      50.510  33.926   1.167  1.00  0.00     0.188 HD
ENDROOT
BRANCH   1   3
HETATM    3  C1  UNL     1      49.814  32.747  -0.413  1.00  0.00     0.124 C 
HETATM    4  N1  UNL     1      50.947  32.290  -0.744  1.00  0.00    -0.384 N 
ATOM      5  H12 UNL     1      51.795  32.573  -0.253  1.00  0.00     0.157 HD
ATOM      6  H11 UNL     1      51.049  31.649  -1.530  1.00  0.00     0.157 HD
BRANCH   3   7
HETATM    7  C8  UNL     1      48.587  32.339  -1.123  1.00  0.00     0.011 A 
HETATM    8  C9  UNL     1      48.153  33.036  -2.238  1.00  0.00     0.032 A 
HETATM    9  C10 UNL     1      47.005  32.747  -2.936  1.00  0.00     0.088 A 
HETATM   10  N6  UNL     1      46.276  31.717  -2.479  1.00  0.00    -0.375 N 
HETATM   11  C11 UNL     1      46.639  31.000  -1.405  1.00  0.00     0.088 A 
ATOM     12  H6  UNL     1      45.414  31.470  -2.967  1.00  0.00     0.164 HD
HETATM   13  C12 UNL     1      47.802  31.295  -0.703  1.00  0.00     0.032 A 
ENDBRANCH   3   7
ENDBRANCH   1   3
BRANCH   1  14
HETATM   14  N3  UNL     1      48.442  34.108   1.079  1.00  0.00    -0.267 N 
HETATM   15  C2  UNL     1      47.751  35.221   0.572  1.00  0.00     0.256 C 
HETATM   16  O1  UNL     1      48.200  35.902  -0.350  1.00  0.00    -0.270 OA
ATOM     17  H3  UNL     1      47.987  33.598   1.836  1.00  0.00     0.190 HD
BRANCH  15  18
HETATM   18  C3  UNL     1      46.440  35.596   1.163  1.00  0.00     0.182 A 
HETATM   19  C4  UNL     1      46.600  36.005   2.640  1.00  0.00     0.139 A 
HETATM   20  N4  UNL     1      45.821  34.804   2.873  1.00  0.00    -0.247 NA
HETATM   21  C5  UNL     1      44.485  35.052   3.369  1.00  0.00     0.109 C 
HETATM   22  N5  UNL     1      45.727  34.380   1.561  1.00  0.00    -0.235 NA
HETATM   23  C6  UNL     1      43.776  35.462   2.090  1.00  0.00     0.032 C 
HETATM   24  C7  UNL     1      44.345  34.418   1.145  1.00  0.00     0.110 C 
ENDBRANCH  15  18
ENDBRANCH   1  14
TORSDOF 4
ENDMDL
MODEL 4
REMARK VINA RESULT: -6.192913511      1.421      1.888
REMARK  4 active torsions:
REMARK  status: ('A' for Active; 'I' for Inactive)
REMARK    1  A    between atoms: C1_4  and  N2_5 
REMARK    2  A    between atoms: C1_4  and  C8_18 
REMARK    3  A    between atoms: N2_5  and  N3_7 
REMARK       I    between atoms: N3_7  and  C2_9 
REMARK    4  A    between atoms: C2_9  and  C3_11 
ROOT
HETATM    1  N2  UNL     1      49.672  33.559   0.637  1.00  0.00    -0.283 N 
ATOM      2  H2  UNL     1      50.531  33.794   1.136  1.00  0.00     0.188 HD
ENDROOT
BRANCH   1   3
HETATM    3  C1  UNL     1      49.751  32.716  -0.475  1.00  0.00     0.124 C 
HETATM    4  N1  UNL     1      50.855  32.223  -0.849  1.00  0.00    -0.384 N 
ATOM      5  H12 UNL     1      51.725  32.449  -0.367  1.00  0.00     0.157 HD
ATOM      6  H11 UNL     1      50.912  31.608  -1.661  1.00  0.00     0.157 HD
BRANCH   3   7
HETATM    7  C8  UNL     1      48.493  32.389  -1.172  1.00  0.00     0.011 A 
HETATM    8  C9  UNL     1      47.691  31.351  -0.729  1.00  0.00     0.032 A 
HETATM    9  C10 UNL     1      46.524  30.956  -1.339  1.00  0.00     0.088 A 
HETATM   10  N6  UNL     1      46.167  31.640  -2.438  1.00  0.00    -0.375 N 
HETATM   11  C11 UNL     1      46.899  32.656  -2.921  1.00  0.00     0.088 A 
ATOM     12  H6  UNL     1      45.309  31.377  -2.923  1.00  0.00     0.164 HD
HETATM   13  C12 UNL     1      48.077  33.052  -2.299  1.00  0.00     0.032 A 
ENDBRANCH   3   7
ENDBRANCH   1   3
BRANCH   1  14
HETATM   14  N3  UNL     1      48.474  34.088   1.090  1.00  0.00    -0.267 N 
HETATM   15  C2  UNL     1      47.816  35.232   0.610  1.00  0.00     0.256 C 
HETATM   16  O1  UNL     1      48.266  35.902  -0.319  1.00  0.00    -0.270 OA
ATOM     17  H3  UNL     1      48.021  33.591   1.856  1.00  0.00     0.190 HD
BRANCH  15  18
HETATM   18  C3  UNL     1      46.539  35.656   1.241  1.00  0.00     0.182 A 
HETATM   19  C4  UNL     1      46.755  36.030   2.721  1.00  0.00     0.139 A 
HETATM   20  N4  UNL     1      45.926  34.862   2.953  1.00  0.00    -0.247 NA
HETATM   21  C5  UNL     1      44.617  35.162   3.488  1.00  0.00     0.109 C 
HETATM   22  N5  UNL     1      45.781  34.467   1.637  1.00  0.00    -0.235 NA
HETATM   23  C6  UNL     1      43.896  35.628   2.234  1.00  0.00     0.032 C 
HETATM   24  C7  UNL     1      44.392  34.576   1.257  1.00  0.00     0.110 C 
ENDBRANCH  15  18
ENDBRANCH   1  14
TORSDOF 4
ENDMDL
MODEL 5
REMARK VINA RESULT: -5.438858454      2.211      3.009
REMARK  4 active torsions:
REMARK  status: ('A' for Active; 'I' for Inactive)
REMARK    1  A    between atoms: C1_4  and  N2_5 
REMARK    2  A    between atoms: C1_4  and  C8_18 
REMARK    3  A    between atoms: N2_5  and  N3_7 
REMARK       I    between atoms: N3_7  and  C2_9 
REMARK    4  A    between atoms: C2_9  and  C3_11 
ROOT
HETATM    1  N2  UNL     1      50.043  35.462   1.737  1.00  0.00    -0.283 N 
ATOM      2  H2  UNL     1      50.560  36.326   1.900  1.00  0.00     0.188 HD
ENDROOT
BRANCH   1   3
HETATM    3  C1  UNL     1      50.756  34.305   1.406  1.00  0.00     0.124 C 
HETATM    4  N1  UNL     1      51.472  33.707   2.260  1.00  0.00    -0.384 N 
ATOM      5  H12 UNL     1      51.574  34.067   3.209  1.00  0.00     0.157 HD
ATOM      6  H11 UNL     1      51.992  32.864   2.018  1.00  0.00     0.157 HD
BRANCH   3   7
HETATM    7  C8  UNL     1      50.608  33.784   0.033  1.00  0.00     0.011 A 
HETATM    8  C9  UNL     1      51.016  34.538  -1.054  1.00  0.00     0.032 A 
HETATM    9  C10 UNL     1      50.882  34.146  -2.365  1.00  0.00     0.088 A 
HETATM   10  N6  UNL     1      50.310  32.950  -2.572  1.00  0.00    -0.375 N 
HETATM   11  C11 UNL     1      49.891  32.170  -1.563  1.00  0.00     0.088 A 
ATOM     12  H6  UNL     1      50.188  32.622  -3.530  1.00  0.00     0.164 HD
HETATM   13  C12 UNL     1      50.030  32.570  -0.239  1.00  0.00     0.032 A 
ENDBRANCH   3   7
ENDBRANCH   1   3
BRANCH   1  14
HETATM   14  N3  UNL     1      48.663  35.480   1.854  1.00  0.00    -0.267 N 
HETATM   15  C2  UNL     1      47.724  35.627   0.818  1.00  0.00     0.256 C 
HETATM   16  O1  UNL     1      48.066  35.749  -0.358  1.00  0.00    -0.270 OA
ATOM     17  H3  UNL     1      48.286  35.374   2.795  1.00  0.00     0.190 HD
BRANCH  15  18
HETATM   18  C3  UNL     1      46.276  35.641   1.145  1.00  0.00     0.182 A 
HETATM   19  C4  UNL     1      46.033  36.233   2.547  1.00  0.00     0.139 A 
HETATM   20  N4  UNL     1      45.600  34.882   2.849  1.00  0.00    -0.247 NA
HETATM   21  C5  UNL     1      44.180  34.759   3.100  1.00  0.00     0.109 C 
HETATM   22  N5  UNL     1      45.877  34.314   1.621  1.00  0.00    -0.235 NA
HETATM   23  C6  UNL     1      43.636  34.793   1.682  1.00  0.00     0.032 C 
HETATM   24  C7  UNL     1      44.645  33.880   1.007  1.00  0.00     0.110 C 
ENDBRANCH  15  18
ENDBRANCH   1  14
TORSDOF 4
ENDMDL
