MODEL 1
REMARK VINA RESULT: -6.654778106      0.000      0.000
REMARK  4 active torsions:
REMARK  status: ('A' for Active; 'I' for Inactive)
REMARK    1  A    between atoms: C1_2  and  N1_3 
REMARK    2  A    between atoms: C1_2  and  N4_13 
REMARK    3  A    between atoms: N1_3  and  N2_5 
REMARK    4  A    between atoms: N4_13  and  N5_15 
ROOT
HETATM    1  S1  UNL     1      44.867  31.952  -2.611  1.00  0.00    -0.038 SA
HETATM    2  C1  UNL     1      46.004  32.315  -1.507  1.00  0.00     0.201 C 
ENDROOT
BRANCH   2   3
HETATM    3  N1  UNL     1      45.723  32.177  -0.132  1.00  0.00    -0.274 N 
ATOM      4  H1  UNL     1      46.283  31.552   0.447  1.00  0.00     0.189 HD
BRANCH   3   5
HETATM    5  N2  UNL     1      44.672  32.903   0.431  1.00  0.00    -0.284 N 
HETATM    6  C2  UNL     1      44.918  34.033   1.013  1.00  0.00     0.115 A 
HETATM    7  C3  UNL     1      43.965  34.926   1.653  1.00  0.00     0.047 A 
HETATM    8  N3  UNL     1      46.184  34.656   1.155  1.00  0.00    -0.372 N 
HETATM    9  C4  UNL     1      44.567  35.993   2.143  1.00  0.00    -0.004 A 
HETATM   10  C5  UNL     1      45.996  35.895   1.864  1.00  0.00     0.148 A 
ATOM     11  H3  UNL     1      47.073  34.291   0.815  1.00  0.00     0.161 HD
ATOM     12  H2  UNL     1      43.717  32.547   0.384  1.00  0.00     0.188 HD
ENDBRANCH   3   5
ENDBRANCH   2   3
BRANCH   2  13
HETATM   13  N4  UNL     1      47.266  32.766  -1.948  1.00  0.00    -0.294 N 
ATOM     14  H4  UNL     1      47.516  32.672  -2.932  1.00  0.00     0.183 HD
BRANCH  13  15
HETATM   15  N5  UNL     1      48.163  33.327  -1.078  1.00  0.00    -0.225 NA
HETATM   16  C6  UNL     1      48.720  34.581  -1.511  1.00  0.00     0.140 C 
HETATM   17  C7  UNL     1      50.108  34.716  -0.908  1.00  0.00     0.183 C 
HETATM   18  O1  UNL     1      50.978  33.738  -1.347  1.00  0.00    -0.389 OA
HETATM   19  C8  UNL     1      50.392  32.488  -1.446  1.00  0.00     0.183 C 
HETATM   20  C9  UNL     1      49.157  32.410  -0.579  1.00  0.00     0.140 C 
ENDBRANCH  13  15
ENDBRANCH   2  13
TORSDOF 4
ENDMDL
MODEL 2
REMARK VINA RESULT: -6.610667989      0.696      1.333
REMARK  4 active torsions:
REMARK  status: ('A' for Active; 'I' for Inactive)
REMARK    1  A    between atoms: C1_2  and  N1_3 
REMARK    2  A    between atoms: C1_2  and  N4_13 
REMARK    3  A    between atoms: N1_3  and  N2_5 
REMARK    4  A    between atoms: N4_13  and  N5_15 
ROOT
HETATM    1  S1  UNL     1      45.766  31.975  -2.568  1.00  0.00    -0.038 SA
HETATM    2  C1  UNL     1      46.383  32.629  -1.214  1.00  0.00     0.201 C 
ENDROOT
BRANCH   2   3
HETATM    3  N1  UNL     1      45.750  32.413   0.027  1.00  0.00    -0.274 N 
ATOM      4  H1  UNL     1      46.078  31.675   0.650  1.00  0.00     0.189 HD
BRANCH   3   5
HETATM    5  N2  UNL     1      44.671  33.216   0.398  1.00  0.00    -0.284 N 
HETATM    6  C2  UNL     1      44.871  34.237   1.169  1.00  0.00     0.115 A 
HETATM    7  C3  UNL     1      43.883  35.183   1.661  1.00  0.00     0.047 A 
HETATM    8  N3  UNL     1      46.112  34.661   1.709  1.00  0.00    -0.372 N 
HETATM    9  C4  UNL     1      44.442  36.101   2.426  1.00  0.00    -0.004 A 
HETATM   10  C5  UNL     1      45.875  35.835   2.507  1.00  0.00     0.148 A 
ATOM     11  H3  UNL     1      47.016  34.212   1.559  1.00  0.00     0.161 HD
ATOM     12  H2  UNL     1      43.731  33.002   0.064  1.00  0.00     0.188 HD
ENDBRANCH   3   5
ENDBRANCH   2   3
BRANCH   2  13
HETATM   13  N4  UNL     1      47.555  33.411  -1.305  1.00  0.00    -0.294 N 
ATOM     14  H4  UNL     1      47.520  34.398  -1.051  1.00  0.00     0.183 HD
BRANCH  13  15
HETATM   15  N5  UNL     1      48.739  32.867  -1.729  1.00  0.00    -0.225 NA
HETATM   16  C6  UNL     1      49.430  32.082  -0.740  1.00  0.00     0.140 C 
HETATM   17  C7  UNL     1      50.919  32.157  -1.032  1.00  0.00     0.183 C 
HETATM   18  O1  UNL     1      51.419  33.440  -0.922  1.00  0.00    -0.389 OA
HETATM   19  C8  UNL     1      50.571  34.405  -1.434  1.00  0.00     0.183 C 
HETATM   20  C9  UNL     1      49.602  33.792  -2.419  1.00  0.00     0.140 C 
ENDBRANCH  13  15
ENDBRANCH   2  13
TORSDOF 4
ENDMDL
MODEL 3
REMARK VINA RESULT: -6.598090535      1.056      1.394
REMARK  4 active torsions:
REMARK  status: ('A' for Active; 'I' for Inactive)
REMARK    1  A    between atoms: C1_2  and  N1_3 
REMARK    2  A    between atoms: C1_2  and  N4_13 
REMARK    3  A    between atoms: N1_3  and  N2_5 
REMARK    4  A    between atoms: N4_13  and  N5_15 
ROOT
HETATM    1  S1  UNL     1      46.013  31.922  -2.804  1.00  0.00    -0.038 SA
HETATM    2  C1  UNL     1      46.760  32.423  -1.449  1.00  0.00     0.201 C 
ENDROOT
BRANCH   2   3
HETATM    3  N1  UNL     1      46.008  32.964  -0.386  1.00  0.00    -0.274 N 
ATOM      4  H1  UNL     1      45.193  32.467  -0.028  1.00  0.00     0.189 HD
BRANCH   3   5
HETATM    5  N2  UNL     1      46.388  34.185   0.173  1.00  0.00    -0.284 N 
HETATM    6  C2  UNL     1      45.629  34.742   1.062  1.00  0.00     0.115 A 
HETATM    7  C3  UNL     1      45.853  36.003   1.752  1.00  0.00     0.047 A 
HETATM    8  N3  UNL     1      44.401  34.241   1.563  1.00  0.00    -0.372 N 
HETATM    9  C4  UNL     1      44.872  36.264   2.595  1.00  0.00    -0.004 A 
HETATM   10  C5  UNL     1      43.898  35.178   2.533  1.00  0.00     0.148 A 
ATOM     11  H3  UNL     1      43.953  33.368   1.286  1.00  0.00     0.161 HD
ATOM     12  H2  UNL     1      47.257  34.635  -0.117  1.00  0.00     0.188 HD
ENDBRANCH   3   5
ENDBRANCH   2   3
BRANCH   2  13
HETATM   13  N4  UNL     1      48.164  32.306  -1.360  1.00  0.00    -0.294 N 
ATOM     14  H4  UNL     1      48.606  31.411  -1.571  1.00  0.00     0.183 HD
BRANCH  13  15
HETATM   15  N5  UNL     1      48.943  33.371  -0.995  1.00  0.00    -0.225 NA
HETATM   16  C6  UNL     1      49.655  33.997  -2.077  1.00  0.00     0.140 C 
HETATM   17  C7  UNL     1      50.930  34.604  -1.517  1.00  0.00     0.183 C 
HETATM   18  O1  UNL     1      51.786  33.656  -0.992  1.00  0.00    -0.389 OA
HETATM   19  C8  UNL     1      51.134  32.660  -0.287  1.00  0.00     0.183 C 
HETATM   20  C9  UNL     1      49.770  33.132   0.161  1.00  0.00     0.140 C 
ENDBRANCH  13  15
ENDBRANCH   2  13
TORSDOF 4
ENDMDL
MODEL 4
REMARK VINA RESULT: -6.486744897      1.499      1.555
REMARK  4 active torsions:
REMARK  status: ('A' for Active; 'I' for Inactive)
REMARK    1  A    between atoms: C1_2  and  N1_3 
REMARK    2  A    between atoms: C1_2  and  N4_13 
REMARK    3  A    between atoms: N1_3  and  N2_5 
REMARK    4  A    between atoms: N4_13  and  N5_15 
ROOT
HETATM    1  S1  UNL     1      47.246  30.459  -0.597  1.00  0.00    -0.038 SA
HETATM    2  C1  UNL     1      47.226  32.031  -1.009  1.00  0.00     0.201 C 
ENDROOT
BRANCH   2   3
HETATM    3  N1  UNL     1      46.000  32.680  -1.259  1.00  0.00    -0.274 N 
ATOM      4  H1  UNL     1      45.790  33.042  -2.189  1.00  0.00     0.189 HD
BRANCH   3   5
HETATM    5  N2  UNL     1      45.075  32.824  -0.224  1.00  0.00    -0.284 N 
HETATM    6  C2  UNL     1      45.173  33.832   0.582  1.00  0.00     0.115 A 
HETATM    7  C3  UNL     1      44.312  34.150   1.711  1.00  0.00     0.047 A 
HETATM    8  N3  UNL     1      46.150  34.859   0.543  1.00  0.00    -0.372 N 
HETATM    9  C4  UNL     1      44.706  35.256   2.314  1.00  0.00    -0.004 A 
HETATM   10  C5  UNL     1      45.883  35.773   1.622  1.00  0.00     0.148 A 
ATOM     11  H3  UNL     1      46.910  34.937  -0.133  1.00  0.00     0.161 HD
ATOM     12  H2  UNL     1      44.327  32.141  -0.104  1.00  0.00     0.188 HD
ENDBRANCH   3   5
ENDBRANCH   2   3
BRANCH   2  13
HETATM   13  N4  UNL     1      48.450  32.727  -1.110  1.00  0.00    -0.294 N 
ATOM     14  H4  UNL     1      49.134  32.439  -1.810  1.00  0.00     0.183 HD
BRANCH  13  15
HETATM   15  N5  UNL     1      48.737  33.782  -0.285  1.00  0.00    -0.225 NA
HETATM   16  C6  UNL     1      49.379  34.896  -0.930  1.00  0.00     0.140 C 
HETATM   17  C7  UNL     1      50.243  35.606   0.098  1.00  0.00     0.183 C 
HETATM   18  O1  UNL     1      51.258  34.806   0.584  1.00  0.00    -0.389 OA
HETATM   19  C8  UNL     1      50.869  33.497   0.803  1.00  0.00     0.183 C 
HETATM   20  C9  UNL     1      49.367  33.408   0.956  1.00  0.00     0.140 C 
ENDBRANCH  13  15
ENDBRANCH   2  13
TORSDOF 4
ENDMDL
MODEL 5
REMARK VINA RESULT: -6.450652492      1.443      1.603
REMARK  4 active torsions:
REMARK  status: ('A' for Active; 'I' for Inactive)
REMARK    1  A    between atoms: C1_2  and  N1_3 
REMARK    2  A    between atoms: C1_2  and  N4_13 
REMARK    3  A    between atoms: N1_3  and  N2_5 
REMARK    4  A    between atoms: N4_13  and  N5_15 
ROOT
HETATM    1  S1  UNL     1      47.098  30.400  -0.548  1.00  0.00    -0.038 SA
HETATM    2  C1  UNL     1      47.083  31.930  -1.098  1.00  0.00     0.201 C 
ENDROOT
BRANCH   2   3
HETATM    3  N1  UNL     1      45.857  32.597  -1.298  1.00  0.00    -0.274 N 
ATOM      4  H1  UNL     1      45.601  32.935  -2.225  1.00  0.00     0.189 HD
BRANCH   3   5
HETATM    5  N2  UNL     1      44.997  32.792  -0.216  1.00  0.00    -0.284 N 
HETATM    6  C2  UNL     1      45.179  33.806   0.568  1.00  0.00     0.115 A 
HETATM    7  C3  UNL     1      44.396  34.173   1.737  1.00  0.00     0.047 A 
HETATM    8  N3  UNL     1      46.194  34.791   0.460  1.00  0.00    -0.372 N 
HETATM    9  C4  UNL     1      44.867  35.270   2.300  1.00  0.00    -0.004 A 
HETATM   10  C5  UNL     1      46.024  35.729   1.538  1.00  0.00     0.148 A 
ATOM     11  H3  UNL     1      46.917  34.829  -0.258  1.00  0.00     0.161 HD
ATOM     12  H2  UNL     1      44.230  32.142  -0.046  1.00  0.00     0.188 HD
ENDBRANCH   3   5
ENDBRANCH   2   3
BRANCH   2  13
HETATM   13  N4  UNL     1      48.311  32.571  -1.369  1.00  0.00    -0.294 N 
ATOM     14  H4  UNL     1      48.408  33.130  -2.216  1.00  0.00     0.183 HD
BRANCH  13  15
HETATM   15  N5  UNL     1      49.375  32.454  -0.514  1.00  0.00    -0.225 NA
HETATM   16  C6  UNL     1      49.338  33.339   0.620  1.00  0.00     0.140 C 
HETATM   17  C7  UNL     1      50.769  33.634   1.038  1.00  0.00     0.183 C 
HETATM   18  O1  UNL     1      51.484  34.295   0.059  1.00  0.00    -0.389 OA
HETATM   19  C8  UNL     1      51.226  33.829  -1.218  1.00  0.00     0.183 C 
HETATM   20  C9  UNL     1      50.660  32.429  -1.168  1.00  0.00     0.140 C 
ENDBRANCH  13  15
ENDBRANCH   2  13
TORSDOF 4
ENDMDL
