MODEL 1
REMARK VINA RESULT: -10.682319021      0.000      0.000
REMARK  0 active torsions:
REMARK  status: ('A' for Active; 'I' for Inactive)
ROOT
HETATM    1  N1  UNL     1       1.338  35.692   4.876  1.00  0.00    -0.398 N 
ATOM      2  H11 UNL     1       2.230  35.717   5.370  1.00  0.00     0.156 HD
ATOM      3  H12 UNL     1       1.006  36.656   4.832  1.00  0.00     0.156 HD
HETATM    4  C1  UNL     1       0.737  34.659   4.396  1.00  0.00     0.049 A 
HETATM    5  C2  UNL     1      -0.535  34.624   3.691  1.00  0.00     0.002 A 
HETATM    6  C3  UNL     1      -1.449  35.609   3.329  1.00  0.00     0.014 A 
HETATM    7  C4  UNL     1      -2.613  35.323   2.646  1.00  0.00     0.001 A 
HETATM    8  C5  UNL     1      -2.831  33.993   2.335  1.00  0.00     0.001 A 
HETATM    9  C6  UNL     1      -1.941  32.994   2.681  1.00  0.00     0.013 A 
HETATM   10  C7  UNL     1      -0.784  33.304   3.363  1.00  0.00    -0.012 A 
HETATM   11  C8  UNL     1       0.300  32.484   3.842  1.00  0.00    -0.009 A 
HETATM   12  C9  UNL     1       0.505  31.092   3.755  1.00  0.00     0.044 A 
HETATM   13  C10 UNL     1       1.615  30.502   4.283  1.00  0.00     0.050 A 
HETATM   14  C11 UNL     1       1.793  29.145   4.185  1.00  0.00     0.001 A 
HETATM   15  C12 UNL     1       0.875  28.328   3.561  1.00  0.00     0.014 A 
HETATM   16  C13 UNL     1       1.110  26.974   3.496  1.00  0.00     0.001 A 
HETATM   17  C14 UNL     1       2.249  26.413   4.043  1.00  0.00     0.001 A 
HETATM   18  C15 UNL     1       3.155  27.231   4.659  1.00  0.00     0.012 A 
HETATM   19  C16 UNL     1       2.954  28.585   4.744  1.00  0.00    -0.022 A 
HETATM   20  C17 UNL     1       3.855  29.431   5.361  1.00  0.00     0.030 A 
HETATM   21  C18 UNL     1       3.633  30.785   5.434  1.00  0.00     0.097 A 
HETATM   22  N2  UNL     1       2.517  31.311   4.895  1.00  0.00    -0.331 N 
HETATM   23  C19 UNL     1       2.324  32.656   4.983  1.00  0.00     0.111 A 
HETATM   24  C20 UNL     1       1.212  33.279   4.460  1.00  0.00     0.018 A 
ENDROOT
TORSDOF 0
ENDMDL
MODEL 2
REMARK VINA RESULT: -9.603919140      0.909      6.399
REMARK  0 active torsions:
REMARK  status: ('A' for Active; 'I' for Inactive)
ROOT
HETATM    1  N1  UNL     1       4.748  29.957   5.229  1.00  0.00    -0.398 N 
ATOM      2  H11 UNL     1       5.265  30.798   5.485  1.00  0.00     0.156 HD
ATOM      3  H12 UNL     1       5.384  29.173   5.371  1.00  0.00     0.156 HD
HETATM    4  C1  UNL     1       3.532  29.883   4.811  1.00  0.00     0.049 A 
HETATM    5  C2  UNL     1       2.794  28.683   4.447  1.00  0.00     0.002 A 
HETATM    6  C3  UNL     1       3.124  27.331   4.432  1.00  0.00     0.014 A 
HETATM    7  C4  UNL     1       2.232  26.356   4.038  1.00  0.00     0.001 A 
HETATM    8  C5  UNL     1       0.977  26.791   3.653  1.00  0.00     0.001 A 
HETATM    9  C6  UNL     1       0.620  28.127   3.658  1.00  0.00     0.013 A 
HETATM   10  C7  UNL     1       1.528  29.084   4.057  1.00  0.00    -0.012 A 
HETATM   11  C8  UNL     1       1.433  30.518   4.160  1.00  0.00    -0.009 A 
HETATM   12  C9  UNL     1       0.362  31.389   3.878  1.00  0.00     0.044 A 
HETATM   13  C10 UNL     1       0.477  32.737   4.044  1.00  0.00     0.050 A 
HETATM   14  C11 UNL     1      -0.581  33.564   3.763  1.00  0.00     0.001 A 
HETATM   15  C12 UNL     1      -1.790  33.082   3.309  1.00  0.00     0.014 A 
HETATM   16  C13 UNL     1      -2.812  33.963   3.045  1.00  0.00     0.001 A 
HETATM   17  C14 UNL     1      -2.657  35.324   3.226  1.00  0.00     0.001 A 
HETATM   18  C15 UNL     1      -1.455  35.794   3.678  1.00  0.00     0.012 A 
HETATM   19  C16 UNL     1      -0.413  34.946   3.951  1.00  0.00    -0.022 A 
HETATM   20  C17 UNL     1       0.811  35.399   4.409  1.00  0.00     0.030 A 
HETATM   21  C18 UNL     1       1.842  34.530   4.676  1.00  0.00     0.097 A 
HETATM   22  N2  UNL     1       1.668  33.208   4.493  1.00  0.00    -0.331 N 
HETATM   23  C19 UNL     1       2.708  32.372   4.766  1.00  0.00     0.111 A 
HETATM   24  C20 UNL     1       2.620  31.006   4.608  1.00  0.00     0.018 A 
ENDROOT
TORSDOF 0
ENDMDL
MODEL 3
REMARK VINA RESULT: -7.875441243      1.859      3.091
REMARK  0 active torsions:
REMARK  status: ('A' for Active; 'I' for Inactive)
ROOT
HETATM    1  N1  UNL     1      -2.905  33.751   4.705  1.00  0.00    -0.398 N 
ATOM      2  H11 UNL     1      -3.655  33.062   4.754  1.00  0.00     0.156 HD
ATOM      3  H12 UNL     1      -3.353  34.667   4.714  1.00  0.00     0.156 HD
HETATM    4  C1  UNL     1      -1.638  33.526   4.645  1.00  0.00     0.049 A 
HETATM    5  C2  UNL     1      -0.568  34.510   4.575  1.00  0.00     0.002 A 
HETATM    6  C3  UNL     1      -0.555  35.901   4.553  1.00  0.00     0.014 A 
HETATM    7  C4  UNL     1       0.615  36.629   4.483  1.00  0.00     0.001 A 
HETATM    8  C5  UNL     1       1.789  35.900   4.435  1.00  0.00     0.001 A 
HETATM    9  C6  UNL     1       1.807  34.518   4.455  1.00  0.00     0.013 A 
HETATM   10  C7  UNL     1       0.626  33.812   4.526  1.00  0.00    -0.012 A 
HETATM   11  C8  UNL     1       0.350  32.398   4.562  1.00  0.00    -0.009 A 
HETATM   12  C9  UNL     1       1.223  31.292   4.534  1.00  0.00     0.044 A 
HETATM   13  C10 UNL     1       0.753  30.013   4.577  1.00  0.00     0.050 A 
HETATM   14  C11 UNL     1       1.623  28.953   4.550  1.00  0.00     0.001 A 
HETATM   15  C12 UNL     1       2.989  29.125   4.479  1.00  0.00     0.014 A 
HETATM   16  C13 UNL     1       3.809  28.022   4.454  1.00  0.00     0.001 A 
HETATM   17  C14 UNL     1       3.295  26.740   4.500  1.00  0.00     0.001 A 
HETATM   18  C15 UNL     1       1.939  26.577   4.571  1.00  0.00     0.012 A 
HETATM   19  C16 UNL     1       1.091  27.654   4.597  1.00  0.00    -0.022 A 
HETATM   20  C17 UNL     1      -0.283  27.514   4.669  1.00  0.00     0.030 A 
HETATM   21  C18 UNL     1      -1.115  28.607   4.694  1.00  0.00     0.097 A 
HETATM   22  N2  UNL     1      -0.592  29.848   4.648  1.00  0.00    -0.331 N 
HETATM   23  C19 UNL     1      -1.441  30.912   4.675  1.00  0.00     0.111 A 
HETATM   24  C20 UNL     1      -0.995  32.215   4.632  1.00  0.00     0.018 A 
ENDROOT
TORSDOF 0
ENDMDL
MODEL 4
REMARK VINA RESULT: -7.021502068      1.821      7.019
REMARK  0 active torsions:
REMARK  status: ('A' for Active; 'I' for Inactive)
ROOT
HETATM    1  N1  UNL     1      -1.026  27.320   4.335  1.00  0.00    -0.398 N 
ATOM      2  H11 UNL     1      -2.026  27.506   4.268  1.00  0.00     0.156 HD
ATOM      3  H12 UNL     1      -0.920  26.305   4.340  1.00  0.00     0.156 HD
HETATM    4  C1  UNL     1      -0.072  28.183   4.400  1.00  0.00     0.049 A 
HETATM    5  C2  UNL     1       1.356  27.917   4.495  1.00  0.00     0.002 A 
HETATM    6  C3  UNL     1       2.104  26.745   4.543  1.00  0.00     0.014 A 
HETATM    7  C4  UNL     1       3.480  26.749   4.635  1.00  0.00     0.001 A 
HETATM    8  C5  UNL     1       4.089  27.991   4.678  1.00  0.00     0.001 A 
HETATM    9  C6  UNL     1       3.372  29.172   4.632  1.00  0.00     0.013 A 
HETATM   10  C7  UNL     1       1.997  29.142   4.540  1.00  0.00    -0.012 A 
HETATM   11  C8  UNL     1       1.014  30.195   4.476  1.00  0.00    -0.009 A 
HETATM   12  C9  UNL     1       1.167  31.595   4.489  1.00  0.00     0.044 A 
HETATM   13  C10 UNL     1       0.092  32.430   4.419  1.00  0.00     0.050 A 
HETATM   14  C11 UNL     1       0.267  33.791   4.434  1.00  0.00     0.001 A 
HETATM   15  C12 UNL     1       1.515  34.370   4.517  1.00  0.00     0.014 A 
HETATM   16  C13 UNL     1       1.625  35.741   4.528  1.00  0.00     0.001 A 
HETATM   17  C14 UNL     1       0.510  36.554   4.455  1.00  0.00     0.001 A 
HETATM   18  C15 UNL     1      -0.725  35.972   4.371  1.00  0.00     0.012 A 
HETATM   19  C16 UNL     1      -0.873  34.609   4.359  1.00  0.00    -0.022 A 
HETATM   20  C17 UNL     1      -2.110  33.998   4.275  1.00  0.00     0.030 A 
HETATM   21  C18 UNL     1      -2.235  32.630   4.264  1.00  0.00     0.097 A 
HETATM   22  N2  UNL     1      -1.135  31.856   4.336  1.00  0.00    -0.331 N 
HETATM   23  C19 UNL     1      -1.290  30.504   4.323  1.00  0.00     0.111 A 
HETATM   24  C20 UNL     1      -0.222  29.636   4.393  1.00  0.00     0.018 A 
ENDROOT
TORSDOF 0
ENDMDL
