MODEL 1
REMARK VINA RESULT: -2.726433471      0.000      0.000
REMARK  2 active torsions:
REMARK  status: ('A' for Active; 'I' for Inactive)
REMARK    1  A    between atoms: C9_13  and  C10_14 
REMARK    2  A    between atoms: C11_15  and  C12_16 
ROOT
HETATM    1  C1  UNL     1       2.190  36.875   4.115  1.00  0.00     0.049 C 
HETATM    2  C2  UNL     1       1.005  35.979   4.141  1.00  0.00    -0.049 A 
HETATM    3  C3  UNL     1      -0.272  36.500   4.141  1.00  0.00     0.039 A 
HETATM    4  C4  UNL     1      -1.377  35.661   4.166  1.00  0.00     0.061 A 
HETATM    5  N1  UNL     1      -2.707  35.854   4.173  1.00  0.00    -0.300 N 
ATOM      6  H1  UNL     1      -3.158  36.769   4.160  1.00  0.00     0.187 HD
HETATM    7  N2  UNL     1      -3.355  34.701   4.200  1.00  0.00    -0.311 N 
ATOM      8  H2  UNL     1      -4.366  34.570   4.212  1.00  0.00     0.186 HD
HETATM    9  C5  UNL     1      -2.419  33.733   4.209  1.00  0.00     0.121 A 
HETATM   10  C6  UNL     1      -1.154  34.299   4.189  1.00  0.00     0.020 A 
HETATM   11  C7  UNL     1       0.132  33.797   4.187  1.00  0.00    -0.010 A 
HETATM   12  C8  UNL     1       0.349  32.435   4.209  1.00  0.00     0.034 A 
HETATM   13  C9  UNL     1       1.638  31.917   4.208  1.00  0.00     0.019 A 
HETATM   14  C17 UNL     1       2.746  32.737   4.184  1.00  0.00     0.021 A 
HETATM   15  C18 UNL     1       2.530  34.098   4.162  1.00  0.00     0.014 A 
HETATM   16  C19 UNL     1       1.241  34.620   4.163  1.00  0.00    -0.019 A 
ENDROOT
BRANCH  13  17
HETATM   17  C10 UNL     1       1.858  30.501   4.231  1.00  0.00    -0.060 C 
HETATM   18  C11 UNL     1       2.043  29.310   4.230  1.00  0.00    -0.043 C 
BRANCH  18  19
HETATM   19  C12 UNL     1       2.270  27.895   4.203  1.00  0.00     0.086 A 
HETATM   20  C13 UNL     1       1.680  27.058   3.283  1.00  0.00     0.039 A 
HETATM   21  C14 UNL     1       1.938  25.696   3.308  1.00  0.00     0.004 A 
HETATM   22  C15 UNL     1       2.795  25.192   4.267  1.00  0.00     0.017 A 
HETATM   23  C16 UNL     1       3.357  26.069   5.161  1.00  0.00     0.089 A 
HETATM   24  N3  UNL     1       3.097  27.375   5.122  1.00  0.00    -0.359 N 
ATOM     25  H3  UNL     1       3.536  27.992   5.805  1.00  0.00     0.166 HD
ENDBRANCH  18  19
ENDBRANCH  13  17
TORSDOF 2
ENDMDL
MODEL 2
REMARK VINA RESULT: -2.574179215      1.101      1.154
REMARK  2 active torsions:
REMARK  status: ('A' for Active; 'I' for Inactive)
REMARK    1  A    between atoms: C9_13  and  C10_14 
REMARK    2  A    between atoms: C11_15  and  C12_16 
ROOT
HETATM    1  C1  UNL     1       0.948  36.602   4.875  1.00  0.00     0.049 C 
HETATM    2  C2  UNL     1       0.080  35.616   4.180  1.00  0.00    -0.049 A 
HETATM    3  C3  UNL     1      -1.068  36.022   3.533  1.00  0.00     0.039 A 
HETATM    4  C4  UNL     1      -1.877  35.099   2.885  1.00  0.00     0.061 A 
HETATM    5  N1  UNL     1      -3.023  35.177   2.187  1.00  0.00    -0.300 N 
ATOM      6  H1  UNL     1      -3.534  36.042   2.009  1.00  0.00     0.187 HD
HETATM    7  N2  UNL     1      -3.403  33.983   1.762  1.00  0.00    -0.311 N 
ATOM      8  H2  UNL     1      -4.235  33.768   1.214  1.00  0.00     0.186 HD
HETATM    9  C5  UNL     1      -2.477  33.108   2.194  1.00  0.00     0.121 A 
HETATM   10  C6  UNL     1      -1.494  33.774   2.910  1.00  0.00     0.020 A 
HETATM   11  C7  UNL     1      -0.340  33.387   3.562  1.00  0.00    -0.010 A 
HETATM   12  C8  UNL     1       0.038  32.061   3.584  1.00  0.00     0.034 A 
HETATM   13  C9  UNL     1       1.196  31.659   4.237  1.00  0.00     0.019 A 
HETATM   14  C17 UNL     1       2.010  32.563   4.885  1.00  0.00     0.021 A 
HETATM   15  C18 UNL     1       1.633  33.889   4.864  1.00  0.00     0.014 A 
HETATM   16  C19 UNL     1       0.474  34.294   4.212  1.00  0.00    -0.019 A 
ENDROOT
BRANCH  13  17
HETATM   17  C10 UNL     1       1.585  30.279   4.256  1.00  0.00    -0.060 C 
HETATM   18  C11 UNL     1       1.896  29.115   4.258  1.00  0.00    -0.043 C 
BRANCH  18  19
HETATM   19  C12 UNL     1       2.252  27.727   4.241  1.00  0.00     0.086 A 
HETATM   20  C13 UNL     1       1.788  26.846   3.291  1.00  0.00     0.039 A 
HETATM   21  C14 UNL     1       2.167  25.513   3.327  1.00  0.00     0.004 A 
HETATM   22  C15 UNL     1       3.018  25.083   4.327  1.00  0.00     0.017 A 
HETATM   23  C16 UNL     1       3.452  26.002   5.249  1.00  0.00     0.089 A 
HETATM   24  N3  UNL     1       3.077  27.279   5.199  1.00  0.00    -0.359 N 
ATOM     25  H3  UNL     1       3.423  27.929   5.904  1.00  0.00     0.166 HD
ENDBRANCH  18  19
ENDBRANCH  13  17
TORSDOF 2
ENDMDL
MODEL 3
REMARK VINA RESULT: -2.520922038      1.895      7.802
REMARK  2 active torsions:
REMARK  status: ('A' for Active; 'I' for Inactive)
REMARK    1  A    between atoms: C9_13  and  C10_14 
REMARK    2  A    between atoms: C11_15  and  C12_16 
ROOT
HETATM    1  C1  UNL     1       5.596  30.271   4.791  1.00  0.00     0.049 C 
HETATM    2  C2  UNL     1       4.270  29.610   4.675  1.00  0.00    -0.049 A 
HETATM    3  C3  UNL     1       4.149  28.245   4.825  1.00  0.00     0.039 A 
HETATM    4  C4  UNL     1       2.909  27.630   4.716  1.00  0.00     0.061 A 
HETATM    5  N1  UNL     1       2.475  26.361   4.807  1.00  0.00    -0.300 N 
ATOM      6  H1  UNL     1       3.075  25.558   4.995  1.00  0.00     0.187 HD
HETATM    7  N2  UNL     1       1.167  26.292   4.621  1.00  0.00    -0.311 N 
ATOM      8  H2  UNL     1       0.594  25.449   4.638  1.00  0.00     0.186 HD
HETATM    9  C5  UNL     1       0.742  27.550   4.404  1.00  0.00     0.121 A 
HETATM   10  C6  UNL     1       1.814  28.427   4.455  1.00  0.00     0.020 A 
HETATM   11  C7  UNL     1       1.956  29.792   4.310  1.00  0.00    -0.010 A 
HETATM   12  C8  UNL     1       0.857  30.584   4.050  1.00  0.00     0.034 A 
HETATM   13  C9  UNL     1       0.986  31.959   3.900  1.00  0.00     0.019 A 
HETATM   14  C17 UNL     1       2.210  32.585   4.005  1.00  0.00     0.021 A 
HETATM   15  C18 UNL     1       3.309  31.795   4.265  1.00  0.00     0.014 A 
HETATM   16  C19 UNL     1       3.183  30.418   4.415  1.00  0.00    -0.019 A 
ENDROOT
BRANCH  13  17
HETATM   17  C10 UNL     1      -0.159  32.778   3.631  1.00  0.00    -0.060 C 
HETATM   18  C11 UNL     1      -1.135  33.449   3.405  1.00  0.00    -0.043 C 
BRANCH  18  19
HETATM   19  C12 UNL     1      -2.309  34.228   3.145  1.00  0.00     0.086 A 
HETATM   20  C13 UNL     1      -2.880  34.328   1.897  1.00  0.00     0.039 A 
HETATM   21  C14 UNL     1      -4.017  35.098   1.706  1.00  0.00     0.004 A 
HETATM   22  C15 UNL     1      -4.569  35.761   2.785  1.00  0.00     0.017 A 
HETATM   23  C16 UNL     1      -3.961  35.628   4.009  1.00  0.00     0.089 A 
HETATM   24  N3  UNL     1      -2.868  34.884   4.173  1.00  0.00    -0.359 N 
ATOM     25  H3  UNL     1      -2.447  34.811   5.099  1.00  0.00     0.166 HD
ENDBRANCH  18  19
ENDBRANCH  13  17
TORSDOF 2
ENDMDL
MODEL 4
REMARK VINA RESULT: -2.196384577      0.597      1.009
REMARK  2 active torsions:
REMARK  status: ('A' for Active; 'I' for Inactive)
REMARK    1  A    between atoms: C9_13  and  C10_14 
REMARK    2  A    between atoms: C11_15  and  C12_16 
ROOT
HETATM    1  C1  UNL     1       2.204  36.912   4.146  1.00  0.00     0.049 C 
HETATM    2  C2  UNL     1       1.009  36.029   4.148  1.00  0.00    -0.049 A 
HETATM    3  C3  UNL     1      -0.261  36.564   4.157  1.00  0.00     0.039 A 
HETATM    4  C4  UNL     1      -1.376  35.737   4.158  1.00  0.00     0.061 A 
HETATM    5  N1  UNL     1      -2.704  35.946   4.166  1.00  0.00    -0.300 N 
ATOM      6  H1  UNL     1      -3.144  36.866   4.172  1.00  0.00     0.187 HD
HETATM    7  N2  UNL     1      -3.364  34.799   4.164  1.00  0.00    -0.311 N 
ATOM      8  H2  UNL     1      -4.377  34.680   4.170  1.00  0.00     0.186 HD
HETATM    9  C5  UNL     1      -2.440  33.822   4.153  1.00  0.00     0.121 A 
HETATM   10  C6  UNL     1      -1.168  34.374   4.150  1.00  0.00     0.020 A 
HETATM   11  C7  UNL     1       0.112  33.857   4.140  1.00  0.00    -0.010 A 
HETATM   12  C8  UNL     1       0.313  32.492   4.132  1.00  0.00     0.034 A 
HETATM   13  C9  UNL     1       1.596  31.960   4.123  1.00  0.00     0.019 A 
HETATM   14  C17 UNL     1       2.714  32.768   4.121  1.00  0.00     0.021 A 
HETATM   15  C18 UNL     1       2.513  34.132   4.130  1.00  0.00     0.014 A 
HETATM   16  C19 UNL     1       1.231  34.667   4.139  1.00  0.00    -0.019 A 
ENDROOT
BRANCH  13  17
HETATM   17  C10 UNL     1       1.800  30.541   4.114  1.00  0.00    -0.060 C 
HETATM   18  C11 UNL     1       1.987  29.350   4.120  1.00  0.00    -0.043 C 
BRANCH  18  19
HETATM   19  C12 UNL     1       2.224  27.938   4.148  1.00  0.00     0.086 A 
HETATM   20  C13 UNL     1       3.054  27.334   5.065  1.00  0.00     0.039 A 
HETATM   21  C14 UNL     1       3.244  25.961   5.042  1.00  0.00     0.004 A 
HETATM   22  C15 UNL     1       2.588  25.208   4.088  1.00  0.00     0.017 A 
HETATM   23  C16 UNL     1       1.771  25.858   3.197  1.00  0.00     0.089 A 
HETATM   24  N3  UNL     1       1.601  27.179   3.234  1.00  0.00    -0.359 N 
ATOM     25  H3  UNL     1       0.985  27.622   2.553  1.00  0.00     0.166 HD
ENDBRANCH  18  19
ENDBRANCH  13  17
TORSDOF 2
ENDMDL
MODEL 5
REMARK VINA RESULT: -2.023042428      2.048      7.850
REMARK  2 active torsions:
REMARK  status: ('A' for Active; 'I' for Inactive)
REMARK    1  A    between atoms: C9_13  and  C10_14 
REMARK    2  A    between atoms: C11_15  and  C12_16 
ROOT
HETATM    1  C1  UNL     1       5.496  30.280   4.735  1.00  0.00     0.049 C 
HETATM    2  C2  UNL     1       4.164  29.625   4.660  1.00  0.00    -0.049 A 
HETATM    3  C3  UNL     1       4.033  28.269   4.868  1.00  0.00     0.039 A 
HETATM    4  C4  UNL     1       2.788  27.660   4.798  1.00  0.00     0.061 A 
HETATM    5  N1  UNL     1       2.345  26.400   4.947  1.00  0.00    -0.300 N 
ATOM      6  H1  UNL     1       2.940  25.600   5.163  1.00  0.00     0.187 HD
HETATM    7  N2  UNL     1       1.035  26.334   4.777  1.00  0.00    -0.311 N 
ATOM      8  H2  UNL     1       0.454  25.497   4.835  1.00  0.00     0.186 HD
HETATM    9  C5  UNL     1       0.616  27.585   4.512  1.00  0.00     0.121 A 
HETATM   10  C6  UNL     1       1.696  28.455   4.516  1.00  0.00     0.020 A 
HETATM   11  C7  UNL     1       1.847  29.812   4.311  1.00  0.00    -0.010 A 
HETATM   12  C8  UNL     1       0.752  30.601   4.029  1.00  0.00     0.034 A 
HETATM   13  C9  UNL     1       0.890  31.967   3.821  1.00  0.00     0.019 A 
HETATM   14  C17 UNL     1       2.120  32.587   3.887  1.00  0.00     0.021 A 
HETATM   15  C18 UNL     1       3.216  31.799   4.169  1.00  0.00     0.014 A 
HETATM   16  C19 UNL     1       3.080  30.431   4.377  1.00  0.00    -0.019 A 
ENDROOT
BRANCH  13  17
HETATM   17  C10 UNL     1      -0.252  32.783   3.529  1.00  0.00    -0.060 C 
HETATM   18  C11 UNL     1      -1.222  33.460   3.299  1.00  0.00    -0.043 C 
BRANCH  18  19
HETATM   19  C12 UNL     1      -2.386  34.257   3.047  1.00  0.00     0.086 A 
HETATM   20  C13 UNL     1      -2.889  35.158   3.958  1.00  0.00     0.039 A 
HETATM   21  C14 UNL     1      -4.020  35.901   3.657  1.00  0.00     0.004 A 
HETATM   22  C15 UNL     1      -4.634  35.725   2.432  1.00  0.00     0.017 A 
HETATM   23  C16 UNL     1      -4.092  34.814   1.559  1.00  0.00     0.089 A 
HETATM   24  N3  UNL     1      -3.004  34.109   1.866  1.00  0.00    -0.359 N 
ATOM     25  H3  UNL     1      -2.634  33.442   1.189  1.00  0.00     0.166 HD
ENDBRANCH  18  19
ENDBRANCH  13  17
TORSDOF 2
ENDMDL
