MODEL 1
REMARK VINA RESULT: -8.913311487      0.000      0.000
REMARK  0 active torsions:
REMARK  status: ('A' for Active; 'I' for Inactive)
ROOT
HETATM    1  O1  UNL     1      -0.544  28.653   3.975  1.00  0.00    -0.200 OA
HETATM    2  S1  UNL     1      -0.491  30.069   4.473  1.00  0.00     0.264 S 
HETATM    3  O2  UNL     1      -1.269  30.155   5.726  1.00  0.00    -0.200 OA
HETATM    4  N1  UNL     1      -1.208  31.100   3.276  1.00  0.00    -0.280 N 
ATOM      5  H1  UNL     1      -1.721  30.660   2.512  1.00  0.00     0.179 HD
HETATM    6  C1  UNL     1      -1.127  32.529   3.292  1.00  0.00     0.054 A 
HETATM    7  C2  UNL     1      -2.303  33.009   2.699  1.00  0.00     0.031 A 
HETATM    8  C3  UNL     1      -2.567  34.338   2.650  1.00  0.00     0.003 A 
HETATM    9  C4  UNL     1      -1.666  35.195   3.189  1.00  0.00     0.012 A 
HETATM   10  C5  UNL     1      -0.494  34.723   3.779  1.00  0.00    -0.023 A 
HETATM   11  C6  UNL     1       0.302  35.723   4.306  1.00  0.00     0.012 A 
HETATM   12  C7  UNL     1       1.463  35.418   4.934  1.00  0.00     0.002 A 
HETATM   13  C8  UNL     1       1.822  34.072   5.024  1.00  0.00     0.013 A 
HETATM   14  C9  UNL     1       1.040  33.078   4.499  1.00  0.00    -0.011 A 
HETATM   15  C10 UNL     1      -0.175  33.372   3.851  1.00  0.00     0.013 A 
HETATM   16  C11 UNL     1       1.746  31.798   4.644  1.00  0.00    -0.002 A 
HETATM   17  C12 UNL     1       3.108  31.931   4.744  1.00  0.00     0.014 A 
HETATM   18  C13 UNL     1       3.911  30.790   4.908  1.00  0.00     0.001 A 
HETATM   19  C14 UNL     1       3.316  29.557   4.964  1.00  0.00     0.002 A 
HETATM   20  C15 UNL     1       1.947  29.405   4.861  1.00  0.00     0.026 A 
HETATM   21  C16 UNL     1       1.172  30.520   4.701  1.00  0.00     0.090 A 
ENDROOT
TORSDOF 0
ENDMDL
MODEL 2
REMARK VINA RESULT: -8.598730197      2.599      5.787
REMARK  0 active torsions:
REMARK  status: ('A' for Active; 'I' for Inactive)
ROOT
HETATM    1  O1  UNL     1       1.575  36.019   4.114  1.00  0.00    -0.200 OA
HETATM    2  S1  UNL     1       1.216  34.636   4.580  1.00  0.00     0.264 S 
HETATM    3  O2  UNL     1       1.073  34.661   6.051  1.00  0.00    -0.200 OA
HETATM    4  N1  UNL     1       2.503  33.557   4.144  1.00  0.00    -0.280 N 
ATOM      5  H1  UNL     1       3.378  33.966   3.817  1.00  0.00     0.179 HD
HETATM    6  C1  UNL     1       2.413  32.130   4.212  1.00  0.00     0.054 A 
HETATM    7  C2  UNL     1       3.703  31.656   4.491  1.00  0.00     0.031 A 
HETATM    8  C3  UNL     1       3.929  30.338   4.710  1.00  0.00     0.003 A 
HETATM    9  C4  UNL     1       2.877  29.484   4.654  1.00  0.00     0.012 A 
HETATM   10  C5  UNL     1       1.592  29.951   4.375  1.00  0.00    -0.023 A 
HETATM   11  C6  UNL     1       0.630  28.958   4.384  1.00  0.00     0.012 A 
HETATM   12  C7  UNL     1      -0.671  29.261   4.155  1.00  0.00     0.002 A 
HETATM   13  C8  UNL     1      -0.997  30.596   3.910  1.00  0.00     0.013 A 
HETATM   14  C9  UNL     1      -0.047  31.582   3.895  1.00  0.00    -0.011 A 
HETATM   15  C10 UNL     1       1.309  31.291   4.140  1.00  0.00     0.013 A 
HETATM   16  C11 UNL     1      -0.683  32.841   3.487  1.00  0.00    -0.002 A 
HETATM   17  C12 UNL     1      -1.827  32.665   2.751  1.00  0.00     0.014 A 
HETATM   18  C13 UNL     1      -2.553  33.785   2.310  1.00  0.00     0.001 A 
HETATM   19  C14 UNL     1      -2.101  35.039   2.624  1.00  0.00     0.002 A 
HETATM   20  C15 UNL     1      -0.950  35.235   3.362  1.00  0.00     0.026 A 
HETATM   21  C16 UNL     1      -0.248  34.140   3.786  1.00  0.00     0.090 A 
ENDROOT
TORSDOF 0
ENDMDL
MODEL 3
REMARK VINA RESULT: -8.332590032      2.358      3.625
REMARK  0 active torsions:
REMARK  status: ('A' for Active; 'I' for Inactive)
ROOT
HETATM    1  O1  UNL     1       4.028  30.772   4.943  1.00  0.00    -0.200 OA
HETATM    2  S1  UNL     1       2.904  31.433   4.197  1.00  0.00     0.264 S 
HETATM    3  O2  UNL     1       3.383  31.785   2.844  1.00  0.00    -0.200 OA
HETATM    4  N1  UNL     1       2.455  32.878   5.044  1.00  0.00    -0.280 N 
ATOM      5  H1  UNL     1       3.070  33.205   5.789  1.00  0.00     0.179 HD
HETATM    6  C1  UNL     1       1.275  33.639   4.766  1.00  0.00     0.054 A 
HETATM    7  C2  UNL     1       1.576  34.977   5.064  1.00  0.00     0.031 A 
HETATM    8  C3  UNL     1       0.682  35.964   4.814  1.00  0.00     0.003 A 
HETATM    9  C4  UNL     1      -0.513  35.631   4.268  1.00  0.00     0.012 A 
HETATM   10  C5  UNL     1      -0.818  34.302   3.972  1.00  0.00    -0.023 A 
HETATM   11  C6  UNL     1      -2.063  34.136   3.394  1.00  0.00     0.012 A 
HETATM   12  C7  UNL     1      -2.491  32.904   3.027  1.00  0.00     0.002 A 
HETATM   13  C8  UNL     1      -1.638  31.822   3.255  1.00  0.00     0.013 A 
HETATM   14  C9  UNL     1      -0.407  31.981   3.832  1.00  0.00    -0.011 A 
HETATM   15  C10 UNL     1       0.062  33.253   4.212  1.00  0.00     0.013 A 
HETATM   16  C11 UNL     1       0.185  30.654   4.049  1.00  0.00    -0.002 A 
HETATM   17  C12 UNL     1      -0.744  29.648   4.141  1.00  0.00     0.014 A 
HETATM   18  C13 UNL     1      -0.319  28.321   4.328  1.00  0.00     0.001 A 
HETATM   19  C14 UNL     1       1.022  28.056   4.418  1.00  0.00     0.002 A 
HETATM   20  C15 UNL     1       1.970  29.057   4.331  1.00  0.00     0.026 A 
HETATM   21  C16 UNL     1       1.548  30.345   4.150  1.00  0.00     0.090 A 
ENDROOT
TORSDOF 0
ENDMDL
MODEL 4
REMARK VINA RESULT: -7.522937864      1.731      4.909
REMARK  0 active torsions:
REMARK  status: ('A' for Active; 'I' for Inactive)
ROOT
HETATM    1  O1  UNL     1      -2.796  32.262   4.525  1.00  0.00    -0.200 OA
HETATM    2  S1  UNL     1      -1.469  31.724   4.070  1.00  0.00     0.264 S 
HETATM    3  O2  UNL     1      -1.492  31.605   2.597  1.00  0.00    -0.200 OA
HETATM    4  N1  UNL     1      -1.242  30.155   4.773  1.00  0.00    -0.280 N 
ATOM      5  H1  UNL     1      -2.043  29.714   5.226  1.00  0.00     0.179 HD
HETATM    6  C1  UNL     1      -0.003  29.439   4.758  1.00  0.00     0.054 A 
HETATM    7  C2  UNL     1      -0.323  28.074   4.729  1.00  0.00     0.031 A 
HETATM    8  C3  UNL     1       0.646  27.133   4.615  1.00  0.00     0.003 A 
HETATM    9  C4  UNL     1       1.936  27.541   4.530  1.00  0.00     0.012 A 
HETATM   10  C5  UNL     1       2.259  28.897   4.560  1.00  0.00    -0.023 A 
HETATM   11  C6  UNL     1       3.614  29.145   4.433  1.00  0.00     0.012 A 
HETATM   12  C7  UNL     1       4.081  30.417   4.420  1.00  0.00     0.002 A 
HETATM   13  C8  UNL     1       3.154  31.454   4.542  1.00  0.00     0.013 A 
HETATM   14  C9  UNL     1       1.812  31.214   4.672  1.00  0.00    -0.011 A 
HETATM   15  C10 UNL     1       1.305  29.900   4.679  1.00  0.00     0.013 A 
HETATM   16  C11 UNL     1       1.127  32.492   4.904  1.00  0.00    -0.002 A 
HETATM   17  C12 UNL     1       1.937  33.460   5.440  1.00  0.00     0.014 A 
HETATM   18  C13 UNL     1       1.419  34.741   5.695  1.00  0.00     0.001 A 
HETATM   19  C14 UNL     1       0.106  35.000   5.404  1.00  0.00     0.002 A 
HETATM   20  C15 UNL     1      -0.725  34.036   4.868  1.00  0.00     0.026 A 
HETATM   21  C16 UNL     1      -0.214  32.792   4.623  1.00  0.00     0.090 A 
ENDROOT
TORSDOF 0
ENDMDL
MODEL 5
REMARK VINA RESULT: -7.225978172      2.048      4.754
REMARK  0 active torsions:
REMARK  status: ('A' for Active; 'I' for Inactive)
ROOT
HETATM    1  O1  UNL     1      -3.053  33.883   4.556  1.00  0.00    -0.200 OA
HETATM    2  S1  UNL     1      -1.901  33.118   3.968  1.00  0.00     0.264 S 
HETATM    3  O2  UNL     1      -2.203  32.834   2.550  1.00  0.00    -0.200 OA
HETATM    4  N1  UNL     1      -1.736  31.623   4.833  1.00  0.00    -0.280 N 
ATOM      5  H1  UNL     1      -2.488  31.353   5.467  1.00  0.00     0.179 HD
HETATM    6  C1  UNL     1      -0.612  30.745   4.714  1.00  0.00     0.054 A 
HETATM    7  C2  UNL     1      -1.089  29.444   4.926  1.00  0.00     0.031 A 
HETATM    8  C3  UNL     1      -0.272  28.371   4.785  1.00  0.00     0.003 A 
HETATM    9  C4  UNL     1       1.020  28.584   4.434  1.00  0.00     0.012 A 
HETATM   10  C5  UNL     1       1.499  29.877   4.225  1.00  0.00    -0.023 A 
HETATM   11  C6  UNL     1       2.828  29.919   3.846  1.00  0.00     0.012 A 
HETATM   12  C7  UNL     1       3.430  31.103   3.582  1.00  0.00     0.002 A 
HETATM   13  C8  UNL     1       2.668  32.265   3.709  1.00  0.00     0.013 A 
HETATM   14  C9  UNL     1       1.353  32.230   4.090  1.00  0.00    -0.011 A 
HETATM   15  C10 UNL     1       0.705  31.009   4.359  1.00  0.00     0.013 A 
HETATM   16  C11 UNL     1       0.874  33.609   4.253  1.00  0.00    -0.002 A 
HETATM   17  C12 UNL     1       1.875  34.511   4.511  1.00  0.00     0.014 A 
HETATM   18  C13 UNL     1       1.564  35.872   4.669  1.00  0.00     0.001 A 
HETATM   19  C14 UNL     1       0.259  36.275   4.564  1.00  0.00     0.002 A 
HETATM   20  C15 UNL     1      -0.762  35.380   4.308  1.00  0.00     0.026 A 
HETATM   21  C16 UNL     1      -0.451  34.057   4.157  1.00  0.00     0.090 A 
ENDROOT
TORSDOF 0
ENDMDL
