MODEL 1
REMARK VINA RESULT: -9.410008990      0.000      0.000
REMARK  4 active torsions:
REMARK  status: ('A' for Active; 'I' for Inactive)
REMARK    1  A    between atoms: C5_5  and  S1_6 
REMARK    2  A    between atoms: S1_6  and  N1_9 
REMARK    3  A    between atoms: N1_9  and  C6_11 
REMARK    4  A    between atoms: C10_17  and  C11_18 
ROOT
HETATM    1  C6  UNL     1       2.334 -11.364  83.263  1.00  0.00     0.044 A 
HETATM    2  C7  UNL     1       3.355 -10.703  82.587  1.00  0.00     0.032 A 
HETATM    3  C8  UNL     1       3.522  -9.342  82.681  1.00  0.00     0.034 A 
HETATM    4  C9  UNL     1       2.648  -8.622  83.469  1.00  0.00     0.060 A 
HETATM    5  N2  UNL     1       2.543  -7.290  83.767  1.00  0.00    -0.339 N 
ATOM      6  H2  UNL     1       3.167  -6.568  83.406  1.00  0.00     0.167 HD
HETATM    7  C10 UNL     1       1.530  -7.063  84.582  1.00  0.00     0.136 A 
HETATM    8  N5  UNL     1       0.979  -8.292  84.805  1.00  0.00    -0.339 N 
ATOM      9  H5  UNL     1       0.169  -8.461  85.401  1.00  0.00     0.167 HD
HETATM   10  C18 UNL     1       1.639  -9.244  84.143  1.00  0.00     0.062 A 
HETATM   11  C19 UNL     1       1.491 -10.624  84.031  1.00  0.00     0.062 A 
ENDROOT
BRANCH   1  12
HETATM   12  N1  UNL     1       2.195 -12.779  83.135  1.00  0.00    -0.281 N 
ATOM     13  H1  UNL     1       1.513 -13.158  82.477  1.00  0.00     0.179 HD
BRANCH  12  14
HETATM   14  S1  UNL     1       3.150 -13.854  84.066  1.00  0.00     0.263 S 
HETATM   15  O1  UNL     1       2.397 -15.159  84.307  1.00  0.00    -0.200 OA
HETATM   16  O2  UNL     1       4.390 -14.229  83.331  1.00  0.00    -0.200 OA
BRANCH  14  17
HETATM   17  C5  UNL     1       3.499 -13.099  85.624  1.00  0.00     0.079 A 
HETATM   18  C4  UNL     1       2.838 -13.468  86.768  1.00  0.00     0.026 A 
HETATM   19  C3  UNL     1       3.141 -12.849  87.977  1.00  0.00     0.008 A 
HETATM   20  C2  UNL     1       4.101 -11.859  88.064  1.00  0.00    -0.062 A 
HETATM   21  C1  UNL     1       4.426 -11.192  89.372  1.00  0.00     0.048 C 
HETATM   22  C21 UNL     1       4.759 -11.495  86.908  1.00  0.00     0.008 A 
HETATM   23  C20 UNL     1       4.465 -12.103  85.705  1.00  0.00     0.026 A 
ENDBRANCH  14  17
ENDBRANCH  12  14
ENDBRANCH   1  12
BRANCH   7  24
HETATM   24  C11 UNL     1       1.046  -5.823  85.156  1.00  0.00     0.104 A 
HETATM   25  N3  UNL     1       0.798  -5.675  86.509  1.00  0.00    -0.296 N 
HETATM   26  N4  UNL     1       0.374  -4.474  86.768  1.00  0.00    -0.299 N 
ATOM     27  H3  UNL     1       0.929  -6.407  87.207  1.00  0.00     0.187 HD
HETATM   28  C12 UNL     1       0.303  -3.739  85.650  1.00  0.00     0.060 A 
ATOM     29  H4  UNL     1       0.128  -4.135  87.698  1.00  0.00     0.187 HD
HETATM   30  C13 UNL     1      -0.064  -2.457  85.342  1.00  0.00     0.032 A 
HETATM   31  C17 UNL     1       0.732  -4.605  84.633  1.00  0.00     0.024 A 
HETATM   32  C14 UNL     1      -0.020  -1.993  84.043  1.00  0.00     0.002 A 
HETATM   33  C15 UNL     1       0.392  -2.811  83.033  1.00  0.00     0.001 A 
HETATM   34  C16 UNL     1       0.766  -4.120  83.349  1.00  0.00     0.016 A 
ENDBRANCH   7  24
TORSDOF 4
ENDMDL
MODEL 2
REMARK VINA RESULT: -9.236243745      1.354      2.042
REMARK  4 active torsions:
REMARK  status: ('A' for Active; 'I' for Inactive)
REMARK    1  A    between atoms: C5_5  and  S1_6 
REMARK    2  A    between atoms: S1_6  and  N1_9 
REMARK    3  A    between atoms: N1_9  and  C6_11 
REMARK    4  A    between atoms: C10_17  and  C11_18 
ROOT
HETATM    1  C6  UNL     1       2.405 -11.514  83.319  1.00  0.00     0.044 A 
HETATM    2  C7  UNL     1       3.433 -10.839  82.670  1.00  0.00     0.032 A 
HETATM    3  C8  UNL     1       3.608  -9.482  82.808  1.00  0.00     0.034 A 
HETATM    4  C9  UNL     1       2.735  -8.783  83.615  1.00  0.00     0.060 A 
HETATM    5  N2  UNL     1       2.637  -7.461  83.955  1.00  0.00    -0.339 N 
ATOM      6  H2  UNL     1       3.266  -6.731  83.621  1.00  0.00     0.167 HD
HETATM    7  C10 UNL     1       1.621  -7.254  84.773  1.00  0.00     0.136 A 
HETATM    8  N5  UNL     1       1.062  -8.485  84.954  1.00  0.00    -0.339 N 
ATOM      9  H5  UNL     1       0.248  -8.668  85.540  1.00  0.00     0.167 HD
HETATM   10  C18 UNL     1       1.719  -9.420  84.264  1.00  0.00     0.062 A 
HETATM   11  C19 UNL     1       1.564 -10.794  84.107  1.00  0.00     0.062 A 
ENDROOT
BRANCH   1  12
HETATM   12  N1  UNL     1       2.258 -12.924  83.145  1.00  0.00    -0.281 N 
ATOM     13  H1  UNL     1       1.688 -13.277  82.377  1.00  0.00     0.179 HD
BRANCH  12  14
HETATM   14  S1  UNL     1       3.022 -14.035  84.203  1.00  0.00     0.263 S 
HETATM   15  O1  UNL     1       2.083 -15.195  84.520  1.00  0.00    -0.200 OA
HETATM   16  O2  UNL     1       4.217 -14.643  83.556  1.00  0.00    -0.200 OA
BRANCH  14  17
HETATM   17  C5  UNL     1       3.426 -13.200  85.706  1.00  0.00     0.079 A 
HETATM   18  C4  UNL     1       2.738 -13.435  86.869  1.00  0.00     0.026 A 
HETATM   19  C3  UNL     1       3.087 -12.757  88.034  1.00  0.00     0.008 A 
HETATM   20  C2  UNL     1       4.121 -11.840  88.056  1.00  0.00    -0.062 A 
HETATM   21  C1  UNL     1       4.495 -11.109  89.316  1.00  0.00     0.048 C 
HETATM   22  C21 UNL     1       4.806 -11.611  86.881  1.00  0.00     0.008 A 
HETATM   23  C20 UNL     1       4.467 -12.278  85.723  1.00  0.00     0.026 A 
ENDBRANCH  14  17
ENDBRANCH  12  14
ENDBRANCH   1  12
BRANCH   7  24
HETATM   24  C11 UNL     1       1.142  -6.029  85.385  1.00  0.00     0.104 A 
HETATM   25  N3  UNL     1       1.247  -4.797  84.765  1.00  0.00    -0.296 N 
HETATM   26  N4  UNL     1       0.745  -3.863  85.516  1.00  0.00    -0.299 N 
ATOM     27  H3  UNL     1       1.661  -4.643  83.845  1.00  0.00     0.187 HD
HETATM   28  C12 UNL     1       0.278  -4.370  86.664  1.00  0.00     0.060 A 
ATOM     29  H4  UNL     1       0.711  -2.875  85.266  1.00  0.00     0.187 HD
HETATM   30  C13 UNL     1      -0.331  -3.867  87.783  1.00  0.00     0.032 A 
HETATM   31  C17 UNL     1       0.535  -5.746  86.570  1.00  0.00     0.024 A 
HETATM   32  C14 UNL     1      -0.701  -4.689  88.827  1.00  0.00     0.002 A 
HETATM   33  C15 UNL     1      -0.464  -6.030  88.765  1.00  0.00     0.001 A 
HETATM   34  C16 UNL     1       0.158  -6.543  87.623  1.00  0.00     0.016 A 
ENDBRANCH   7  24
TORSDOF 4
ENDMDL
MODEL 3
REMARK VINA RESULT: -9.070880398      5.199      9.655
REMARK  4 active torsions:
REMARK  status: ('A' for Active; 'I' for Inactive)
REMARK    1  A    between atoms: C5_5  and  S1_6 
REMARK    2  A    between atoms: S1_6  and  N1_9 
REMARK    3  A    between atoms: N1_9  and  C6_11 
REMARK    4  A    between atoms: C10_17  and  C11_18 
ROOT
HETATM    1  C6  UNL     1       0.757  -4.394  89.029  1.00  0.00     0.044 A 
HETATM    2  C7  UNL     1      -0.432  -4.989  89.435  1.00  0.00     0.032 A 
HETATM    3  C8  UNL     1      -0.848  -6.197  88.926  1.00  0.00     0.034 A 
HETATM    4  C9  UNL     1      -0.057  -6.826  87.988  1.00  0.00     0.060 A 
HETATM    5  N2  UNL     1      -0.182  -8.004  87.303  1.00  0.00    -0.339 N 
ATOM      6  H2  UNL     1      -0.965  -8.650  87.405  1.00  0.00     0.167 HD
HETATM    7  C10 UNL     1       0.843  -8.195  86.494  1.00  0.00     0.136 A 
HETATM    8  N5  UNL     1       1.639  -7.102  86.675  1.00  0.00    -0.339 N 
ATOM      9  H5  UNL     1       2.522  -6.945  86.188  1.00  0.00     0.167 HD
HETATM   10  C18 UNL     1       1.113  -6.265  87.571  1.00  0.00     0.062 A 
HETATM   11  C19 UNL     1       1.512  -5.041  88.102  1.00  0.00     0.062 A 
ENDROOT
BRANCH   1  12
HETATM   12  N1  UNL     1       1.150  -3.137  89.581  1.00  0.00    -0.281 N 
ATOM     13  H1  UNL     1       1.890  -3.108  90.282  1.00  0.00     0.179 HD
BRANCH  12  14
HETATM   14  S1  UNL     1       0.403  -1.677  89.087  1.00  0.00     0.263 S 
HETATM   15  O1  UNL     1      -0.887  -1.451  89.870  1.00  0.00    -0.200 OA
HETATM   16  O2  UNL     1       1.275  -0.508  89.393  1.00  0.00    -0.200 OA
BRANCH  14  17
HETATM   17  C5  UNL     1       0.015  -1.791  87.368  1.00  0.00     0.079 A 
HETATM   18  C4  UNL     1      -1.137  -2.390  86.927  1.00  0.00     0.026 A 
HETATM   19  C3  UNL     1      -1.407  -2.461  85.563  1.00  0.00     0.008 A 
HETATM   20  C2  UNL     1      -0.537  -1.937  84.624  1.00  0.00    -0.062 A 
HETATM   21  C1  UNL     1      -0.832  -2.015  83.151  1.00  0.00     0.048 C 
HETATM   22  C21 UNL     1       0.618  -1.337  85.079  1.00  0.00     0.008 A 
HETATM   23  C20 UNL     1       0.893  -1.263  86.428  1.00  0.00     0.026 A 
ENDBRANCH  14  17
ENDBRANCH  12  14
ENDBRANCH   1  12
BRANCH   7  24
HETATM   24  C11 UNL     1       1.133  -9.289  85.587  1.00  0.00     0.104 A 
HETATM   25  N3  UNL     1       1.064  -9.155  84.212  1.00  0.00    -0.296 N 
HETATM   26  N4  UNL     1       1.368 -10.274  83.627  1.00  0.00    -0.299 N 
ATOM     27  H3  UNL     1       0.809  -8.295  83.725  1.00  0.00     0.187 HD
HETATM   28  C12 UNL     1       1.657 -11.222  84.527  1.00  0.00     0.060 A 
ATOM     29  H4  UNL     1       1.386 -10.413  82.617  1.00  0.00     0.187 HD
HETATM   30  C13 UNL     1       2.028 -12.540  84.479  1.00  0.00     0.032 A 
HETATM   31  C17 UNL     1       1.504 -10.587  85.768  1.00  0.00     0.024 A 
HETATM   32  C14 UNL     1       2.258 -13.261  85.633  1.00  0.00     0.002 A 
HETATM   33  C15 UNL     1       2.118 -12.670  86.854  1.00  0.00     0.001 A 
HETATM   34  C16 UNL     1       1.738 -11.326  86.902  1.00  0.00     0.016 A 
ENDBRANCH   7  24
TORSDOF 4
ENDMDL
MODEL 4
REMARK VINA RESULT: -8.968928183      5.109      9.330
REMARK  4 active torsions:
REMARK  status: ('A' for Active; 'I' for Inactive)
REMARK    1  A    between atoms: C5_5  and  S1_6 
REMARK    2  A    between atoms: S1_6  and  N1_9 
REMARK    3  A    between atoms: N1_9  and  C6_11 
REMARK    4  A    between atoms: C10_17  and  C11_18 
ROOT
HETATM    1  C6  UNL     1       0.440  -4.974  88.787  1.00  0.00     0.044 A 
HETATM    2  C7  UNL     1       1.816  -4.814  88.654  1.00  0.00     0.032 A 
HETATM    3  C8  UNL     1       2.595  -5.751  88.019  1.00  0.00     0.034 A 
HETATM    4  C9  UNL     1       1.987  -6.875  87.502  1.00  0.00     0.060 A 
HETATM    5  N2  UNL     1       2.465  -7.967  86.830  1.00  0.00    -0.339 N 
ATOM      6  H2  UNL     1       3.446  -8.115  86.593  1.00  0.00     0.167 HD
HETATM    7  C10 UNL     1       1.490  -8.805  86.528  1.00  0.00     0.136 A 
HETATM    8  N5  UNL     1       0.362  -8.221  87.027  1.00  0.00    -0.339 N 
ATOM      9  H5  UNL     1      -0.573  -8.622  86.956  1.00  0.00     0.167 HD
HETATM   10  C18 UNL     1       0.641  -7.058  87.617  1.00  0.00     0.062 A 
HETATM   11  C19 UNL     1      -0.126  -6.094  88.266  1.00  0.00     0.062 A 
ENDROOT
BRANCH   1  12
HETATM   12  N1  UNL     1      -0.332  -3.977  89.457  1.00  0.00    -0.281 N 
ATOM     13  H1  UNL     1      -1.014  -4.261  90.161  1.00  0.00     0.179 HD
BRANCH  12  14
HETATM   14  S1  UNL     1      -0.135  -2.313  89.103  1.00  0.00     0.263 S 
HETATM   15  O1  UNL     1      -1.244  -1.497  89.760  1.00  0.00    -0.200 OA
HETATM   16  O2  UNL     1       1.141  -1.799  89.674  1.00  0.00    -0.200 OA
BRANCH  14  17
HETATM   17  C5  UNL     1      -0.222  -2.091  87.353  1.00  0.00     0.079 A 
HETATM   18  C4  UNL     1       0.726  -1.373  86.669  1.00  0.00     0.026 A 
HETATM   19  C3  UNL     1       0.622  -1.221  85.289  1.00  0.00     0.008 A 
HETATM   20  C2  UNL     1      -0.422  -1.779  84.575  1.00  0.00    -0.062 A 
HETATM   21  C1  UNL     1      -0.531  -1.613  83.084  1.00  0.00     0.048 C 
HETATM   22  C21 UNL     1      -1.369  -2.499  85.272  1.00  0.00     0.008 A 
HETATM   23  C20 UNL     1      -1.274  -2.655  86.640  1.00  0.00     0.026 A 
ENDBRANCH  14  17
ENDBRANCH  12  14
ENDBRANCH   1  12
BRANCH   7  24
HETATM   24  C11 UNL     1       1.526 -10.075  85.830  1.00  0.00     0.104 A 
HETATM   25  N3  UNL     1       1.007 -11.238  86.371  1.00  0.00    -0.296 N 
HETATM   26  N4  UNL     1       1.162 -12.233  85.550  1.00  0.00    -0.299 N 
ATOM     27  H3  UNL     1       0.565 -11.304  87.288  1.00  0.00     0.187 HD
HETATM   28  C12 UNL     1       1.776 -11.838  84.428  1.00  0.00     0.060 A 
ATOM     29  H4  UNL     1       0.856 -13.188  85.736  1.00  0.00     0.187 HD
HETATM   30  C13 UNL     1       2.180 -12.442  83.267  1.00  0.00     0.032 A 
HETATM   31  C17 UNL     1       2.003 -10.467  84.616  1.00  0.00     0.024 A 
HETATM   32  C14 UNL     1       2.809 -11.725  82.270  1.00  0.00     0.002 A 
HETATM   33  C15 UNL     1       3.043 -10.391  82.423  1.00  0.00     0.001 A 
HETATM   34  C16 UNL     1       2.631  -9.776  83.609  1.00  0.00     0.016 A 
ENDBRANCH   7  24
TORSDOF 4
ENDMDL
MODEL 5
REMARK VINA RESULT: -8.823081223      3.346      4.278
REMARK  4 active torsions:
REMARK  status: ('A' for Active; 'I' for Inactive)
REMARK    1  A    between atoms: C5_5  and  S1_6 
REMARK    2  A    between atoms: S1_6  and  N1_9 
REMARK    3  A    between atoms: N1_9  and  C6_11 
REMARK    4  A    between atoms: C10_17  and  C11_18 
ROOT
HETATM    1  C6  UNL     1       1.194  -8.713  84.324  1.00  0.00     0.044 A 
HETATM    2  C7  UNL     1       1.755  -7.514  83.897  1.00  0.00     0.032 A 
HETATM    3  C8  UNL     1       1.684  -6.370  84.656  1.00  0.00     0.034 A 
HETATM    4  C9  UNL     1       1.036  -6.424  85.872  1.00  0.00     0.060 A 
HETATM    5  N2  UNL     1       0.795  -5.490  86.842  1.00  0.00    -0.339 N 
ATOM      6  H2  UNL     1       1.097  -4.516  86.793  1.00  0.00     0.167 HD
HETATM    7  C10 UNL     1       0.123  -6.012  87.851  1.00  0.00     0.136 A 
HETATM    8  N5  UNL     1      -0.067  -7.318  87.505  1.00  0.00    -0.339 N 
ATOM      9  H5  UNL     1      -0.559  -8.001  88.081  1.00  0.00     0.167 HD
HETATM   10  C18 UNL     1       0.476  -7.586  86.316  1.00  0.00     0.062 A 
HETATM   11  C19 UNL     1       0.562  -8.730  85.528  1.00  0.00     0.062 A 
ENDROOT
BRANCH   1  12
HETATM   12  N1  UNL     1       1.288  -9.877  83.503  1.00  0.00    -0.281 N 
ATOM     13  H1  UNL     1       0.493 -10.147  82.923  1.00  0.00     0.179 HD
BRANCH  12  14
HETATM   14  S1  UNL     1       2.711 -10.830  83.472  1.00  0.00     0.263 S 
HETATM   15  O1  UNL     1       2.404 -12.224  82.934  1.00  0.00    -0.200 OA
HETATM   16  O2  UNL     1       3.717 -10.246  82.540  1.00  0.00    -0.200 OA
BRANCH  14  17
HETATM   17  C5  UNL     1       3.331 -10.977  85.119  1.00  0.00     0.079 A 
HETATM   18  C4  UNL     1       3.023 -12.053  85.912  1.00  0.00     0.026 A 
HETATM   19  C3  UNL     1       3.531 -12.133  87.205  1.00  0.00     0.008 A 
HETATM   20  C2  UNL     1       4.349 -11.148  87.725  1.00  0.00    -0.062 A 
HETATM   21  C1  UNL     1       4.896 -11.237  89.123  1.00  0.00     0.048 C 
HETATM   22  C21 UNL     1       4.652 -10.070  86.919  1.00  0.00     0.008 A 
HETATM   23  C20 UNL     1       4.153  -9.983  85.636  1.00  0.00     0.026 A 
ENDBRANCH  14  17
ENDBRANCH  12  14
ENDBRANCH   1  12
BRANCH   7  24
HETATM   24  C11 UNL     1      -0.346  -5.405  89.082  1.00  0.00     0.104 A 
HETATM   25  N3  UNL     1      -1.684  -5.375  89.435  1.00  0.00    -0.296 N 
HETATM   26  N4  UNL     1      -1.841  -4.779  90.579  1.00  0.00    -0.299 N 
ATOM     27  H3  UNL     1      -2.441  -5.767  88.875  1.00  0.00     0.187 HD
HETATM   28  C12 UNL     1      -0.666  -4.372  91.073  1.00  0.00     0.060 A 
ATOM     29  H4  UNL     1      -2.741  -4.639  91.039  1.00  0.00     0.187 HD
HETATM   30  C13 UNL     1      -0.251  -3.714  92.201  1.00  0.00     0.032 A 
HETATM   31  C17 UNL     1       0.277  -4.774  90.115  1.00  0.00     0.024 A 
HETATM   32  C14 UNL     1       1.083  -3.437  92.418  1.00  0.00     0.002 A 
HETATM   33  C15 UNL     1       2.023  -3.816  91.505  1.00  0.00     0.001 A 
HETATM   34  C16 UNL     1       1.598  -4.487  90.354  1.00  0.00     0.016 A 
ENDBRANCH   7  24
TORSDOF 4
ENDMDL
