MODEL 1
REMARK VINA RESULT: -8.332212167      0.000      0.000
REMARK  6 active torsions:
REMARK  status: ('A' for Active; 'I' for Inactive)
REMARK    1  A    between atoms: C2_5  and  C3_6 
REMARK    2  A    between atoms: C8_11  and  C9_12 
REMARK    3  A    between atoms: C16_23  and  N5_24 
REMARK    4  A    between atoms: N5_24  and  C17_25 
REMARK    5  A    between atoms: C17_25  and  C18_26 
REMARK    6  A    between atoms: C25_33  and  N6_34 
ROOT
HETATM    1  C3  UNL     1       0.994  -6.415  86.283  1.00  0.00     0.034 A 
HETATM    2  C4  UNL     1       0.879  -7.396  87.267  1.00  0.00     0.018 A 
HETATM    3  C5  UNL     1       1.165  -8.720  87.084  1.00  0.00     0.013 A 
HETATM    4  C6  UNL     1       1.593  -9.085  85.831  1.00  0.00    -0.019 A 
HETATM    5  C7  UNL     1       1.897 -10.413  85.580  1.00  0.00     0.044 A 
HETATM    6  C8  UNL     1       2.339 -10.867  84.337  1.00  0.00     0.059 A 
HETATM    7  N4  UNL     1       2.459  -9.958  83.378  1.00  0.00    -0.363 N 
ATOM      8  H4  UNL     1       2.778 -10.264  82.460  1.00  0.00     0.165 HD
HETATM    9  C14 UNL     1       2.174  -8.625  83.557  1.00  0.00     0.104 A 
HETATM   10  C15 UNL     1       1.738  -8.122  84.754  1.00  0.00     0.031 A 
HETATM   11  C16 UNL     1       1.435  -6.785  84.995  1.00  0.00     0.131 A 
ENDROOT
BRANCH   1  12
HETATM   12  C2  UNL     1       0.696  -5.037  86.638  1.00  0.00     0.065 A 
HETATM   13  N2  UNL     1       1.568  -4.002  86.400  1.00  0.00    -0.296 N 
HETATM   14  N1  UNL     1       1.091  -2.871  86.852  1.00  0.00    -0.281 N 
ATOM     15  H2  UNL     1       2.469  -4.102  85.932  1.00  0.00     0.187 HD
HETATM   16  C1  UNL     1       1.693  -1.545  86.803  1.00  0.00     0.179 C 
HETATM   17  C25 UNL     1      -0.100  -3.094  87.403  1.00  0.00     0.117 A 
HETATM   18  C24 UNL     1      -0.365  -4.468  87.276  1.00  0.00     0.081 A 
BRANCH  17  19
HETATM   19  N6  UNL     1      -0.928  -2.289  87.969  1.00  0.00    -0.384 N 
ATOM     20  H62 UNL     1      -0.799  -1.277  87.947  1.00  0.00     0.157 HD
ATOM     21  H61 UNL     1      -1.783  -2.473  88.494  1.00  0.00     0.157 HD
ENDBRANCH  17  19
ENDBRANCH   1  12
BRANCH  11  22
HETATM   22  N5  UNL     1       1.579  -5.970  84.115  1.00  0.00    -0.415 NA
BRANCH  22  23
HETATM   23  C17 UNL     1       1.387  -5.301  82.956  1.00  0.00     0.194 C 
BRANCH  23  24
HETATM   24  C18 UNL     1       0.617  -4.023  83.164  1.00  0.00    -0.007 A 
HETATM   25  C19 UNL     1      -0.699  -4.006  83.527  1.00  0.00     0.014 A 
HETATM   26  C20 UNL     1      -1.400  -2.825  83.716  1.00  0.00     0.001 A 
HETATM   27  C21 UNL     1      -0.707  -1.640  83.519  1.00  0.00     0.000 A 
HETATM   28  C22 UNL     1       0.623  -1.627  83.151  1.00  0.00     0.001 A 
HETATM   29  C23 UNL     1       1.284  -2.842  82.974  1.00  0.00     0.014 A 
ENDBRANCH  23  24
ENDBRANCH  22  23
ENDBRANCH  11  22
BRANCH   6  30
HETATM   30  C9  UNL     1       2.629 -12.287  84.193  1.00  0.00     0.059 A 
HETATM   31  C10 UNL     1       1.834 -13.228  84.789  1.00  0.00     0.032 A 
HETATM   32  C11 UNL     1       2.111 -14.596  84.651  1.00  0.00     0.004 A 
HETATM   33  C12 UNL     1       3.202 -14.974  83.901  1.00  0.00     0.017 A 
HETATM   34  C13 UNL     1       3.993 -14.015  83.306  1.00  0.00     0.088 A 
HETATM   35  N3  UNL     1       3.686 -12.721  83.469  1.00  0.00    -0.364 N 
ATOM     36  H3  UNL     1       4.282 -12.024  83.022  1.00  0.00     0.165 HD
ENDBRANCH   6  30
TORSDOF 6
ENDMDL
MODEL 2
REMARK VINA RESULT: -8.242053493      2.922      8.636
REMARK  6 active torsions:
REMARK  status: ('A' for Active; 'I' for Inactive)
REMARK    1  A    between atoms: C2_5  and  C3_6 
REMARK    2  A    between atoms: C8_11  and  C9_12 
REMARK    3  A    between atoms: C16_23  and  N5_24 
REMARK    4  A    between atoms: N5_24  and  C17_25 
REMARK    5  A    between atoms: C17_25  and  C18_26 
REMARK    6  A    between atoms: C25_33  and  N6_34 
ROOT
HETATM    1  C3  UNL     1       3.807  -7.972  85.353  1.00  0.00     0.034 A 
HETATM    2  C4  UNL     1       4.779  -6.990  85.537  1.00  0.00     0.018 A 
HETATM    3  C5  UNL     1       4.731  -5.736  84.995  1.00  0.00     0.013 A 
HETATM    4  C6  UNL     1       3.636  -5.448  84.216  1.00  0.00    -0.019 A 
HETATM    5  C7  UNL     1       3.529  -4.194  83.637  1.00  0.00     0.044 A 
HETATM    6  C8  UNL     1       2.451  -3.821  82.834  1.00  0.00     0.059 A 
HETATM    7  N4  UNL     1       1.508  -4.733  82.640  1.00  0.00    -0.363 N 
ATOM      8  H4  UNL     1       0.710  -4.485  82.055  1.00  0.00     0.165 HD
HETATM    9  C14 UNL     1       1.550  -5.995  83.183  1.00  0.00     0.104 A 
HETATM   10  C15 UNL     1       2.582  -6.417  83.978  1.00  0.00     0.031 A 
HETATM   11  C16 UNL     1       2.680  -7.680  84.556  1.00  0.00     0.131 A 
ENDROOT
BRANCH   1  12
HETATM   12  C2  UNL     1       3.972  -9.248  86.030  1.00  0.00     0.065 A 
HETATM   13  N2  UNL     1       4.411 -10.380  85.387  1.00  0.00    -0.296 N 
HETATM   14  N1  UNL     1       4.430 -11.406  86.199  1.00  0.00    -0.281 N 
ATOM     15  H2  UNL     1       4.687 -10.417  84.406  1.00  0.00     0.187 HD
HETATM   16  C1  UNL     1       4.827 -12.780  85.920  1.00  0.00     0.179 C 
HETATM   17  C25 UNL     1       4.011 -11.013  87.400  1.00  0.00     0.117 A 
HETATM   18  C24 UNL     1       3.714  -9.642  87.308  1.00  0.00     0.081 A 
BRANCH  17  19
HETATM   19  N6  UNL     1       3.866 -11.671  88.496  1.00  0.00    -0.384 N 
ATOM     20  H62 UNL     1       3.926 -12.689  88.527  1.00  0.00     0.157 HD
ATOM     21  H61 UNL     1       3.682 -11.349  89.446  1.00  0.00     0.157 HD
ENDBRANCH  17  19
ENDBRANCH   1  12
BRANCH  11  22
HETATM   22  N5  UNL     1       1.794  -8.485  84.388  1.00  0.00    -0.415 NA
BRANCH  22  23
HETATM   23  C17 UNL     1       1.039  -9.443  83.806  1.00  0.00     0.194 C 
BRANCH  23  24
HETATM   24  C18 UNL     1       1.879 -10.565  83.253  1.00  0.00    -0.007 A 
HETATM   25  C19 UNL     1       2.788 -10.381  82.252  1.00  0.00     0.014 A 
HETATM   26  C20 UNL     1       3.558 -11.420  81.750  1.00  0.00     0.001 A 
HETATM   27  C21 UNL     1       3.366 -12.675  82.308  1.00  0.00     0.000 A 
HETATM   28  C22 UNL     1       2.454 -12.891  83.320  1.00  0.00     0.001 A 
HETATM   29  C23 UNL     1       1.704 -11.813  83.792  1.00  0.00     0.014 A 
ENDBRANCH  23  24
ENDBRANCH  22  23
ENDBRANCH  11  22
BRANCH   6  30
HETATM   30  C9  UNL     1       2.448  -2.474  82.280  1.00  0.00     0.059 A 
HETATM   31  C10 UNL     1       1.696  -1.484  82.852  1.00  0.00     0.032 A 
HETATM   32  C11 UNL     1       1.690  -0.185  82.319  1.00  0.00     0.004 A 
HETATM   33  C12 UNL     1       2.459   0.072  81.207  1.00  0.00     0.017 A 
HETATM   34  C13 UNL     1       3.211  -0.935  80.641  1.00  0.00     0.088 A 
HETATM   35  N3  UNL     1       3.181  -2.158  81.188  1.00  0.00    -0.364 N 
ATOM     36  H3  UNL     1       3.743  -2.893  80.756  1.00  0.00     0.165 HD
ENDBRANCH   6  30
TORSDOF 6
ENDMDL
MODEL 3
REMARK VINA RESULT: -8.065297109      1.542      1.773
REMARK  6 active torsions:
REMARK  status: ('A' for Active; 'I' for Inactive)
REMARK    1  A    between atoms: C2_5  and  C3_6 
REMARK    2  A    between atoms: C8_11  and  C9_12 
REMARK    3  A    between atoms: C16_23  and  N5_24 
REMARK    4  A    between atoms: N5_24  and  C17_25 
REMARK    5  A    between atoms: C17_25  and  C18_26 
REMARK    6  A    between atoms: C25_33  and  N6_34 
ROOT
HETATM    1  C3  UNL     1       0.600  -6.852  86.993  1.00  0.00     0.034 A 
HETATM    2  C4  UNL     1      -0.222  -7.938  87.292  1.00  0.00     0.018 A 
HETATM    3  C5  UNL     1       0.024  -9.228  86.913  1.00  0.00     0.013 A 
HETATM    4  C6  UNL     1       1.169  -9.444  86.184  1.00  0.00    -0.019 A 
HETATM    5  C7  UNL     1       1.474 -10.729  85.769  1.00  0.00     0.044 A 
HETATM    6  C8  UNL     1       2.615 -11.034  85.027  1.00  0.00     0.059 A 
HETATM    7  N4  UNL     1       3.419 -10.022  84.726  1.00  0.00    -0.363 N 
ATOM      8  H4  UNL     1       4.260 -10.218  84.183  1.00  0.00     0.165 HD
HETATM    9  C14 UNL     1       3.178  -8.723  85.106  1.00  0.00     0.104 A 
HETATM   10  C15 UNL     1       2.075  -8.365  85.834  1.00  0.00     0.031 A 
HETATM   11  C16 UNL     1       1.777  -7.069  86.247  1.00  0.00     0.131 A 
ENDROOT
BRANCH   1  12
HETATM   12  C2  UNL     1       0.231  -5.542  87.502  1.00  0.00     0.065 A 
HETATM   13  N2  UNL     1       0.189  -4.420  86.710  1.00  0.00    -0.296 N 
HETATM   14  N1  UNL     1      -0.123  -3.360  87.410  1.00  0.00    -0.281 N 
ATOM     15  H2  UNL     1       0.376  -4.414  85.707  1.00  0.00     0.187 HD
HETATM   16  C1  UNL     1      -0.273  -1.982  86.958  1.00  0.00     0.179 C 
HETATM   17  C25 UNL     1      -0.299  -3.718  88.680  1.00  0.00     0.117 A 
HETATM   18  C24 UNL     1      -0.077  -5.103  88.755  1.00  0.00     0.081 A 
BRANCH  17  19
HETATM   19  N6  UNL     1      -0.612  -3.020  89.715  1.00  0.00    -0.384 N 
ATOM     20  H62 UNL     1      -1.491  -2.507  89.775  1.00  0.00     0.157 HD
ATOM     21  H61 UNL     1      -0.105  -2.854  90.584  1.00  0.00     0.157 HD
ENDBRANCH  17  19
ENDBRANCH   1  12
BRANCH  11  22
HETATM   22  N5  UNL     1       2.539  -6.168  85.986  1.00  0.00    -0.415 NA
BRANCH  22  23
HETATM   23  C17 UNL     1       3.401  -5.390  85.293  1.00  0.00     0.194 C 
BRANCH  23  24
HETATM   24  C18 UNL     1       2.757  -4.782  84.074  1.00  0.00    -0.007 A 
HETATM   25  C19 UNL     1       1.867  -5.462  83.293  1.00  0.00     0.014 A 
HETATM   26  C20 UNL     1       1.279  -4.893  82.173  1.00  0.00     0.001 A 
HETATM   27  C21 UNL     1       1.633  -3.588  81.868  1.00  0.00     0.000 A 
HETATM   28  C22 UNL     1       2.530  -2.877  82.639  1.00  0.00     0.001 A 
HETATM   29  C23 UNL     1       3.094  -3.493  83.756  1.00  0.00     0.014 A 
ENDBRANCH  23  24
ENDBRANCH  22  23
ENDBRANCH  11  22
BRANCH   6  30
HETATM   30  C9  UNL     1       2.831 -12.423  84.647  1.00  0.00     0.059 A 
HETATM   31  C10 UNL     1       1.980 -13.406  85.073  1.00  0.00     0.032 A 
HETATM   32  C11 UNL     1       2.186 -14.745  84.708  1.00  0.00     0.004 A 
HETATM   33  C12 UNL     1       3.265 -15.050  83.909  1.00  0.00     0.017 A 
HETATM   34  C13 UNL     1       4.114 -14.050  83.487  1.00  0.00     0.088 A 
HETATM   35  N3  UNL     1       3.873 -12.787  83.864  1.00  0.00    -0.364 N 
ATOM     36  H3  UNL     1       4.512 -12.058  83.543  1.00  0.00     0.165 HD
ENDBRANCH   6  30
TORSDOF 6
ENDMDL
MODEL 4
REMARK VINA RESULT: -7.984231201      1.631      1.968
REMARK  6 active torsions:
REMARK  status: ('A' for Active; 'I' for Inactive)
REMARK    1  A    between atoms: C2_5  and  C3_6 
REMARK    2  A    between atoms: C8_11  and  C9_12 
REMARK    3  A    between atoms: C16_23  and  N5_24 
REMARK    4  A    between atoms: N5_24  and  C17_25 
REMARK    5  A    between atoms: C17_25  and  C18_26 
REMARK    6  A    between atoms: C25_33  and  N6_34 
ROOT
HETATM    1  C3  UNL     1       0.735  -6.749  87.105  1.00  0.00     0.034 A 
HETATM    2  C4  UNL     1      -0.136  -7.811  87.345  1.00  0.00     0.018 A 
HETATM    3  C5  UNL     1       0.077  -9.100  86.943  1.00  0.00     0.013 A 
HETATM    4  C6  UNL     1       1.241  -9.340  86.253  1.00  0.00    -0.019 A 
HETATM    5  C7  UNL     1       1.515 -10.626  85.817  1.00  0.00     0.044 A 
HETATM    6  C8  UNL     1       2.673 -10.955  85.112  1.00  0.00     0.059 A 
HETATM    7  N4  UNL     1       3.523  -9.967  84.867  1.00  0.00    -0.363 N 
ATOM      8  H4  UNL     1       4.377 -10.181  84.352  1.00  0.00     0.165 HD
HETATM    9  C14 UNL     1       3.316  -8.669  85.270  1.00  0.00     0.104 A 
HETATM   10  C15 UNL     1       2.199  -8.288  85.965  1.00  0.00     0.031 A 
HETATM   11  C16 UNL     1       1.932  -6.992  86.399  1.00  0.00     0.131 A 
ENDROOT
BRANCH   1  12
HETATM   12  C2  UNL     1       0.395  -5.439  87.633  1.00  0.00     0.065 A 
HETATM   13  N2  UNL     1       0.594  -5.091  88.948  1.00  0.00    -0.296 N 
HETATM   14  N1  UNL     1       0.165  -3.878  89.185  1.00  0.00    -0.281 N 
ATOM     15  H2  UNL     1       1.021  -5.699  89.647  1.00  0.00     0.187 HD
HETATM   16  C1  UNL     1       0.188  -3.133  90.437  1.00  0.00     0.179 C 
HETATM   17  C25 UNL     1      -0.332  -3.369  88.060  1.00  0.00     0.117 A 
HETATM   18  C24 UNL     1      -0.194  -4.350  87.063  1.00  0.00     0.081 A 
BRANCH  17  19
HETATM   19  N6  UNL     1      -0.859  -2.220  87.819  1.00  0.00    -0.384 N 
ATOM     20  H62 UNL     1      -1.608  -1.838  88.396  1.00  0.00     0.157 HD
ATOM     21  H61 UNL     1      -0.661  -1.537  87.088  1.00  0.00     0.157 HD
ENDBRANCH  17  19
ENDBRANCH   1  12
BRANCH  11  22
HETATM   22  N5  UNL     1       2.736  -6.114  86.190  1.00  0.00    -0.415 NA
BRANCH  22  23
HETATM   23  C17 UNL     1       3.414  -5.136  85.548  1.00  0.00     0.194 C 
BRANCH  23  24
HETATM   24  C18 UNL     1       2.722  -4.708  84.281  1.00  0.00    -0.007 A 
HETATM   25  C19 UNL     1       1.944  -5.553  83.543  1.00  0.00     0.014 A 
HETATM   26  C20 UNL     1       1.311  -5.150  82.377  1.00  0.00     0.001 A 
HETATM   27  C21 UNL     1       1.500  -3.835  81.978  1.00  0.00     0.000 A 
HETATM   28  C22 UNL     1       2.281  -2.958  82.703  1.00  0.00     0.001 A 
HETATM   29  C23 UNL     1       2.897  -3.413  83.869  1.00  0.00     0.014 A 
ENDBRANCH  23  24
ENDBRANCH  22  23
ENDBRANCH  11  22
BRANCH   6  30
HETATM   30  C9  UNL     1       2.853 -12.342  84.705  1.00  0.00     0.059 A 
HETATM   31  C10 UNL     1       2.014 -13.321  85.164  1.00  0.00     0.032 A 
HETATM   32  C11 UNL     1       2.186 -14.658  84.774  1.00  0.00     0.004 A 
HETATM   33  C12 UNL     1       3.218 -14.965  83.916  1.00  0.00     0.017 A 
HETATM   34  C13 UNL     1       4.055 -13.968  83.462  1.00  0.00     0.088 A 
HETATM   35  N3  UNL     1       3.849 -12.707  83.865  1.00  0.00    -0.364 N 
ATOM     36  H3  UNL     1       4.478 -11.982  83.520  1.00  0.00     0.165 HD
ENDBRANCH   6  30
TORSDOF 6
ENDMDL
MODEL 5
REMARK VINA RESULT: -7.945187138      5.382      9.278
REMARK  6 active torsions:
REMARK  status: ('A' for Active; 'I' for Inactive)
REMARK    1  A    between atoms: C2_5  and  C3_6 
REMARK    2  A    between atoms: C8_11  and  C9_12 
REMARK    3  A    between atoms: C16_23  and  N5_24 
REMARK    4  A    between atoms: N5_24  and  C17_25 
REMARK    5  A    between atoms: C17_25  and  C18_26 
REMARK    6  A    between atoms: C25_33  and  N6_34 
ROOT
HETATM    1  C3  UNL     1       5.138  -8.299  85.070  1.00  0.00     0.034 A 
HETATM    2  C4  UNL     1       5.893  -7.467  84.245  1.00  0.00     0.018 A 
HETATM    3  C5  UNL     1       6.859  -6.603  84.683  1.00  0.00     0.013 A 
HETATM    4  C6  UNL     1       7.081  -6.573  86.038  1.00  0.00    -0.019 A 
HETATM    5  C7  UNL     1       8.046  -5.718  86.546  1.00  0.00     0.044 A 
HETATM    6  C8  UNL     1       8.335  -5.626  87.907  1.00  0.00     0.059 A 
HETATM    7  N4  UNL     1       7.634  -6.406  88.720  1.00  0.00    -0.363 N 
ATOM      8  H4  UNL     1       7.825  -6.356  89.721  1.00  0.00     0.165 HD
HETATM    9  C14 UNL     1       6.663  -7.276  88.286  1.00  0.00     0.104 A 
HETATM   10  C15 UNL     1       6.337  -7.410  86.962  1.00  0.00     0.031 A 
HETATM   11  C16 UNL     1       5.365  -8.272  86.462  1.00  0.00     0.131 A 
ENDROOT
BRANCH   1  12
HETATM   12  C2  UNL     1       4.176  -9.198  84.456  1.00  0.00     0.065 A 
HETATM   13  N2  UNL     1       4.471 -10.503  84.140  1.00  0.00    -0.296 N 
HETATM   14  N1  UNL     1       3.458 -11.087  83.555  1.00  0.00    -0.281 N 
ATOM     15  H2  UNL     1       5.364 -10.956  84.335  1.00  0.00     0.187 HD
HETATM   16  C1  UNL     1       3.356 -12.456  83.065  1.00  0.00     0.179 C 
HETATM   17  C25 UNL     1       2.456 -10.216  83.455  1.00  0.00     0.117 A 
HETATM   18  C24 UNL     1       2.898  -9.009  84.023  1.00  0.00     0.081 A 
BRANCH  17  19
HETATM   19  N6  UNL     1       1.277 -10.345  82.956  1.00  0.00    -0.384 N 
ATOM     20  H62 UNL     1       0.675  -9.541  82.777  1.00  0.00     0.157 HD
ATOM     21  H61 UNL     1       0.763 -11.178  82.671  1.00  0.00     0.157 HD
ENDBRANCH  17  19
ENDBRANCH   1  12
BRANCH  11  22
HETATM   22  N5  UNL     1       4.760  -8.994  87.219  1.00  0.00    -0.415 NA
BRANCH  22  23
HETATM   23  C17 UNL     1       4.423 -10.088  87.938  1.00  0.00     0.194 C 
BRANCH  23  24
HETATM   24  C18 UNL     1       3.145 -10.716  87.444  1.00  0.00    -0.007 A 
HETATM   25  C19 UNL     1       1.970 -10.027  87.358  1.00  0.00     0.014 A 
HETATM   26  C20 UNL     1       0.799 -10.613  86.902  1.00  0.00     0.001 A 
HETATM   27  C21 UNL     1       0.863 -11.948  86.532  1.00  0.00     0.000 A 
HETATM   28  C22 UNL     1       2.036 -12.670  86.609  1.00  0.00     0.001 A 
HETATM   29  C23 UNL     1       3.188 -12.034  87.074  1.00  0.00     0.014 A 
ENDBRANCH  23  24
ENDBRANCH  22  23
ENDBRANCH  11  22
BRANCH   6  30
HETATM   30  C9  UNL     1       9.371  -4.691  88.324  1.00  0.00     0.059 A 
HETATM   31  C10 UNL     1       9.162  -3.340  88.257  1.00  0.00     0.032 A 
HETATM   32  C11 UNL     1      10.159  -2.436  88.657  1.00  0.00     0.004 A 
HETATM   33  C12 UNL     1      11.354  -2.939  89.120  1.00  0.00     0.017 A 
HETATM   34  C13 UNL     1      11.550  -4.302  89.182  1.00  0.00     0.088 A 
HETATM   35  N3  UNL     1      10.566  -5.122  88.787  1.00  0.00    -0.364 N 
ATOM     36  H3  UNL     1      10.728  -6.128  88.839  1.00  0.00     0.165 HD
ENDBRANCH   6  30
TORSDOF 6
ENDMDL
