MODEL 1
REMARK VINA RESULT: -9.169385010      0.000      0.000
REMARK  6 active torsions:
REMARK  status: ('A' for Active; 'I' for Inactive)
REMARK    1  A    between atoms: O1_1  and  C1_3 
REMARK    2  A    between atoms: C5_7  and  C6_8 
REMARK    3  A    between atoms: C9_11  and  C10_12 
REMARK    4  A    between atoms: C13_15  and  C14_16 
REMARK    5  A    between atoms: C14_16  and  N1_17 
REMARK    6  A    between atoms: N1_17  and  C15_19 
ROOT
HETATM    1  C10 UNL     1       0.583  -7.683  86.938  1.00  0.00    -0.009 A 
HETATM    2  C11 UNL     1      -0.200  -7.415  88.024  1.00  0.00     0.014 A 
HETATM    3  C12 UNL     1      -0.503  -6.116  88.394  1.00  0.00     0.010 A 
HETATM    4  C13 UNL     1       0.019  -5.100  87.621  1.00  0.00    -0.041 A 
HETATM    5  C23 UNL     1       0.813  -5.345  86.519  1.00  0.00     0.010 A 
HETATM    6  C24 UNL     1       1.091  -6.650  86.183  1.00  0.00     0.014 A 
ENDROOT
BRANCH   4   7
HETATM    7  C14 UNL     1      -0.306  -3.686  88.018  1.00  0.00     0.159 C 
BRANCH   7   8
HETATM    8  N1  UNL     1      -1.162  -3.130  87.021  1.00  0.00    -0.372 N 
ATOM      9  H1  UNL     1      -2.164  -3.149  87.213  1.00  0.00     0.161 HD
BRANCH   8  10
HETATM   10  C15 UNL     1      -0.797  -2.610  85.911  1.00  0.00     0.101 A 
HETATM   11  C16 UNL     1      -1.537  -2.743  84.744  1.00  0.00     0.049 A 
HETATM   12  C17 UNL     1      -1.052  -2.142  83.601  1.00  0.00     0.019 A 
HETATM   13  C18 UNL     1       0.140  -1.422  83.606  1.00  0.00     0.006 A 
HETATM   14  C19 UNL     1       0.634  -0.819  82.476  1.00  0.00     0.101 A 
HETATM   15  C22 UNL     1       0.837  -1.322  84.796  1.00  0.00     0.046 A 
HETATM   16  N2  UNL     1       1.785  -0.121  82.470  1.00  0.00    -0.374 N 
HETATM   17  C20 UNL     1       2.483  -0.008  83.612  1.00  0.00     0.090 A 
ATOM     18  H2  UNL     1       2.122   0.315  81.611  1.00  0.00     0.164 HD
HETATM   19  C21 UNL     1       2.016  -0.600  84.764  1.00  0.00     0.047 A 
HETATM   20  N3  UNL     1       0.351  -1.909  85.887  1.00  0.00    -0.342 N 
ATOM     21  H3  UNL     1       0.880  -1.823  86.756  1.00  0.00     0.167 HD
ENDBRANCH   8  10
ENDBRANCH   7   8
ENDBRANCH   4   7
BRANCH   1  22
HETATM   22  C9  UNL     1       0.895  -9.048  86.557  1.00  0.00     0.043 A 
HETATM   23  C8  UNL     1       0.611 -10.224  87.216  1.00  0.00     0.033 A 
HETATM   24  C7  UNL     1       1.111 -11.276  86.458  1.00  0.00     0.033 A 
HETATM   25  C6  UNL     1       1.687 -10.729  85.359  1.00  0.00     0.043 A 
HETATM   26  N4  UNL     1       1.547  -9.394  85.437  1.00  0.00    -0.355 N 
ATOM     27  H4  UNL     1       1.891  -8.733  84.740  1.00  0.00     0.166 HD
BRANCH  25  28
HETATM   28  C5  UNL     1       2.357 -11.448  84.255  1.00  0.00    -0.007 A 
HETATM   29  C4  UNL     1       2.562 -10.840  83.037  1.00  0.00     0.014 A 
HETATM   30  C3  UNL     1       3.187 -11.492  81.988  1.00  0.00     0.004 A 
HETATM   31  C2  UNL     1       3.604 -12.792  82.208  1.00  0.00     0.036 A 
HETATM   32  C1  UNL     1       3.423 -13.448  83.408  1.00  0.00     0.066 A 
HETATM   33  C25 UNL     1       2.791 -12.740  84.417  1.00  0.00     0.050 A 
BRANCH  32  34
HETATM   34  O1  UNL     1       3.865 -14.753  83.561  1.00  0.00    -0.361 OA
ATOM     35  H1  UNL     1       3.417 -15.463  83.117  1.00  0.00     0.217 HD
ENDBRANCH  32  34
ENDBRANCH  25  28
ENDBRANCH   1  22
TORSDOF 6
ENDMDL
MODEL 2
REMARK VINA RESULT: -9.106091540      1.365      2.424
REMARK  6 active torsions:
REMARK  status: ('A' for Active; 'I' for Inactive)
REMARK    1  A    between atoms: O1_1  and  C1_3 
REMARK    2  A    between atoms: C5_7  and  C6_8 
REMARK    3  A    between atoms: C9_11  and  C10_12 
REMARK    4  A    between atoms: C13_15  and  C14_16 
REMARK    5  A    between atoms: C14_16  and  N1_17 
REMARK    6  A    between atoms: N1_17  and  C15_19 
ROOT
HETATM    1  C10 UNL     1       1.037  -7.773  86.421  1.00  0.00    -0.009 A 
HETATM    2  C11 UNL     1      -0.086  -7.730  87.198  1.00  0.00     0.014 A 
HETATM    3  C12 UNL     1      -0.249  -6.771  88.182  1.00  0.00     0.010 A 
HETATM    4  C13 UNL     1       0.769  -5.856  88.348  1.00  0.00    -0.041 A 
HETATM    5  C23 UNL     1       1.913  -5.877  87.576  1.00  0.00     0.010 A 
HETATM    6  C24 UNL     1       2.038  -6.847  86.607  1.00  0.00     0.014 A 
ENDROOT
BRANCH   4   7
HETATM    7  C14 UNL     1       0.598  -4.810  89.415  1.00  0.00     0.159 C 
BRANCH   7   8
HETATM    8  N1  UNL     1      -0.175  -3.741  88.871  1.00  0.00    -0.372 N 
ATOM      9  H1  UNL     1      -0.989  -3.443  89.408  1.00  0.00     0.161 HD
BRANCH   8  10
HETATM   10  C15 UNL     1       0.053  -3.121  87.775  1.00  0.00     0.101 A 
HETATM   11  C16 UNL     1       1.156  -2.298  87.599  1.00  0.00     0.049 A 
HETATM   12  C17 UNL     1       1.307  -1.676  86.377  1.00  0.00     0.019 A 
HETATM   13  C18 UNL     1       0.388  -1.861  85.346  1.00  0.00     0.006 A 
HETATM   14  C19 UNL     1       0.527  -1.248  84.125  1.00  0.00     0.101 A 
HETATM   15  C22 UNL     1      -0.692  -2.692  85.577  1.00  0.00     0.046 A 
HETATM   16  N2  UNL     1      -0.355  -1.420  83.123  1.00  0.00    -0.374 N 
HETATM   17  C20 UNL     1      -1.414  -2.222  83.320  1.00  0.00     0.090 A 
ATOM     18  H2  UNL     1      -0.220  -0.949  82.228  1.00  0.00     0.164 HD
HETATM   19  C21 UNL     1      -1.583  -2.853  84.531  1.00  0.00     0.047 A 
HETATM   20  N3  UNL     1      -0.819  -3.282  86.763  1.00  0.00    -0.342 N 
ATOM     21  H3  UNL     1      -1.623  -3.892  86.913  1.00  0.00     0.167 HD
ENDBRANCH   8  10
ENDBRANCH   7   8
ENDBRANCH   4   7
BRANCH   1  22
HETATM   22  C9  UNL     1       1.199  -8.782  85.391  1.00  0.00     0.043 A 
HETATM   23  C8  UNL     1       0.899  -8.713  84.048  1.00  0.00     0.033 A 
HETATM   24  C7  UNL     1       1.232  -9.932  83.469  1.00  0.00     0.033 A 
HETATM   25  C6  UNL     1       1.725 -10.716  84.460  1.00  0.00     0.043 A 
HETATM   26  N4  UNL     1       1.696 -10.009  85.603  1.00  0.00    -0.355 N 
ATOM     27  H4  UNL     1       2.010 -10.359  86.508  1.00  0.00     0.166 HD
BRANCH  25  28
HETATM   28  C5  UNL     1       2.213 -12.106  84.334  1.00  0.00    -0.007 A 
HETATM   29  C4  UNL     1       1.679 -13.115  85.104  1.00  0.00     0.014 A 
HETATM   30  C3  UNL     1       2.119 -14.423  85.005  1.00  0.00     0.004 A 
HETATM   31  C2  UNL     1       3.125 -14.687  84.095  1.00  0.00     0.036 A 
HETATM   32  C1  UNL     1       3.695 -13.714  83.299  1.00  0.00     0.066 A 
HETATM   33  C25 UNL     1       3.210 -12.425  83.447  1.00  0.00     0.050 A 
BRANCH  32  34
HETATM   34  O1  UNL     1       4.701 -14.047  82.406  1.00  0.00    -0.361 OA
ATOM     35  H1  UNL     1       5.600 -13.800  82.587  1.00  0.00     0.217 HD
ENDBRANCH  32  34
ENDBRANCH  25  28
ENDBRANCH   1  22
TORSDOF 6
ENDMDL
MODEL 3
REMARK VINA RESULT: -8.931993144      1.846      2.931
REMARK  6 active torsions:
REMARK  status: ('A' for Active; 'I' for Inactive)
REMARK    1  A    between atoms: O1_1  and  C1_3 
REMARK    2  A    between atoms: C5_7  and  C6_8 
REMARK    3  A    between atoms: C9_11  and  C10_12 
REMARK    4  A    between atoms: C13_15  and  C14_16 
REMARK    5  A    between atoms: C14_16  and  N1_17 
REMARK    6  A    between atoms: N1_17  and  C15_19 
ROOT
HETATM    1  C10 UNL     1       0.734  -6.538  87.815  1.00  0.00    -0.009 A 
HETATM    2  C11 UNL     1      -0.536  -6.395  88.296  1.00  0.00     0.014 A 
HETATM    3  C12 UNL     1      -0.887  -5.330  89.108  1.00  0.00     0.010 A 
HETATM    4  C13 UNL     1       0.098  -4.415  89.412  1.00  0.00    -0.041 A 
HETATM    5  C23 UNL     1       1.389  -4.536  88.938  1.00  0.00     0.010 A 
HETATM    6  C24 UNL     1       1.699  -5.610  88.135  1.00  0.00     0.014 A 
ENDROOT
BRANCH   4   7
HETATM    7  C14 UNL     1      -0.277  -3.255  90.292  1.00  0.00     0.159 C 
BRANCH   7   8
HETATM    8  N1  UNL     1      -0.782  -2.211  89.461  1.00  0.00    -0.372 N 
ATOM      9  H1  UNL     1      -1.520  -1.627  89.854  1.00  0.00     0.161 HD
BRANCH   8  10
HETATM   10  C15 UNL     1      -0.400  -1.936  88.272  1.00  0.00     0.101 A 
HETATM   11  C16 UNL     1       0.744  -1.196  88.007  1.00  0.00     0.049 A 
HETATM   12  C17 UNL     1       1.066  -0.957  86.687  1.00  0.00     0.019 A 
HETATM   13  C18 UNL     1       0.275  -1.437  85.645  1.00  0.00     0.006 A 
HETATM   14  C19 UNL     1       0.584  -1.206  84.328  1.00  0.00     0.101 A 
HETATM   15  C22 UNL     1      -0.854  -2.168  85.967  1.00  0.00     0.046 A 
HETATM   16  N2  UNL     1      -0.174  -1.666  83.314  1.00  0.00    -0.374 N 
HETATM   17  C20 UNL     1      -1.276  -2.379  83.597  1.00  0.00     0.090 A 
ATOM     18  H2  UNL     1       0.086  -1.476  82.346  1.00  0.00     0.164 HD
HETATM   19  C21 UNL     1      -1.614  -2.629  84.908  1.00  0.00     0.047 A 
HETATM   20  N3  UNL     1      -1.145  -2.388  87.247  1.00  0.00    -0.342 N 
ATOM     21  H3  UNL     1      -1.982  -2.930  87.463  1.00  0.00     0.167 HD
ENDBRANCH   8  10
ENDBRANCH   7   8
ENDBRANCH   4   7
BRANCH   1  22
HETATM   22  C9  UNL     1       1.093  -7.658  86.966  1.00  0.00     0.043 A 
HETATM   23  C8  UNL     1       1.152  -7.724  85.591  1.00  0.00     0.033 A 
HETATM   24  C7  UNL     1       1.547  -9.009  85.238  1.00  0.00     0.033 A 
HETATM   25  C6  UNL     1       1.721  -9.698  86.393  1.00  0.00     0.043 A 
HETATM   26  N4  UNL     1       1.444  -8.871  87.416  1.00  0.00    -0.355 N 
ATOM     27  H4  UNL     1       1.493  -9.131  88.401  1.00  0.00     0.166 HD
BRANCH  25  28
HETATM   28  C5  UNL     1       2.140 -11.109  86.533  1.00  0.00    -0.007 A 
HETATM   29  C4  UNL     1       2.888 -11.521  87.613  1.00  0.00     0.014 A 
HETATM   30  C3  UNL     1       3.292 -12.835  87.767  1.00  0.00     0.004 A 
HETATM   31  C2  UNL     1       2.914 -13.733  86.786  1.00  0.00     0.036 A 
HETATM   32  C1  UNL     1       2.165 -13.374  85.684  1.00  0.00     0.066 A 
HETATM   33  C25 UNL     1       1.793 -12.043  85.590  1.00  0.00     0.050 A 
BRANCH  32  34
HETATM   34  O1  UNL     1       1.820 -14.326  84.737  1.00  0.00    -0.361 OA
ATOM     35  H1  UNL     1       2.156 -14.261  83.851  1.00  0.00     0.217 HD
ENDBRANCH  32  34
ENDBRANCH  25  28
ENDBRANCH   1  22
TORSDOF 6
ENDMDL
MODEL 4
REMARK VINA RESULT: -8.878112742      1.234      1.573
REMARK  6 active torsions:
REMARK  status: ('A' for Active; 'I' for Inactive)
REMARK    1  A    between atoms: O1_1  and  C1_3 
REMARK    2  A    between atoms: C5_7  and  C6_8 
REMARK    3  A    between atoms: C9_11  and  C10_12 
REMARK    4  A    between atoms: C13_15  and  C14_16 
REMARK    5  A    between atoms: C14_16  and  N1_17 
REMARK    6  A    between atoms: N1_17  and  C15_19 
ROOT
HETATM    1  C10 UNL     1       1.074  -8.272  87.074  1.00  0.00    -0.009 A 
HETATM    2  C11 UNL     1      -0.129  -7.803  87.521  1.00  0.00     0.014 A 
HETATM    3  C12 UNL     1      -0.262  -6.523  88.030  1.00  0.00     0.010 A 
HETATM    4  C13 UNL     1       0.870  -5.736  88.068  1.00  0.00    -0.041 A 
HETATM    5  C23 UNL     1       2.096  -6.186  87.623  1.00  0.00     0.010 A 
HETATM    6  C24 UNL     1       2.188  -7.465  87.124  1.00  0.00     0.014 A 
ENDROOT
BRANCH   4   7
HETATM    7  C14 UNL     1       0.731  -4.344  88.619  1.00  0.00     0.159 C 
BRANCH   7   8
HETATM    8  N1  UNL     1      -0.073  -3.586  87.716  1.00  0.00    -0.372 N 
ATOM      9  H1  UNL     1      -1.079  -3.590  87.882  1.00  0.00     0.161 HD
BRANCH   8  10
HETATM   10  C15 UNL     1       0.345  -2.902  86.719  1.00  0.00     0.101 A 
HETATM   11  C16 UNL     1       0.543  -1.530  86.785  1.00  0.00     0.049 A 
HETATM   12  C17 UNL     1       0.998  -0.890  85.650  1.00  0.00     0.019 A 
HETATM   13  C18 UNL     1       1.252  -1.588  84.471  1.00  0.00     0.006 A 
HETATM   14  C19 UNL     1       1.704  -0.962  83.336  1.00  0.00     0.101 A 
HETATM   15  C22 UNL     1       1.037  -2.953  84.463  1.00  0.00     0.046 A 
HETATM   16  N2  UNL     1       1.953  -1.627  82.192  1.00  0.00    -0.374 N 
HETATM   17  C20 UNL     1       1.753  -2.955  82.155  1.00  0.00     0.090 A 
ATOM     18  H2  UNL     1       2.289  -1.131  81.367  1.00  0.00     0.164 HD
HETATM   19  C21 UNL     1       1.301  -3.613  83.276  1.00  0.00     0.047 A 
HETATM   20  N3  UNL     1       0.599  -3.551  85.568  1.00  0.00    -0.342 N 
ATOM     21  H3  UNL     1       0.447  -4.560  85.541  1.00  0.00     0.167 HD
ENDBRANCH   8  10
ENDBRANCH   7   8
ENDBRANCH   4   7
BRANCH   1  22
HETATM   22  C9  UNL     1       1.205  -9.616  86.542  1.00  0.00     0.043 A 
HETATM   23  C8  UNL     1       0.617 -10.784  86.974  1.00  0.00     0.033 A 
HETATM   24  C7  UNL     1       1.048 -11.815  86.145  1.00  0.00     0.033 A 
HETATM   25  C6  UNL     1       1.883 -11.261  85.232  1.00  0.00     0.043 A 
HETATM   26  N4  UNL     1       1.965  -9.943  85.487  1.00  0.00    -0.355 N 
ATOM     27  H4  UNL     1       2.528  -9.283  84.951  1.00  0.00     0.166 HD
BRANCH  25  28
HETATM   28  C5  UNL     1       2.593 -11.958  84.139  1.00  0.00    -0.007 A 
HETATM   29  C4  UNL     1       2.720 -11.380  82.896  1.00  0.00     0.014 A 
HETATM   30  C3  UNL     1       3.380 -12.012  81.857  1.00  0.00     0.004 A 
HETATM   31  C2  UNL     1       3.915 -13.261  82.112  1.00  0.00     0.036 A 
HETATM   32  C1  UNL     1       3.816 -13.886  83.338  1.00  0.00     0.066 A 
HETATM   33  C25 UNL     1       3.144 -13.200  84.335  1.00  0.00     0.050 A 
BRANCH  32  34
HETATM   34  O1  UNL     1       4.376 -15.140  83.527  1.00  0.00    -0.361 OA
ATOM     35  H1  UNL     1       4.105 -15.677  84.262  1.00  0.00     0.217 HD
ENDBRANCH  32  34
ENDBRANCH  25  28
ENDBRANCH   1  22
TORSDOF 6
ENDMDL
MODEL 5
REMARK VINA RESULT: -8.829313351      6.177      9.751
REMARK  6 active torsions:
REMARK  status: ('A' for Active; 'I' for Inactive)
REMARK    1  A    between atoms: O1_1  and  C1_3 
REMARK    2  A    between atoms: C5_7  and  C6_8 
REMARK    3  A    between atoms: C9_11  and  C10_12 
REMARK    4  A    between atoms: C13_15  and  C14_16 
REMARK    5  A    between atoms: C14_16  and  N1_17 
REMARK    6  A    between atoms: N1_17  and  C15_19 
ROOT
HETATM    1  C10 UNL     1       5.200  -6.962  84.783  1.00  0.00    -0.009 A 
HETATM    2  C11 UNL     1       4.199  -6.315  84.116  1.00  0.00     0.014 A 
HETATM    3  C12 UNL     1       2.899  -6.790  84.126  1.00  0.00     0.010 A 
HETATM    4  C13 UNL     1       2.652  -7.944  84.838  1.00  0.00    -0.041 A 
HETATM    5  C23 UNL     1       3.646  -8.616  85.521  1.00  0.00     0.010 A 
HETATM    6  C24 UNL     1       4.926  -8.113  85.487  1.00  0.00     0.014 A 
ENDROOT
BRANCH   4   7
HETATM    7  C14 UNL     1       1.241  -8.464  84.853  1.00  0.00     0.159 C 
BRANCH   7   8
HETATM    8  N1  UNL     1       1.069  -9.319  83.724  1.00  0.00    -0.372 N 
ATOM      9  H1  UNL     1       0.312  -9.085  83.082  1.00  0.00     0.161 HD
BRANCH   8  10
HETATM   10  C15 UNL     1       1.772 -10.349  83.437  1.00  0.00     0.101 A 
HETATM   11  C16 UNL     1       2.682 -10.364  82.390  1.00  0.00     0.049 A 
HETATM   12  C17 UNL     1       3.389 -11.528  82.168  1.00  0.00     0.019 A 
HETATM   13  C18 UNL     1       3.203 -12.657  82.963  1.00  0.00     0.006 A 
HETATM   14  C19 UNL     1       3.900 -13.821  82.752  1.00  0.00     0.101 A 
HETATM   15  C22 UNL     1       2.283 -12.586  83.992  1.00  0.00     0.046 A 
HETATM   16  N2  UNL     1       3.727 -14.918  83.514  1.00  0.00    -0.374 N 
HETATM   17  C20 UNL     1       2.840 -14.876  84.521  1.00  0.00     0.090 A 
ATOM     18  H2  UNL     1       4.263 -15.766  83.329  1.00  0.00     0.164 HD
HETATM   19  C21 UNL     1       2.125 -13.725  84.760  1.00  0.00     0.047 A 
HETATM   20  N3  UNL     1       1.612 -11.453  84.189  1.00  0.00    -0.342 N 
ATOM     21  H3  UNL     1       0.938 -11.421  84.954  1.00  0.00     0.167 HD
ENDBRANCH   8  10
ENDBRANCH   7   8
ENDBRANCH   4   7
BRANCH   1  22
HETATM   22  C9  UNL     1       6.560  -6.457  84.768  1.00  0.00     0.043 A 
HETATM   23  C8  UNL     1       7.154  -5.580  83.887  1.00  0.00     0.033 A 
HETATM   24  C7  UNL     1       8.474  -5.399  84.283  1.00  0.00     0.033 A 
HETATM   25  C6  UNL     1       8.661  -6.163  85.388  1.00  0.00     0.043 A 
HETATM   26  N4  UNL     1       7.503  -6.789  85.662  1.00  0.00    -0.355 N 
ATOM     27  H4  UNL     1       7.361  -7.429  86.443  1.00  0.00     0.166 HD
BRANCH  25  28
HETATM   28  C5  UNL     1       9.906  -6.302  86.172  1.00  0.00    -0.007 A 
HETATM   29  C4  UNL     1      11.030  -6.872  85.618  1.00  0.00     0.014 A 
HETATM   30  C3  UNL     1      12.208  -7.013  86.331  1.00  0.00     0.004 A 
HETATM   31  C2  UNL     1      12.217  -6.558  87.637  1.00  0.00     0.036 A 
HETATM   32  C1  UNL     1      11.119  -5.980  88.241  1.00  0.00     0.066 A 
HETATM   33  C25 UNL     1       9.973  -5.868  87.472  1.00  0.00     0.050 A 
BRANCH  32  34
HETATM   34  O1  UNL     1      11.197  -5.544  89.554  1.00  0.00    -0.361 OA
ATOM     35  H1  UNL     1      10.651  -5.943  90.222  1.00  0.00     0.217 HD
ENDBRANCH  32  34
ENDBRANCH  25  28
ENDBRANCH   1  22
TORSDOF 6
ENDMDL
