MODEL 1
REMARK VINA RESULT: -8.257713534      0.000      0.000
REMARK  5 active torsions:
REMARK  status: ('A' for Active; 'I' for Inactive)
REMARK    1  A    between atoms: N1_1  and  S1_4 
REMARK    2  A    between atoms: S1_4  and  C1_7 
REMARK    3  A    between atoms: C5_13  and  C6_14 
REMARK    4  A    between atoms: C6_14  and  C7_15 
REMARK    5  A    between atoms: C10_18  and  C11_19 
ROOT
HETATM    1  C1  UNL     1       7.343  -2.697  79.607  1.00  0.00     0.080 A 
HETATM    2  C2  UNL     1       6.108  -2.173  79.927  1.00  0.00     0.027 A 
HETATM    3  C3  UNL     1       5.615  -2.314  81.201  1.00  0.00     0.032 A 
HETATM    4  C4  UNL     1       6.300  -2.965  82.202  1.00  0.00     0.042 A 
HETATM    5  N2  UNL     1       6.069  -3.245  83.498  1.00  0.00    -0.359 N 
ATOM      6  H2  UNL     1       5.231  -2.981  84.015  1.00  0.00     0.166 HD
HETATM    7  C5  UNL     1       7.114  -3.926  84.007  1.00  0.00     0.014 A 
HETATM    8  C21 UNL     1       8.045  -4.086  82.992  1.00  0.00     0.039 A 
HETATM    9  C22 UNL     1       7.543  -3.486  81.860  1.00  0.00    -0.006 A 
HETATM   10  C23 UNL     1       8.049  -3.354  80.593  1.00  0.00     0.039 A 
ENDROOT
BRANCH   7  11
HETATM   11  C6  UNL     1       7.276  -4.426  85.373  1.00  0.00     0.095 C 
BRANCH  11  12
HETATM   12  C7  UNL     1       6.640  -5.763  85.572  1.00  0.00    -0.052 A 
HETATM   13  C8  UNL     1       6.512  -6.664  84.537  1.00  0.00     0.008 A 
HETATM   14  C9  UNL     1       5.918  -7.913  84.721  1.00  0.00     0.015 A 
HETATM   15  C10 UNL     1       5.435  -8.283  85.956  1.00  0.00    -0.002 A 
HETATM   16  C19 UNL     1       5.560  -7.385  86.991  1.00  0.00     0.015 A 
HETATM   17  C20 UNL     1       6.153  -6.141  86.806  1.00  0.00     0.008 A 
BRANCH  15  18
HETATM   18  C11 UNL     1       4.807  -9.601  86.150  1.00  0.00     0.087 A 
HETATM   19  C12 UNL     1       4.425 -10.159  87.352  1.00  0.00     0.052 A 
HETATM   20  C13 UNL     1       3.877 -11.402  87.112  1.00  0.00     0.000 A 
HETATM   21  C14 UNL     1       3.339 -12.387  87.913  1.00  0.00     0.014 A 
HETATM   22  C18 UNL     1       3.950 -11.554  85.733  1.00  0.00     0.086 A 
HETATM   23  C15 UNL     1       2.856 -13.561  87.357  1.00  0.00     0.001 A 
HETATM   24  C16 UNL     1       2.918 -13.735  85.993  1.00  0.00     0.003 A 
HETATM   25  C17 UNL     1       3.457 -12.742  85.213  1.00  0.00     0.038 A 
HETATM   26  O3  UNL     1       4.498 -10.481  85.231  1.00  0.00    -0.309 OA
ENDBRANCH  15  18
ENDBRANCH  11  12
ENDBRANCH   7  11
BRANCH   1  27
HETATM   27  S1  UNL     1       8.016  -2.541  77.989  1.00  0.00     0.256 S 
HETATM   28  O1  UNL     1       7.121  -3.287  77.033  1.00  0.00    -0.201 OA
HETATM   29  O2  UNL     1       9.373  -3.150  77.891  1.00  0.00    -0.201 OA
BRANCH  27  30
HETATM   30  N1  UNL     1       8.099  -0.877  77.571  1.00  0.00    -0.324 N 
ATOM     31  H12 UNL     1       7.565  -0.455  76.811  1.00  0.00     0.169 HD
ATOM     32  H11 UNL     1       8.750  -0.384  78.184  1.00  0.00     0.169 HD
ENDBRANCH  27  30
ENDBRANCH   1  27
TORSDOF 5
ENDMDL
MODEL 2
REMARK VINA RESULT: -8.122848462      0.986      1.222
REMARK  5 active torsions:
REMARK  status: ('A' for Active; 'I' for Inactive)
REMARK    1  A    between atoms: N1_1  and  S1_4 
REMARK    2  A    between atoms: S1_4  and  C1_7 
REMARK    3  A    between atoms: C5_13  and  C6_14 
REMARK    4  A    between atoms: C6_14  and  C7_15 
REMARK    5  A    between atoms: C10_18  and  C11_19 
ROOT
HETATM    1  C1  UNL     1       8.192  -2.459  80.037  1.00  0.00     0.080 A 
HETATM    2  C2  UNL     1       6.853  -2.158  80.171  1.00  0.00     0.027 A 
HETATM    3  C3  UNL     1       6.173  -2.558  81.294  1.00  0.00     0.032 A 
HETATM    4  C4  UNL     1       6.766  -3.258  82.321  1.00  0.00     0.042 A 
HETATM    5  N2  UNL     1       6.358  -3.762  83.500  1.00  0.00    -0.359 N 
ATOM      6  H2  UNL     1       5.411  -3.694  83.872  1.00  0.00     0.166 HD
HETATM    7  C5  UNL     1       7.392  -4.369  84.115  1.00  0.00     0.014 A 
HETATM    8  C21 UNL     1       8.500  -4.245  83.291  1.00  0.00     0.039 A 
HETATM    9  C22 UNL     1       8.116  -3.551  82.167  1.00  0.00    -0.006 A 
HETATM   10  C23 UNL     1       8.810  -3.160  81.051  1.00  0.00     0.039 A 
ENDROOT
BRANCH   7  11
HETATM   11  C6  UNL     1       7.389  -5.046  85.413  1.00  0.00     0.095 C 
BRANCH  11  12
HETATM   12  C7  UNL     1       6.630  -6.332  85.383  1.00  0.00    -0.052 A 
HETATM   13  C8  UNL     1       6.621  -7.143  84.268  1.00  0.00     0.008 A 
HETATM   14  C9  UNL     1       5.913  -8.344  84.239  1.00  0.00     0.015 A 
HETATM   15  C10 UNL     1       5.192  -8.757  85.337  1.00  0.00    -0.002 A 
HETATM   16  C19 UNL     1       5.197  -7.951  86.452  1.00  0.00     0.015 A 
HETATM   17  C20 UNL     1       5.904  -6.754  86.478  1.00  0.00     0.008 A 
BRANCH  15  18
HETATM   18  C11 UNL     1       4.443 -10.025  85.306  1.00  0.00     0.087 A 
HETATM   19  C12 UNL     1       4.477 -11.022  86.259  1.00  0.00     0.052 A 
HETATM   20  C13 UNL     1       3.638 -12.044  85.866  1.00  0.00     0.000 A 
HETATM   21  C14 UNL     1       3.284 -13.261  86.409  1.00  0.00     0.014 A 
HETATM   22  C18 UNL     1       3.113 -11.614  84.654  1.00  0.00     0.086 A 
HETATM   23  C15 UNL     1       2.389 -14.091  85.753  1.00  0.00     0.001 A 
HETATM   24  C16 UNL     1       1.854 -13.688  84.551  1.00  0.00     0.003 A 
HETATM   25  C17 UNL     1       2.220 -12.472  84.026  1.00  0.00     0.038 A 
HETATM   26  O3  UNL     1       3.615 -10.441  84.382  1.00  0.00    -0.309 OA
ENDBRANCH  15  18
ENDBRANCH  11  12
ENDBRANCH   7  11
BRANCH   1  27
HETATM   27  S1  UNL     1       9.106  -1.968  78.615  1.00  0.00     0.256 S 
HETATM   28  O1  UNL     1       9.579  -3.211  77.907  1.00  0.00    -0.201 OA
HETATM   29  O2  UNL     1      10.316  -1.178  78.978  1.00  0.00    -0.201 OA
BRANCH  27  30
HETATM   30  N1  UNL     1       8.093  -1.033  77.590  1.00  0.00    -0.324 N 
ATOM     31  H12 UNL     1       7.107  -1.239  77.425  1.00  0.00     0.169 HD
ATOM     32  H11 UNL     1       8.613  -0.258  77.177  1.00  0.00     0.169 HD
ENDBRANCH  27  30
ENDBRANCH   1  27
TORSDOF 5
ENDMDL
MODEL 3
REMARK VINA RESULT: -8.083335026      5.348     10.606
REMARK  5 active torsions:
REMARK  status: ('A' for Active; 'I' for Inactive)
REMARK    1  A    between atoms: N1_1  and  S1_4 
REMARK    2  A    between atoms: S1_4  and  C1_7 
REMARK    3  A    between atoms: C5_13  and  C6_14 
REMARK    4  A    between atoms: C6_14  and  C7_15 
REMARK    5  A    between atoms: C10_18  and  C11_19 
ROOT
HETATM    1  C1  UNL     1       3.115 -12.424  83.924  1.00  0.00     0.080 A 
HETATM    2  C2  UNL     1       2.428 -12.035  82.793  1.00  0.00     0.027 A 
HETATM    3  C3  UNL     1       1.753 -10.840  82.781  1.00  0.00     0.032 A 
HETATM    4  C4  UNL     1       1.722  -9.985  83.860  1.00  0.00     0.042 A 
HETATM    5  N2  UNL     1       1.162  -8.790  84.122  1.00  0.00    -0.359 N 
ATOM      6  H2  UNL     1       0.591  -8.254  83.470  1.00  0.00     0.166 HD
HETATM    7  C5  UNL     1       1.471  -8.411  85.378  1.00  0.00     0.014 A 
HETATM    8  C21 UNL     1       2.259  -9.407  85.934  1.00  0.00     0.039 A 
HETATM    9  C22 UNL     1       2.421 -10.395  84.990  1.00  0.00    -0.006 A 
HETATM   10  C23 UNL     1       3.099 -11.586  85.018  1.00  0.00     0.039 A 
ENDROOT
BRANCH   7  11
HETATM   11  C6  UNL     1       1.069  -7.184  86.067  1.00  0.00     0.095 C 
BRANCH  11  12
HETATM   12  C7  UNL     1       1.340  -5.959  85.256  1.00  0.00    -0.052 A 
HETATM   13  C8  UNL     1       2.369  -5.910  84.340  1.00  0.00     0.008 A 
HETATM   14  C9  UNL     1       2.624  -4.767  83.582  1.00  0.00     0.015 A 
HETATM   15  C10 UNL     1       1.845  -3.641  83.731  1.00  0.00    -0.002 A 
HETATM   16  C19 UNL     1       0.818  -3.685  84.646  1.00  0.00     0.015 A 
HETATM   17  C20 UNL     1       0.566  -4.827  85.399  1.00  0.00     0.008 A 
BRANCH  15  18
HETATM   18  C11 UNL     1       2.114  -2.434  82.932  1.00  0.00     0.087 A 
HETATM   19  C12 UNL     1       1.285  -1.341  82.791  1.00  0.00     0.052 A 
HETATM   20  C13 UNL     1       1.894  -0.422  81.962  1.00  0.00     0.000 A 
HETATM   21  C14 UNL     1       1.543   0.821  81.481  1.00  0.00     0.014 A 
HETATM   22  C18 UNL     1       3.106  -1.011  81.624  1.00  0.00     0.086 A 
HETATM   23  C15 UNL     1       2.397   1.518  80.640  1.00  0.00     0.001 A 
HETATM   24  C16 UNL     1       3.602   0.956  80.289  1.00  0.00     0.003 A 
HETATM   25  C17 UNL     1       3.934  -0.284  80.780  1.00  0.00     0.038 A 
HETATM   26  O3  UNL     1       3.177  -2.173  82.214  1.00  0.00    -0.309 OA
ENDBRANCH  15  18
ENDBRANCH  11  12
ENDBRANCH   7  11
BRANCH   1  27
HETATM   27  S1  UNL     1       3.994 -13.947  83.986  1.00  0.00     0.256 S 
HETATM   28  O1  UNL     1       3.000 -15.055  84.220  1.00  0.00    -0.201 OA
HETATM   29  O2  UNL     1       4.968 -13.980  85.113  1.00  0.00    -0.201 OA
BRANCH  27  30
HETATM   30  N1  UNL     1       4.824 -14.180  82.500  1.00  0.00    -0.324 N 
ATOM     31  H12 UNL     1       4.638 -14.953  81.861  1.00  0.00     0.169 HD
ATOM     32  H11 UNL     1       5.518 -13.445  82.356  1.00  0.00     0.169 HD
ENDBRANCH  27  30
ENDBRANCH   1  27
TORSDOF 5
ENDMDL
MODEL 4
REMARK VINA RESULT: -8.023518816      0.837      1.345
REMARK  5 active torsions:
REMARK  status: ('A' for Active; 'I' for Inactive)
REMARK    1  A    between atoms: N1_1  and  S1_4 
REMARK    2  A    between atoms: S1_4  and  C1_7 
REMARK    3  A    between atoms: C5_13  and  C6_14 
REMARK    4  A    between atoms: C6_14  and  C7_15 
REMARK    5  A    between atoms: C10_18  and  C11_19 
ROOT
HETATM    1  C1  UNL     1       7.358  -2.501  80.090  1.00  0.00     0.080 A 
HETATM    2  C2  UNL     1       6.160  -1.930  80.466  1.00  0.00     0.027 A 
HETATM    3  C3  UNL     1       5.621  -2.221  81.696  1.00  0.00     0.032 A 
HETATM    4  C4  UNL     1       6.223  -3.071  82.597  1.00  0.00     0.042 A 
HETATM    5  N2  UNL     1       5.933  -3.523  83.830  1.00  0.00    -0.359 N 
ATOM      6  H2  UNL     1       5.104  -3.271  84.368  1.00  0.00     0.166 HD
HETATM    7  C5  UNL     1       6.905  -4.358  84.246  1.00  0.00     0.014 A 
HETATM    8  C21 UNL     1       7.849  -4.439  83.234  1.00  0.00     0.039 A 
HETATM    9  C22 UNL     1       7.429  -3.636  82.199  1.00  0.00    -0.006 A 
HETATM   10  C23 UNL     1       7.980  -3.356  80.975  1.00  0.00     0.039 A 
ENDROOT
BRANCH   7  11
HETATM   11  C6  UNL     1       6.988  -5.070  85.523  1.00  0.00     0.095 C 
BRANCH  11  12
HETATM   12  C7  UNL     1       6.292  -6.391  85.485  1.00  0.00    -0.052 A 
HETATM   13  C8  UNL     1       5.859  -7.014  86.636  1.00  0.00     0.008 A 
HETATM   14  C9  UNL     1       5.209  -8.248  86.603  1.00  0.00     0.015 A 
HETATM   15  C10 UNL     1       4.981  -8.886  85.404  1.00  0.00    -0.002 A 
HETATM   16  C19 UNL     1       5.413  -8.268  84.253  1.00  0.00     0.015 A 
HETATM   17  C20 UNL     1       6.060  -7.038  84.289  1.00  0.00     0.008 A 
BRANCH  15  18
HETATM   18  C11 UNL     1       4.296 -10.189  85.369  1.00  0.00     0.087 A 
HETATM   19  C12 UNL     1       4.401 -11.198  86.304  1.00  0.00     0.052 A 
HETATM   20  C13 UNL     1       3.605 -12.254  85.911  1.00  0.00     0.000 A 
HETATM   21  C14 UNL     1       3.324 -13.496  86.442  1.00  0.00     0.014 A 
HETATM   22  C18 UNL     1       3.031 -11.832  84.719  1.00  0.00     0.086 A 
HETATM   23  C15 UNL     1       2.456 -14.358  85.791  1.00  0.00     0.001 A 
HETATM   24  C16 UNL     1       1.875 -13.964  84.608  1.00  0.00     0.003 A 
HETATM   25  C17 UNL     1       2.168 -12.723  84.097  1.00  0.00     0.038 A 
HETATM   26  O3  UNL     1       3.468 -10.631  84.456  1.00  0.00    -0.309 OA
ENDBRANCH  15  18
ENDBRANCH  11  12
ENDBRANCH   7  11
BRANCH   1  27
HETATM   27  S1  UNL     1       8.087  -2.159  78.526  1.00  0.00     0.256 S 
HETATM   28  O1  UNL     1       7.287  -2.873  77.467  1.00  0.00    -0.201 OA
HETATM   29  O2  UNL     1       9.485  -2.668  78.442  1.00  0.00    -0.201 OA
BRANCH  27  30
HETATM   30  N1  UNL     1       8.074  -0.463  78.257  1.00  0.00    -0.324 N 
ATOM     31  H12 UNL     1       7.830  -0.031  77.365  1.00  0.00     0.169 HD
ATOM     32  H11 UNL     1       8.341   0.039  79.105  1.00  0.00     0.169 HD
ENDBRANCH  27  30
ENDBRANCH   1  27
TORSDOF 5
ENDMDL
MODEL 5
REMARK VINA RESULT: -8.014159263      6.823     10.099
REMARK  5 active torsions:
REMARK  status: ('A' for Active; 'I' for Inactive)
REMARK    1  A    between atoms: N1_1  and  S1_4 
REMARK    2  A    between atoms: S1_4  and  C1_7 
REMARK    3  A    between atoms: C5_13  and  C6_14 
REMARK    4  A    between atoms: C6_14  and  C7_15 
REMARK    5  A    between atoms: C10_18  and  C11_19 
ROOT
HETATM    1  C1  UNL     1       3.041 -12.389  84.223  1.00  0.00     0.080 A 
HETATM    2  C2  UNL     1       1.845 -12.387  84.909  1.00  0.00     0.027 A 
HETATM    3  C3  UNL     1       1.154 -11.212  85.071  1.00  0.00     0.032 A 
HETATM    4  C4  UNL     1       1.596 -10.006  84.574  1.00  0.00     0.042 A 
HETATM    5  N2  UNL     1       1.140  -8.740  84.581  1.00  0.00    -0.359 N 
ATOM      6  H2  UNL     1       0.272  -8.431  85.018  1.00  0.00     0.166 HD
HETATM    7  C5  UNL     1       2.006  -7.944  83.924  1.00  0.00     0.014 A 
HETATM    8  C21 UNL     1       3.053  -8.739  83.483  1.00  0.00     0.039 A 
HETATM    9  C22 UNL     1       2.803 -10.030  83.885  1.00  0.00    -0.006 A 
HETATM   10  C23 UNL     1       3.506 -11.194  83.716  1.00  0.00     0.039 A 
ENDROOT
BRANCH   7  11
HETATM   11  C6  UNL     1       1.900  -6.502  83.695  1.00  0.00     0.095 C 
BRANCH  11  12
HETATM   12  C7  UNL     1       1.431  -5.765  84.907  1.00  0.00    -0.052 A 
HETATM   13  C8  UNL     1       1.774  -6.170  86.179  1.00  0.00     0.008 A 
HETATM   14  C9  UNL     1       1.337  -5.483  87.311  1.00  0.00     0.015 A 
HETATM   15  C10 UNL     1       0.539  -4.368  87.188  1.00  0.00    -0.002 A 
HETATM   16  C19 UNL     1       0.193  -3.961  85.920  1.00  0.00     0.015 A 
HETATM   17  C20 UNL     1       0.631  -4.648  84.792  1.00  0.00     0.008 A 
BRANCH  15  18
HETATM   18  C11 UNL     1       0.077  -3.643  88.383  1.00  0.00     0.087 A 
HETATM   19  C12 UNL     1      -0.226  -2.300  88.462  1.00  0.00     0.052 A 
HETATM   20  C13 UNL     1      -0.622  -2.007  89.751  1.00  0.00     0.000 A 
HETATM   21  C14 UNL     1      -1.031  -0.857  90.394  1.00  0.00     0.014 A 
HETATM   22  C18 UNL     1      -0.541  -3.220  90.423  1.00  0.00     0.086 A 
HETATM   23  C15 UNL     1      -1.372  -0.886  91.737  1.00  0.00     0.001 A 
HETATM   24  C16 UNL     1      -1.300  -2.075  92.425  1.00  0.00     0.003 A 
HETATM   25  C17 UNL     1      -0.891  -3.209  91.766  1.00  0.00     0.038 A 
HETATM   26  O3  UNL     1      -0.131  -4.128  89.581  1.00  0.00    -0.309 OA
ENDBRANCH  15  18
ENDBRANCH  11  12
ENDBRANCH   7  11
BRANCH   1  27
HETATM   27  S1  UNL     1       3.964 -13.870  83.991  1.00  0.00     0.256 S 
HETATM   28  O1  UNL     1       3.038 -15.040  84.202  1.00  0.00    -0.201 OA
HETATM   29  O2  UNL     1       5.069 -13.996  84.982  1.00  0.00    -0.201 OA
BRANCH  27  30
HETATM   30  N1  UNL     1       4.612 -13.887  82.400  1.00  0.00    -0.324 N 
ATOM     31  H12 UNL     1       4.343 -14.563  81.685  1.00  0.00     0.169 HD
ATOM     32  H11 UNL     1       5.292 -13.135  82.279  1.00  0.00     0.169 HD
ENDBRANCH  27  30
ENDBRANCH   1  27
TORSDOF 5
ENDMDL
