MODEL 1
REMARK VINA RESULT: -8.797810649      0.000      0.000
REMARK  6 active torsions:
REMARK  status: ('A' for Active; 'I' for Inactive)
REMARK    1  A    between atoms: C5_5  and  N1_6 
REMARK    2  A    between atoms: N1_6  and  C6_8 
REMARK    3  A    between atoms: C9_13  and  N3_14 
REMARK    4  A    between atoms: N3_14  and  C10_16 
REMARK    5  A    between atoms: C13_19  and  C14_20 
REMARK    6  A    between atoms: C15_21  and  C16_22 
ROOT
HETATM    1  C16 UNL     1       0.849  -3.929  83.930  1.00  0.00    -0.035 A 
HETATM    2  C17 UNL     1       1.082  -2.845  83.119  1.00  0.00     0.011 A 
HETATM    3  C18 UNL     1       0.919  -1.544  83.569  1.00  0.00     0.002 A 
HETATM    4  C19 UNL     1       0.512  -1.290  84.859  1.00  0.00     0.023 A 
HETATM    5  C20 UNL     1       0.272  -2.351  85.692  1.00  0.00     0.045 A 
HETATM    6  C21 UNL     1      -0.157  -2.079  87.054  1.00  0.00     0.099 C 
HETATM    7  N4  UNL     1      -0.484  -1.870  88.146  1.00  0.00    -0.191 NA
HETATM    8  C22 UNL     1       0.439  -3.628  85.232  1.00  0.00     0.034 A 
ENDROOT
BRANCH   1   9
HETATM    9  C15 UNL     1       1.007  -5.311  83.505  1.00  0.00     0.012 C 
HETATM   10  C14 UNL     1       1.708  -6.173  84.175  1.00  0.00     0.012 C 
BRANCH  10  11
HETATM   11  C13 UNL     1       1.882  -7.581  83.763  1.00  0.00    -0.036 A 
HETATM   12  C12 UNL     1       0.859  -8.491  83.960  1.00  0.00     0.013 A 
HETATM   13  C11 UNL     1       0.951  -9.818  83.602  1.00  0.00     0.030 A 
HETATM   14  C10 UNL     1       2.105 -10.292  83.015  1.00  0.00     0.033 A 
HETATM   15  C24 UNL     1       3.129  -9.392  82.815  1.00  0.00     0.030 A 
HETATM   16  C23 UNL     1       3.034  -8.049  83.179  1.00  0.00     0.013 A 
BRANCH  14  17
HETATM   17  N3  UNL     1       2.239 -11.668  82.627  1.00  0.00    -0.342 N 
ATOM     18  H3  UNL     1       1.698 -12.016  81.836  1.00  0.00     0.167 HD
BRANCH  17  19
HETATM   19  C9  UNL     1       3.028 -12.474  83.254  1.00  0.00     0.122 A 
HETATM   20  C8  UNL     1       3.745 -13.458  82.604  1.00  0.00     0.066 A 
HETATM   21  C7  UNL     1       4.578 -14.298  83.326  1.00  0.00     0.110 A 
HETATM   22  N2  UNL     1       4.658 -14.116  84.673  1.00  0.00    -0.202 N 
HETATM   23  C6  UNL     1       3.962 -13.158  85.310  1.00  0.00     0.685 A 
ATOM     24  H2  UNL     1       5.266 -14.728  85.217  1.00  0.00     0.183 HD
HETATM   25  N5  UNL     1       3.148 -12.343  84.583  1.00  0.00    -0.176 N 
ATOM     26  H5  UNL     1       2.617 -11.614  85.061  1.00  0.00     0.186 HD
BRANCH  23  27
HETATM   27  N1  UNL     1       4.021 -12.967  86.584  1.00  0.00    -0.176 N 
ATOM     28  H1  UNL     1       3.804 -13.737  87.217  1.00  0.00     0.186 HD
BRANCH  27  29
HETATM   29  C5  UNL     1       4.381 -11.707  87.118  1.00  0.00     0.121 A 
HETATM   30  C4  UNL     1       4.764 -11.463  88.406  1.00  0.00     0.051 A 
HETATM   31  C3  UNL     1       5.022 -10.093  88.481  1.00  0.00     0.028 A 
HETATM   32  C2  UNL     1       4.787  -9.543  87.235  1.00  0.00     0.007 A 
HETATM   33  C1  UNL     1       4.934  -8.114  86.856  1.00  0.00     0.068 C 
HETATM   34  N6  UNL     1       4.398 -10.561  86.432  1.00  0.00    -0.346 N 
ATOM     35  H6  UNL     1       4.153 -10.467  85.446  1.00  0.00     0.167 HD
ENDBRANCH  27  29
ENDBRANCH  23  27
ENDBRANCH  17  19
ENDBRANCH  14  17
ENDBRANCH  10  11
ENDBRANCH   1   9
TORSDOF 6
ENDMDL
MODEL 2
REMARK VINA RESULT: -8.746475384      1.485      1.669
REMARK  6 active torsions:
REMARK  status: ('A' for Active; 'I' for Inactive)
REMARK    1  A    between atoms: C5_5  and  N1_6 
REMARK    2  A    between atoms: N1_6  and  C6_8 
REMARK    3  A    between atoms: C9_13  and  N3_14 
REMARK    4  A    between atoms: N3_14  and  C10_16 
REMARK    5  A    between atoms: C13_19  and  C14_20 
REMARK    6  A    between atoms: C15_21  and  C16_22 
ROOT
HETATM    1  C16 UNL     1       0.405  -4.258  84.187  1.00  0.00    -0.035 A 
HETATM    2  C17 UNL     1      -0.102  -3.246  83.408  1.00  0.00     0.011 A 
HETATM    3  C18 UNL     1      -0.663  -2.105  83.961  1.00  0.00     0.002 A 
HETATM    4  C19 UNL     1      -0.733  -1.945  85.327  1.00  0.00     0.023 A 
HETATM    5  C20 UNL     1      -0.235  -2.938  86.130  1.00  0.00     0.045 A 
HETATM    6  C21 UNL     1      -0.310  -2.765  87.572  1.00  0.00     0.099 C 
HETATM    7  N4  UNL     1      -0.351  -2.627  88.721  1.00  0.00    -0.191 NA
HETATM    8  C22 UNL     1       0.315  -4.055  85.567  1.00  0.00     0.034 A 
ENDROOT
BRANCH   1   9
HETATM    9  C15 UNL     1       1.002  -5.472  83.655  1.00  0.00     0.012 C 
HETATM   10  C14 UNL     1       1.366  -6.463  84.410  1.00  0.00     0.012 C 
BRANCH  10  11
HETATM   11  C13 UNL     1       1.974  -7.705  83.892  1.00  0.00    -0.036 A 
HETATM   12  C12 UNL     1       1.186  -8.818  83.662  1.00  0.00     0.013 A 
HETATM   13  C11 UNL     1       1.684 -10.008  83.181  1.00  0.00     0.030 A 
HETATM   14  C10 UNL     1       3.030 -10.128  82.905  1.00  0.00     0.033 A 
HETATM   15  C24 UNL     1       3.822  -9.023  83.130  1.00  0.00     0.030 A 
HETATM   16  C23 UNL     1       3.315  -7.818  83.618  1.00  0.00     0.013 A 
BRANCH  14  17
HETATM   17  N3  UNL     1       3.587 -11.351  82.401  1.00  0.00    -0.342 N 
ATOM     18  H3  UNL     1       4.036 -11.353  81.486  1.00  0.00     0.167 HD
BRANCH  17  19
HETATM   19  C9  UNL     1       3.534 -12.448  83.079  1.00  0.00     0.122 A 
HETATM   20  C8  UNL     1       3.938 -13.659  82.554  1.00  0.00     0.066 A 
HETATM   21  C7  UNL     1       3.860 -14.808  83.325  1.00  0.00     0.110 A 
HETATM   22  N2  UNL     1       3.379 -14.695  84.594  1.00  0.00    -0.202 N 
HETATM   23  C6  UNL     1       2.984 -13.517  85.110  1.00  0.00     0.685 A 
ATOM     24  H2  UNL     1       3.314 -15.532  85.172  1.00  0.00     0.183 HD
HETATM   25  N5  UNL     1       3.069 -12.399  84.335  1.00  0.00    -0.176 N 
ATOM     26  H5  UNL     1       2.771 -11.502  84.721  1.00  0.00     0.186 HD
BRANCH  23  27
HETATM   27  N1  UNL     1       2.525 -13.385  86.307  1.00  0.00    -0.176 N 
ATOM     28  H1  UNL     1       2.340 -14.217  86.867  1.00  0.00     0.186 HD
BRANCH  27  29
HETATM   29  C5  UNL     1       2.275 -12.106  86.858  1.00  0.00     0.121 A 
HETATM   30  C4  UNL     1       3.084 -11.437  87.731  1.00  0.00     0.051 A 
HETATM   31  C3  UNL     1       2.445 -10.226  88.002  1.00  0.00     0.028 A 
HETATM   32  C2  UNL     1       1.264 -10.194  87.285  1.00  0.00     0.007 A 
HETATM   33  C1  UNL     1       0.266  -9.093  87.273  1.00  0.00     0.068 C 
HETATM   34  N6  UNL     1       1.198 -11.359  86.600  1.00  0.00    -0.346 N 
ATOM     35  H6  UNL     1       0.436 -11.628  85.977  1.00  0.00     0.167 HD
ENDBRANCH  27  29
ENDBRANCH  23  27
ENDBRANCH  17  19
ENDBRANCH  14  17
ENDBRANCH  10  11
ENDBRANCH   1   9
TORSDOF 6
ENDMDL
MODEL 3
REMARK VINA RESULT: -8.718836055      2.464      9.720
REMARK  6 active torsions:
REMARK  status: ('A' for Active; 'I' for Inactive)
REMARK    1  A    between atoms: C5_5  and  N1_6 
REMARK    2  A    between atoms: N1_6  and  C6_8 
REMARK    3  A    between atoms: C9_13  and  N3_14 
REMARK    4  A    between atoms: N3_14  and  C10_16 
REMARK    5  A    between atoms: C13_19  and  C14_20 
REMARK    6  A    between atoms: C15_21  and  C16_22 
ROOT
HETATM    1  C16 UNL     1       2.311 -10.460  83.884  1.00  0.00    -0.035 A 
HETATM    2  C17 UNL     1       2.870 -10.326  82.637  1.00  0.00     0.011 A 
HETATM    3  C18 UNL     1       3.326 -11.419  81.916  1.00  0.00     0.002 A 
HETATM    4  C19 UNL     1       3.235 -12.692  82.433  1.00  0.00     0.023 A 
HETATM    5  C20 UNL     1       2.682 -12.857  83.676  1.00  0.00     0.045 A 
HETATM    6  C21 UNL     1       2.587 -14.202  84.219  1.00  0.00     0.099 C 
HETATM    7  N4  UNL     1       2.493 -15.273  84.651  1.00  0.00    -0.191 NA
HETATM    8  C22 UNL     1       2.236 -11.768  84.372  1.00  0.00     0.034 A 
ENDROOT
BRANCH   1   9
HETATM    9  C15 UNL     1       1.818  -9.345  84.678  1.00  0.00     0.012 C 
HETATM   10  C14 UNL     1       1.688  -9.408  85.968  1.00  0.00     0.012 C 
BRANCH  10  11
HETATM   11  C13 UNL     1       1.190  -8.289  86.794  1.00  0.00    -0.036 A 
HETATM   12  C12 UNL     1       2.038  -7.253  87.140  1.00  0.00     0.013 A 
HETATM   13  C11 UNL     1       1.644  -6.180  87.907  1.00  0.00     0.030 A 
HETATM   14  C10 UNL     1       0.346  -6.105  88.367  1.00  0.00     0.033 A 
HETATM   15  C24 UNL     1      -0.506  -7.134  88.026  1.00  0.00     0.030 A 
HETATM   16  C23 UNL     1      -0.104  -8.220  87.250  1.00  0.00     0.013 A 
BRANCH  14  17
HETATM   17  N3  UNL     1      -0.104  -5.002  89.168  1.00  0.00    -0.342 N 
ATOM     18  H3  UNL     1      -0.477  -5.184  90.100  1.00  0.00     0.167 HD
BRANCH  17  19
HETATM   19  C9  UNL     1      -0.048  -3.787  88.739  1.00  0.00     0.122 A 
HETATM   20  C8  UNL     1       0.507  -2.766  89.483  1.00  0.00     0.066 A 
HETATM   21  C7  UNL     1       0.541  -1.478  88.975  1.00  0.00     0.110 A 
HETATM   22  N2  UNL     1       0.016  -1.265  87.737  1.00  0.00    -0.202 N 
HETATM   23  C6  UNL     1      -0.525  -2.256  87.006  1.00  0.00     0.685 A 
ATOM     24  H2  UNL     1       0.034  -0.322  87.350  1.00  0.00     0.183 HD
HETATM   25  N5  UNL     1      -0.549  -3.517  87.525  1.00  0.00    -0.176 N 
ATOM     26  H5  UNL     1      -0.959  -4.273  86.975  1.00  0.00     0.186 HD
BRANCH  23  27
HETATM   27  N1  UNL     1      -1.027  -2.080  85.832  1.00  0.00    -0.176 N 
ATOM     28  H1  UNL     1      -1.943  -1.640  85.740  1.00  0.00     0.186 HD
BRANCH  27  29
HETATM   29  C5  UNL     1      -0.330  -2.486  84.670  1.00  0.00     0.121 A 
HETATM   30  C4  UNL     1       0.244  -1.656  83.749  1.00  0.00     0.051 A 
HETATM   31  C3  UNL     1       0.814  -2.486  82.782  1.00  0.00     0.028 A 
HETATM   32  C2  UNL     1       0.569  -3.797  83.143  1.00  0.00     0.007 A 
HETATM   33  C1  UNL     1       0.994  -5.013  82.402  1.00  0.00     0.068 C 
HETATM   34  N6  UNL     1      -0.132  -3.754  84.301  1.00  0.00    -0.346 N 
ATOM     35  H6  UNL     1      -0.460  -4.570  84.815  1.00  0.00     0.167 HD
ENDBRANCH  27  29
ENDBRANCH  23  27
ENDBRANCH  17  19
ENDBRANCH  14  17
ENDBRANCH  10  11
ENDBRANCH   1   9
TORSDOF 6
ENDMDL
MODEL 4
REMARK VINA RESULT: -8.652103731      2.001      2.498
REMARK  6 active torsions:
REMARK  status: ('A' for Active; 'I' for Inactive)
REMARK    1  A    between atoms: C5_5  and  N1_6 
REMARK    2  A    between atoms: N1_6  and  C6_8 
REMARK    3  A    between atoms: C9_13  and  N3_14 
REMARK    4  A    between atoms: N3_14  and  C10_16 
REMARK    5  A    between atoms: C13_19  and  C14_20 
REMARK    6  A    between atoms: C15_21  and  C16_22 
ROOT
HETATM    1  C16 UNL     1       0.440  -5.385  87.093  1.00  0.00    -0.035 A 
HETATM    2  C17 UNL     1       0.241  -4.152  86.521  1.00  0.00     0.011 A 
HETATM    3  C18 UNL     1      -0.225  -3.070  87.252  1.00  0.00     0.002 A 
HETATM    4  C19 UNL     1      -0.509  -3.196  88.594  1.00  0.00     0.023 A 
HETATM    5  C20 UNL     1      -0.320  -4.415  89.192  1.00  0.00     0.045 A 
HETATM    6  C21 UNL     1      -0.621  -4.545  90.608  1.00  0.00     0.099 C 
HETATM    7  N4  UNL     1      -0.843  -4.652  91.740  1.00  0.00    -0.191 NA
HETATM    8  C22 UNL     1       0.141  -5.470  88.455  1.00  0.00     0.034 A 
ENDROOT
BRANCH   1   9
HETATM    9  C15 UNL     1       0.927  -6.548  86.368  1.00  0.00     0.012 C 
HETATM   10  C14 UNL     1       1.232  -6.509  85.107  1.00  0.00     0.012 C 
BRANCH  10  11
HETATM   11  C13 UNL     1       1.729  -7.676  84.351  1.00  0.00    -0.036 A 
HETATM   12  C12 UNL     1       0.928  -8.793  84.196  1.00  0.00     0.013 A 
HETATM   13  C11 UNL     1       1.324  -9.916  83.505  1.00  0.00     0.030 A 
HETATM   14  C10 UNL     1       2.575  -9.960  82.927  1.00  0.00     0.033 A 
HETATM   15  C24 UNL     1       3.380  -8.851  83.076  1.00  0.00     0.030 A 
HETATM   16  C23 UNL     1       2.976  -7.715  83.777  1.00  0.00     0.013 A 
BRANCH  14  17
HETATM   17  N3  UNL     1       3.025 -11.112  82.198  1.00  0.00    -0.342 N 
ATOM     18  H3  UNL     1       2.937 -11.123  81.181  1.00  0.00     0.167 HD
BRANCH  17  19
HETATM   19  C9  UNL     1       3.538 -12.134  82.796  1.00  0.00     0.122 A 
HETATM   20  C8  UNL     1       3.964 -13.253  82.110  1.00  0.00     0.066 A 
HETATM   21  C7  UNL     1       4.508 -14.323  82.802  1.00  0.00     0.110 A 
HETATM   22  N2  UNL     1       4.603 -14.227  84.157  1.00  0.00    -0.202 N 
HETATM   23  C6  UNL     1       4.190 -13.138  84.829  1.00  0.00     0.685 A 
ATOM     24  H2  UNL     1       5.000 -15.008  84.679  1.00  0.00     0.183 HD
HETATM   25  N5  UNL     1       3.658 -12.096  84.131  1.00  0.00    -0.176 N 
ATOM     26  H5  UNL     1       3.343 -11.267  84.636  1.00  0.00     0.186 HD
BRANCH  23  27
HETATM   27  N1  UNL     1       4.270 -13.023  86.111  1.00  0.00    -0.176 N 
ATOM     28  H1  UNL     1       4.763 -13.737  86.648  1.00  0.00     0.186 HD
BRANCH  27  29
HETATM   29  C5  UNL     1       3.686 -11.925  86.785  1.00  0.00     0.121 A 
HETATM   30  C4  UNL     1       4.348 -11.019  87.564  1.00  0.00     0.051 A 
HETATM   31  C3  UNL     1       3.382 -10.120  88.020  1.00  0.00     0.028 A 
HETATM   32  C2  UNL     1       2.159 -10.506  87.505  1.00  0.00     0.007 A 
HETATM   33  C1  UNL     1       0.852  -9.837  87.731  1.00  0.00     0.068 C 
HETATM   34  N6  UNL     1       2.388 -11.611  86.756  1.00  0.00    -0.346 N 
ATOM     35  H6  UNL     1       1.674 -12.129  86.245  1.00  0.00     0.167 HD
ENDBRANCH  27  29
ENDBRANCH  23  27
ENDBRANCH  17  19
ENDBRANCH  14  17
ENDBRANCH  10  11
ENDBRANCH   1   9
TORSDOF 6
ENDMDL
MODEL 5
REMARK VINA RESULT: -8.642665753      1.343      2.015
REMARK  6 active torsions:
REMARK  status: ('A' for Active; 'I' for Inactive)
REMARK    1  A    between atoms: C5_5  and  N1_6 
REMARK    2  A    between atoms: N1_6  and  C6_8 
REMARK    3  A    between atoms: C9_13  and  N3_14 
REMARK    4  A    between atoms: N3_14  and  C10_16 
REMARK    5  A    between atoms: C13_19  and  C14_20 
REMARK    6  A    between atoms: C15_21  and  C16_22 
ROOT
HETATM    1  C16 UNL     1       0.861  -3.950  83.916  1.00  0.00    -0.035 A 
HETATM    2  C17 UNL     1       0.396  -3.569  85.151  1.00  0.00     0.011 A 
HETATM    3  C18 UNL     1       0.291  -2.235  85.515  1.00  0.00     0.002 A 
HETATM    4  C19 UNL     1       0.656  -1.235  84.642  1.00  0.00     0.023 A 
HETATM    5  C20 UNL     1       1.124  -1.586  83.402  1.00  0.00     0.045 A 
HETATM    6  C21 UNL     1       1.508  -0.527  82.482  1.00  0.00     0.099 C 
HETATM    7  N4  UNL     1       1.800   0.311  81.738  1.00  0.00    -0.191 NA
HETATM    8  C22 UNL     1       1.219  -2.906  83.060  1.00  0.00     0.034 A 
ENDROOT
BRANCH   1   9
HETATM    9  C15 UNL     1       0.988  -5.335  83.488  1.00  0.00     0.012 C 
HETATM   10  C14 UNL     1       1.663  -6.216  84.161  1.00  0.00     0.012 C 
BRANCH  10  11
HETATM   11  C13 UNL     1       1.806  -7.626  83.746  1.00  0.00    -0.036 A 
HETATM   12  C12 UNL     1       2.992  -8.067  83.189  1.00  0.00     0.013 A 
HETATM   13  C11 UNL     1       3.196  -9.366  82.779  1.00  0.00     0.030 A 
HETATM   14  C10 UNL     1       2.188 -10.296  82.919  1.00  0.00     0.033 A 
HETATM   15  C24 UNL     1       1.002  -9.865  83.474  1.00  0.00     0.030 A 
HETATM   16  C23 UNL     1       0.798  -8.549  83.888  1.00  0.00     0.013 A 
BRANCH  14  17
HETATM   17  N3  UNL     1       2.361 -11.660  82.505  1.00  0.00    -0.342 N 
ATOM     18  H3  UNL     1       1.919 -11.978  81.642  1.00  0.00     0.167 HD
BRANCH  17  19
HETATM   19  C9  UNL     1       3.062 -12.493  83.197  1.00  0.00     0.122 A 
HETATM   20  C8  UNL     1       3.750 -13.539  82.616  1.00  0.00     0.066 A 
HETATM   21  C7  UNL     1       4.488 -14.406  83.406  1.00  0.00     0.110 A 
HETATM   22  N2  UNL     1       4.507 -14.187  84.750  1.00  0.00    -0.202 N 
HETATM   23  C6  UNL     1       3.840 -13.168  85.320  1.00  0.00     0.685 A 
ATOM     24  H2  UNL     1       5.046 -14.817  85.344  1.00  0.00     0.183 HD
HETATM   25  N5  UNL     1       3.120 -12.327  84.526  1.00  0.00    -0.176 N 
ATOM     26  H5  UNL     1       2.612 -11.552  84.954  1.00  0.00     0.186 HD
BRANCH  23  27
HETATM   27  N1  UNL     1       3.844 -12.940  86.589  1.00  0.00    -0.176 N 
ATOM     28  H1  UNL     1       3.539 -13.672  87.231  1.00  0.00     0.186 HD
BRANCH  27  29
HETATM   29  C5  UNL     1       4.263 -11.692  87.107  1.00  0.00     0.121 A 
HETATM   30  C4  UNL     1       4.673 -11.452  88.388  1.00  0.00     0.051 A 
HETATM   31  C3  UNL     1       4.988 -10.093  88.446  1.00  0.00     0.028 A 
HETATM   32  C2  UNL     1       4.760  -9.545  87.199  1.00  0.00     0.007 A 
HETATM   33  C1  UNL     1       4.961  -8.127  86.804  1.00  0.00     0.068 C 
HETATM   34  N6  UNL     1       4.318 -10.554  86.410  1.00  0.00    -0.346 N 
ATOM     35  H6  UNL     1       4.064 -10.458  85.427  1.00  0.00     0.167 HD
ENDBRANCH  27  29
ENDBRANCH  23  27
ENDBRANCH  17  19
ENDBRANCH  14  17
ENDBRANCH  10  11
ENDBRANCH   1   9
TORSDOF 6
ENDMDL
