MODEL 1
REMARK VINA RESULT: -8.500449115      0.000      0.000
REMARK  4 active torsions:
REMARK  status: ('A' for Active; 'I' for Inactive)
REMARK    1  A    between atoms: S1_2  and  N1_4 
REMARK    2  A    between atoms: S1_2  and  C14_23 
REMARK    3  A    between atoms: N1_4  and  C1_6 
REMARK    4  A    between atoms: C6_13  and  C7_14 
ROOT
HETATM    1  C1  UNL     1       3.889  -6.299  86.890  1.00  0.00     0.071 A 
HETATM    2  C2  UNL     1       4.802  -5.391  87.336  1.00  0.00     0.032 A 
HETATM    3  C3  UNL     1       6.003  -5.746  87.911  1.00  0.00     0.005 A 
HETATM    4  C4  UNL     1       6.308  -7.067  88.051  1.00  0.00     0.032 A 
HETATM    5  C5  UNL     1       5.430  -8.023  87.622  1.00  0.00     0.063 A 
HETATM    6  N2  UNL     1       5.417  -9.371  87.608  1.00  0.00    -0.340 N 
ATOM      7  H2  UNL     1       6.173  -9.955  87.967  1.00  0.00     0.167 HD
HETATM    8  C6  UNL     1       4.289  -9.851  87.062  1.00  0.00     0.116 A 
HETATM    9  N3  UNL     1       3.572  -8.762  86.722  1.00  0.00    -0.338 N 
ATOM     10  H3  UNL     1       2.654  -8.783  86.279  1.00  0.00     0.167 HD
HETATM   11  C13 UNL     1       4.241  -7.641  87.052  1.00  0.00     0.088 A 
ENDROOT
BRANCH   1  12
HETATM   12  N1  UNL     1       2.655  -6.014  86.290  1.00  0.00    -0.277 N 
ATOM     13  H1  UNL     1       1.870  -5.795  86.905  1.00  0.00     0.179 HD
BRANCH  12  14
HETATM   14  S1  UNL     1       2.364  -6.003  84.594  1.00  0.00     0.279 S 
HETATM   15  O1  UNL     1       1.051  -5.355  84.262  1.00  0.00    -0.199 OA
HETATM   16  O2  UNL     1       3.445  -5.249  83.877  1.00  0.00    -0.199 OA
BRANCH  14  17
HETATM   17  C14 UNL     1       2.431  -7.649  84.014  1.00  0.00     0.150 A 
HETATM   18  C15 UNL     1       1.516  -8.644  84.299  1.00  0.00     0.057 A 
HETATM   19  C16 UNL     1       1.905  -9.801  83.669  1.00  0.00    -0.007 A 
HETATM   20  C17 UNL     1       1.411 -11.084  83.583  1.00  0.00     0.014 A 
HETATM   21  C21 UNL     1       3.071  -9.508  82.992  1.00  0.00     0.043 A 
HETATM   22  C18 UNL     1       2.018 -12.087  82.860  1.00  0.00     0.001 A 
HETATM   23  C19 UNL     1       3.196 -11.788  82.175  1.00  0.00     0.002 A 
HETATM   24  C20 UNL     1       3.698 -10.507  82.255  1.00  0.00     0.030 A 
HETATM   25  N4  UNL     1       3.358  -8.211  83.220  1.00  0.00    -0.345 N 
ATOM     26  H4  UNL     1       4.169  -7.723  82.841  1.00  0.00     0.167 HD
ENDBRANCH  14  17
ENDBRANCH  12  14
ENDBRANCH   1  12
BRANCH   8  27
HETATM   27  C7  UNL     1       3.938 -11.254  86.884  1.00  0.00     0.008 A 
HETATM   28  C8  UNL     1       4.409 -11.930  85.780  1.00  0.00     0.015 A 
HETATM   29  C9  UNL     1       4.095 -13.257  85.583  1.00  0.00     0.001 A 
HETATM   30  C10 UNL     1       3.303 -13.936  86.484  1.00  0.00     0.000 A 
HETATM   31  C11 UNL     1       2.829 -13.260  87.593  1.00  0.00     0.001 A 
HETATM   32  C12 UNL     1       3.149 -11.945  87.774  1.00  0.00     0.015 A 
ENDBRANCH   8  27
TORSDOF 4
ENDMDL
MODEL 2
REMARK VINA RESULT: -8.400439592      0.483      1.392
REMARK  4 active torsions:
REMARK  status: ('A' for Active; 'I' for Inactive)
REMARK    1  A    between atoms: S1_2  and  N1_4 
REMARK    2  A    between atoms: S1_2  and  C14_23 
REMARK    3  A    between atoms: N1_4  and  C1_6 
REMARK    4  A    between atoms: C6_13  and  C7_14 
ROOT
HETATM    1  C1  UNL     1       3.867  -6.334  86.912  1.00  0.00     0.071 A 
HETATM    2  C2  UNL     1       4.771  -5.421  87.368  1.00  0.00     0.032 A 
HETATM    3  C3  UNL     1       5.974  -5.770  87.941  1.00  0.00     0.005 A 
HETATM    4  C4  UNL     1       6.293  -7.089  88.067  1.00  0.00     0.032 A 
HETATM    5  C5  UNL     1       5.426  -8.050  87.627  1.00  0.00     0.063 A 
HETATM    6  N2  UNL     1       5.427  -9.398  87.598  1.00  0.00    -0.340 N 
ATOM      7  H2  UNL     1       6.188  -9.978  87.953  1.00  0.00     0.167 HD
HETATM    8  C6  UNL     1       4.304  -9.883  87.046  1.00  0.00     0.116 A 
HETATM    9  N3  UNL     1       3.576  -8.798  86.718  1.00  0.00    -0.338 N 
ATOM     10  H3  UNL     1       2.658  -8.824  86.274  1.00  0.00     0.167 HD
HETATM   11  C13 UNL     1       4.233  -7.674  87.060  1.00  0.00     0.088 A 
ENDROOT
BRANCH   1  12
HETATM   12  N1  UNL     1       2.631  -6.055  86.314  1.00  0.00    -0.277 N 
ATOM     13  H1  UNL     1       1.846  -5.840  86.930  1.00  0.00     0.179 HD
BRANCH  12  14
HETATM   14  S1  UNL     1       2.337  -6.047  84.618  1.00  0.00     0.279 S 
HETATM   15  O1  UNL     1       1.020  -5.404  84.289  1.00  0.00    -0.199 OA
HETATM   16  O2  UNL     1       3.414  -5.289  83.899  1.00  0.00    -0.199 OA
BRANCH  14  17
HETATM   17  C14 UNL     1       2.409  -7.693  84.040  1.00  0.00     0.150 A 
HETATM   18  C15 UNL     1       3.376  -8.213  83.201  1.00  0.00     0.057 A 
HETATM   19  C16 UNL     1       3.096  -9.537  82.965  1.00  0.00    -0.007 A 
HETATM   20  C17 UNL     1       3.680 -10.546  82.233  1.00  0.00     0.014 A 
HETATM   21  C21 UNL     1       1.946  -9.827  83.668  1.00  0.00     0.043 A 
HETATM   22  C18 UNL     1       3.178 -11.827  82.166  1.00  0.00     0.001 A 
HETATM   23  C19 UNL     1       2.014 -12.119  82.878  1.00  0.00     0.002 A 
HETATM   24  C20 UNL     1       1.422 -11.115  83.614  1.00  0.00     0.030 A 
HETATM   25  N4  UNL     1       1.560  -8.701  84.300  1.00  0.00    -0.345 N 
ATOM     26  H4  UNL     1       0.736  -8.625  84.896  1.00  0.00     0.167 HD
ENDBRANCH  14  17
ENDBRANCH  12  14
ENDBRANCH   1  12
BRANCH   8  27
HETATM   27  C7  UNL     1       3.967 -11.288  86.853  1.00  0.00     0.008 A 
HETATM   28  C8  UNL     1       3.194 -11.929  87.796  1.00  0.00     0.015 A 
HETATM   29  C9  UNL     1       2.858 -13.256  87.643  1.00  0.00     0.001 A 
HETATM   30  C10 UNL     1       3.287 -13.971  86.545  1.00  0.00     0.000 A 
HETATM   31  C11 UNL     1       4.063 -13.330  85.597  1.00  0.00     0.001 A 
HETATM   32  C12 UNL     1       4.387 -12.014  85.763  1.00  0.00     0.015 A 
ENDBRANCH   8  27
TORSDOF 4
ENDMDL
MODEL 3
REMARK VINA RESULT: -8.213855931      2.543      5.605
REMARK  4 active torsions:
REMARK  status: ('A' for Active; 'I' for Inactive)
REMARK    1  A    between atoms: S1_2  and  N1_4 
REMARK    2  A    between atoms: S1_2  and  C14_23 
REMARK    3  A    between atoms: N1_4  and  C1_6 
REMARK    4  A    between atoms: C6_13  and  C7_14 
ROOT
HETATM    1  C1  UNL     1       3.781 -12.480  85.203  1.00  0.00     0.071 A 
HETATM    2  C2  UNL     1       3.199 -13.606  85.703  1.00  0.00     0.032 A 
HETATM    3  C3  UNL     1       2.884 -13.766  87.035  1.00  0.00     0.005 A 
HETATM    4  C4  UNL     1       3.161 -12.758  87.910  1.00  0.00     0.032 A 
HETATM    5  C5  UNL     1       3.744 -11.604  87.465  1.00  0.00     0.063 A 
HETATM    6  N2  UNL     1       4.140 -10.450  88.038  1.00  0.00    -0.340 N 
ATOM      7  H2  UNL     1       4.046 -10.243  89.033  1.00  0.00     0.167 HD
HETATM    8  C6  UNL     1       4.672  -9.607  87.140  1.00  0.00     0.116 A 
HETATM    9  N3  UNL     1       4.605 -10.258  85.963  1.00  0.00    -0.338 N 
ATOM     10  H3  UNL     1       4.931  -9.886  85.071  1.00  0.00     0.167 HD
HETATM   11  C13 UNL     1       4.048 -11.471  86.132  1.00  0.00     0.088 A 
ENDROOT
BRANCH   1  12
HETATM   12  N1  UNL     1       4.122 -12.244  83.864  1.00  0.00    -0.277 N 
ATOM     13  H1  UNL     1       5.032 -12.576  83.544  1.00  0.00     0.179 HD
BRANCH  12  14
HETATM   14  S1  UNL     1       3.122 -11.436  82.720  1.00  0.00     0.279 S 
HETATM   15  O1  UNL     1       3.782 -11.346  81.374  1.00  0.00    -0.199 OA
HETATM   16  O2  UNL     1       1.821 -12.165  82.549  1.00  0.00    -0.199 OA
BRANCH  14  17
HETATM   17  C14 UNL     1       2.732  -9.855  83.350  1.00  0.00     0.150 A 
HETATM   18  C15 UNL     1       3.326  -8.666  82.973  1.00  0.00     0.057 A 
HETATM   19  C16 UNL     1       2.759  -7.638  83.688  1.00  0.00    -0.007 A 
HETATM   20  C17 UNL     1       2.932  -6.274  83.746  1.00  0.00     0.014 A 
HETATM   21  C21 UNL     1       1.810  -8.208  84.510  1.00  0.00     0.043 A 
HETATM   22  C18 UNL     1       2.209  -5.449  84.580  1.00  0.00     0.001 A 
HETATM   23  C19 UNL     1       1.248  -6.027  85.410  1.00  0.00     0.002 A 
HETATM   24  C20 UNL     1       1.068  -7.392  85.359  1.00  0.00     0.030 A 
HETATM   25  N4  UNL     1       1.819  -9.536  84.283  1.00  0.00    -0.345 N 
ATOM     26  H4  UNL     1       1.215 -10.209  84.755  1.00  0.00     0.167 HD
ENDBRANCH  14  17
ENDBRANCH  12  14
ENDBRANCH   1  12
BRANCH   8  27
HETATM   27  C7  UNL     1       5.202  -8.275  87.406  1.00  0.00     0.008 A 
HETATM   28  C8  UNL     1       4.556  -7.178  86.881  1.00  0.00     0.015 A 
HETATM   29  C9  UNL     1       5.031  -5.906  87.113  1.00  0.00     0.001 A 
HETATM   30  C10 UNL     1       6.162  -5.703  87.875  1.00  0.00     0.000 A 
HETATM   31  C11 UNL     1       6.812  -6.802  88.403  1.00  0.00     0.001 A 
HETATM   32  C12 UNL     1       6.329  -8.057  88.163  1.00  0.00     0.015 A 
ENDBRANCH   8  27
TORSDOF 4
ENDMDL
MODEL 4
REMARK VINA RESULT: -8.137557106      2.266      3.781
REMARK  4 active torsions:
REMARK  status: ('A' for Active; 'I' for Inactive)
REMARK    1  A    between atoms: S1_2  and  N1_4 
REMARK    2  A    between atoms: S1_2  and  C14_23 
REMARK    3  A    between atoms: N1_4  and  C1_6 
REMARK    4  A    between atoms: C6_13  and  C7_14 
ROOT
HETATM    1  C1  UNL     1       3.243  -5.900  85.328  1.00  0.00     0.071 A 
HETATM    2  C2  UNL     1       4.119  -4.863  85.448  1.00  0.00     0.032 A 
HETATM    3  C3  UNL     1       5.426  -4.924  85.016  1.00  0.00     0.005 A 
HETATM    4  C4  UNL     1       5.883  -6.072  84.438  1.00  0.00     0.032 A 
HETATM    5  C5  UNL     1       5.048  -7.145  84.291  1.00  0.00     0.063 A 
HETATM    6  N2  UNL     1       5.170  -8.387  83.782  1.00  0.00    -0.340 N 
ATOM      7  H2  UNL     1       6.028  -8.757  83.373  1.00  0.00     0.167 HD
HETATM    8  C6  UNL     1       4.023  -9.077  83.878  1.00  0.00     0.116 A 
HETATM    9  N3  UNL     1       3.154  -8.234  84.469  1.00  0.00    -0.338 N 
ATOM     10  H3  UNL     1       2.183  -8.457  84.688  1.00  0.00     0.167 HD
HETATM   11  C13 UNL     1       3.750  -7.056  84.731  1.00  0.00     0.088 A 
ENDROOT
BRANCH   1  12
HETATM   12  N1  UNL     1       1.902  -5.908  85.736  1.00  0.00    -0.277 N 
ATOM     13  H1  UNL     1       1.212  -5.512  85.097  1.00  0.00     0.179 HD
BRANCH  12  14
HETATM   14  S1  UNL     1       1.332  -6.537  87.233  1.00  0.00     0.279 S 
HETATM   15  O1  UNL     1       2.013  -5.885  88.402  1.00  0.00    -0.199 OA
HETATM   16  O2  UNL     1      -0.145  -6.309  87.374  1.00  0.00    -0.199 OA
BRANCH  14  17
HETATM   17  C14 UNL     1       1.575  -8.266  87.232  1.00  0.00     0.150 A 
HETATM   18  C15 UNL     1       0.713  -9.203  86.694  1.00  0.00     0.057 A 
HETATM   19  C16 UNL     1       1.241 -10.457  86.887  1.00  0.00    -0.007 A 
HETATM   20  C17 UNL     1       0.852 -11.741  86.580  1.00  0.00     0.014 A 
HETATM   21  C21 UNL     1       2.437 -10.282  87.552  1.00  0.00     0.043 A 
HETATM   22  C18 UNL     1       1.591 -12.858  86.900  1.00  0.00     0.001 A 
HETATM   23  C19 UNL     1       2.801 -12.679  87.572  1.00  0.00     0.002 A 
HETATM   24  C20 UNL     1       3.199 -11.398  87.884  1.00  0.00     0.030 A 
HETATM   25  N4  UNL     1       2.606  -8.959  87.743  1.00  0.00    -0.345 N 
ATOM     26  H4  UNL     1       3.409  -8.540  88.212  1.00  0.00     0.167 HD
ENDBRANCH  14  17
ENDBRANCH  12  14
ENDBRANCH   1  12
BRANCH   8  27
HETATM   27  C7  UNL     1       3.791 -10.445  83.432  1.00  0.00     0.008 A 
HETATM   28  C8  UNL     1       3.867 -11.472  84.345  1.00  0.00     0.015 A 
HETATM   29  C9  UNL     1       3.653 -12.776  83.955  1.00  0.00     0.001 A 
HETATM   30  C10 UNL     1       3.359 -13.081  82.644  1.00  0.00     0.000 A 
HETATM   31  C11 UNL     1       3.282 -12.052  81.724  1.00  0.00     0.001 A 
HETATM   32  C12 UNL     1       3.496 -10.764  82.127  1.00  0.00     0.015 A 
ENDBRANCH   8  27
TORSDOF 4
ENDMDL
MODEL 5
REMARK VINA RESULT: -8.026941628      3.285      6.613
REMARK  4 active torsions:
REMARK  status: ('A' for Active; 'I' for Inactive)
REMARK    1  A    between atoms: S1_2  and  N1_4 
REMARK    2  A    between atoms: S1_2  and  C14_23 
REMARK    3  A    between atoms: N1_4  and  C1_6 
REMARK    4  A    between atoms: C6_13  and  C7_14 
ROOT
HETATM    1  C1  UNL     1       3.993 -12.227  84.719  1.00  0.00     0.071 A 
HETATM    2  C2  UNL     1       3.958 -13.332  83.923  1.00  0.00     0.032 A 
HETATM    3  C3  UNL     1       3.637 -13.290  82.583  1.00  0.00     0.005 A 
HETATM    4  C4  UNL     1       3.336 -12.090  82.010  1.00  0.00     0.032 A 
HETATM    5  C5  UNL     1       3.356 -10.947  82.760  1.00  0.00     0.063 A 
HETATM    6  N2  UNL     1       3.119  -9.641  82.519  1.00  0.00    -0.340 N 
ATOM      7  H2  UNL     1       2.853  -9.266  81.608  1.00  0.00     0.167 HD
HETATM    8  C6  UNL     1       3.277  -8.897  83.624  1.00  0.00     0.116 A 
HETATM    9  N3  UNL     1       3.625  -9.769  84.589  1.00  0.00    -0.338 N 
ATOM     10  H3  UNL     1       3.820  -9.519  85.559  1.00  0.00     0.167 HD
HETATM   11  C13 UNL     1       3.680 -11.019  84.093  1.00  0.00     0.088 A 
ENDROOT
BRANCH   1  12
HETATM   12  N1  UNL     1       4.317 -12.193  86.082  1.00  0.00    -0.277 N 
ATOM     13  H1  UNL     1       5.304 -12.260  86.335  1.00  0.00     0.179 HD
BRANCH  12  14
HETATM   14  S1  UNL     1       3.176 -12.046  87.362  1.00  0.00     0.279 S 
HETATM   15  O1  UNL     1       2.086 -13.072  87.252  1.00  0.00    -0.199 OA
HETATM   16  O2  UNL     1       3.848 -12.227  88.692  1.00  0.00    -0.199 OA
BRANCH  14  17
HETATM   17  C14 UNL     1       2.534 -10.422  87.342  1.00  0.00     0.150 A 
HETATM   18  C15 UNL     1       1.197 -10.083  87.253  1.00  0.00     0.057 A 
HETATM   19  C16 UNL     1       1.083  -8.714  87.263  1.00  0.00    -0.007 A 
HETATM   20  C17 UNL     1       0.040  -7.818  87.201  1.00  0.00     0.014 A 
HETATM   21  C21 UNL     1       2.364  -8.213  87.358  1.00  0.00     0.043 A 
HETATM   22  C18 UNL     1       0.207  -6.451  87.229  1.00  0.00     0.001 A 
HETATM   23  C19 UNL     1       1.504  -5.946  87.327  1.00  0.00     0.002 A 
HETATM   24  C20 UNL     1       2.554  -6.836  87.390  1.00  0.00     0.030 A 
HETATM   25  N4  UNL     1       3.208  -9.262  87.404  1.00  0.00    -0.345 N 
ATOM     26  H4  UNL     1       4.223  -9.186  87.476  1.00  0.00     0.167 HD
ENDBRANCH  14  17
ENDBRANCH  12  14
ENDBRANCH   1  12
BRANCH   8  27
HETATM   27  C7  UNL     1       3.104  -7.453  83.732  1.00  0.00     0.008 A 
HETATM   28  C8  UNL     1       1.867  -6.905  83.479  1.00  0.00     0.015 A 
HETATM   29  C9  UNL     1       1.670  -5.544  83.573  1.00  0.00     0.001 A 
HETATM   30  C10 UNL     1       2.706  -4.704  83.919  1.00  0.00     0.000 A 
HETATM   31  C11 UNL     1       3.949  -5.252  84.173  1.00  0.00     0.001 A 
HETATM   32  C12 UNL     1       4.128  -6.602  84.077  1.00  0.00     0.015 A 
ENDBRANCH   8  27
TORSDOF 4
ENDMDL
