MODEL 1
REMARK VINA RESULT: -6.497561806      0.000      0.000
REMARK  1 active torsions:
REMARK  status: ('A' for Active; 'I' for Inactive)
REMARK    1  A    between atoms: N1_2  and  C2_4 
ROOT
HETATM    1  C2  UNL     1      42.317   0.997  24.949  1.00  0.00     0.097 C 
HETATM    2 BR1  UNL     1      43.461   2.238  23.909  1.00  0.00    -0.061 Br
HETATM    3  C3  UNL     1      42.548   1.475  26.315  1.00  0.00     0.051 C 
HETATM    4  C4  UNL     1      44.009   1.406  26.714  1.00  0.00    -0.022 C 
HETATM    5  C5  UNL     1      44.756   0.342  26.625  1.00  0.00    -0.019 C 
HETATM    6  C6  UNL     1      44.506  -1.016  26.166  1.00  0.00     0.085 C 
HETATM    7  C7  UNL     1      43.101  -1.295  25.743  1.00  0.00     0.009 C 
HETATM    8  C8  UNL     1      42.117  -1.474  26.838  1.00  0.00     0.006 C 
HETATM    9  C9  UNL     1      42.152  -0.455  27.914  1.00  0.00     0.005 C 
HETATM   10  C10 UNL     1      41.784   0.930  27.455  1.00  0.00    -0.008 C 
HETATM   11  C11 UNL     1      40.298   1.023  27.395  1.00  0.00     0.011 C 
HETATM   12  C12 UNL     1      42.628  -0.409  24.613  1.00  0.00     0.060 C 
HETATM   13  C13 UNL     1      43.515  -0.685  23.447  1.00  0.00     0.088 C 
HETATM   14 BR2  UNL     1      43.184  -2.577  22.982  1.00  0.00    -0.072 Br
HETATM   15 BR3  UNL     1      43.064   0.245  21.833  1.00  0.00    -0.072 Br
HETATM   16  C14 UNL     1      44.994  -0.635  23.720  1.00  0.00     0.113 C 
HETATM   17  C15 UNL     1      45.418  -1.291  24.985  1.00  0.00     0.253 C 
HETATM   18  F1  UNL     1      46.662  -0.749  25.347  1.00  0.00    -0.206 F 
HETATM   19  F2  UNL     1      45.653  -2.650  24.830  1.00  0.00    -0.206 F 
ENDROOT
BRANCH   1  20
HETATM   20  N1  UNL     1      40.992   1.339  24.508  1.00  0.00    -0.407 N 
HETATM   21  C1  UNL     1      40.118   0.327  24.089  1.00  0.00     0.141 C 
ATOM     22  H1  UNL     1      40.689   2.314  24.501  1.00  0.00     0.154 HD
ENDBRANCH   1  20
TORSDOF 1
ENDMDL
MODEL 2
REMARK VINA RESULT: -6.449856999      2.666      4.295
REMARK  1 active torsions:
REMARK  status: ('A' for Active; 'I' for Inactive)
REMARK    1  A    between atoms: N1_2  and  C2_4 
ROOT
HETATM    1  C2  UNL     1      43.755  -0.996  24.791  1.00  0.00     0.097 C 
HETATM    2 BR1  UNL     1      42.615  -2.232  23.742  1.00  0.00    -0.061 Br
HETATM    3  C3  UNL     1      43.546  -1.502  26.152  1.00  0.00     0.051 C 
HETATM    4  C4  UNL     1      42.088  -1.458  26.567  1.00  0.00    -0.022 C 
HETATM    5  C5  UNL     1      41.327  -0.402  26.506  1.00  0.00    -0.019 C 
HETATM    6  C6  UNL     1      41.556   0.968  26.069  1.00  0.00     0.085 C 
HETATM    7  C7  UNL     1      42.952   1.272  25.635  1.00  0.00     0.009 C 
HETATM    8  C8  UNL     1      43.946   1.442  26.723  1.00  0.00     0.006 C 
HETATM    9  C9  UNL     1      43.936   0.404  27.780  1.00  0.00     0.005 C 
HETATM   10  C10 UNL     1      44.316  -0.968  27.293  1.00  0.00    -0.008 C 
HETATM   11  C11 UNL     1      45.801  -1.042  27.215  1.00  0.00     0.011 C 
HETATM   12  C12 UNL     1      43.424   0.412  24.485  1.00  0.00     0.060 C 
HETATM   13  C13 UNL     1      42.521   0.698  23.333  1.00  0.00     0.088 C 
HETATM   14 BR2  UNL     1      42.823   2.602  22.899  1.00  0.00    -0.072 Br
HETATM   15 BR3  UNL     1      42.964  -0.197  21.698  1.00  0.00    -0.072 Br
HETATM   16  C14 UNL     1      41.046   0.624  23.621  1.00  0.00     0.113 C 
HETATM   17  C15 UNL     1      40.628   1.252  24.903  1.00  0.00     0.253 C 
HETATM   18  F1  UNL     1      39.394   0.689  25.268  1.00  0.00    -0.206 F 
HETATM   19  F2  UNL     1      40.375   2.611  24.775  1.00  0.00    -0.206 F 
ENDROOT
BRANCH   1  20
HETATM   20  N1  UNL     1      45.079  -1.314  24.330  1.00  0.00    -0.407 N 
HETATM   21  C1  UNL     1      45.960  -0.279  23.986  1.00  0.00     0.141 C 
ATOM     22  H1  UNL     1      45.376  -2.288  24.254  1.00  0.00     0.154 HD
ENDBRANCH   1  20
TORSDOF 1
ENDMDL
MODEL 3
REMARK VINA RESULT: -4.929904850      2.336      4.287
REMARK  1 active torsions:
REMARK  status: ('A' for Active; 'I' for Inactive)
REMARK    1  A    between atoms: N1_2  and  C2_4 
ROOT
HETATM    1  C2  UNL     1      41.649   0.676  23.978  1.00  0.00     0.097 C 
HETATM    2 BR1  UNL     1      39.800   0.285  24.573  1.00  0.00    -0.061 Br
HETATM    3  C3  UNL     1      41.917  -0.472  23.106  1.00  0.00     0.051 C 
HETATM    4  C4  UNL     1      41.799  -1.794  23.838  1.00  0.00    -0.022 C 
HETATM    5  C5  UNL     1      42.419  -2.091  24.945  1.00  0.00    -0.019 C 
HETATM    6  C6  UNL     1      43.346  -1.359  25.796  1.00  0.00     0.085 C 
HETATM    7  C7  UNL     1      43.718   0.001  25.307  1.00  0.00     0.009 C 
HETATM    8  C8  UNL     1      44.694   0.045  24.190  1.00  0.00     0.006 C 
HETATM    9  C9  UNL     1      44.422  -0.868  23.055  1.00  0.00     0.005 C 
HETATM   10  C10 UNL     1      43.155  -0.553  22.307  1.00  0.00    -0.008 C 
HETATM   11  C11 UNL     1      43.437   0.563  21.361  1.00  0.00     0.011 C 
HETATM   12  C12 UNL     1      42.532   0.924  25.138  1.00  0.00     0.060 C 
HETATM   13  C13 UNL     1      41.913   1.082  26.486  1.00  0.00     0.088 C 
HETATM   14 BR2  UNL     1      43.290   1.974  27.586  1.00  0.00    -0.072 Br
HETATM   15 BR3  UNL     1      40.433   2.295  26.573  1.00  0.00    -0.072 Br
HETATM   16  C14 UNL     1      41.628  -0.194  27.231  1.00  0.00     0.113 C 
HETATM   17  C15 UNL     1      42.711  -1.210  27.166  1.00  0.00     0.253 C 
HETATM   18  F1  UNL     1      42.136  -2.462  27.443  1.00  0.00    -0.206 F 
HETATM   19  F2  UNL     1      43.671  -1.034  28.153  1.00  0.00    -0.206 F 
ENDROOT
BRANCH   1  20
HETATM   20  N1  UNL     1      41.488   1.876  23.203  1.00  0.00    -0.407 N 
HETATM   21  C1  UNL     1      42.491   2.855  23.224  1.00  0.00     0.141 C 
ATOM     22  H1  UNL     1      40.648   2.014  22.640  1.00  0.00     0.154 HD
ENDBRANCH   1  20
TORSDOF 1
ENDMDL
MODEL 4
REMARK VINA RESULT: -4.927333657      2.790      4.208
REMARK  1 active torsions:
REMARK  status: ('A' for Active; 'I' for Inactive)
REMARK    1  A    between atoms: N1_2  and  C2_4 
ROOT
HETATM    1  C2  UNL     1      44.349  -0.664  23.976  1.00  0.00     0.097 C 
HETATM    2 BR1  UNL     1      46.198  -0.272  24.571  1.00  0.00    -0.061 Br
HETATM    3  C3  UNL     1      44.079   0.487  23.109  1.00  0.00     0.051 C 
HETATM    4  C4  UNL     1      44.195   1.807  23.846  1.00  0.00    -0.022 C 
HETATM    5  C5  UNL     1      43.575   2.098  24.954  1.00  0.00    -0.019 C 
HETATM    6  C6  UNL     1      42.650   1.362  25.803  1.00  0.00     0.085 C 
HETATM    7  C7  UNL     1      42.280   0.003  25.309  1.00  0.00     0.009 C 
HETATM    8  C8  UNL     1      41.303  -0.038  24.193  1.00  0.00     0.006 C 
HETATM    9  C9  UNL     1      41.573   0.880  23.061  1.00  0.00     0.005 C 
HETATM   10  C10 UNL     1      42.839   0.569  22.311  1.00  0.00    -0.008 C 
HETATM   11  C11 UNL     1      42.558  -0.543  21.360  1.00  0.00     0.011 C 
HETATM   12  C12 UNL     1      43.467  -0.917  25.136  1.00  0.00     0.060 C 
HETATM   13  C13 UNL     1      44.088  -1.080  26.482  1.00  0.00     0.088 C 
HETATM   14 BR2  UNL     1      42.713  -1.979  27.580  1.00  0.00    -0.072 Br
HETATM   15 BR3  UNL     1      45.571  -2.291  26.563  1.00  0.00    -0.072 Br
HETATM   16  C14 UNL     1      44.372   0.194  27.232  1.00  0.00     0.113 C 
HETATM   17  C15 UNL     1      43.287   1.209  27.172  1.00  0.00     0.253 C 
HETATM   18  F1  UNL     1      43.861   2.459  27.454  1.00  0.00    -0.206 F 
HETATM   19  F2  UNL     1      42.328   1.026  28.160  1.00  0.00    -0.206 F 
ENDROOT
BRANCH   1  20
HETATM   20  N1  UNL     1      44.512  -1.860  23.196  1.00  0.00    -0.407 N 
HETATM   21  C1  UNL     1      43.512  -2.844  23.219  1.00  0.00     0.141 C 
ATOM     22  H1  UNL     1      45.349  -1.993  22.628  1.00  0.00     0.154 HD
ENDBRANCH   1  20
TORSDOF 1
ENDMDL
MODEL 5
REMARK VINA RESULT: -4.630497730      3.000      4.794
REMARK  1 active torsions:
REMARK  status: ('A' for Active; 'I' for Inactive)
REMARK    1  A    between atoms: N1_2  and  C2_4 
ROOT
HETATM    1  C2  UNL     1      43.849   0.384  24.149  1.00  0.00     0.097 C 
HETATM    2 BR1  UNL     1      44.066   2.354  24.177  1.00  0.00    -0.061 Br
HETATM    3  C3  UNL     1      43.146   0.193  22.876  1.00  0.00     0.051 C 
HETATM    4  C4  UNL     1      41.824   0.933  22.830  1.00  0.00    -0.022 C 
HETATM    5  C5  UNL     1      40.882   0.835  23.725  1.00  0.00    -0.019 C 
HETATM    6  C6  UNL     1      40.755   0.072  24.959  1.00  0.00     0.085 C 
HETATM    7  C7  UNL     1      41.906  -0.826  25.271  1.00  0.00     0.009 C 
HETATM    8  C8  UNL     1      41.977  -2.085  24.489  1.00  0.00     0.006 C 
HETATM    9  C9  UNL     1      41.796  -1.950  23.024  1.00  0.00     0.005 C 
HETATM   10  C10 UNL     1      42.880  -1.158  22.344  1.00  0.00    -0.008 C 
HETATM   11  C11 UNL     1      44.050  -2.056  22.131  1.00  0.00     0.011 C 
HETATM   12  C12 UNL     1      43.222  -0.093  25.399  1.00  0.00     0.060 C 
HETATM   13  C13 UNL     1      43.074   0.863  26.534  1.00  0.00     0.088 C 
HETATM   14 BR2  UNL     1      42.792  -0.267  28.130  1.00  0.00    -0.072 Br
HETATM   15 BR3  UNL     1      44.650   1.859  26.980  1.00  0.00    -0.072 Br
HETATM   16  C14 UNL     1      41.855   1.744  26.496  1.00  0.00     0.113 C 
HETATM   17  C15 UNL     1      40.598   1.053  26.106  1.00  0.00     0.253 C 
HETATM   18  F1  UNL     1      39.706   2.031  25.634  1.00  0.00    -0.206 F 
HETATM   19  F2  UNL     1      39.949   0.471  27.186  1.00  0.00    -0.206 F 
ENDROOT
BRANCH   1  20
HETATM   20  N1  UNL     1      45.205  -0.085  24.054  1.00  0.00    -0.407 N 
HETATM   21  C1  UNL     1      45.683  -1.015  24.987  1.00  0.00     0.141 C 
ATOM     22  H1  UNL     1      45.816   0.258  23.312  1.00  0.00     0.154 HD
ENDBRANCH   1  20
TORSDOF 1
ENDMDL
