MODEL 1
REMARK VINA RESULT: -7.599557572      0.000      0.000
REMARK  2 active torsions:
REMARK  status: ('A' for Active; 'I' for Inactive)
REMARK    1  A    between atoms: N2_12  and  C8_13 
REMARK    2  A    between atoms: C10_15  and  C11_16 
ROOT
HETATM    1  C1  UNL     1       1.457  57.928  73.893  1.00  0.00     0.032 C 
HETATM    2  C2  UNL     1       0.715  59.016  73.111  1.00  0.00     0.087 C 
HETATM    3  C3  UNL     1      -0.685  59.056  73.578  1.00  0.00     0.062 C 
HETATM    4  C4  UNL     1      -1.142  60.348  74.183  1.00  0.00     0.065 C 
HETATM    5  C5  UNL     1      -1.667  61.318  73.116  1.00  0.00     0.046 C 
HETATM    6  C6  UNL     1      -2.311  60.055  75.100  1.00  0.00     0.046 C 
HETATM    7  O1  UNL     1      -0.149  60.991  74.970  1.00  0.00    -0.312 OA
HETATM    8  C7  UNL     1       1.122  61.063  74.361  1.00  0.00     0.216 C 
HETATM    9  N1  UNL     1       1.982  61.856  74.887  1.00  0.00    -0.365 N 
ATOM     10  H11 UNL     1       2.900  61.908  74.446  1.00  0.00     0.159 HD
ATOM     11  H12 UNL     1       1.770  62.417  75.712  1.00  0.00     0.159 HD
HETATM   12  N2  UNL     1       1.416  60.282  73.211  1.00  0.00    -0.337 N 
ENDROOT
BRANCH  12  13
HETATM   13  C8  UNL     1       2.346  60.761  72.243  1.00  0.00     0.107 C 
HETATM   14  C9  UNL     1       1.840  62.017  71.531  1.00  0.00     0.032 C 
HETATM   15  C10 UNL     1       2.390  61.978  70.146  1.00  0.00    -0.004 C 
HETATM   16  C15 UNL     1       3.096  60.670  69.968  1.00  0.00     0.027 C 
HETATM   17  C16 UNL     1       2.595  59.789  71.114  1.00  0.00     0.105 C 
HETATM   18 CL1  UNL     1       3.891  58.631  71.464  1.00  0.00    -0.123 Cl
BRANCH  15  19
HETATM   19  C11 UNL     1       3.328  63.123  69.836  1.00  0.00    -0.048 C 
HETATM   20  C12 UNL     1       4.611  63.013  70.612  1.00  0.00     0.015 C 
HETATM   21  C13 UNL     1       2.635  64.404  70.250  1.00  0.00     0.015 C 
HETATM   22  C14 UNL     1       3.668  63.209  68.372  1.00  0.00     0.015 C 
ENDBRANCH  15  19
ENDBRANCH  12  13
TORSDOF 2
ENDMDL
MODEL 2
REMARK VINA RESULT: -7.420752818      0.670      1.164
REMARK  2 active torsions:
REMARK  status: ('A' for Active; 'I' for Inactive)
REMARK    1  A    between atoms: N2_12  and  C8_13 
REMARK    2  A    between atoms: C10_15  and  C11_16 
ROOT
HETATM    1  C1  UNL     1       1.607  58.518  74.507  1.00  0.00     0.032 C 
HETATM    2  C2  UNL     1       0.884  59.408  73.492  1.00  0.00     0.087 C 
HETATM    3  C3  UNL     1      -0.570  59.307  73.734  1.00  0.00     0.062 C 
HETATM    4  C4  UNL     1      -1.267  60.582  74.096  1.00  0.00     0.065 C 
HETATM    5  C5  UNL     1      -1.718  61.354  72.849  1.00  0.00     0.046 C 
HETATM    6  C6  UNL     1      -2.530  60.233  74.855  1.00  0.00     0.046 C 
HETATM    7  O1  UNL     1      -0.500  61.433  74.937  1.00  0.00    -0.312 OA
HETATM    8  C7  UNL     1       0.836  61.611  74.522  1.00  0.00     0.216 C 
HETATM    9  N1  UNL     1       1.500  62.563  75.068  1.00  0.00    -0.365 N 
ATOM     10  H11 UNL     1       2.466  62.692  74.767  1.00  0.00     0.159 HD
ATOM     11  H12 UNL     1       1.091  63.174  75.775  1.00  0.00     0.159 HD
HETATM   12  N2  UNL     1       1.406  60.760  73.537  1.00  0.00    -0.337 N 
ENDROOT
BRANCH  12  13
HETATM   13  C8  UNL     1       2.421  61.255  72.667  1.00  0.00     0.107 C 
HETATM   14  C9  UNL     1       1.850  62.157  71.570  1.00  0.00     0.032 C 
HETATM   15  C10 UNL     1       2.717  61.977  70.372  1.00  0.00    -0.004 C 
HETATM   16  C15 UNL     1       3.706  60.895  70.677  1.00  0.00     0.027 C 
HETATM   17  C16 UNL     1       3.139  60.171  71.899  1.00  0.00     0.105 C 
HETATM   18 CL1  UNL     1       4.525  59.497  72.774  1.00  0.00    -0.123 Cl
BRANCH  15  19
HETATM   19  C11 UNL     1       3.438  63.240  69.953  1.00  0.00    -0.048 C 
HETATM   20  C12 UNL     1       2.625  64.467  70.255  1.00  0.00     0.015 C 
HETATM   21  C13 UNL     1       3.649  63.168  68.455  1.00  0.00     0.015 C 
HETATM   22  C14 UNL     1       4.779  63.385  70.623  1.00  0.00     0.015 C 
ENDBRANCH  15  19
ENDBRANCH  12  13
TORSDOF 2
ENDMDL
MODEL 3
REMARK VINA RESULT: -7.231145778      2.994      5.139
REMARK  2 active torsions:
REMARK  status: ('A' for Active; 'I' for Inactive)
REMARK    1  A    between atoms: N2_12  and  C8_13 
REMARK    2  A    between atoms: C10_15  and  C11_16 
ROOT
HETATM    1  C1  UNL     1       3.482  61.832  69.131  1.00  0.00     0.032 C 
HETATM    2  C2  UNL     1       2.554  61.208  70.179  1.00  0.00     0.087 C 
HETATM    3  C3  UNL     1       2.584  59.741  70.016  1.00  0.00     0.062 C 
HETATM    4  C4  UNL     1       3.071  58.957  71.196  1.00  0.00     0.065 C 
HETATM    5  C5  UNL     1       1.932  58.637  72.173  1.00  0.00     0.046 C 
HETATM    6  C6  UNL     1       3.587  57.622  70.698  1.00  0.00     0.046 C 
HETATM    7  O1  UNL     1       4.141  59.581  71.892  1.00  0.00    -0.312 OA
HETATM    8  C7  UNL     1       3.941  60.951  72.160  1.00  0.00     0.216 C 
HETATM    9  N1  UNL     1       4.727  61.506  73.008  1.00  0.00    -0.365 N 
ATOM     10  H11 UNL     1       4.582  62.496  73.202  1.00  0.00     0.159 HD
ATOM     11  H12 UNL     1       5.472  60.989  73.477  1.00  0.00     0.159 HD
HETATM   12  N2  UNL     1       2.904  61.671  71.508  1.00  0.00    -0.337 N 
ENDROOT
BRANCH  12  13
HETATM   13  C8  UNL     1       2.274  62.768  72.165  1.00  0.00     0.107 C 
HETATM   14  C9  UNL     1       1.317  62.306  73.267  1.00  0.00     0.032 C 
HETATM   15  C10 UNL     1       0.217  63.310  73.328  1.00  0.00    -0.004 C 
HETATM   16  C15 UNL     1       0.416  64.281  72.206  1.00  0.00     0.027 C 
HETATM   17  C16 UNL     1       1.397  63.593  71.255  1.00  0.00     0.105 C 
HETATM   18 CL1  UNL     1       2.279  64.885  70.419  1.00  0.00    -0.123 Cl
BRANCH  15  19
HETATM   19  C11 UNL     1       0.143  64.045  74.648  1.00  0.00    -0.048 C 
HETATM   20  C12 UNL     1       1.459  64.015  75.372  1.00  0.00     0.015 C 
HETATM   21  C13 UNL     1      -0.885  63.339  75.506  1.00  0.00     0.015 C 
HETATM   22  C14 UNL     1      -0.272  65.484  74.482  1.00  0.00     0.015 C 
ENDBRANCH  15  19
ENDBRANCH  12  13
TORSDOF 2
ENDMDL
MODEL 4
REMARK VINA RESULT: -7.192550107      2.164      3.197
REMARK  2 active torsions:
REMARK  status: ('A' for Active; 'I' for Inactive)
REMARK    1  A    between atoms: N2_12  and  C8_13 
REMARK    2  A    between atoms: C10_15  and  C11_16 
ROOT
HETATM    1  C1  UNL     1       3.954  60.394  72.209  1.00  0.00     0.032 C 
HETATM    2  C2  UNL     1       2.479  60.722  71.956  1.00  0.00     0.087 C 
HETATM    3  C3  UNL     1       1.660  59.584  72.420  1.00  0.00     0.062 C 
HETATM    4  C4  UNL     1       0.677  59.882  73.510  1.00  0.00     0.065 C 
HETATM    5  C5  UNL     1      -0.663  60.373  72.945  1.00  0.00     0.046 C 
HETATM    6  C6  UNL     1       0.378  58.591  74.245  1.00  0.00     0.046 C 
HETATM    7  O1  UNL     1       1.159  60.806  74.477  1.00  0.00    -0.312 OA
HETATM    8  C7  UNL     1       1.771  61.954  73.931  1.00  0.00     0.216 C 
HETATM    9  N1  UNL     1       1.981  62.941  74.722  1.00  0.00    -0.365 N 
ATOM     10  H11 UNL     1       2.423  63.771  74.327  1.00  0.00     0.159 HD
ATOM     11  H12 UNL     1       1.723  62.911  75.708  1.00  0.00     0.159 HD
HETATM   12  N2  UNL     1       2.131  61.996  72.557  1.00  0.00    -0.337 N 
ENDROOT
BRANCH  12  13
HETATM   13  C8  UNL     1       2.128  63.237  71.856  1.00  0.00     0.107 C 
HETATM   14  C9  UNL     1       0.723  63.639  71.404  1.00  0.00     0.032 C 
HETATM   15  C10 UNL     1       0.882  64.399  70.131  1.00  0.00    -0.004 C 
HETATM   16  C15 UNL     1       2.326  64.344  69.740  1.00  0.00     0.027 C 
HETATM   17  C16 UNL     1       2.920  63.205  70.571  1.00  0.00     0.105 C 
HETATM   18 CL1  UNL     1       4.636  63.589  70.798  1.00  0.00    -0.123 Cl
BRANCH  15  19
HETATM   19  C11 UNL     1       0.420  65.837  70.224  1.00  0.00    -0.048 C 
HETATM   20  C12 UNL     1       1.566  66.796  70.068  1.00  0.00     0.015 C 
HETATM   21  C13 UNL     1      -0.177  66.035  71.601  1.00  0.00     0.015 C 
HETATM   22  C14 UNL     1      -0.623  66.174  69.191  1.00  0.00     0.015 C 
ENDBRANCH  15  19
ENDBRANCH  12  13
TORSDOF 2
ENDMDL
MODEL 5
REMARK VINA RESULT: -7.164267651      2.342      5.900
REMARK  2 active torsions:
REMARK  status: ('A' for Active; 'I' for Inactive)
REMARK    1  A    between atoms: N2_12  and  C8_13 
REMARK    2  A    between atoms: C10_15  and  C11_16 
ROOT
HETATM    1  C1  UNL     1       5.396  61.147  72.284  1.00  0.00     0.032 C 
HETATM    2  C2  UNL     1       3.923  61.480  72.026  1.00  0.00     0.087 C 
HETATM    3  C3  UNL     1       3.850  62.456  70.920  1.00  0.00     0.062 C 
HETATM    4  C4  UNL     1       3.100  62.015  69.701  1.00  0.00     0.065 C 
HETATM    5  C5  UNL     1       1.600  62.318  69.819  1.00  0.00     0.046 C 
HETATM    6  C6  UNL     1       3.602  62.818  68.519  1.00  0.00     0.046 C 
HETATM    7  O1  UNL     1       3.290  60.643  69.380  1.00  0.00    -0.312 OA
HETATM    8  C7  UNL     1       3.163  59.765  70.477  1.00  0.00     0.216 C 
HETATM    9  N1  UNL     1       3.052  58.514  70.219  1.00  0.00    -0.365 N 
ATOM     10  H11 UNL     1       2.960  57.880  71.013  1.00  0.00     0.159 HD
ATOM     11  H12 UNL     1       3.055  58.154  69.265  1.00  0.00     0.159 HD
HETATM   12  N2  UNL     1       3.159  60.267  71.807  1.00  0.00    -0.337 N 
ENDROOT
BRANCH  12  13
HETATM   13  C8  UNL     1       2.428  59.587  72.824  1.00  0.00     0.107 C 
HETATM   14  C9  UNL     1       0.972  60.054  72.896  1.00  0.00     0.032 C 
HETATM   15  C10 UNL     1       0.555  59.939  74.322  1.00  0.00    -0.004 C 
HETATM   16  C15 UNL     1       1.757  59.547  75.124  1.00  0.00     0.027 C 
HETATM   17  C16 UNL     1       2.953  59.841  74.216  1.00  0.00     0.105 C 
HETATM   18 CL1  UNL     1       4.237  58.717  74.694  1.00  0.00    -0.123 Cl
BRANCH  15  19
HETATM   19  C11 UNL     1      -0.566  58.947  74.546  1.00  0.00    -0.048 C 
HETATM   20  C12 UNL     1      -1.899  59.522  74.156  1.00  0.00     0.015 C 
HETATM   21  C13 UNL     1      -0.603  58.628  76.025  1.00  0.00     0.015 C 
HETATM   22  C14 UNL     1      -0.363  57.666  73.780  1.00  0.00     0.015 C 
ENDBRANCH  15  19
ENDBRANCH  12  13
TORSDOF 2
ENDMDL
