MODEL 1
REMARK VINA RESULT: -9.282770736      0.000      0.000
REMARK  1 active torsions:
REMARK  status: ('A' for Active; 'I' for Inactive)
REMARK    1  A    between atoms: C3_4  and  C4_5 
ROOT
HETATM    1  O1  UNL     1       2.498  64.849  64.617  1.00  0.00    -0.274 OA
HETATM    2  C1  UNL     1       2.673  66.038  64.982  1.00  0.00     0.218 C 
HETATM    3  C2  UNL     1       2.032  66.523  66.190  1.00  0.00     0.117 C 
HETATM    4  C3  UNL     1       1.713  67.989  66.223  1.00  0.00    -0.002 C 
HETATM    5  C8  UNL     1       2.210  68.454  67.606  1.00  0.00     0.019 C 
HETATM    6  C9  UNL     1       2.232  69.911  67.795  1.00  0.00     0.028 C 
HETATM    7  C10 UNL     1       3.483  70.428  68.398  1.00  0.00    -0.027 C 
HETATM    8  C11 UNL     1       4.731  70.435  68.102  1.00  0.00    -0.008 C 
HETATM    9  C12 UNL     1       5.686  70.011  67.115  1.00  0.00    -0.027 C 
HETATM   10  C13 UNL     1       5.425  69.245  65.907  1.00  0.00     0.027 C 
HETATM   11  C14 UNL     1       4.850  69.988  64.725  1.00  0.00     0.006 C 
HETATM   12  C15 UNL     1       4.254  69.109  63.696  1.00  0.00     0.025 C 
HETATM   13  C16 UNL     1       3.071  68.265  64.083  1.00  0.00     0.085 C 
HETATM   14  C17 UNL     1       2.226  68.821  65.140  1.00  0.00     0.040 C 
HETATM   15  N1  UNL     1       3.481  66.898  64.229  1.00  0.00    -0.356 N 
ATOM     16  H1  UNL     1       4.341  66.560  63.796  1.00  0.00     0.162 HD
ENDROOT
BRANCH   4  17
HETATM   17  C4  UNL     1       0.194  68.066  66.312  1.00  0.00    -0.042 A 
HETATM   18  C5  UNL     1      -0.559  68.804  65.456  1.00  0.00     0.015 A 
HETATM   19  C6  UNL     1      -1.911  68.803  65.647  1.00  0.00     0.050 A 
HETATM   20  S1  UNL     1      -2.136  67.798  66.986  1.00  0.00    -0.113 SA
HETATM   21  C7  UNL     1      -0.486  67.391  67.284  1.00  0.00     0.057 A 
ENDBRANCH   4  17
TORSDOF 1
ENDMDL
MODEL 2
REMARK VINA RESULT: -9.133428504      2.673      4.561
REMARK  1 active torsions:
REMARK  status: ('A' for Active; 'I' for Inactive)
REMARK    1  A    between atoms: C3_4  and  C4_5 
ROOT
HETATM    1  O1  UNL     1      -0.808  68.686  63.593  1.00  0.00    -0.274 OA
HETATM    2  C1  UNL     1       0.108  68.641  64.452  1.00  0.00     0.218 C 
HETATM    3  C2  UNL     1       1.456  69.038  64.090  1.00  0.00     0.117 C 
HETATM    4  C3  UNL     1       2.564  68.372  64.852  1.00  0.00    -0.002 C 
HETATM    5  C8  UNL     1       3.501  69.532  65.248  1.00  0.00     0.019 C 
HETATM    6  C9  UNL     1       4.547  69.175  66.214  1.00  0.00     0.028 C 
HETATM    7  C10 UNL     1       4.697  70.135  67.333  1.00  0.00    -0.027 C 
HETATM    8  C11 UNL     1       3.962  70.591  68.279  1.00  0.00    -0.008 C 
HETATM    9  C12 UNL     1       2.650  70.514  68.861  1.00  0.00    -0.027 C 
HETATM   10  C13 UNL     1       1.523  69.723  68.395  1.00  0.00     0.027 C 
HETATM   11  C14 UNL     1       1.526  68.249  68.723  1.00  0.00     0.006 C 
HETATM   12  C15 UNL     1       0.586  67.450  67.907  1.00  0.00     0.025 C 
HETATM   13  C16 UNL     1       0.810  67.393  66.421  1.00  0.00     0.085 C 
HETATM   14  C17 UNL     1       2.200  67.538  65.992  1.00  0.00     0.040 C 
HETATM   15  N1  UNL     1      -0.165  68.210  65.755  1.00  0.00    -0.356 N 
ATOM     16  H1  UNL     1      -1.035  68.469  66.220  1.00  0.00     0.162 HD
ENDROOT
BRANCH   4  17
HETATM   17  C4  UNL     1       3.347  67.581  63.811  1.00  0.00    -0.042 A 
HETATM   18  C5  UNL     1       3.698  66.281  63.983  1.00  0.00     0.015 A 
HETATM   19  C6  UNL     1       4.412  65.685  62.983  1.00  0.00     0.050 A 
HETATM   20  S1  UNL     1       4.591  66.902  61.824  1.00  0.00    -0.113 SA
HETATM   21  C7  UNL     1       3.745  68.164  62.643  1.00  0.00     0.057 A 
ENDBRANCH   4  17
TORSDOF 1
ENDMDL
MODEL 3
REMARK VINA RESULT: -8.623458203      7.659      9.380
REMARK  1 active torsions:
REMARK  status: ('A' for Active; 'I' for Inactive)
REMARK    1  A    between atoms: C3_4  and  C4_5 
ROOT
HETATM    1  O1  UNL     1      -0.012  64.946  69.909  1.00  0.00    -0.274 OA
HETATM    2  C1  UNL     1       0.725  64.028  70.346  1.00  0.00     0.218 C 
HETATM    3  C2  UNL     1       0.163  62.998  71.201  1.00  0.00     0.117 C 
HETATM    4  C3  UNL     1       1.105  62.374  72.187  1.00  0.00    -0.002 C 
HETATM    5  C8  UNL     1       0.856  60.859  72.044  1.00  0.00     0.019 C 
HETATM    6  C9  UNL     1       1.831  60.007  72.736  1.00  0.00     0.028 C 
HETATM    7  C10 UNL     1       2.341  58.879  71.920  1.00  0.00    -0.027 C 
HETATM    8  C11 UNL     1       2.979  58.736  70.817  1.00  0.00    -0.008 C 
HETATM    9  C12 UNL     1       3.579  59.458  69.728  1.00  0.00    -0.027 C 
HETATM   10  C13 UNL     1       3.597  60.898  69.528  1.00  0.00     0.027 C 
HETATM   11  C14 UNL     1       4.595  61.697  70.331  1.00  0.00     0.006 C 
HETATM   12  C15 UNL     1       4.304  63.147  70.378  1.00  0.00     0.025 C 
HETATM   13  C16 UNL     1       3.021  63.592  71.026  1.00  0.00     0.085 C 
HETATM   14  C17 UNL     1       2.520  62.716  72.085  1.00  0.00     0.040 C 
HETATM   15  N1  UNL     1       2.084  63.993  70.015  1.00  0.00    -0.356 N 
ATOM     16  H1  UNL     1       2.401  64.246  69.080  1.00  0.00     0.162 HD
ENDROOT
BRANCH   4  17
HETATM   17  C4  UNL     1       0.545  62.732  73.558  1.00  0.00    -0.042 A 
HETATM   18  C5  UNL     1       1.226  63.482  74.461  1.00  0.00     0.015 A 
HETATM   19  C6  UNL     1       0.621  63.722  75.662  1.00  0.00     0.050 A 
HETATM   20  S1  UNL     1      -0.864  62.926  75.541  1.00  0.00    -0.113 SA
HETATM   21  C7  UNL     1      -0.689  62.293  73.945  1.00  0.00     0.057 A 
ENDBRANCH   4  17
TORSDOF 1
ENDMDL
MODEL 4
REMARK VINA RESULT: -8.178176136      8.943     10.255
REMARK  1 active torsions:
REMARK  status: ('A' for Active; 'I' for Inactive)
REMARK    1  A    between atoms: C3_4  and  C4_5 
ROOT
HETATM    1  O1  UNL     1       4.051  58.579  74.927  1.00  0.00    -0.274 OA
HETATM    2  C1  UNL     1       3.648  59.304  73.984  1.00  0.00     0.218 C 
HETATM    3  C2  UNL     1       2.850  60.482  74.271  1.00  0.00     0.117 C 
HETATM    4  C3  UNL     1       1.882  60.897  73.203  1.00  0.00    -0.002 C 
HETATM    5  C8  UNL     1       2.099  62.418  73.065  1.00  0.00     0.019 C 
HETATM    6  C9  UNL     1       1.436  63.032  71.908  1.00  0.00     0.028 C 
HETATM    7  C10 UNL     1       2.298  63.956  71.132  1.00  0.00    -0.027 C 
HETATM    8  C11 UNL     1       3.398  63.881  70.478  1.00  0.00    -0.008 C 
HETATM    9  C12 UNL     1       4.445  62.981  70.078  1.00  0.00    -0.027 C 
HETATM   10  C13 UNL     1       4.577  61.574  70.420  1.00  0.00     0.027 C 
HETATM   11  C14 UNL     1       3.726  60.590  69.654  1.00  0.00     0.006 C 
HETATM   12  C15 UNL     1       3.614  59.263  70.299  1.00  0.00     0.025 C 
HETATM   13  C16 UNL     1       2.962  59.185  71.652  1.00  0.00     0.085 C 
HETATM   14  C17 UNL     1       1.951  60.209  71.918  1.00  0.00     0.040 C 
HETATM   15  N1  UNL     1       3.964  58.982  72.659  1.00  0.00    -0.356 N 
ATOM     16  H1  UNL     1       4.882  58.613  72.416  1.00  0.00     0.162 HD
ENDROOT
BRANCH   4  17
HETATM   17  C4  UNL     1       0.503  60.758  73.835  1.00  0.00    -0.042 A 
HETATM   18  C5  UNL     1      -0.540  60.159  73.206  1.00  0.00     0.015 A 
HETATM   19  C6  UNL     1      -1.731  60.108  73.873  1.00  0.00     0.050 A 
HETATM   20  S1  UNL     1      -1.411  60.875  75.344  1.00  0.00    -0.113 SA
HETATM   21  C7  UNL     1       0.253  61.252  75.083  1.00  0.00     0.057 A 
ENDBRANCH   4  17
TORSDOF 1
ENDMDL
MODEL 5
REMARK VINA RESULT: -7.872435669      8.968     11.039
REMARK  1 active torsions:
REMARK  status: ('A' for Active; 'I' for Inactive)
REMARK    1  A    between atoms: C3_4  and  C4_5 
ROOT
HETATM    1  O1  UNL     1       3.971  57.558  70.401  1.00  0.00    -0.274 OA
HETATM    2  C1  UNL     1       3.275  58.324  71.112  1.00  0.00     0.218 C 
HETATM    3  C2  UNL     1       2.626  59.474  70.510  1.00  0.00     0.117 C 
HETATM    4  C3  UNL     1       2.405  60.652  71.412  1.00  0.00    -0.002 C 
HETATM    5  C8  UNL     1       0.941  61.061  71.148  1.00  0.00     0.019 C 
HETATM    6  C9  UNL     1       0.399  62.049  72.090  1.00  0.00     0.028 C 
HETATM    7  C10 UNL     1      -0.948  61.717  72.613  1.00  0.00    -0.027 C 
HETATM    8  C11 UNL     1      -1.482  60.765  73.285  1.00  0.00    -0.008 C 
HETATM    9  C12 UNL     1      -1.205  59.510  73.929  1.00  0.00    -0.027 C 
HETATM   10  C13 UNL     1       0.063  58.801  73.971  1.00  0.00     0.027 C 
HETATM   11  C14 UNL     1       1.101  59.292  74.952  1.00  0.00     0.006 C 
HETATM   12  C15 UNL     1       2.468  58.800  74.677  1.00  0.00     0.025 C 
HETATM   13  C16 UNL     1       3.117  59.196  73.379  1.00  0.00     0.085 C 
HETATM   14  C17 UNL     1       2.686  60.483  72.833  1.00  0.00     0.040 C 
HETATM   15  N1  UNL     1       3.123  58.077  72.481  1.00  0.00    -0.356 N 
ATOM     16  H1  UNL     1       3.019  57.125  72.831  1.00  0.00     0.162 HD
ENDROOT
BRANCH   4  17
HETATM   17  C4  UNL     1       3.235  61.779  70.811  1.00  0.00    -0.042 A 
HETATM   18  C5  UNL     1       3.040  62.250  69.552  1.00  0.00     0.015 A 
HETATM   19  C6  UNL     1       3.860  63.255  69.123  1.00  0.00     0.050 A 
HETATM   20  S1  UNL     1       4.879  63.544  70.439  1.00  0.00    -0.113 SA
HETATM   21  C7  UNL     1       4.238  62.367  71.526  1.00  0.00     0.057 A 
ENDBRANCH   4  17
TORSDOF 1
ENDMDL
