MODEL 1
REMARK VINA RESULT: -8.850070389      0.000      0.000
REMARK  2 active torsions:
REMARK  status: ('A' for Active; 'I' for Inactive)
REMARK    1  A    between atoms: C2_2  and  N2_6 
REMARK    2  A    between atoms: N2_6  and  N3_8 
ROOT
HETATM    1  N3  UNL     1       3.134  66.147  63.587  1.00  0.00    -0.307 N 
ATOM      2  H3  UNL     1       2.297  65.589  63.754  1.00  0.00     0.186 HD
HETATM    3  C3  UNL     1       3.037  67.403  63.379  1.00  0.00     0.007 C 
HETATM    4  C4  UNL     1       4.270  68.184  63.142  1.00  0.00     0.054 C 
HETATM    5  C5  UNL     1       5.188  68.148  64.344  1.00  0.00     0.006 C 
HETATM    6  C6  UNL     1       5.564  69.560  64.792  1.00  0.00     0.000 C 
HETATM    7  C7  UNL     1       5.807  69.494  66.286  1.00  0.00     0.000 C 
HETATM    8  C8  UNL     1       5.058  70.620  66.929  1.00  0.00     0.000 C 
HETATM    9  C9  UNL     1       4.586  70.233  68.311  1.00  0.00     0.000 C 
HETATM   10  C10 UNL     1       3.117  70.602  68.510  1.00  0.00     0.000 C 
HETATM   11  C11 UNL     1       2.308  69.413  68.957  1.00  0.00     0.000 C 
HETATM   12  C12 UNL     1       1.328  68.946  67.893  1.00  0.00     0.007 C 
HETATM   13  C13 UNL     1       1.992  67.859  67.113  1.00  0.00     0.081 C 
HETATM   14  C14 UNL     1       1.365  67.583  65.804  1.00  0.00     0.160 C 
HETATM   15  O1  UNL     1       0.865  66.478  65.546  1.00  0.00    -0.295 OA
HETATM   16  C15 UNL     1       1.284  68.584  64.708  1.00  0.00     0.244 C 
HETATM   17  F1  UNL     1       1.898  69.762  65.020  1.00  0.00    -0.241 F 
HETATM   18  C16 UNL     1       1.713  68.031  63.383  1.00  0.00     0.099 C 
ENDROOT
BRANCH   1  19
HETATM   19  N2  UNL     1       4.389  65.544  63.584  1.00  0.00    -0.290 N 
ATOM     20  H2  UNL     1       5.193  66.078  63.253  1.00  0.00     0.188 HD
BRANCH  19  21
HETATM   21  C2  UNL     1       4.584  64.210  64.025  1.00  0.00     0.085 C 
HETATM   22  C1  UNL     1       3.920  63.692  65.252  1.00  0.00     0.090 C 
HETATM   23  N1  UNL     1       5.355  63.447  63.341  1.00  0.00    -0.388 N 
ATOM     24  H12 UNL     1       5.495  62.487  63.659  1.00  0.00     0.157 HD
ATOM     25  H11 UNL     1       5.811  63.801  62.500  1.00  0.00     0.157 HD
ENDBRANCH  19  21
ENDBRANCH   1  19
TORSDOF 2
ENDMDL
MODEL 2
REMARK VINA RESULT: -8.477973019      8.322     10.677
REMARK  2 active torsions:
REMARK  status: ('A' for Active; 'I' for Inactive)
REMARK    1  A    between atoms: C2_2  and  N2_6 
REMARK    2  A    between atoms: N2_6  and  N3_8 
ROOT
HETATM    1  N3  UNL     1      -0.266  63.858  72.668  1.00  0.00    -0.307 N 
ATOM      2  H3  UNL     1       0.043  64.776  72.349  1.00  0.00     0.186 HD
HETATM    3  C3  UNL     1      -0.377  62.894  71.839  1.00  0.00     0.007 C 
HETATM    4  C4  UNL     1      -0.825  61.575  72.334  1.00  0.00     0.054 C 
HETATM    5  C5  UNL     1       0.153  60.998  73.335  1.00  0.00     0.006 C 
HETATM    6  C6  UNL     1       0.591  59.591  72.931  1.00  0.00     0.000 C 
HETATM    7  C7  UNL     1       1.993  59.398  73.469  1.00  0.00     0.000 C 
HETATM    8  C8  UNL     1       2.843  58.845  72.368  1.00  0.00     0.000 C 
HETATM    9  C9  UNL     1       4.269  59.328  72.494  1.00  0.00     0.000 C 
HETATM   10  C10 UNL     1       4.795  59.836  71.152  1.00  0.00     0.000 C 
HETATM   11  C11 UNL     1       5.334  61.237  71.269  1.00  0.00     0.000 C 
HETATM   12  C12 UNL     1       4.477  62.251  70.530  1.00  0.00     0.007 C 
HETATM   13  C13 UNL     1       3.514  62.830  71.514  1.00  0.00     0.081 C 
HETATM   14  C14 UNL     1       2.352  63.507  70.900  1.00  0.00     0.160 C 
HETATM   15  O1  UNL     1       2.145  64.718  71.071  1.00  0.00    -0.295 OA
HETATM   16  C15 UNL     1       1.358  62.810  70.044  1.00  0.00     0.244 C 
HETATM   17  F1  UNL     1       1.599  61.471  69.934  1.00  0.00    -0.241 F 
HETATM   18  C16 UNL     1      -0.058  63.122  70.427  1.00  0.00     0.099 C 
ENDROOT
BRANCH   1  19
HETATM   19  N2  UNL     1      -0.568  63.648  74.011  1.00  0.00    -0.290 N 
ATOM     20  H2  UNL     1      -1.126  62.835  74.271  1.00  0.00     0.188 HD
BRANCH  19  21
HETATM   21  C2  UNL     1      -0.125  64.531  75.029  1.00  0.00     0.085 C 
HETATM   22  C1  UNL     1       1.207  64.369  75.673  1.00  0.00     0.090 C 
HETATM   23  N1  UNL     1      -0.902  65.485  75.392  1.00  0.00    -0.388 N 
ATOM     24  H12 UNL     1      -0.583  66.119  76.124  1.00  0.00     0.157 HD
ATOM     25  H11 UNL     1      -1.815  65.596  74.951  1.00  0.00     0.157 HD
ENDBRANCH  19  21
ENDBRANCH   1  19
TORSDOF 2
ENDMDL
MODEL 3
REMARK VINA RESULT: -8.241187277      2.847      5.121
REMARK  2 active torsions:
REMARK  status: ('A' for Active; 'I' for Inactive)
REMARK    1  A    between atoms: C2_2  and  N2_6 
REMARK    2  A    between atoms: N2_6  and  N3_8 
ROOT
HETATM    1  N3  UNL     1      -0.224  68.129  64.831  1.00  0.00    -0.307 N 
ATOM      2  H3  UNL     1      -0.176  68.007  63.819  1.00  0.00     0.186 HD
HETATM    3  C3  UNL     1       0.503  67.415  65.600  1.00  0.00     0.007 C 
HETATM    4  C4  UNL     1       0.409  67.619  67.061  1.00  0.00     0.054 C 
HETATM    5  C5  UNL     1       0.839  69.016  67.454  1.00  0.00     0.006 C 
HETATM    6  C6  UNL     1       1.925  68.977  68.528  1.00  0.00     0.000 C 
HETATM    7  C7  UNL     1       2.773  70.217  68.336  1.00  0.00     0.000 C 
HETATM    8  C8  UNL     1       4.211  69.804  68.351  1.00  0.00     0.000 C 
HETATM    9  C9  UNL     1       5.037  70.693  67.450  1.00  0.00     0.000 C 
HETATM   10  C10 UNL     1       5.950  69.862  66.550  1.00  0.00     0.000 C 
HETATM   11  C11 UNL     1       5.757  70.213  65.099  1.00  0.00     0.000 C 
HETATM   12  C12 UNL     1       5.110  69.085  64.311  1.00  0.00     0.007 C 
HETATM   13  C13 UNL     1       3.638  69.336  64.288  1.00  0.00     0.081 C 
HETATM   14  C14 UNL     1       2.826  68.152  63.938  1.00  0.00     0.160 C 
HETATM   15  O1  UNL     1       2.113  68.134  62.924  1.00  0.00    -0.295 OA
HETATM   16  C15 UNL     1       2.797  66.910  64.753  1.00  0.00     0.244 C 
HETATM   17  F1  UNL     1       3.552  67.002  65.886  1.00  0.00    -0.241 F 
HETATM   18  C16 UNL     1       1.405  66.420  65.015  1.00  0.00     0.099 C 
ENDROOT
BRANCH   1  19
HETATM   19  N2  UNL     1      -1.085  69.076  65.381  1.00  0.00    -0.290 N 
ATOM     20  H2  UNL     1      -0.709  69.982  65.661  1.00  0.00     0.188 HD
BRANCH  19  21
HETATM   21  C2  UNL     1      -2.468  68.819  65.564  1.00  0.00     0.085 C 
HETATM   22  C1  UNL     1      -2.970  68.080  66.754  1.00  0.00     0.090 C 
HETATM   23  N1  UNL     1      -3.290  69.240  64.675  1.00  0.00    -0.388 N 
ATOM     24  H12 UNL     1      -4.285  69.055  64.807  1.00  0.00     0.157 HD
ATOM     25  H11 UNL     1      -2.946  69.746  63.859  1.00  0.00     0.157 HD
ENDBRANCH  19  21
ENDBRANCH   1  19
TORSDOF 2
ENDMDL
MODEL 4
REMARK VINA RESULT: -7.836292892      7.943     10.051
REMARK  2 active torsions:
REMARK  status: ('A' for Active; 'I' for Inactive)
REMARK    1  A    between atoms: C2_2  and  N2_6 
REMARK    2  A    between atoms: N2_6  and  N3_8 
ROOT
HETATM    1  N3  UNL     1       1.988  64.183  70.222  1.00  0.00    -0.307 N 
ATOM      2  H3  UNL     1       2.980  64.342  70.045  1.00  0.00     0.186 HD
HETATM    3  C3  UNL     1       1.469  63.041  69.984  1.00  0.00     0.007 C 
HETATM    4  C4  UNL     1       0.029  62.842  70.253  1.00  0.00     0.054 C 
HETATM    5  C5  UNL     1      -0.289  63.016  71.723  1.00  0.00     0.006 C 
HETATM    6  C6  UNL     1      -1.032  61.799  72.273  1.00  0.00     0.000 C 
HETATM    7  C7  UNL     1      -0.668  61.692  73.740  1.00  0.00     0.000 C 
HETATM    8  C8  UNL     1      -0.284  60.274  74.022  1.00  0.00     0.000 C 
HETATM    9  C9  UNL     1       0.770  60.206  75.103  1.00  0.00     0.000 C 
HETATM   10  C10 UNL     1       1.912  59.277  74.696  1.00  0.00     0.000 C 
HETATM   11  C11 UNL     1       3.245  59.971  74.791  1.00  0.00     0.000 C 
HETATM   12  C12 UNL     1       3.874  60.206  73.427  1.00  0.00     0.007 C 
HETATM   13  C13 UNL     1       3.494  61.581  72.985  1.00  0.00     0.081 C 
HETATM   14  C14 UNL     1       3.661  61.821  71.537  1.00  0.00     0.160 C 
HETATM   15  O1  UNL     1       4.448  62.678  71.109  1.00  0.00    -0.295 OA
HETATM   16  C15 UNL     1       2.915  61.070  70.493  1.00  0.00     0.244 C 
HETATM   17  F1  UNL     1       2.022  60.181  71.015  1.00  0.00    -0.241 F 
HETATM   18  C16 UNL     1       2.311  61.966  69.453  1.00  0.00     0.099 C 
ENDROOT
BRANCH   1  19
HETATM   19  N2  UNL     1       1.193  65.209  70.725  1.00  0.00    -0.290 N 
ATOM     20  H2  UNL     1       0.887  65.166  71.697  1.00  0.00     0.188 HD
BRANCH  19  21
HETATM   21  C2  UNL     1       0.794  66.312  69.927  1.00  0.00     0.085 C 
HETATM   22  C1  UNL     1      -0.496  66.309  69.185  1.00  0.00     0.090 C 
HETATM   23  N1  UNL     1       1.575  67.326  69.853  1.00  0.00    -0.388 N 
ATOM     24  H12 UNL     1       1.288  68.120  69.279  1.00  0.00     0.157 HD
ATOM     25  H11 UNL     1       2.460  67.329  70.361  1.00  0.00     0.157 HD
ENDBRANCH  19  21
ENDBRANCH   1  19
TORSDOF 2
ENDMDL
MODEL 5
REMARK VINA RESULT: -7.688933183      7.966     10.279
REMARK  2 active torsions:
REMARK  status: ('A' for Active; 'I' for Inactive)
REMARK    1  A    between atoms: C2_2  and  N2_6 
REMARK    2  A    between atoms: N2_6  and  N3_8 
ROOT
HETATM    1  N3  UNL     1       0.385  64.119  71.583  1.00  0.00    -0.307 N 
ATOM      2  H3  UNL     1      -0.470  64.233  72.127  1.00  0.00     0.186 HD
HETATM    3  C3  UNL     1       1.474  63.785  72.161  1.00  0.00     0.007 C 
HETATM    4  C4  UNL     1       2.696  63.627  71.344  1.00  0.00     0.054 C 
HETATM    5  C5  UNL     1       2.542  62.515  70.329  1.00  0.00     0.006 C 
HETATM    6  C6  UNL     1       3.682  61.503  70.442  1.00  0.00     0.000 C 
HETATM    7  C7  UNL     1       3.124  60.166  70.000  1.00  0.00     0.000 C 
HETATM    8  C8  UNL     1       3.512  59.141  71.019  1.00  0.00     0.000 C 
HETATM    9  C9  UNL     1       2.455  58.067  71.132  1.00  0.00     0.000 C 
HETATM   10  C10 UNL     1       2.112  57.788  72.595  1.00  0.00     0.000 C 
HETATM   11  C11 UNL     1       0.633  57.911  72.844  1.00  0.00     0.000 C 
HETATM   12  C12 UNL     1       0.290  59.110  73.714  1.00  0.00     0.007 C 
HETATM   13  C13 UNL     1      -0.044  60.246  72.805  1.00  0.00     0.081 C 
HETATM   14  C14 UNL     1       0.007  61.574  73.451  1.00  0.00     0.160 C 
HETATM   15  O1  UNL     1      -1.003  62.289  73.539  1.00  0.00    -0.295 OA
HETATM   16  C15 UNL     1       1.244  62.153  74.036  1.00  0.00     0.244 C 
HETATM   17  F1  UNL     1       2.336  61.354  73.863  1.00  0.00    -0.241 F 
HETATM   18  C16 UNL     1       1.481  63.571  73.610  1.00  0.00     0.099 C 
ENDROOT
BRANCH   1  19
HETATM   19  N2  UNL     1       0.373  64.326  70.206  1.00  0.00    -0.290 N 
ATOM     20  H2  UNL     1       0.422  63.519  69.585  1.00  0.00     0.188 HD
BRANCH  19  21
HETATM   21  C2  UNL     1       0.293  65.625  69.641  1.00  0.00     0.085 C 
HETATM   22  C1  UNL     1       1.343  66.648  69.895  1.00  0.00     0.090 C 
HETATM   23  N1  UNL     1      -0.713  65.907  68.898  1.00  0.00    -0.388 N 
ATOM     24  H12 UNL     1      -0.769  66.841  68.492  1.00  0.00     0.157 HD
ATOM     25  H11 UNL     1      -1.432  65.206  68.723  1.00  0.00     0.157 HD
ENDBRANCH  19  21
ENDBRANCH   1  19
TORSDOF 2
ENDMDL
