MODEL 1
REMARK VINA RESULT: -6.842350585      0.000      0.000
REMARK  1 active torsions:
REMARK  status: ('A' for Active; 'I' for Inactive)
REMARK    1  A    between atoms: N1_1  and  C1_4 
REMARK       I    between atoms: N4_13  and  C5_14 
REMARK       I    between atoms: C5_14  and  N5_15 
REMARK       I    between atoms: C5_14  and  N6_19 
ROOT
HETATM    1  C1  UNL     1      50.463 120.915  50.346  1.00  0.00     0.680 A 
HETATM    2  N2  UNL     1      50.126 119.834  49.618  1.00  0.00    -0.154 N 
ATOM      3  H2  UNL     1      50.714 119.501  48.853  1.00  0.00     0.187 HD
HETATM    4  C2  UNL     1      48.977 119.213  49.946  1.00  0.00     0.290 A 
HETATM    5  O1  UNL     1      48.638 118.189  49.270  1.00  0.00    -0.265 OA
HETATM    6  C3  UNL     1      48.165 119.640  50.970  1.00  0.00     0.147 A 
HETATM    7  N3  UNL     1      46.998 119.236  51.510  1.00  0.00    -0.345 N 
ATOM      8  H3  UNL     1      46.460 118.431  51.190  1.00  0.00     0.167 HD
HETATM    9  C4  UNL     1      46.640 120.045  52.530  1.00  0.00     0.189 A 
HETATM   10  N4  UNL     1      47.589 120.990  52.657  1.00  0.00    -0.276 N 
HETATM   11  C5  UNL     1      47.635 122.076  53.617  1.00  0.00     0.489 C 
HETATM   12  N5  UNL     1      47.321 123.354  53.031  1.00  0.00    -0.032 N 
ATOM     13  H51 UNL     1      47.354 124.118  53.706  1.00  0.00     0.279 HD
ATOM     14  H52 UNL     1      46.419 123.326  52.555  1.00  0.00     0.279 HD
ATOM     15  H53 UNL     1      47.925 123.547  52.232  1.00  0.00     0.279 HD
HETATM   16  N6  UNL     1      48.923 122.142  54.264  1.00  0.00    -0.032 N 
ATOM     17  H61 UNL     1      48.956 122.907  54.939  1.00  0.00     0.279 HD
ATOM     18  H62 UNL     1      49.682 122.208  53.585  1.00  0.00     0.279 HD
ATOM     19  H63 UNL     1      49.174 121.252  54.693  1.00  0.00     0.279 HD
HETATM   20  C6  UNL     1      48.531 120.766  51.717  1.00  0.00     0.160 A 
HETATM   21  N7  UNL     1      49.684 121.350  51.352  1.00  0.00    -0.174 N 
ATOM     22  H7  UNL     1      49.987 122.175  51.870  1.00  0.00     0.186 HD
ENDROOT
BRANCH   1  23
HETATM   23  N1  UNL     1      51.559 121.533  50.057  1.00  0.00    -0.234 N 
ATOM     24  H12 UNL     1      51.682 121.962  49.140  1.00  0.00     0.174 HD
ATOM     25  H11 UNL     1      52.292 121.579  50.765  1.00  0.00     0.174 HD
ENDBRANCH   1  23
TORSDOF 1
ENDMDL
MODEL 2
REMARK VINA RESULT: -6.758788674      2.813      3.868
REMARK  1 active torsions:
REMARK  status: ('A' for Active; 'I' for Inactive)
REMARK    1  A    between atoms: N1_1  and  C1_4 
REMARK       I    between atoms: N4_13  and  C5_14 
REMARK       I    between atoms: C5_14  and  N5_15 
REMARK       I    between atoms: C5_14  and  N6_19 
ROOT
HETATM    1  C1  UNL     1      46.403 120.119  49.687  1.00  0.00     0.680 A 
HETATM    2  N2  UNL     1      46.041 121.354  49.289  1.00  0.00    -0.154 N 
ATOM      3  H2  UNL     1      45.652 121.523  48.361  1.00  0.00     0.187 HD
HETATM    4  C2  UNL     1      46.215 122.354  50.173  1.00  0.00     0.290 A 
HETATM    5  O1  UNL     1      45.880 123.530  49.819  1.00  0.00    -0.265 OA
HETATM    6  C3  UNL     1      46.737 122.155  51.430  1.00  0.00     0.147 A 
HETATM    7  N3  UNL     1      47.018 122.935  52.493  1.00  0.00    -0.345 N 
ATOM      8  H3  UNL     1      46.863 123.942  52.530  1.00  0.00     0.167 HD
HETATM    9  C4  UNL     1      47.534 122.199  53.501  1.00  0.00     0.189 A 
HETATM   10  N4  UNL     1      47.588 120.919  53.088  1.00  0.00    -0.276 N 
HETATM   11  C5  UNL     1      48.070 119.769  53.827  1.00  0.00     0.489 C 
HETATM   12  N5  UNL     1      49.361 119.316  53.379  1.00  0.00    -0.032 N 
ATOM     13  H51 UNL     1      49.699 118.506  53.900  1.00  0.00     0.279 HD
ATOM     14  H52 UNL     1      50.042 120.075  53.402  1.00  0.00     0.279 HD
ATOM     15  H53 UNL     1      49.354 119.128  52.377  1.00  0.00     0.279 HD
HETATM   16  N6  UNL     1      47.125 118.680  53.766  1.00  0.00    -0.032 N 
ATOM     17  H61 UNL     1      47.463 117.870  54.286  1.00  0.00     0.279 HD
ATOM     18  H62 UNL     1      46.894 118.438  52.802  1.00  0.00     0.279 HD
ATOM     19  H63 UNL     1      46.199 118.968  54.080  1.00  0.00     0.279 HD
HETATM   20  C6  UNL     1      47.109 120.866  51.827  1.00  0.00     0.160 A 
HETATM   21  N7  UNL     1      46.916 119.903  50.912  1.00  0.00    -0.174 N 
ATOM     22  H7  UNL     1      47.174 118.948  51.160  1.00  0.00     0.186 HD
ENDROOT
BRANCH   1  23
HETATM   23  N1  UNL     1      46.249 119.138  48.863  1.00  0.00    -0.234 N 
ATOM     24  H12 UNL     1      45.565 119.203  48.108  1.00  0.00     0.174 HD
ATOM     25  H11 UNL     1      46.822 118.304  48.987  1.00  0.00     0.174 HD
ENDBRANCH   1  23
TORSDOF 1
ENDMDL
MODEL 3
REMARK VINA RESULT: -6.677274869      1.688      3.051
REMARK  1 active torsions:
REMARK  status: ('A' for Active; 'I' for Inactive)
REMARK    1  A    between atoms: N1_1  and  C1_4 
REMARK       I    between atoms: N4_13  and  C5_14 
REMARK       I    between atoms: C5_14  and  N5_15 
REMARK       I    between atoms: C5_14  and  N6_19 
ROOT
HETATM    1  C1  UNL     1      46.895 119.639  50.236  1.00  0.00     0.680 A 
HETATM    2  N2  UNL     1      47.861 119.633  49.299  1.00  0.00    -0.154 N 
ATOM      3  H2  UNL     1      47.668 119.360  48.335  1.00  0.00     0.187 HD
HETATM    4  C2  UNL     1      49.094 120.003  49.692  1.00  0.00     0.290 A 
HETATM    5  O1  UNL     1      50.024 120.004  48.823  1.00  0.00    -0.265 OA
HETATM    6  C3  UNL     1      49.384 120.374  50.984  1.00  0.00     0.147 A 
HETATM    7  N3  UNL     1      50.484 120.778  51.649  1.00  0.00    -0.345 N 
ATOM      8  H3  UNL     1      51.408 120.886  51.230  1.00  0.00     0.167 HD
HETATM    9  C4  UNL     1      50.196 121.021  52.946  1.00  0.00     0.189 A 
HETATM   10  N4  UNL     1      48.886 120.771  53.128  1.00  0.00    -0.276 N 
HETATM   11  C5  UNL     1      48.123 120.891  54.355  1.00  0.00     0.489 C 
HETATM   12  N5  UNL     1      47.811 119.616  54.947  1.00  0.00    -0.032 N 
ATOM     13  H51 UNL     1      47.273 119.701  55.810  1.00  0.00     0.279 HD
ATOM     14  H52 UNL     1      48.657 119.066  55.096  1.00  0.00     0.279 HD
ATOM     15  H53 UNL     1      47.334 119.011  54.278  1.00  0.00     0.279 HD
HETATM   16  N6  UNL     1      46.907 121.637  54.140  1.00  0.00    -0.032 N 
ATOM     17  H61 UNL     1      46.370 121.722  55.003  1.00  0.00     0.279 HD
ATOM     18  H62 UNL     1      46.348 121.234  53.387  1.00  0.00     0.279 HD
ATOM     19  H63 UNL     1      47.094 122.549  53.723  1.00  0.00     0.279 HD
HETATM   20  C6  UNL     1      48.368 120.374  51.947  1.00  0.00     0.160 A 
HETATM   21  N7  UNL     1      47.156 119.998  51.506  1.00  0.00    -0.174 N 
ATOM     22  H7  UNL     1      46.387 119.983  52.176  1.00  0.00     0.186 HD
ENDROOT
BRANCH   1  23
HETATM   23  N1  UNL     1      45.701 119.289  49.891  1.00  0.00    -0.234 N 
ATOM     24  H12 UNL     1      45.239 118.508  50.357  1.00  0.00     0.174 HD
ATOM     25  H11 UNL     1      45.239 119.809  49.145  1.00  0.00     0.174 HD
ENDBRANCH   1  23
TORSDOF 1
ENDMDL
MODEL 4
REMARK VINA RESULT: -6.580434305      1.675      3.820
REMARK  1 active torsions:
REMARK  status: ('A' for Active; 'I' for Inactive)
REMARK    1  A    between atoms: N1_1  and  C1_4 
REMARK       I    between atoms: N4_13  and  C5_14 
REMARK       I    between atoms: C5_14  and  N5_15 
REMARK       I    between atoms: C5_14  and  N6_19 
ROOT
HETATM    1  C1  UNL     1      48.658 121.454  53.176  1.00  0.00     0.680 A 
HETATM    2  N2  UNL     1      48.209 120.237  53.538  1.00  0.00    -0.154 N 
ATOM      3  H2  UNL     1      47.857 120.055  54.478  1.00  0.00     0.187 HD
HETATM    4  C2  UNL     1      48.246 119.271  52.601  1.00  0.00     0.290 A 
HETATM    5  O1  UNL     1      47.827 118.112  52.921  1.00  0.00    -0.265 OA
HETATM    6  C3  UNL     1      48.715 119.486  51.327  1.00  0.00     0.147 A 
HETATM    7  N3  UNL     1      48.869 118.740  50.215  1.00  0.00    -0.345 N 
ATOM      8  H3  UNL     1      48.623 117.753  50.142  1.00  0.00     0.167 HD
HETATM    9  C4  UNL     1      49.394 119.478  49.213  1.00  0.00     0.189 A 
HETATM   10  N4  UNL     1      49.584 120.726  49.680  1.00  0.00    -0.276 N 
HETATM   11  C5  UNL     1      50.126 121.866  48.967  1.00  0.00     0.489 C 
HETATM   12  N5  UNL     1      51.474 122.183  49.360  1.00  0.00    -0.032 N 
ATOM     13  H51 UNL     1      51.855 122.986  48.858  1.00  0.00     0.279 HD
ATOM     14  H52 UNL     1      52.083 121.370  49.264  1.00  0.00     0.279 HD
ATOM     15  H53 UNL     1      51.538 122.320  50.369  1.00  0.00     0.279 HD
HETATM   16  N6  UNL     1      49.287 123.028  49.132  1.00  0.00    -0.032 N 
ATOM     17  H61 UNL     1      49.668 123.831  48.631  1.00  0.00     0.279 HD
ATOM     18  H62 UNL     1      49.130 123.241  50.118  1.00  0.00     0.279 HD
ATOM     19  H63 UNL     1      48.323 122.837  48.859  1.00  0.00     0.279 HD
HETATM   20  C6  UNL     1      49.179 120.757  50.968  1.00  0.00     0.160 A 
HETATM   21  N7  UNL     1      49.122 121.686  51.935  1.00  0.00    -0.174 N 
ATOM     22  H7  UNL     1      49.451 122.626  51.716  1.00  0.00     0.186 HD
ENDROOT
BRANCH   1  23
HETATM   23  N1  UNL     1      48.636 122.402  54.052  1.00  0.00    -0.234 N 
ATOM     24  H12 UNL     1      49.301 122.404  54.825  1.00  0.00     0.174 HD
ATOM     25  H11 UNL     1      47.940 123.141  53.950  1.00  0.00     0.174 HD
ENDBRANCH   1  23
TORSDOF 1
ENDMDL
MODEL 5
REMARK VINA RESULT: -6.573147656      3.309      5.038
REMARK  1 active torsions:
REMARK  status: ('A' for Active; 'I' for Inactive)
REMARK    1  A    between atoms: N1_1  and  C1_4 
REMARK       I    between atoms: N4_13  and  C5_14 
REMARK       I    between atoms: C5_14  and  N5_15 
REMARK       I    between atoms: C5_14  and  N6_19 
ROOT
HETATM    1  C1  UNL     1      46.934 120.179  52.263  1.00  0.00     0.680 A 
HETATM    2  N2  UNL     1      47.059 121.266  53.047  1.00  0.00    -0.154 N 
ATOM      3  H2  UNL     1      47.269 121.186  54.042  1.00  0.00     0.187 HD
HETATM    4  C2  UNL     1      46.894 122.465  52.457  1.00  0.00     0.290 A 
HETATM    5  O1  UNL     1      47.007 123.507  53.179  1.00  0.00    -0.265 OA
HETATM    6  C3  UNL     1      46.609 122.603  51.119  1.00  0.00     0.147 A 
HETATM    7  N3  UNL     1      46.397 123.636  50.278  1.00  0.00    -0.345 N 
ATOM      8  H3  UNL     1      46.418 124.618  50.551  1.00  0.00     0.167 HD
HETATM    9  C4  UNL     1      46.151 123.190  49.027  1.00  0.00     0.189 A 
HETATM   10  N4  UNL     1      46.205 121.846  49.054  1.00  0.00    -0.276 N 
HETATM   11  C5  UNL     1      46.007 120.929  47.948  1.00  0.00     0.489 C 
HETATM   12  N5  UNL     1      44.734 120.257  47.999  1.00  0.00    -0.032 N 
ATOM     13  H51 UNL     1      44.595 119.612  47.221  1.00  0.00     0.279 HD
ATOM     14  H52 UNL     1      43.969 120.929  48.057  1.00  0.00     0.279 HD
ATOM     15  H53 UNL     1      44.607 119.784  48.893  1.00  0.00     0.279 HD
HETATM   16  N6  UNL     1      47.068 119.953  47.886  1.00  0.00    -0.032 N 
ATOM     17  H61 UNL     1      46.929 119.308  47.108  1.00  0.00     0.279 HD
ATOM     18  H62 UNL     1      47.174 119.457  48.771  1.00  0.00     0.279 HD
ATOM     19  H63 UNL     1      47.985 120.397  47.845  1.00  0.00     0.279 HD
HETATM   20  C6  UNL     1      46.482 121.462  50.318  1.00  0.00     0.160 A 
HETATM   21  N7  UNL     1      46.656 120.291  50.952  1.00  0.00    -0.174 N 
ATOM     22  H7  UNL     1      46.571 119.435  50.405  1.00  0.00     0.186 HD
ENDROOT
BRANCH   1  23
HETATM   23  N1  UNL     1      47.087 119.014  52.799  1.00  0.00    -0.234 N 
ATOM     24  H12 UNL     1      46.304 118.362  52.843  1.00  0.00     0.174 HD
ATOM     25  H11 UNL     1      48.003 118.768  53.173  1.00  0.00     0.174 HD
ENDBRANCH   1  23
TORSDOF 1
ENDMDL
