MODEL 1
REMARK VINA RESULT: -5.974744684      0.000      0.000
REMARK  6 active torsions:
REMARK  status: ('A' for Active; 'I' for Inactive)
REMARK    1  A    between atoms: N1_1  and  C1_4 
REMARK    2  A    between atoms: C2_7  and  C3_8 
REMARK    3  A    between atoms: C4_9  and  C5_10 
REMARK    4  A    between atoms: C5_10  and  N3_11 
REMARK    5  A    between atoms: C5_10  and  C6_15 
REMARK    6  A    between atoms: C7_19  and  N5_20 
ROOT
HETATM    1  C1  UNL     1      47.595 120.134  53.847  1.00  0.00     0.692 A 
HETATM    2  N2  UNL     1      47.201 119.630  52.660  1.00  0.00    -0.168 N 
ATOM      3  H2  UNL     1      47.051 118.626  52.562  1.00  0.00     0.186 HD
HETATM    4  C2  UNL     1      47.003 120.440  51.607  1.00  0.00     0.191 A 
HETATM    5  N4  UNL     1      47.213 121.759  51.779  1.00  0.00    -0.168 N 
ATOM      6  H4  UNL     1      47.067 122.386  50.988  1.00  0.00     0.186 HD
HETATM    7  C7  UNL     1      47.606 122.283  52.954  1.00  0.00     0.692 A 
HETATM    8  N6  UNL     1      47.799 121.463  53.996  1.00  0.00    -0.023 N 
ATOM      9  H6  UNL     1      48.097 121.839  54.896  1.00  0.00     0.203 HD
ENDROOT
BRANCH   4  10
HETATM   10  C3  UNL     1      46.582 119.871  50.355  1.00  0.00    -0.027 C 
HETATM   11  C4  UNL     1      46.243 119.394  49.295  1.00  0.00    -0.058 C 
BRANCH  11  12
HETATM   12  C5  UNL     1      45.850 118.803  48.000  1.00  0.00     0.323 C 
BRANCH  12  13
HETATM   13  N3  UNL     1      45.609 119.834  47.024  1.00  0.00    -0.058 N 
ATOM     14  H33 UNL     1      46.321 120.563  47.060  1.00  0.00     0.276 HD
ATOM     15  H32 UNL     1      45.777 119.502  46.074  1.00  0.00     0.276 HD
ATOM     16  H31 UNL     1      44.670 120.217  47.130  1.00  0.00     0.276 HD
ENDBRANCH  12  13
BRANCH  12  17
HETATM   17  C6  UNL     1      46.974 117.915  47.586  1.00  0.00     0.276 C 
HETATM   18  O1  UNL     1      47.086 116.823  48.098  1.00  0.00    -0.304 OA
ENDBRANCH  12  17
ENDBRANCH  11  12
ENDBRANCH   4  10
BRANCH   1  19
HETATM   19  N1  UNL     1      47.789 119.363  54.874  1.00  0.00    -0.234 N 
ATOM     20  H12 UNL     1      47.393 118.424  54.854  1.00  0.00     0.174 HD
ATOM     21  H11 UNL     1      48.323 119.685  55.681  1.00  0.00     0.174 HD
ENDBRANCH   1  19
BRANCH   7  22
HETATM   22  N5  UNL     1      47.787 123.560  53.044  1.00  0.00    -0.234 N 
ATOM     23  H52 UNL     1      48.710 123.966  53.193  1.00  0.00     0.174 HD
ATOM     24  H51 UNL     1      46.982 124.182  52.965  1.00  0.00     0.174 HD
ENDBRANCH   7  22
TORSDOF 6
ENDMDL
MODEL 2
REMARK VINA RESULT: -5.970277712      0.084      2.128
REMARK  6 active torsions:
REMARK  status: ('A' for Active; 'I' for Inactive)
REMARK    1  A    between atoms: N1_1  and  C1_4 
REMARK    2  A    between atoms: C2_7  and  C3_8 
REMARK    3  A    between atoms: C4_9  and  C5_10 
REMARK    4  A    between atoms: C5_10  and  N3_11 
REMARK    5  A    between atoms: C5_10  and  C6_15 
REMARK    6  A    between atoms: C7_19  and  N5_20 
ROOT
HETATM    1  C1  UNL     1      47.495 122.260  52.890  1.00  0.00     0.692 A 
HETATM    2  N2  UNL     1      47.128 121.715  51.713  1.00  0.00    -0.168 N 
ATOM      3  H2  UNL     1      46.977 122.314  50.902  1.00  0.00     0.186 HD
HETATM    4  C2  UNL     1      46.961 120.386  51.601  1.00  0.00     0.191 A 
HETATM    5  N4  UNL     1      47.170 119.631  52.695  1.00  0.00    -0.168 N 
ATOM      6  H4  UNL     1      47.046 118.621  52.625  1.00  0.00     0.186 HD
HETATM    7  C7  UNL     1      47.536 120.155  53.879  1.00  0.00     0.692 A 
HETATM    8  N6  UNL     1      47.700 121.481  53.976  1.00  0.00    -0.023 N 
ATOM      9  H6  UNL     1      47.978 121.901  54.864  1.00  0.00     0.203 HD
ENDROOT
BRANCH   4  10
HETATM   10  C3  UNL     1      46.570 119.834  50.332  1.00  0.00    -0.027 C 
HETATM   11  C4  UNL     1      46.256 119.369  49.258  1.00  0.00    -0.058 C 
BRANCH  11  12
HETATM   12  C5  UNL     1      45.893 118.790  47.949  1.00  0.00     0.323 C 
BRANCH  12  13
HETATM   13  N3  UNL     1      45.701 119.829  46.971  1.00  0.00    -0.058 N 
ATOM     14  H33 UNL     1      45.976 120.743  47.330  1.00  0.00     0.276 HD
ATOM     15  H32 UNL     1      46.371 119.757  46.205  1.00  0.00     0.276 HD
ATOM     16  H31 UNL     1      44.739 119.830  46.633  1.00  0.00     0.276 HD
ENDBRANCH  12  13
BRANCH  12  17
HETATM   17  C6  UNL     1      47.014 117.885  47.567  1.00  0.00     0.276 C 
HETATM   18  O1  UNL     1      47.109 116.802  48.100  1.00  0.00    -0.304 OA
ENDBRANCH  12  17
ENDBRANCH  11  12
ENDBRANCH   4  10
BRANCH   1  19
HETATM   19  N1  UNL     1      47.661 123.543  53.013  1.00  0.00    -0.234 N 
ATOM     20  H12 UNL     1      46.840 124.121  53.190  1.00  0.00     0.174 HD
ATOM     21  H11 UNL     1      48.586 123.965  52.934  1.00  0.00     0.174 HD
ENDBRANCH   1  19
BRANCH   7  22
HETATM   22  N5  UNL     1      47.720 119.366  54.886  1.00  0.00    -0.234 N 
ATOM     23  H52 UNL     1      48.388 118.596  54.855  1.00  0.00     0.174 HD
ATOM     24  H51 UNL     1      47.181 119.516  55.739  1.00  0.00     0.174 HD
ENDBRANCH   7  22
TORSDOF 6
ENDMDL
MODEL 3
REMARK VINA RESULT: -5.958993436      1.629      2.766
REMARK  6 active torsions:
REMARK  status: ('A' for Active; 'I' for Inactive)
REMARK    1  A    between atoms: N1_1  and  C1_4 
REMARK    2  A    between atoms: C2_7  and  C3_8 
REMARK    3  A    between atoms: C4_9  and  C5_10 
REMARK    4  A    between atoms: C5_10  and  N3_11 
REMARK    5  A    between atoms: C5_10  and  C6_15 
REMARK    6  A    between atoms: C7_19  and  N5_20 
ROOT
HETATM    1  C1  UNL     1      47.543 121.911  52.881  1.00  0.00     0.692 A 
HETATM    2  N2  UNL     1      47.088 121.664  51.637  1.00  0.00    -0.168 N 
ATOM      3  H2  UNL     1      46.984 122.432  50.974  1.00  0.00     0.186 HD
HETATM    4  C2  UNL     1      46.771 120.413  51.263  1.00  0.00     0.191 A 
HETATM    5  N4  UNL     1      46.922 119.428  52.169  1.00  0.00    -0.168 N 
ATOM      6  H4  UNL     1      46.685 118.473  51.899  1.00  0.00     0.186 HD
HETATM    7  C7  UNL     1      47.374 119.653  53.416  1.00  0.00     0.692 A 
HETATM    8  N6  UNL     1      47.687 120.906  53.774  1.00  0.00    -0.023 N 
ATOM      9  H6  UNL     1      48.032 121.100  54.715  1.00  0.00     0.203 HD
ENDROOT
BRANCH   4  10
HETATM   10  C3  UNL     1      46.289 120.182  49.928  1.00  0.00    -0.027 C 
HETATM   11  C4  UNL     1      45.899 119.985  48.798  1.00  0.00    -0.058 C 
BRANCH  11  12
HETATM   12  C5  UNL     1      45.441 119.731  47.418  1.00  0.00     0.323 C 
BRANCH  12  13
HETATM   13  N3  UNL     1      45.698 118.365  47.041  1.00  0.00    -0.058 N 
ATOM     14  H33 UNL     1      45.991 117.801  47.839  1.00  0.00     0.276 HD
ATOM     15  H32 UNL     1      44.838 117.868  46.811  1.00  0.00     0.276 HD
ATOM     16  H31 UNL     1      46.374 118.324  46.280  1.00  0.00     0.276 HD
ENDBRANCH  12  13
BRANCH  12  17
HETATM   17  C6  UNL     1      43.981 120.034  47.398  1.00  0.00     0.276 C 
HETATM   18  O1  UNL     1      43.278 119.510  46.563  1.00  0.00    -0.304 OA
ENDBRANCH  12  17
ENDBRANCH  11  12
ENDBRANCH   4  10
BRANCH   1  19
HETATM   19  N1  UNL     1      47.854 123.115  53.256  1.00  0.00    -0.234 N 
ATOM     20  H12 UNL     1      48.284 123.738  52.572  1.00  0.00     0.174 HD
ATOM     21  H11 UNL     1      47.675 123.434  54.208  1.00  0.00     0.174 HD
ENDBRANCH   1  19
BRANCH   7  22
HETATM   22  N5  UNL     1      47.494 118.657  54.230  1.00  0.00    -0.234 N 
ATOM     23  H52 UNL     1      47.164 118.704  55.194  1.00  0.00     0.174 HD
ATOM     24  H51 UNL     1      47.933 117.797  53.902  1.00  0.00     0.174 HD
ENDBRANCH   7  22
TORSDOF 6
ENDMDL
MODEL 4
REMARK VINA RESULT: -5.913362728      1.407      1.548
REMARK  6 active torsions:
REMARK  status: ('A' for Active; 'I' for Inactive)
REMARK    1  A    between atoms: N1_1  and  C1_4 
REMARK    2  A    between atoms: C2_7  and  C3_8 
REMARK    3  A    between atoms: C4_9  and  C5_10 
REMARK    4  A    between atoms: C5_10  and  N3_11 
REMARK    5  A    between atoms: C5_10  and  C6_15 
REMARK    6  A    between atoms: C7_19  and  N5_20 
ROOT
HETATM    1  C1  UNL     1      47.479 119.717  53.590  1.00  0.00     0.692 A 
HETATM    2  N2  UNL     1      47.137 119.382  52.329  1.00  0.00    -0.168 N 
ATOM      3  H2  UNL     1      46.953 118.406  52.097  1.00  0.00     0.186 HD
HETATM    4  C2  UNL     1      47.037 120.325  51.377  1.00  0.00     0.191 A 
HETATM    5  N4  UNL     1      47.288 121.601  51.726  1.00  0.00    -0.168 N 
ATOM      6  H4  UNL     1      47.216 122.327  51.013  1.00  0.00     0.186 HD
HETATM    7  C7  UNL     1      47.631 121.956  52.977  1.00  0.00     0.692 A 
HETATM    8  N6  UNL     1      47.727 121.006  53.916  1.00  0.00    -0.023 N 
ATOM      9  H6  UNL     1      47.986 121.253  54.872  1.00  0.00     0.203 HD
ENDROOT
BRANCH   4  10
HETATM   10  C3  UNL     1      46.669 119.936  50.042  1.00  0.00    -0.027 C 
HETATM   11  C4  UNL     1      46.376 119.607  48.914  1.00  0.00    -0.058 C 
BRANCH  11  12
HETATM   12  C5  UNL     1      46.037 119.195  47.537  1.00  0.00     0.323 C 
BRANCH  12  13
HETATM   13  N3  UNL     1      46.167 117.769  47.389  1.00  0.00    -0.058 N 
ATOM     14  H33 UNL     1      46.381 117.313  48.276  1.00  0.00     0.276 HD
ATOM     15  H32 UNL     1      45.268 117.324  47.202  1.00  0.00     0.276 HD
ATOM     16  H31 UNL     1      46.856 117.543  46.672  1.00  0.00     0.276 HD
ENDBRANCH  12  13
BRANCH  12  17
HETATM   17  C6  UNL     1      44.635 119.641  47.299  1.00  0.00     0.276 C 
HETATM   18  O1  UNL     1      44.029 119.207  46.344  1.00  0.00    -0.304 OA
ENDBRANCH  12  17
ENDBRANCH  11  12
ENDBRANCH   4  10
BRANCH   1  19
HETATM   19  N1  UNL     1      47.580 118.817  54.520  1.00  0.00    -0.234 N 
ATOM     20  H12 UNL     1      48.504 118.438  54.728  1.00  0.00     0.174 HD
ATOM     21  H11 UNL     1      46.759 118.493  55.032  1.00  0.00     0.174 HD
ENDBRANCH   1  19
BRANCH   7  22
HETATM   22  N5  UNL     1      47.857 123.202  53.237  1.00  0.00    -0.234 N 
ATOM     23  H52 UNL     1      47.960 123.899  52.499  1.00  0.00     0.174 HD
ATOM     24  H51 UNL     1      47.937 123.500  54.209  1.00  0.00     0.174 HD
ENDBRANCH   7  22
TORSDOF 6
ENDMDL
MODEL 5
REMARK VINA RESULT: -5.800745328      1.693      1.715
REMARK  6 active torsions:
REMARK  status: ('A' for Active; 'I' for Inactive)
REMARK    1  A    between atoms: N1_1  and  C1_4 
REMARK    2  A    between atoms: C2_7  and  C3_8 
REMARK    3  A    between atoms: C4_9  and  C5_10 
REMARK    4  A    between atoms: C5_10  and  N3_11 
REMARK    5  A    between atoms: C5_10  and  C6_15 
REMARK    6  A    between atoms: C7_19  and  N5_20 
ROOT
HETATM    1  C1  UNL     1      47.373 119.370  53.410  1.00  0.00     0.692 A 
HETATM    2  N2  UNL     1      46.920 119.445  52.142  1.00  0.00    -0.168 N 
ATOM      3  H2  UNL     1      46.555 118.610  51.684  1.00  0.00     0.186 HD
HETATM    4  C2  UNL     1      46.944 120.613  51.478  1.00  0.00     0.191 A 
HETATM    5  N4  UNL     1      47.434 121.691  52.119  1.00  0.00    -0.168 N 
ATOM      6  H4  UNL     1      47.459 122.585  51.627  1.00  0.00     0.186 HD
HETATM    7  C7  UNL     1      47.892 121.638  53.383  1.00  0.00     0.692 A 
HETATM    8  N6  UNL     1      47.861 120.466  54.033  1.00  0.00    -0.023 N 
ATOM      9  H6  UNL     1      48.203 120.402  54.992  1.00  0.00     0.203 HD
ENDROOT
BRANCH   4  10
HETATM   10  C3  UNL     1      46.453 120.662  50.128  1.00  0.00    -0.027 C 
HETATM   11  C4  UNL     1      46.041 120.719  48.990  1.00  0.00    -0.058 C 
BRANCH  11  12
HETATM   12  C5  UNL     1      45.554 120.806  47.599  1.00  0.00     0.323 C 
BRANCH  12  13
HETATM   13  N3  UNL     1      46.609 120.492  46.671  1.00  0.00    -0.058 N 
ATOM     14  H33 UNL     1      46.402 119.652  46.132  1.00  0.00     0.276 HD
ATOM     15  H32 UNL     1      46.649 121.162  45.903  1.00  0.00     0.276 HD
ATOM     16  H31 UNL     1      47.503 120.419  47.156  1.00  0.00     0.276 HD
ENDBRANCH  12  13
BRANCH  12  17
HETATM   17  C6  UNL     1      44.427 119.836  47.488  1.00  0.00     0.276 C 
HETATM   18  O1  UNL     1      44.330 119.151  46.494  1.00  0.00    -0.304 OA
ENDBRANCH  12  17
ENDBRANCH  11  12
ENDBRANCH   4  10
BRANCH   1  19
HETATM   19  N1  UNL     1      47.356 118.248  54.064  1.00  0.00    -0.234 N 
ATOM     20  H12 UNL     1      48.237 117.751  54.195  1.00  0.00     0.174 HD
ATOM     21  H11 UNL     1      46.486 117.869  54.437  1.00  0.00     0.174 HD
ENDBRANCH   1  19
BRANCH   7  22
HETATM   22  N5  UNL     1      48.347 122.715  53.934  1.00  0.00    -0.234 N 
ATOM     23  H52 UNL     1      47.731 123.472  54.231  1.00  0.00     0.174 HD
ATOM     24  H51 UNL     1      49.353 122.814  54.075  1.00  0.00     0.174 HD
ENDBRANCH   7  22
TORSDOF 6
ENDMDL
