MODEL 1
REMARK VINA RESULT: -6.121964613      0.000      0.000
REMARK  3 active torsions:
REMARK  status: ('A' for Active; 'I' for Inactive)
REMARK    1  A    between atoms: N1_1  and  C1_4 
REMARK    2  A    between atoms: N2_7  and  N3_8 
REMARK       I    between atoms: N3_8  and  C4_10 
REMARK       I    between atoms: C4_10  and  N4_12 
REMARK    3  A    between atoms: N4_12  and  N5_14 
ROOT
HETATM    1  C1  UNL     1      47.517 119.348  53.074  1.00  0.00     0.103 A 
HETATM    2  C2  UNL     1      48.320 119.214  51.964  1.00  0.00     0.067 A 
HETATM    3  C3  UNL     1      48.595 120.339  51.194  1.00  0.00     0.125 A 
HETATM    4  N2  UNL     1      48.119 121.563  51.471  1.00  0.00    -0.213 N 
HETATM    5  C5  UNL     1      47.324 121.647  52.587  1.00  0.00     0.346 A 
HETATM    6  O2  UNL     1      46.829 122.767  52.928  1.00  0.00    -0.245 OA
HETATM    7  N6  UNL     1      47.049 120.580  53.338  1.00  0.00    -0.293 N 
ATOM      8  H6  UNL     1      46.452 120.705  54.156  1.00  0.00     0.172 HD
ENDROOT
BRANCH   4   9
HETATM    9  N3  UNL     1      48.358 122.712  50.746  1.00  0.00    -0.240 N 
HETATM   10  C4  UNL     1      47.818 123.113  49.511  1.00  0.00     0.353 C 
HETATM   11  O1  UNL     1      46.998 122.447  48.851  1.00  0.00    -0.244 OA
HETATM   12  N4  UNL     1      48.207 124.368  48.922  1.00  0.00    -0.257 N 
ATOM     13  H4  UNL     1      48.877 124.971  49.400  1.00  0.00     0.191 HD
ATOM     14  H3  UNL     1      49.019 123.365  51.166  1.00  0.00     0.192 HD
BRANCH  12  15
HETATM   15  N5  UNL     1      47.669 124.756  47.702  1.00  0.00    -0.341 N 
ATOM     16  H52 UNL     1      46.805 125.298  47.691  1.00  0.00     0.177 HD
ATOM     17  H51 UNL     1      48.139 124.497  46.834  1.00  0.00     0.177 HD
ENDBRANCH  12  15
ENDBRANCH   4   9
BRANCH   1  18
HETATM   18  N1  UNL     1      47.206 118.373  53.845  1.00  0.00    -0.385 N 
ATOM     19  H12 UNL     1      46.551 117.662  53.521  1.00  0.00     0.157 HD
ATOM     20  H11 UNL     1      47.580 118.258  54.788  1.00  0.00     0.157 HD
ENDBRANCH   1  18
TORSDOF 3
ENDMDL
MODEL 2
REMARK VINA RESULT: -6.025544451      1.038      1.038
REMARK  3 active torsions:
REMARK  status: ('A' for Active; 'I' for Inactive)
REMARK    1  A    between atoms: N1_1  and  C1_4 
REMARK    2  A    between atoms: N2_7  and  N3_8 
REMARK       I    between atoms: N3_8  and  C4_10 
REMARK       I    between atoms: C4_10  and  N4_12 
REMARK    3  A    between atoms: N4_12  and  N5_14 
ROOT
HETATM    1  C1  UNL     1      47.925 120.415  54.055  1.00  0.00     0.103 A 
HETATM    2  C2  UNL     1      48.736 120.133  52.980  1.00  0.00     0.067 A 
HETATM    3  C3  UNL     1      48.797 121.041  51.928  1.00  0.00     0.125 A 
HETATM    4  N2  UNL     1      48.104 122.190  51.897  1.00  0.00    -0.213 N 
HETATM    5  C5  UNL     1      47.310 122.428  52.991  1.00  0.00     0.346 A 
HETATM    6  O2  UNL     1      46.617 123.492  53.050  1.00  0.00    -0.245 OA
HETATM    7  N6  UNL     1      47.238 121.570  54.009  1.00  0.00    -0.293 N 
ATOM      8  H6  UNL     1      46.629 121.802  54.795  1.00  0.00     0.172 HD
ENDROOT
BRANCH   4   9
HETATM    9  N3  UNL     1      48.125 123.126  50.884  1.00  0.00    -0.240 N 
HETATM   10  C4  UNL     1      47.738 122.990  49.539  1.00  0.00     0.353 C 
HETATM   11  O1  UNL     1      47.294 121.940  49.036  1.00  0.00    -0.244 OA
HETATM   12  N4  UNL     1      47.842 124.107  48.637  1.00  0.00    -0.257 N 
ATOM     13  H4  UNL     1      48.198 125.003  48.972  1.00  0.00     0.191 HD
ATOM     14  H3  UNL     1      48.471 124.048  51.148  1.00  0.00     0.192 HD
BRANCH  12  15
HETATM   15  N5  UNL     1      47.457 123.964  47.311  1.00  0.00    -0.341 N 
ATOM     16  H52 UNL     1      48.167 123.752  46.609  1.00  0.00     0.177 HD
ATOM     17  H51 UNL     1      46.477 124.071  47.051  1.00  0.00     0.177 HD
ENDBRANCH  12  15
ENDBRANCH   4   9
BRANCH   1  18
HETATM   18  N1  UNL     1      47.801 119.644  55.071  1.00  0.00    -0.385 N 
ATOM     19  H12 UNL     1      47.198 118.823  55.010  1.00  0.00     0.157 HD
ATOM     20  H11 UNL     1      48.276 119.801  55.960  1.00  0.00     0.157 HD
ENDBRANCH   1  18
TORSDOF 3
ENDMDL
MODEL 3
REMARK VINA RESULT: -6.020616356      1.561      5.449
REMARK  3 active torsions:
REMARK  status: ('A' for Active; 'I' for Inactive)
REMARK    1  A    between atoms: N1_1  and  C1_4 
REMARK    2  A    between atoms: N2_7  and  N3_8 
REMARK       I    between atoms: N3_8  and  C4_10 
REMARK       I    between atoms: C4_10  and  N4_12 
REMARK    3  A    between atoms: N4_12  and  N5_14 
ROOT
HETATM    1  C1  UNL     1      47.622 124.106  49.019  1.00  0.00     0.103 A 
HETATM    2  C2  UNL     1      46.379 123.782  49.515  1.00  0.00     0.067 A 
HETATM    3  C3  UNL     1      46.224 122.585  50.206  1.00  0.00     0.125 A 
HETATM    4  N2  UNL     1      47.223 121.715  50.420  1.00  0.00    -0.213 N 
HETATM    5  C5  UNL     1      48.442 122.082  49.907  1.00  0.00     0.346 A 
HETATM    6  O2  UNL     1      49.448 121.320  50.062  1.00  0.00    -0.245 OA
HETATM    7  N6  UNL     1      48.612 123.225  49.242  1.00  0.00    -0.293 N 
ATOM      8  H6  UNL     1      49.542 123.442  48.884  1.00  0.00     0.172 HD
ENDROOT
BRANCH   4   9
HETATM    9  N3  UNL     1      47.128 120.517  51.096  1.00  0.00    -0.240 N 
HETATM   10  C4  UNL     1      47.389 120.235  52.449  1.00  0.00     0.353 C 
HETATM   11  O1  UNL     1      47.768 121.079  53.284  1.00  0.00    -0.244 OA
HETATM   12  N4  UNL     1      47.224 118.898  52.957  1.00  0.00    -0.257 N 
ATOM     13  H4  UNL     1      46.917 118.149  52.336  1.00  0.00     0.191 HD
ATOM     14  H3  UNL     1      46.825 119.721  50.535  1.00  0.00     0.192 HD
BRANCH  12  15
HETATM   15  N5  UNL     1      47.484 118.629  54.295  1.00  0.00    -0.341 N 
ATOM     16  H52 UNL     1      47.577 119.408  54.947  1.00  0.00     0.177 HD
ATOM     17  H51 UNL     1      47.579 117.664  54.610  1.00  0.00     0.177 HD
ENDBRANCH  12  15
ENDBRANCH   4   9
BRANCH   1  18
HETATM   18  N1  UNL     1      47.866 125.184  48.370  1.00  0.00    -0.385 N 
ATOM     19  H12 UNL     1      47.172 125.930  48.351  1.00  0.00     0.157 HD
ATOM     20  H11 UNL     1      48.732 125.349  47.857  1.00  0.00     0.157 HD
ENDBRANCH   1  18
TORSDOF 3
ENDMDL
MODEL 4
REMARK VINA RESULT: -5.956278374      2.184      5.279
REMARK  3 active torsions:
REMARK  status: ('A' for Active; 'I' for Inactive)
REMARK    1  A    between atoms: N1_1  and  C1_4 
REMARK    2  A    between atoms: N2_7  and  N3_8 
REMARK       I    between atoms: N3_8  and  C4_10 
REMARK       I    between atoms: C4_10  and  N4_12 
REMARK    3  A    between atoms: N4_12  and  N5_14 
ROOT
HETATM    1  C1  UNL     1      46.370 122.760  48.949  1.00  0.00     0.103 A 
HETATM    2  C2  UNL     1      46.595 123.592  50.023  1.00  0.00     0.067 A 
HETATM    3  C3  UNL     1      46.739 123.032  51.287  1.00  0.00     0.125 A 
HETATM    4  N2  UNL     1      46.671 121.713  51.528  1.00  0.00    -0.213 N 
HETATM    5  C5  UNL     1      46.446 120.924  50.427  1.00  0.00     0.346 A 
HETATM    6  O2  UNL     1      46.366 119.663  50.558  1.00  0.00    -0.245 OA
HETATM    7  N6  UNL     1      46.305 121.443  49.206  1.00  0.00    -0.293 N 
ATOM      8  H6  UNL     1      46.140 120.805  48.427  1.00  0.00     0.172 HD
ENDROOT
BRANCH   4   9
HETATM    9  N3  UNL     1      46.806 121.103  52.757  1.00  0.00    -0.240 N 
HETATM   10  C4  UNL     1      47.971 120.851  53.502  1.00  0.00     0.353 C 
HETATM   11  O1  UNL     1      49.122 121.160  53.137  1.00  0.00    -0.244 OA
HETATM   12  N4  UNL     1      47.888 120.192  54.780  1.00  0.00    -0.257 N 
ATOM     13  H4  UNL     1      46.981 119.905  55.149  1.00  0.00     0.191 HD
ATOM     14  H3  UNL     1      45.936 120.789  53.188  1.00  0.00     0.192 HD
BRANCH  12  15
HETATM   15  N5  UNL     1      49.044 119.947  55.509  1.00  0.00    -0.341 N 
ATOM     16  H52 UNL     1      49.949 120.033  55.046  1.00  0.00     0.177 HD
ATOM     17  H51 UNL     1      48.980 119.685  56.493  1.00  0.00     0.177 HD
ENDBRANCH  12  15
ENDBRANCH   4   9
BRANCH   1  18
HETATM   18  N1  UNL     1      46.225 123.179  47.746  1.00  0.00    -0.385 N 
ATOM     19  H12 UNL     1      46.906 122.916  47.035  1.00  0.00     0.157 HD
ATOM     20  H11 UNL     1      45.453 123.775  47.446  1.00  0.00     0.157 HD
ENDBRANCH   1  18
TORSDOF 3
ENDMDL
MODEL 5
REMARK VINA RESULT: -5.921957260      2.391      2.635
REMARK  3 active torsions:
REMARK  status: ('A' for Active; 'I' for Inactive)
REMARK    1  A    between atoms: N1_1  and  C1_4 
REMARK    2  A    between atoms: N2_7  and  N3_8 
REMARK       I    between atoms: N3_8  and  C4_10 
REMARK       I    between atoms: C4_10  and  N4_12 
REMARK    3  A    between atoms: N4_12  and  N5_14 
ROOT
HETATM    1  C1  UNL     1      47.755 118.913  53.279  1.00  0.00     0.103 A 
HETATM    2  C2  UNL     1      49.045 119.336  53.509  1.00  0.00     0.067 A 
HETATM    3  C3  UNL     1      49.626 120.231  52.619  1.00  0.00     0.125 A 
HETATM    4  N2  UNL     1      49.000 120.714  51.534  1.00  0.00    -0.213 N 
HETATM    5  C5  UNL     1      47.716 120.264  51.347  1.00  0.00     0.346 A 
HETATM    6  O2  UNL     1      47.044 120.667  50.347  1.00  0.00    -0.245 OA
HETATM    7  N6  UNL     1      47.141 119.405  52.190  1.00  0.00    -0.293 N 
ATOM      8  H6  UNL     1      46.184 119.107  51.998  1.00  0.00     0.172 HD
ENDROOT
BRANCH   4   9
HETATM    9  N3  UNL     1      49.525 121.601  50.619  1.00  0.00    -0.240 N 
HETATM   10  C4  UNL     1      50.377 121.354  49.528  1.00  0.00     0.353 C 
HETATM   11  O1  UNL     1      50.808 120.228  49.211  1.00  0.00    -0.244 OA
HETATM   12  N4  UNL     1      50.813 122.438  48.686  1.00  0.00    -0.257 N 
ATOM     13  H4  UNL     1      50.504 123.392  48.880  1.00  0.00     0.191 HD
ATOM     14  H3  UNL     1      49.258 122.576  50.752  1.00  0.00     0.192 HD
BRANCH  12  15
HETATM   15  N5  UNL     1      51.653 122.185  47.611  1.00  0.00    -0.341 N 
ATOM     16  H52 UNL     1      51.329 121.572  46.862  1.00  0.00     0.177 HD
ATOM     17  H51 UNL     1      52.580 122.609  47.579  1.00  0.00     0.177 HD
ENDBRANCH  12  15
ENDBRANCH   4   9
BRANCH   1  18
HETATM   18  N1  UNL     1      47.132 118.090  54.041  1.00  0.00    -0.385 N 
ATOM     19  H12 UNL     1      47.661 117.480  54.663  1.00  0.00     0.157 HD
ATOM     20  H11 UNL     1      46.116 118.003  54.065  1.00  0.00     0.157 HD
ENDBRANCH   1  18
TORSDOF 3
ENDMDL
