MODEL 1
REMARK VINA RESULT: -6.320487001      0.000      0.000
REMARK  3 active torsions:
REMARK  status: ('A' for Active; 'I' for Inactive)
REMARK    1  A    between atoms: N1_1  and  C1_4 
REMARK    2  A    between atoms: C2_7  and  N3_8 
REMARK    3  A    between atoms: C7_17  and  N6_18 
ROOT
HETATM    1  C1  UNL     1      49.169 120.697  52.709  1.00  0.00     0.705 A 
HETATM    2  N2  UNL     1      48.401 121.014  51.626  1.00  0.00    -0.022 N 
ATOM      3  H2  UNL     1      48.706 121.754  50.995  1.00  0.00     0.203 HD
HETATM    4  C2  UNL     1      47.248 120.368  51.379  1.00  0.00     0.709 A 
HETATM    5  N5  UNL     1      46.881 119.407  52.228  1.00  0.00    -0.022 N 
ATOM      6  H5  UNL     1      46.009 118.908  52.055  1.00  0.00     0.203 HD
HETATM    7  C7  UNL     1      47.625 119.067  53.318  1.00  0.00     0.705 A 
HETATM    8  N7  UNL     1      48.776 119.724  53.551  1.00  0.00    -0.022 N 
ATOM      9  H7  UNL     1      49.347 119.486  54.362  1.00  0.00     0.203 HD
ENDROOT
BRANCH   4  10
HETATM   10  N3  UNL     1      46.424 120.673  50.259  1.00  0.00    -0.214 N 
HETATM   11  C3  UNL     1      45.812 119.609  49.488  1.00  0.00     0.160 C 
HETATM   12  C4  UNL     1      45.240 120.192  48.219  1.00  0.00     0.134 C 
HETATM   13  N4  UNL     1      46.127 121.103  47.569  1.00  0.00    -0.418 N 
HETATM   14  C5  UNL     1      46.634 122.148  48.399  1.00  0.00     0.134 C 
ATOM     15  H4  UNL     1      46.380 121.014  46.584  1.00  0.00     0.153 HD
HETATM   16  C6  UNL     1      46.153 122.030  49.834  1.00  0.00     0.160 C 
ENDBRANCH   4  10
BRANCH   1  17
HETATM   17  N1  UNL     1      50.280 121.330  52.935  1.00  0.00    -0.234 N 
ATOM     18  H12 UNL     1      50.642 121.388  53.886  1.00  0.00     0.174 HD
ATOM     19  H11 UNL     1      50.789 121.770  52.168  1.00  0.00     0.174 HD
ENDBRANCH   1  17
BRANCH   7  20
HETATM   20  N6  UNL     1      47.253 118.135  54.129  1.00  0.00    -0.234 N 
ATOM     21  H62 UNL     1      46.335 118.193  54.570  1.00  0.00     0.174 HD
ATOM     22  H61 UNL     1      47.854 117.339  54.343  1.00  0.00     0.174 HD
ENDBRANCH   7  20
TORSDOF 3
ENDMDL
MODEL 2
REMARK VINA RESULT: -6.309024727      0.095      2.121
REMARK  3 active torsions:
REMARK  status: ('A' for Active; 'I' for Inactive)
REMARK    1  A    between atoms: N1_1  and  C1_4 
REMARK    2  A    between atoms: C2_7  and  N3_8 
REMARK    3  A    between atoms: C7_17  and  N6_18 
ROOT
HETATM    1  C1  UNL     1      47.630 119.096  53.298  1.00  0.00     0.705 A 
HETATM    2  N2  UNL     1      46.839 119.410  52.231  1.00  0.00    -0.022 N 
ATOM      3  H2  UNL     1      45.956 118.916  52.099  1.00  0.00     0.203 HD
HETATM    4  C2  UNL     1      47.203 120.357  51.350  1.00  0.00     0.709 A 
HETATM    5  N5  UNL     1      48.365 120.980  51.554  1.00  0.00    -0.022 N 
ATOM      6  H5  UNL     1      48.656 121.701  50.895  1.00  0.00     0.203 HD
HETATM    7  C7  UNL     1      49.178 120.689  52.608  1.00  0.00     0.705 A 
HETATM    8  N7  UNL     1      48.798 119.738  53.481  1.00  0.00    -0.022 N 
ATOM      9  H7  UNL     1      49.392 119.504  54.276  1.00  0.00     0.203 HD
ENDROOT
BRANCH   4  10
HETATM   10  N3  UNL     1      46.401 120.710  50.227  1.00  0.00    -0.214 N 
HETATM   11  C3  UNL     1      45.800 119.680  49.404  1.00  0.00     0.160 C 
HETATM   12  C4  UNL     1      45.254 120.314  48.148  1.00  0.00     0.134 C 
HETATM   13  N4  UNL     1      46.158 121.245  47.551  1.00  0.00    -0.418 N 
HETATM   14  C5  UNL     1      46.654 122.255  48.430  1.00  0.00     0.134 C 
ATOM     15  H4  UNL     1      46.429 121.193  46.569  1.00  0.00     0.153 HD
HETATM   16  C6  UNL     1      46.145 122.084  49.850  1.00  0.00     0.160 C 
ENDBRANCH   4  10
BRANCH   1  17
HETATM   17  N1  UNL     1      47.265 118.177  54.139  1.00  0.00    -0.234 N 
ATOM     18  H12 UNL     1      46.298 117.852  54.141  1.00  0.00     0.174 HD
ATOM     19  H11 UNL     1      47.937 117.783  54.798  1.00  0.00     0.174 HD
ENDBRANCH   1  17
BRANCH   7  20
HETATM   20  N6  UNL     1      50.299 121.302  52.789  1.00  0.00    -0.234 N 
ATOM     21  H62 UNL     1      50.299 122.312  52.935  1.00  0.00     0.174 HD
ATOM     22  H61 UNL     1      51.189 120.803  52.792  1.00  0.00     0.174 HD
ENDBRANCH   7  20
TORSDOF 3
ENDMDL
MODEL 3
REMARK VINA RESULT: -6.262767816      1.062      2.413
REMARK  3 active torsions:
REMARK  status: ('A' for Active; 'I' for Inactive)
REMARK    1  A    between atoms: N1_1  and  C1_4 
REMARK    2  A    between atoms: C2_7  and  N3_8 
REMARK    3  A    between atoms: C7_17  and  N6_18 
ROOT
HETATM    1  C1  UNL     1      47.658 119.406  53.178  1.00  0.00     0.705 A 
HETATM    2  N2  UNL     1      46.909 120.032  52.225  1.00  0.00    -0.022 N 
ATOM      3  H2  UNL     1      45.980 119.673  52.002  1.00  0.00     0.203 HD
HETATM    4  C2  UNL     1      47.372 121.113  51.575  1.00  0.00     0.709 A 
HETATM    5  N5  UNL     1      48.591 121.552  51.893  1.00  0.00    -0.022 N 
ATOM      6  H5  UNL     1      48.958 122.371  51.409  1.00  0.00     0.203 HD
HETATM    7  C7  UNL     1      49.365 120.950  52.838  1.00  0.00     0.705 A 
HETATM    8  N7  UNL     1      48.885 119.868  53.480  1.00  0.00    -0.022 N 
ATOM      9  H7  UNL     1      49.448 119.402  54.191  1.00  0.00     0.203 HD
ENDROOT
BRANCH   4  10
HETATM   10  N3  UNL     1      46.616 121.791  50.576  1.00  0.00    -0.214 N 
HETATM   11  C3  UNL     1      46.048 121.056  49.464  1.00  0.00     0.160 C 
HETATM   12  C4  UNL     1      45.554 122.039  48.430  1.00  0.00     0.134 C 
HETATM   13  N4  UNL     1      46.481 123.093  48.169  1.00  0.00    -0.418 N 
HETATM   14  C5  UNL     1      46.943 123.793  49.324  1.00  0.00     0.134 C 
ATOM     15  H4  UNL     1      46.792 123.328  47.226  1.00  0.00     0.153 HD
HETATM   16  C6  UNL     1      46.377 123.218  50.611  1.00  0.00     0.160 C 
ENDBRANCH   4  10
BRANCH   1  17
HETATM   17  N1  UNL     1      47.196 118.362  53.797  1.00  0.00    -0.234 N 
ATOM     18  H12 UNL     1      46.375 118.454  54.395  1.00  0.00     0.174 HD
ATOM     19  H11 UNL     1      47.650 117.455  53.690  1.00  0.00     0.174 HD
ENDBRANCH   1  17
BRANCH   7  20
HETATM   20  N6  UNL     1      50.542 121.389  53.133  1.00  0.00    -0.234 N 
ATOM     21  H62 UNL     1      51.183 121.644  52.380  1.00  0.00     0.174 HD
ATOM     22  H61 UNL     1      50.851 121.488  54.099  1.00  0.00     0.174 HD
ENDBRANCH   7  20
TORSDOF 3
ENDMDL
MODEL 4
REMARK VINA RESULT: -6.233704029      2.820      4.961
REMARK  3 active torsions:
REMARK  status: ('A' for Active; 'I' for Inactive)
REMARK    1  A    between atoms: N1_1  and  C1_4 
REMARK    2  A    between atoms: C2_7  and  N3_8 
REMARK    3  A    between atoms: C7_17  and  N6_18 
ROOT
HETATM    1  C1  UNL     1      50.220 121.708  49.408  1.00  0.00     0.705 A 
HETATM    2  N2  UNL     1      49.356 121.631  50.462  1.00  0.00    -0.022 N 
ATOM      3  H2  UNL     1      48.704 122.396  50.632  1.00  0.00     0.203 HD
HETATM    4  C2  UNL     1      49.351 120.566  51.281  1.00  0.00     0.709 A 
HETATM    5  N5  UNL     1      50.220 119.586  51.028  1.00  0.00    -0.022 N 
ATOM      6  H5  UNL     1      50.230 118.770  51.640  1.00  0.00     0.203 HD
HETATM    7  C7  UNL     1      51.095 119.632  49.986  1.00  0.00     0.705 A 
HETATM    8  N7  UNL     1      51.087 120.706  49.175  1.00  0.00    -0.022 N 
ATOM      9  H7  UNL     1      51.735 120.761  48.389  1.00  0.00     0.203 HD
ENDROOT
BRANCH   4  10
HETATM   10  N3  UNL     1      48.464 120.454  52.389  1.00  0.00    -0.214 N 
HETATM   11  C3  UNL     1      48.483 121.445  53.446  1.00  0.00     0.160 C 
HETATM   12  C4  UNL     1      47.661 120.938  54.606  1.00  0.00     0.134 C 
HETATM   13  N4  UNL     1      47.924 119.571  54.926  1.00  0.00    -0.418 N 
HETATM   14  C5  UNL     1      47.828 118.664  53.828  1.00  0.00     0.134 C 
ATOM     15  H4  UNL     1      48.164 119.266  55.870  1.00  0.00     0.153 HD
HETATM   16  C6  UNL     1      47.513 119.370  52.522  1.00  0.00     0.160 C 
ENDBRANCH   4  10
BRANCH   1  17
HETATM   17  N1  UNL     1      50.213 122.744  48.626  1.00  0.00    -0.234 N 
ATOM     18  H12 UNL     1      49.819 122.666  47.689  1.00  0.00     0.174 HD
ATOM     19  H11 UNL     1      50.600 123.633  48.943  1.00  0.00     0.174 HD
ENDBRANCH   1  17
BRANCH   7  20
HETATM   20  N6  UNL     1      51.930 118.674  49.757  1.00  0.00    -0.234 N 
ATOM     21  H62 UNL     1      52.863 118.715  50.168  1.00  0.00     0.174 HD
ATOM     22  H61 UNL     1      51.682 117.874  49.174  1.00  0.00     0.174 HD
ENDBRANCH   7  20
TORSDOF 3
ENDMDL
MODEL 5
REMARK VINA RESULT: -6.212462143      2.585      3.646
REMARK  3 active torsions:
REMARK  status: ('A' for Active; 'I' for Inactive)
REMARK    1  A    between atoms: N1_1  and  C1_4 
REMARK    2  A    between atoms: C2_7  and  N3_8 
REMARK    3  A    between atoms: C7_17  and  N6_18 
ROOT
HETATM    1  C1  UNL     1      47.721 119.516  53.041  1.00  0.00     0.705 A 
HETATM    2  N2  UNL     1      48.372 119.301  51.861  1.00  0.00    -0.022 N 
ATOM      3  H2  UNL     1      48.457 118.350  51.502  1.00  0.00     0.203 HD
HETATM    4  C2  UNL     1      48.903 120.319  51.164  1.00  0.00     0.709 A 
HETATM    5  N5  UNL     1      48.772 121.548  51.665  1.00  0.00    -0.022 N 
ATOM      6  H5  UNL     1      49.170 122.332  51.149  1.00  0.00     0.203 HD
HETATM    7  C7  UNL     1      48.129 121.797  52.840  1.00  0.00     0.705 A 
HETATM    8  N7  UNL     1      47.603 120.765  53.526  1.00  0.00    -0.022 N 
ATOM      9  H7  UNL     1      47.119 120.930  54.408  1.00  0.00     0.203 HD
ENDROOT
BRANCH   4  10
HETATM   10  N3  UNL     1      49.588 120.130  49.930  1.00  0.00    -0.214 N 
HETATM   11  C3  UNL     1      50.004 121.271  49.140  1.00  0.00     0.160 C 
HETATM   12  C4  UNL     1      50.441 120.790  47.778  1.00  0.00     0.134 C 
HETATM   13  N4  UNL     1      49.545 119.836  47.206  1.00  0.00    -0.418 N 
HETATM   14  C5  UNL     1      49.238 118.719  48.040  1.00  0.00     0.134 C 
ATOM     15  H4  UNL     1      49.154 119.944  46.270  1.00  0.00     0.153 HD
HETATM   16  C6  UNL     1      49.900 118.818  49.403  1.00  0.00     0.160 C 
ENDBRANCH   4  10
BRANCH   1  17
HETATM   17  N1  UNL     1      47.213 118.521  53.703  1.00  0.00    -0.234 N 
ATOM     18  H12 UNL     1      46.453 117.980  53.294  1.00  0.00     0.174 HD
ATOM     19  H11 UNL     1      47.570 118.281  54.628  1.00  0.00     0.174 HD
ENDBRANCH   1  17
BRANCH   7  20
HETATM   20  N6  UNL     1      48.013 122.993  53.310  1.00  0.00    -0.234 N 
ATOM     21  H62 UNL     1      48.590 123.741  52.923  1.00  0.00     0.174 HD
ATOM     22  H61 UNL     1      47.358 123.214  54.061  1.00  0.00     0.174 HD
ENDBRANCH   7  20
TORSDOF 3
ENDMDL
