MODEL 1
REMARK VINA RESULT: -7.826669531      0.000      0.000
REMARK  8 active torsions:
REMARK  status: ('A' for Active; 'I' for Inactive)
REMARK    1  A    between atoms: C2_2  and  C3_3 
REMARK    2  A    between atoms: C3_3  and  N1_4 
REMARK    3  A    between atoms: N2_7  and  C6_8 
REMARK    4  A    between atoms: C6_8  and  C7_9 
REMARK    5  A    between atoms: C7_9  and  N3_10 
REMARK       I    between atoms: N4_18  and  C15_19 
REMARK       I    between atoms: C15_19  and  N6_23 
REMARK    6  A    between atoms: N6_23  and  C16_25 
REMARK    7  A    between atoms: C16_25  and  C17_26 
REMARK    8  A    between atoms: C20_29  and  N7_30 
ROOT
HETATM    1  N3  UNL     1      11.440 -12.177  22.082  1.00  0.00     0.090 N 
HETATM    2  C8  UNL     1      10.621 -11.085  21.564  1.00  0.00     0.273 C 
HETATM    3  C9  UNL     1      11.447  -9.950  21.040  1.00  0.00     0.041 C 
HETATM    4  C10 UNL     1      12.355  -9.356  22.078  1.00  0.00    -0.019 C 
HETATM    5  C11 UNL     1      12.225 -10.187  23.324  1.00  0.00     0.041 C 
HETATM    6  C12 UNL     1      12.442 -11.629  23.000  1.00  0.00     0.273 C 
HETATM    7  C13 UNL     1      13.744  -9.242  21.565  1.00  0.00     0.032 C 
HETATM    8  C14 UNL     1      14.322  -8.141  22.437  1.00  0.00     0.142 C 
HETATM    9  N4  UNL     1      13.219  -7.207  22.488  1.00  0.00    -0.218 N 
HETATM   10  C15 UNL     1      13.318  -5.811  22.606  1.00  0.00     0.670 C 
HETATM   11  N5  UNL     1      14.298  -5.148  22.039  1.00  0.00    -0.235 N 
ATOM     12  H51 UNL     1      14.370  -4.134  22.125  1.00  0.00     0.174 HD
ATOM     13  H52 UNL     1      14.979  -5.692  21.509  1.00  0.00     0.174 HD
HETATM   14  N6  UNL     1      12.377  -5.061  23.337  1.00  0.00    -0.222 N 
ATOM     15  H6  UNL     1      11.488  -5.502  23.574  1.00  0.00     0.178 HD
HETATM   16  C22 UNL     1      11.955  -7.930  22.401  1.00  0.00     0.151 C 
ENDROOT
BRANCH   1  17
HETATM   17  C7  UNL     1      10.544 -12.954  22.906  1.00  0.00     0.300 C 
BRANCH  17  18
HETATM   18  C6  UNL     1       9.255 -12.321  23.271  1.00  0.00     0.268 C 
BRANCH  18  19
HETATM   19  N2  UNL     1       8.770 -12.536  24.595  1.00  0.00    -0.061 N 
HETATM   20  C5  UNL     1       9.104 -13.850  25.119  1.00  0.00     0.265 C 
HETATM   21  C4  UNL     1       8.104 -14.171  26.210  1.00  0.00     0.265 C 
HETATM   22  N1  UNL     1       7.706 -12.915  26.829  1.00  0.00    -0.062 N 
HETATM   23  C24 UNL     1       6.760 -12.304  25.916  1.00  0.00     0.265 C 
HETATM   24  C26 UNL     1       8.907 -12.109  26.931  1.00  0.00     0.265 C 
HETATM   25  C23 UNL     1       7.297 -12.529  24.526  1.00  0.00     0.265 C 
HETATM   26  C25 UNL     1       9.171 -11.536  25.521  1.00  0.00     0.265 C 
BRANCH  22  27
HETATM   27  C3  UNL     1       7.177 -13.083  28.143  1.00  0.00     0.237 C 
BRANCH  27  28
HETATM   28  C2  UNL     1       5.676 -13.061  28.228  1.00  0.00     0.023 C 
HETATM   29  C1  UNL     1       5.254 -14.455  28.702  1.00  0.00     0.007 C 
ENDBRANCH  27  28
ENDBRANCH  22  27
ENDBRANCH  18  19
ENDBRANCH  17  18
ENDBRANCH   1  17
BRANCH  14  30
HETATM   30  C16 UNL     1      12.598  -3.707  23.768  1.00  0.00     0.178 C 
BRANCH  30  31
HETATM   31  C17 UNL     1      12.427  -3.511  25.222  1.00  0.00    -0.024 A 
HETATM   32  C18 UNL     1      11.245  -3.860  25.841  1.00  0.00     0.014 A 
HETATM   33  C19 UNL     1      11.094  -3.672  27.199  1.00  0.00     0.048 A 
HETATM   34  C20 UNL     1      12.127  -3.137  27.922  1.00  0.00     0.098 A 
HETATM   35  N8  UNL     1      13.274  -2.796  27.333  1.00  0.00    -0.352 N 
HETATM   36  C21 UNL     1      13.426  -2.979  25.999  1.00  0.00     0.098 A 
ATOM     37  H8  UNL     1      14.034  -2.398  27.884  1.00  0.00     0.166 HD
BRANCH  34  38
HETATM   38  N7  UNL     1      12.001  -2.952  29.202  1.00  0.00    -0.385 N 
ATOM     39  H72 UNL     1      11.605  -3.700  29.771  1.00  0.00     0.157 HD
ATOM     40  H71 UNL     1      12.296  -2.071  29.624  1.00  0.00     0.157 HD
ENDBRANCH  34  38
ENDBRANCH  30  31
ENDBRANCH  14  30
TORSDOF 8
ENDMDL
MODEL 2
REMARK VINA RESULT: -7.794253678      0.459      1.122
REMARK  8 active torsions:
REMARK  status: ('A' for Active; 'I' for Inactive)
REMARK    1  A    between atoms: C2_2  and  C3_3 
REMARK    2  A    between atoms: C3_3  and  N1_4 
REMARK    3  A    between atoms: N2_7  and  C6_8 
REMARK    4  A    between atoms: C6_8  and  C7_9 
REMARK    5  A    between atoms: C7_9  and  N3_10 
REMARK       I    between atoms: N4_18  and  C15_19 
REMARK       I    between atoms: C15_19  and  N6_23 
REMARK    6  A    between atoms: N6_23  and  C16_25 
REMARK    7  A    between atoms: C16_25  and  C17_26 
REMARK    8  A    between atoms: C20_29  and  N7_30 
ROOT
HETATM    1  N3  UNL     1      11.614 -12.102  21.823  1.00  0.00     0.090 N 
HETATM    2  C8  UNL     1      10.828 -11.002  21.270  1.00  0.00     0.273 C 
HETATM    3  C9  UNL     1      11.684  -9.862  20.812  1.00  0.00     0.041 C 
HETATM    4  C10 UNL     1      12.527  -9.281  21.911  1.00  0.00    -0.019 C 
HETATM    5  C11 UNL     1      12.322 -10.128  23.136  1.00  0.00     0.041 C 
HETATM    6  C12 UNL     1      12.559 -11.566  22.807  1.00  0.00     0.273 C 
HETATM    7  C13 UNL     1      13.945  -9.161  21.485  1.00  0.00     0.032 C 
HETATM    8  C14 UNL     1      14.468  -8.071  22.405  1.00  0.00     0.142 C 
HETATM    9  N4  UNL     1      13.363  -7.138  22.400  1.00  0.00    -0.218 N 
HETATM   10  C15 UNL     1      13.455  -5.744  22.541  1.00  0.00     0.670 C 
HETATM   11  N5  UNL     1      14.467  -5.074  22.044  1.00  0.00    -0.235 N 
ATOM     12  H51 UNL     1      14.534  -4.061  22.147  1.00  0.00     0.174 HD
ATOM     13  H52 UNL     1      15.180  -5.611  21.550  1.00  0.00     0.174 HD
HETATM   14  N6  UNL     1      12.471  -5.002  23.223  1.00  0.00    -0.222 N 
ATOM     15  H6  UNL     1      11.569  -5.446  23.400  1.00  0.00     0.178 HD
HETATM   16  C22 UNL     1      12.108  -7.860  22.227  1.00  0.00     0.151 C 
ENDROOT
BRANCH   1  17
HETATM   17  C7  UNL     1      10.670 -12.888  22.581  1.00  0.00     0.300 C 
BRANCH  17  18
HETATM   18  C6  UNL     1       9.350 -12.272  22.849  1.00  0.00     0.268 C 
BRANCH  18  19
HETATM   19  N2  UNL     1       8.867 -12.311  24.191  1.00  0.00    -0.061 N 
HETATM   20  C5  UNL     1       9.240 -11.140  24.966  1.00  0.00     0.265 C 
HETATM   21  C4  UNL     1       9.195 -11.531  26.428  1.00  0.00     0.265 C 
HETATM   22  N1  UNL     1       8.171 -12.553  26.583  1.00  0.00    -0.062 N 
HETATM   23  C24 UNL     1       8.762 -13.786  26.102  1.00  0.00     0.265 C 
HETATM   24  C26 UNL     1       7.064 -12.156  25.734  1.00  0.00     0.265 C 
HETATM   25  C23 UNL     1       9.547 -13.432  24.865  1.00  0.00     0.265 C 
HETATM   26  C25 UNL     1       7.466 -12.525  24.289  1.00  0.00     0.265 C 
BRANCH  22  27
HETATM   27  C3  UNL     1       7.684 -12.658  27.919  1.00  0.00     0.237 C 
BRANCH  27  28
HETATM   28  C2  UNL     1       6.359 -13.356  28.057  1.00  0.00     0.023 C 
HETATM   29  C1  UNL     1       6.558 -14.446  29.114  1.00  0.00     0.007 C 
ENDBRANCH  27  28
ENDBRANCH  22  27
ENDBRANCH  18  19
ENDBRANCH  17  18
ENDBRANCH   1  17
BRANCH  14  30
HETATM   30  C16 UNL     1      12.665  -3.654  23.685  1.00  0.00     0.178 C 
BRANCH  30  31
HETATM   31  C17 UNL     1      12.463  -3.488  25.139  1.00  0.00    -0.024 A 
HETATM   32  C18 UNL     1      11.249  -3.796  25.716  1.00  0.00     0.014 A 
HETATM   33  C19 UNL     1      11.069  -3.637  27.074  1.00  0.00     0.048 A 
HETATM   34  C20 UNL     1      12.106  -3.172  27.839  1.00  0.00     0.098 A 
HETATM   35  N8  UNL     1      13.284  -2.872  27.290  1.00  0.00    -0.352 N 
HETATM   36  C21 UNL     1      13.464  -3.027  25.956  1.00  0.00     0.098 A 
ATOM     37  H8  UNL     1      14.047  -2.526  27.872  1.00  0.00     0.166 HD
BRANCH  34  38
HETATM   38  N7  UNL     1      11.954  -3.015  29.120  1.00  0.00    -0.385 N 
ATOM     39  H72 UNL     1      12.607  -3.476  29.754  1.00  0.00     0.157 HD
ATOM     40  H71 UNL     1      11.192  -2.438  29.478  1.00  0.00     0.157 HD
ENDBRANCH  34  38
ENDBRANCH  30  31
ENDBRANCH  14  30
TORSDOF 8
ENDMDL
MODEL 3
REMARK VINA RESULT: -7.748893579      0.691      1.332
REMARK  8 active torsions:
REMARK  status: ('A' for Active; 'I' for Inactive)
REMARK    1  A    between atoms: C2_2  and  C3_3 
REMARK    2  A    between atoms: C3_3  and  N1_4 
REMARK    3  A    between atoms: N2_7  and  C6_8 
REMARK    4  A    between atoms: C6_8  and  C7_9 
REMARK    5  A    between atoms: C7_9  and  N3_10 
REMARK       I    between atoms: N4_18  and  C15_19 
REMARK       I    between atoms: C15_19  and  N6_23 
REMARK    6  A    between atoms: N6_23  and  C16_25 
REMARK    7  A    between atoms: C16_25  and  C17_26 
REMARK    8  A    between atoms: C20_29  and  N7_30 
ROOT
HETATM    1  N3  UNL     1      11.696 -12.131  21.719  1.00  0.00     0.090 N 
HETATM    2  C8  UNL     1      10.892 -11.049  21.158  1.00  0.00     0.273 C 
HETATM    3  C9  UNL     1      11.727  -9.889  20.710  1.00  0.00     0.041 C 
HETATM    4  C10 UNL     1      12.543  -9.291  21.820  1.00  0.00    -0.019 C 
HETATM    5  C11 UNL     1      12.343 -10.143  23.042  1.00  0.00     0.041 C 
HETATM    6  C12 UNL     1      12.617 -11.575  22.714  1.00  0.00     0.273 C 
HETATM    7  C13 UNL     1      13.963  -9.138  21.411  1.00  0.00     0.032 C 
HETATM    8  C14 UNL     1      14.451  -8.038  22.338  1.00  0.00     0.142 C 
HETATM    9  N4  UNL     1      13.325  -7.129  22.321  1.00  0.00    -0.218 N 
HETATM   10  C15 UNL     1      13.383  -5.734  22.465  1.00  0.00     0.670 C 
HETATM   11  N5  UNL     1      14.386  -5.040  21.980  1.00  0.00    -0.235 N 
ATOM     12  H51 UNL     1      14.428  -4.026  22.085  1.00  0.00     0.174 HD
ATOM     13  H52 UNL     1      15.116  -5.561  21.494  1.00  0.00     0.174 HD
HETATM   14  N6  UNL     1      12.374  -5.016  23.136  1.00  0.00    -0.222 N 
ATOM     15  H6  UNL     1      11.482  -5.481  23.302  1.00  0.00     0.178 HD
HETATM   16  C22 UNL     1      12.088  -7.880  22.133  1.00  0.00     0.151 C 
ENDROOT
BRANCH   1  17
HETATM   17  C7  UNL     1      10.761 -12.940  22.464  1.00  0.00     0.300 C 
BRANCH  17  18
HETATM   18  C6  UNL     1       9.454 -12.324  22.787  1.00  0.00     0.268 C 
BRANCH  18  19
HETATM   19  N2  UNL     1       8.964 -12.482  24.117  1.00  0.00    -0.061 N 
HETATM   20  C5  UNL     1       7.513 -12.537  24.189  1.00  0.00     0.265 C 
HETATM   21  C4  UNL     1       7.112 -12.132  25.591  1.00  0.00     0.265 C 
HETATM   22  N1  UNL     1       8.178 -12.543  26.493  1.00  0.00    -0.062 N 
HETATM   23  C24 UNL     1       9.233 -11.562  26.336  1.00  0.00     0.265 C 
HETATM   24  C26 UNL     1       8.622 -13.846  26.035  1.00  0.00     0.265 C 
HETATM   25  C23 UNL     1       9.324 -11.261  24.861  1.00  0.00     0.265 C 
HETATM   26  C25 UNL     1       9.519 -13.594  24.804  1.00  0.00     0.265 C 
BRANCH  22  27
HETATM   27  C3  UNL     1       7.744 -12.677  27.845  1.00  0.00     0.237 C 
BRANCH  27  28
HETATM   28  C2  UNL     1       6.429 -13.385  28.020  1.00  0.00     0.023 C 
HETATM   29  C1  UNL     1       6.631 -14.387  29.161  1.00  0.00     0.007 C 
ENDBRANCH  27  28
ENDBRANCH  22  27
ENDBRANCH  18  19
ENDBRANCH  17  18
ENDBRANCH   1  17
BRANCH  14  30
HETATM   30  C16 UNL     1      12.532  -3.665  23.602  1.00  0.00     0.178 C 
BRANCH  30  31
HETATM   31  C17 UNL     1      12.353  -3.513  25.060  1.00  0.00    -0.024 A 
HETATM   32  C18 UNL     1      13.429  -3.218  25.870  1.00  0.00     0.014 A 
HETATM   33  C19 UNL     1      13.252  -3.079  27.231  1.00  0.00     0.048 A 
HETATM   34  C20 UNL     1      12.000  -3.236  27.765  1.00  0.00     0.098 A 
HETATM   35  N8  UNL     1      10.953  -3.521  26.990  1.00  0.00    -0.352 N 
HETATM   36  C21 UNL     1      11.124  -3.658  25.652  1.00  0.00     0.098 A 
ATOM     37  H8  UNL     1      10.027  -3.635  27.402  1.00  0.00     0.166 HD
BRANCH  34  38
HETATM   38  N7  UNL     1      11.816  -3.110  29.045  1.00  0.00    -0.385 N 
ATOM     39  H72 UNL     1      11.532  -2.202  29.415  1.00  0.00     0.157 HD
ATOM     40  H71 UNL     1      11.953  -3.909  29.664  1.00  0.00     0.157 HD
ENDBRANCH  34  38
ENDBRANCH  30  31
ENDBRANCH  14  30
TORSDOF 8
ENDMDL
MODEL 4
REMARK VINA RESULT: -7.652119247      3.084      3.968
REMARK  8 active torsions:
REMARK  status: ('A' for Active; 'I' for Inactive)
REMARK    1  A    between atoms: C2_2  and  C3_3 
REMARK    2  A    between atoms: C3_3  and  N1_4 
REMARK    3  A    between atoms: N2_7  and  C6_8 
REMARK    4  A    between atoms: C6_8  and  C7_9 
REMARK    5  A    between atoms: C7_9  and  N3_10 
REMARK       I    between atoms: N4_18  and  C15_19 
REMARK       I    between atoms: C15_19  and  N6_23 
REMARK    6  A    between atoms: N6_23  and  C16_25 
REMARK    7  A    between atoms: C16_25  and  C17_26 
REMARK    8  A    between atoms: C20_29  and  N7_30 
ROOT
HETATM    1  N3  UNL     1      12.292 -10.826  18.845  1.00  0.00     0.090 N 
HETATM    2  C8  UNL     1      11.273 -10.030  19.524  1.00  0.00     0.273 C 
HETATM    3  C9  UNL     1      11.515  -8.558  19.389  1.00  0.00     0.041 C 
HETATM    4  C10 UNL     1      12.842  -8.127  19.945  1.00  0.00    -0.019 C 
HETATM    5  C11 UNL     1      13.579  -9.366  20.372  1.00  0.00     0.041 C 
HETATM    6  C12 UNL     1      13.618 -10.349  19.248  1.00  0.00     0.273 C 
HETATM    7  C13 UNL     1      13.580  -7.287  18.966  1.00  0.00     0.032 C 
HETATM    8  C14 UNL     1      14.520  -6.498  19.861  1.00  0.00     0.142 C 
HETATM    9  N4  UNL     1      13.652  -6.171  20.971  1.00  0.00    -0.218 N 
HETATM   10  C15 UNL     1      13.728  -5.021  21.773  1.00  0.00     0.670 C 
HETATM   11  N5  UNL     1      14.086  -3.863  21.271  1.00  0.00    -0.235 N 
ATOM     12  H51 UNL     1      14.142  -3.028  21.854  1.00  0.00     0.174 HD
ATOM     13  H52 UNL     1      14.303  -3.838  20.274  1.00  0.00     0.174 HD
HETATM   14  N6  UNL     1      13.427  -5.056  23.148  1.00  0.00    -0.222 N 
ATOM     15  H6  UNL     1      12.918  -5.863  23.510  1.00  0.00     0.178 HD
HETATM   16  C22 UNL     1      12.663  -7.228  21.152  1.00  0.00     0.151 C 
ENDROOT
BRANCH   1  17
HETATM   17  C7  UNL     1      12.168 -12.148  19.411  1.00  0.00     0.300 C 
BRANCH  17  18
HETATM   18  C6  UNL     1      11.159 -12.325  20.482  1.00  0.00     0.268 C 
BRANCH  18  19
HETATM   19  N2  UNL     1      11.637 -12.476  21.817  1.00  0.00    -0.061 N 
HETATM   20  C5  UNL     1      13.058 -12.776  21.883  1.00  0.00     0.265 C 
HETATM   21  C4  UNL     1      13.316 -13.458  23.210  1.00  0.00     0.265 C 
HETATM   22  N1  UNL     1      12.354 -12.938  24.170  1.00  0.00    -0.062 N 
HETATM   23  C24 UNL     1      11.102 -13.610  23.882  1.00  0.00     0.265 C 
HETATM   24  C26 UNL     1      12.240 -11.516  23.907  1.00  0.00     0.265 C 
HETATM   25  C23 UNL     1      10.981 -13.670  22.381  1.00  0.00     0.265 C 
HETATM   26  C25 UNL     1      11.341 -11.372  22.660  1.00  0.00     0.265 C 
BRANCH  22  27
HETATM   27  C3  UNL     1      12.772 -13.102  25.524  1.00  0.00     0.237 C 
BRANCH  27  28
HETATM   28  C2  UNL     1      14.223 -13.456  25.699  1.00  0.00     0.023 C 
HETATM   29  C1  UNL     1      14.271 -14.536  26.785  1.00  0.00     0.007 C 
ENDBRANCH  27  28
ENDBRANCH  22  27
ENDBRANCH  18  19
ENDBRANCH  17  18
ENDBRANCH   1  17
BRANCH  14  30
HETATM   30  C16 UNL     1      13.799  -4.019  24.073  1.00  0.00     0.178 C 
BRANCH  30  31
HETATM   31  C17 UNL     1      12.867  -3.873  25.209  1.00  0.00    -0.024 A 
HETATM   32  C18 UNL     1      13.256  -3.206  26.351  1.00  0.00     0.014 A 
HETATM   33  C19 UNL     1      12.379  -3.076  27.408  1.00  0.00     0.048 A 
HETATM   34  C20 UNL     1      11.122  -3.614  27.309  1.00  0.00     0.098 A 
HETATM   35  N8  UNL     1      10.738  -4.261  26.208  1.00  0.00    -0.352 N 
HETATM   36  C21 UNL     1      11.597  -4.391  25.168  1.00  0.00     0.098 A 
ATOM     37  H8  UNL     1       9.799  -4.656  26.149  1.00  0.00     0.166 HD
BRANCH  34  38
HETATM   38  N7  UNL     1      10.284  -3.502  28.295  1.00  0.00    -0.385 N 
ATOM     39  H72 UNL     1       9.366  -3.094  28.117  1.00  0.00     0.157 HD
ATOM     40  H71 UNL     1      10.546  -3.819  29.229  1.00  0.00     0.157 HD
ENDBRANCH  34  38
ENDBRANCH  30  31
ENDBRANCH  14  30
TORSDOF 8
ENDMDL
MODEL 5
REMARK VINA RESULT: -7.400596911      5.679     10.341
REMARK  8 active torsions:
REMARK  status: ('A' for Active; 'I' for Inactive)
REMARK    1  A    between atoms: C2_2  and  C3_3 
REMARK    2  A    between atoms: C3_3  and  N1_4 
REMARK    3  A    between atoms: N2_7  and  C6_8 
REMARK    4  A    between atoms: C6_8  and  C7_9 
REMARK    5  A    between atoms: C7_9  and  N3_10 
REMARK       I    between atoms: N4_18  and  C15_19 
REMARK       I    between atoms: C15_19  and  N6_23 
REMARK    6  A    between atoms: N6_23  and  C16_25 
REMARK    7  A    between atoms: C16_25  and  C17_26 
REMARK    8  A    between atoms: C20_29  and  N7_30 
ROOT
HETATM    1  N3  UNL     1      14.632  -7.331  17.415  1.00  0.00     0.090 N 
HETATM    2  C8  UNL     1      15.341  -7.059  18.663  1.00  0.00     0.273 C 
HETATM    3  C9  UNL     1      14.556  -7.477  19.869  1.00  0.00     0.041 C 
HETATM    4  C10 UNL     1      13.224  -6.790  19.969  1.00  0.00    -0.019 C 
HETATM    5  C11 UNL     1      13.047  -5.959  18.729  1.00  0.00     0.041 C 
HETATM    6  C12 UNL     1      13.269  -6.801  17.515  1.00  0.00     0.273 C 
HETATM    7  C13 UNL     1      12.136  -7.774  20.203  1.00  0.00     0.032 C 
HETATM    8  C14 UNL     1      11.060  -6.919  20.850  1.00  0.00     0.142 C 
HETATM    9  N4  UNL     1      11.847  -6.100  21.747  1.00  0.00    -0.218 N 
HETATM   10  C15 UNL     1      11.425  -5.581  22.981  1.00  0.00     0.670 C 
HETATM   11  N5  UNL     1      10.614  -6.256  23.762  1.00  0.00    -0.235 N 
ATOM     12  H51 UNL     1      10.307  -5.879  24.659  1.00  0.00     0.174 HD
ATOM     13  H52 UNL     1      10.308  -7.171  23.431  1.00  0.00     0.174 HD
HETATM   14  N6  UNL     1      11.848  -4.318  23.437  1.00  0.00    -0.222 N 
ATOM     15  H6  UNL     1      12.654  -3.887  22.984  1.00  0.00     0.178 HD
HETATM   16  C22 UNL     1      13.171  -5.876  21.177  1.00  0.00     0.151 C 
ENDROOT
BRANCH   1  17
HETATM   17  C7  UNL     1      15.295  -6.513  16.427  1.00  0.00     0.300 C 
BRANCH  17  18
HETATM   18  C6  UNL     1      16.215  -5.468  16.932  1.00  0.00     0.268 C 
BRANCH  18  19
HETATM   19  N2  UNL     1      15.869  -4.108  16.674  1.00  0.00    -0.061 N 
HETATM   20  C5  UNL     1      16.945  -3.354  16.052  1.00  0.00     0.265 C 
HETATM   21  C4  UNL     1      16.702  -1.890  16.349  1.00  0.00     0.265 C 
HETATM   22  N1  UNL     1      15.264  -1.690  16.450  1.00  0.00    -0.062 N 
HETATM   23  C24 UNL     1      14.884  -2.186  17.757  1.00  0.00     0.265 C 
HETATM   24  C26 UNL     1      14.664  -2.498  15.405  1.00  0.00     0.265 C 
HETATM   25  C23 UNL     1      15.667  -3.455  17.980  1.00  0.00     0.265 C 
HETATM   26  C25 UNL     1      14.677  -3.955  15.917  1.00  0.00     0.265 C 
BRANCH  22  27
HETATM   27  C3  UNL     1      14.872  -0.335  16.237  1.00  0.00     0.237 C 
BRANCH  27  28
HETATM   28  C2  UNL     1      14.194   0.318  17.409  1.00  0.00     0.023 C 
HETATM   29  C1  UNL     1      13.092   1.207  16.824  1.00  0.00     0.007 C 
ENDBRANCH  27  28
ENDBRANCH  22  27
ENDBRANCH  18  19
ENDBRANCH  17  18
ENDBRANCH   1  17
BRANCH  14  30
HETATM   30  C16 UNL     1      11.207  -3.600  24.506  1.00  0.00     0.178 C 
BRANCH  30  31
HETATM   31  C17 UNL     1      11.995  -3.565  25.755  1.00  0.00    -0.024 A 
HETATM   32  C18 UNL     1      11.364  -3.541  26.980  1.00  0.00     0.014 A 
HETATM   33  C19 UNL     1      12.108  -3.507  28.141  1.00  0.00     0.048 A 
HETATM   34  C20 UNL     1      13.476  -3.498  28.062  1.00  0.00     0.098 A 
HETATM   35  N8  UNL     1      14.095  -3.522  26.882  1.00  0.00    -0.352 N 
HETATM   36  C21 UNL     1      13.367  -3.555  25.739  1.00  0.00     0.098 A 
ATOM     37  H8  UNL     1      15.115  -3.515  26.838  1.00  0.00     0.166 HD
BRANCH  34  38
HETATM   38  N7  UNL     1      14.192  -3.465  29.146  1.00  0.00    -0.385 N 
ATOM     39  H72 UNL     1      13.872  -2.897  29.930  1.00  0.00     0.157 HD
ATOM     40  H71 UNL     1      15.058  -4.002  29.204  1.00  0.00     0.157 HD
ENDBRANCH  34  38
ENDBRANCH  30  31
ENDBRANCH  14  30
TORSDOF 8
ENDMDL
