MODEL 1
REMARK VINA RESULT: -7.585835485      0.000      0.000
REMARK  8 active torsions:
REMARK  status: ('A' for Active; 'I' for Inactive)
REMARK    1  A    between atoms: C9_14  and  C10_15 
REMARK    2  A    between atoms: C10_15  and  C11_16 
REMARK    3  A    between atoms: C11_16  and  C12_17 
REMARK    4  A    between atoms: C12_17  and  C13_18 
REMARK    5  A    between atoms: C13_18  and  C14_19 
REMARK    6  A    between atoms: C13_18  and  N5_31 
REMARK    7  A    between atoms: C14_19  and  C15_20 
REMARK    8  A    between atoms: C26_37  and  O2_38 
ROOT
HETATM    1  C10 UNL     1       7.962  -6.156  21.180  1.00  0.00     0.025 C 
ENDROOT
BRANCH   1   2
HETATM    2  C9  UNL     1       6.524  -5.881  20.836  1.00  0.00     0.083 C 
HETATM    3  C8  UNL     1       6.326  -6.209  19.328  1.00  0.00     0.029 C 
HETATM    4  C7  UNL     1       6.659  -5.041  18.415  1.00  0.00     0.030 C 
HETATM    5  C6  UNL     1       5.534  -4.158  18.056  1.00  0.00    -0.010 C 
HETATM    6  C5  UNL     1       5.708  -2.731  17.771  1.00  0.00     0.079 C 
HETATM    7  N2  UNL     1       6.340  -1.835  18.618  1.00  0.00    -0.390 N 
HETATM    8  C4  UNL     1       5.562  -1.111  19.620  1.00  0.00     0.221 C 
ATOM      9  H2  UNL     1       7.346  -1.681  18.542  1.00  0.00     0.159 HD
HETATM   10  C3  UNL     1       6.270  -0.940  20.912  1.00  0.00     0.235 C 
HETATM   11  N1  UNL     1       5.946  -1.265  22.235  1.00  0.00    -0.348 N 
HETATM   12  O1  UNL     1       7.420  -0.367  20.731  1.00  0.00    -0.272 OA
HETATM   13  C2  UNL     1       5.782  -2.614  22.826  1.00  0.00     0.154 C 
ATOM     14  H1  UNL     1       5.805  -0.479  22.868  1.00  0.00     0.163 HD
HETATM   15  C1  UNL     1       4.587  -2.493  23.762  1.00  0.00     0.041 C 
HETATM   16  C26 UNL     1       5.514  -3.601  21.749  1.00  0.00     0.134 C 
HETATM   17  N6  UNL     1       6.262  -4.500  21.053  1.00  0.00    -0.368 N 
ATOM     18  H6  UNL     1       6.883  -3.972  20.441  1.00  0.00     0.161 HD
BRANCH  16  19
HETATM   19  O2  UNL     1       4.242  -3.471  21.508  1.00  0.00    -0.348 OA
ATOM     20  H2  UNL     1       4.208  -3.074  20.646  1.00  0.00     0.219 HD
ENDBRANCH  16  19
ENDBRANCH   1   2
BRANCH   1  21
HETATM   21  C11 UNL     1       8.385  -5.938  22.586  1.00  0.00     0.004 C 
BRANCH  21  22
HETATM   22  C12 UNL     1       9.202  -7.054  23.116  1.00  0.00     0.034 C 
BRANCH  22  23
HETATM   23  C13 UNL     1      10.707  -6.912  22.946  1.00  0.00     0.193 C 
BRANCH  23  24
HETATM   24  C14 UNL     1      11.084  -5.502  22.706  1.00  0.00     0.074 C 
BRANCH  24  25
HETATM   25  C15 UNL     1      12.307  -4.974  23.332  1.00  0.00    -0.027 A 
HETATM   26  C16 UNL     1      13.572  -4.888  22.800  1.00  0.00     0.096 A 
HETATM   27  N3  UNL     1      14.358  -4.317  23.709  1.00  0.00    -0.365 N 
HETATM   28  C17 UNL     1      13.671  -4.023  24.814  1.00  0.00     0.045 A 
ATOM     29  H3  UNL     1      15.352  -4.130  23.579  1.00  0.00     0.165 HD
HETATM   30  C18 UNL     1      14.017  -3.433  26.016  1.00  0.00     0.047 A 
HETATM   31  C22 UNL     1      12.377  -4.425  24.606  1.00  0.00     0.014 A 
HETATM   32  C19 UNL     1      13.045  -3.259  26.995  1.00  0.00     0.092 A 
HETATM   33  N4  UNL     1      11.784  -3.666  26.758  1.00  0.00    -0.370 N 
HETATM   34  C20 UNL     1      10.778  -3.465  27.816  1.00  0.00     0.154 C 
HETATM   35  C21 UNL     1      11.417  -4.239  25.605  1.00  0.00     0.104 A 
ENDBRANCH  24  25
ENDBRANCH  23  24
BRANCH  23  36
HETATM   36  N5  UNL     1      11.282  -7.942  22.173  1.00  0.00    -0.074 N 
HETATM   37  C23 UNL     1      12.468  -8.571  22.735  1.00  0.00     0.272 C 
HETATM   38  C24 UNL     1      10.306  -9.063  22.129  1.00  0.00     0.272 C 
HETATM   39  C25 UNL     1      11.563  -7.646  20.810  1.00  0.00     0.272 C 
ENDBRANCH  23  36
ENDBRANCH  22  23
ENDBRANCH  21  22
ENDBRANCH   1  21
TORSDOF 8
ENDMDL
MODEL 2
REMARK VINA RESULT: -7.465304687      4.638      8.271
REMARK  8 active torsions:
REMARK  status: ('A' for Active; 'I' for Inactive)
REMARK    1  A    between atoms: C9_14  and  C10_15 
REMARK    2  A    between atoms: C10_15  and  C11_16 
REMARK    3  A    between atoms: C11_16  and  C12_17 
REMARK    4  A    between atoms: C12_17  and  C13_18 
REMARK    5  A    between atoms: C13_18  and  C14_19 
REMARK    6  A    between atoms: C13_18  and  N5_31 
REMARK    7  A    between atoms: C14_19  and  C15_20 
REMARK    8  A    between atoms: C26_37  and  O2_38 
ROOT
HETATM    1  C10 UNL     1      13.428  -9.640  21.571  1.00  0.00     0.025 C 
ENDROOT
BRANCH   1   2
HETATM    2  C9  UNL     1      13.683 -11.110  21.384  1.00  0.00     0.083 C 
HETATM    3  C8  UNL     1      13.064 -11.528  20.018  1.00  0.00     0.029 C 
HETATM    4  C7  UNL     1      11.595 -11.902  20.118  1.00  0.00     0.030 C 
HETATM    5  C6  UNL     1      11.303 -13.330  20.341  1.00  0.00    -0.010 C 
HETATM    6  C5  UNL     1      10.119 -13.791  21.071  1.00  0.00     0.079 C 
HETATM    7  N2  UNL     1       9.768 -13.365  22.342  1.00  0.00    -0.390 N 
HETATM    8  C4  UNL     1      10.257 -14.092  23.511  1.00  0.00     0.221 C 
ATOM      9  H2  UNL     1       9.171 -12.547  22.461  1.00  0.00     0.159 HD
HETATM   10  C3  UNL     1      10.617 -13.212  24.649  1.00  0.00     0.235 C 
HETATM   11  N1  UNL     1      11.783 -13.054  25.409  1.00  0.00    -0.348 N 
HETATM   12  O1  UNL     1       9.617 -12.452  24.974  1.00  0.00    -0.272 OA
HETATM   13  C2  UNL     1      13.097 -12.539  24.961  1.00  0.00     0.154 C 
ATOM     14  H1  UNL     1      11.719 -13.326  26.390  1.00  0.00     0.163 HD
HETATM   15  C1  UNL     1      14.126 -13.422  25.655  1.00  0.00     0.041 C 
HETATM   16  C26 UNL     1      13.205 -12.662  23.484  1.00  0.00     0.134 C 
HETATM   17  N6  UNL     1      13.031 -11.820  22.429  1.00  0.00    -0.368 N 
ATOM     18  H6  UNL     1      12.034 -11.618  22.360  1.00  0.00     0.161 HD
BRANCH  16  19
HETATM   19  O2  UNL     1      13.542 -13.904  23.293  1.00  0.00    -0.348 OA
ATOM     20  H2  UNL     1      12.967 -14.196  22.595  1.00  0.00     0.219 HD
ENDBRANCH  16  19
ENDBRANCH   1   2
BRANCH   1  21
HETATM   21  C11 UNL     1      12.755  -9.215  22.823  1.00  0.00     0.004 C 
BRANCH  21  22
HETATM   22  C12 UNL     1      11.388  -8.695  22.589  1.00  0.00     0.034 C 
BRANCH  22  23
HETATM   23  C13 UNL     1      11.304  -7.274  22.050  1.00  0.00     0.193 C 
BRANCH  23  24
HETATM   24  C14 UNL     1      11.156  -6.296  23.149  1.00  0.00     0.074 C 
BRANCH  24  25
HETATM   25  C15 UNL     1      12.316  -5.476  23.536  1.00  0.00    -0.027 A 
HETATM   26  C16 UNL     1      13.511  -5.320  22.875  1.00  0.00     0.096 A 
HETATM   27  N3  UNL     1      14.252  -4.463  23.574  1.00  0.00    -0.365 N 
HETATM   28  C17 UNL     1      13.601  -4.047  24.660  1.00  0.00     0.045 A 
ATOM     29  H3  UNL     1      15.192  -4.164  23.312  1.00  0.00     0.165 HD
HETATM   30  C18 UNL     1      13.926  -3.174  25.684  1.00  0.00     0.047 A 
HETATM   31  C22 UNL     1      12.380  -4.668  24.664  1.00  0.00     0.014 A 
HETATM   32  C19 UNL     1      13.005  -2.943  26.700  1.00  0.00     0.092 A 
HETATM   33  N4  UNL     1      11.814  -3.570  26.672  1.00  0.00    -0.370 N 
HETATM   34  C20 UNL     1      10.861  -3.300  27.764  1.00  0.00     0.154 C 
HETATM   35  C21 UNL     1      11.470  -4.419  25.696  1.00  0.00     0.104 A 
ENDBRANCH  24  25
ENDBRANCH  23  24
BRANCH  23  36
HETATM   36  N5  UNL     1      10.510  -7.162  20.888  1.00  0.00    -0.074 N 
HETATM   37  C23 UNL     1      10.128  -8.416  20.258  1.00  0.00     0.272 C 
HETATM   38  C24 UNL     1       9.201  -6.588  21.299  1.00  0.00     0.272 C 
HETATM   39  C25 UNL     1      10.986  -6.298  19.864  1.00  0.00     0.272 C 
ENDBRANCH  23  36
ENDBRANCH  22  23
ENDBRANCH  21  22
ENDBRANCH   1  21
TORSDOF 8
ENDMDL
MODEL 3
REMARK VINA RESULT: -7.299077300      4.885      7.638
REMARK  8 active torsions:
REMARK  status: ('A' for Active; 'I' for Inactive)
REMARK    1  A    between atoms: C9_14  and  C10_15 
REMARK    2  A    between atoms: C10_15  and  C11_16 
REMARK    3  A    between atoms: C11_16  and  C12_17 
REMARK    4  A    between atoms: C12_17  and  C13_18 
REMARK    5  A    between atoms: C13_18  and  C14_19 
REMARK    6  A    between atoms: C13_18  and  N5_31 
REMARK    7  A    between atoms: C14_19  and  C15_20 
REMARK    8  A    between atoms: C26_37  and  O2_38 
ROOT
HETATM    1  C10 UNL     1      12.527 -10.075  23.760  1.00  0.00     0.025 C 
ENDROOT
BRANCH   1   2
HETATM    2  C9  UNL     1      12.420 -11.512  24.188  1.00  0.00     0.083 C 
HETATM    3  C8  UNL     1      12.944 -12.395  23.019  1.00  0.00     0.029 C 
HETATM    4  C7  UNL     1      11.871 -12.729  21.996  1.00  0.00     0.030 C 
HETATM    5  C6  UNL     1      11.137 -13.989  22.214  1.00  0.00    -0.010 C 
HETATM    6  C5  UNL     1       9.746 -14.178  21.794  1.00  0.00     0.079 C 
HETATM    7  N2  UNL     1       8.703 -13.333  22.141  1.00  0.00    -0.390 N 
HETATM    8  C4  UNL     1       7.933 -13.592  23.355  1.00  0.00     0.221 C 
ATOM      9  H2  UNL     1       8.474 -12.534  21.550  1.00  0.00     0.159 HD
HETATM   10  C3  UNL     1       7.547 -12.362  24.086  1.00  0.00     0.235 C 
HETATM   11  N1  UNL     1       7.736 -11.929  25.405  1.00  0.00    -0.348 N 
HETATM   12  O1  UNL     1       6.903 -11.548  23.307  1.00  0.00    -0.272 OA
HETATM   13  C2  UNL     1       9.012 -11.588  26.076  1.00  0.00     0.154 C 
ATOM     14  H1  UNL     1       6.893 -11.837  25.972  1.00  0.00     0.163 HD
HETATM   15  C1  UNL     1       8.882 -12.154  27.484  1.00  0.00     0.041 C 
HETATM   16  C26 UNL     1      10.142 -12.225  25.351  1.00  0.00     0.134 C 
HETATM   17  N6  UNL     1      11.051 -11.815  24.425  1.00  0.00    -0.368 N 
ATOM     18  H6  UNL     1      10.549 -11.663  23.551  1.00  0.00     0.161 HD
BRANCH  16  19
HETATM   19  O2  UNL     1      10.152 -13.450  25.791  1.00  0.00    -0.348 OA
ATOM     20  H2  UNL     1      10.775 -13.894  25.228  1.00  0.00     0.219 HD
ENDBRANCH  16  19
ENDBRANCH   1   2
BRANCH   1  21
HETATM   21  C11 UNL     1      11.482  -9.137  24.240  1.00  0.00     0.004 C 
BRANCH  21  22
HETATM   22  C12 UNL     1      10.725  -8.510  23.132  1.00  0.00     0.034 C 
BRANCH  22  23
HETATM   23  C13 UNL     1      11.478  -7.464  22.324  1.00  0.00     0.193 C 
BRANCH  23  24
HETATM   24  C14 UNL     1      11.269  -6.110  22.882  1.00  0.00     0.074 C 
BRANCH  24  25
HETATM   25  C15 UNL     1      12.430  -5.359  23.387  1.00  0.00    -0.027 A 
HETATM   26  C16 UNL     1      13.664  -5.198  22.803  1.00  0.00     0.096 A 
HETATM   27  N3  UNL     1      14.391  -4.417  23.599  1.00  0.00    -0.365 N 
HETATM   28  C17 UNL     1      13.694  -4.056  24.677  1.00  0.00     0.045 A 
ATOM     29  H3  UNL     1      15.353  -4.134  23.410  1.00  0.00     0.165 HD
HETATM   30  C18 UNL     1      13.988  -3.269  25.776  1.00  0.00     0.047 A 
HETATM   31  C22 UNL     1      12.456  -4.635  24.572  1.00  0.00     0.014 A 
HETATM   32  C19 UNL     1      13.020  -3.077  26.755  1.00  0.00     0.092 A 
HETATM   33  N4  UNL     1      11.814  -3.660  26.620  1.00  0.00    -0.370 N 
HETATM   34  C20 UNL     1      10.811  -3.435  27.676  1.00  0.00     0.154 C 
HETATM   35  C21 UNL     1      11.498  -4.427  25.569  1.00  0.00     0.104 A 
ENDBRANCH  24  25
ENDBRANCH  23  24
BRANCH  23  36
HETATM   36  N5  UNL     1      11.410  -7.676  20.931  1.00  0.00    -0.074 N 
HETATM   37  C23 UNL     1      11.056  -6.515  20.129  1.00  0.00     0.272 C 
HETATM   38  C24 UNL     1      12.785  -7.992  20.462  1.00  0.00     0.272 C 
HETATM   39  C25 UNL     1      10.610  -8.763  20.483  1.00  0.00     0.272 C 
ENDBRANCH  23  36
ENDBRANCH  22  23
ENDBRANCH  21  22
ENDBRANCH   1  21
TORSDOF 8
ENDMDL
MODEL 4
REMARK VINA RESULT: -7.193258928      4.476      8.535
REMARK  8 active torsions:
REMARK  status: ('A' for Active; 'I' for Inactive)
REMARK    1  A    between atoms: C9_14  and  C10_15 
REMARK    2  A    between atoms: C10_15  and  C11_16 
REMARK    3  A    between atoms: C11_16  and  C12_17 
REMARK    4  A    between atoms: C12_17  and  C13_18 
REMARK    5  A    between atoms: C13_18  and  C14_19 
REMARK    6  A    between atoms: C13_18  and  N5_31 
REMARK    7  A    between atoms: C14_19  and  C15_20 
REMARK    8  A    between atoms: C26_37  and  O2_38 
ROOT
HETATM    1  C10 UNL     1      13.041  -9.671  22.715  1.00  0.00     0.025 C 
ENDROOT
BRANCH   1   2
HETATM    2  C9  UNL     1      11.851 -10.467  23.176  1.00  0.00     0.083 C 
HETATM    3  C8  UNL     1      12.162 -10.999  24.605  1.00  0.00     0.029 C 
HETATM    4  C7  UNL     1      12.913 -12.320  24.599  1.00  0.00     0.030 C 
HETATM    5  C6  UNL     1      12.083 -13.538  24.657  1.00  0.00    -0.010 C 
HETATM    6  C5  UNL     1      12.491 -14.805  24.045  1.00  0.00     0.079 C 
HETATM    7  N2  UNL     1      12.875 -14.947  22.721  1.00  0.00    -0.390 N 
HETATM    8  C4  UNL     1      11.873 -15.262  21.706  1.00  0.00     0.221 C 
ATOM      9  H2  UNL     1      13.853 -14.832  22.457  1.00  0.00     0.159 HD
HETATM   10  C3  UNL     1      12.097 -14.566  20.416  1.00  0.00     0.235 C 
HETATM   11  N1  UNL     1      11.297 -13.732  19.623  1.00  0.00    -0.348 N 
HETATM   12  O1  UNL     1      13.289 -14.807  19.965  1.00  0.00    -0.272 OA
HETATM   13  C2  UNL     1      10.799 -12.375  19.946  1.00  0.00     0.154 C 
ATOM     14  H1  UNL     1      11.026 -14.105  18.714  1.00  0.00     0.163 HD
HETATM   15  C1  UNL     1       9.371 -12.342  19.419  1.00  0.00     0.041 C 
HETATM   16  C26 UNL     1      10.825 -12.171  21.417  1.00  0.00     0.134 C 
HETATM   17  N6  UNL     1      11.673 -11.568  22.295  1.00  0.00    -0.368 N 
ATOM     18  H6  UNL     1      12.521 -12.134  22.338  1.00  0.00     0.161 HD
BRANCH  16  19
HETATM   19  O2  UNL     1       9.739 -12.751  21.838  1.00  0.00    -0.348 OA
ATOM     20  H2  UNL     1       9.833 -12.762  22.784  1.00  0.00     0.219 HD
ENDBRANCH  16  19
ENDBRANCH   1   2
BRANCH   1  21
HETATM   21  C11 UNL     1      12.951  -8.192  22.803  1.00  0.00     0.004 C 
BRANCH  21  22
HETATM   22  C12 UNL     1      11.650  -7.729  23.339  1.00  0.00     0.034 C 
BRANCH  22  23
HETATM   23  C13 UNL     1      10.826  -6.851  22.411  1.00  0.00     0.193 C 
BRANCH  23  24
HETATM   24  C14 UNL     1      10.656  -5.494  22.973  1.00  0.00     0.074 C 
BRANCH  24  25
HETATM   25  C15 UNL     1      11.851  -4.731  23.369  1.00  0.00    -0.027 A 
HETATM   26  C16 UNL     1      12.936  -4.382  22.600  1.00  0.00     0.096 A 
HETATM   27  N3  UNL     1      13.762  -3.669  23.363  1.00  0.00    -0.365 N 
HETATM   28  C17 UNL     1      13.272  -3.531  24.595  1.00  0.00     0.045 A 
ATOM     29  H3  UNL     1      14.651  -3.280  23.047  1.00  0.00     0.165 HD
HETATM   30  C18 UNL     1      13.732  -2.893  25.733  1.00  0.00     0.047 A 
HETATM   31  C22 UNL     1      12.070  -4.190  24.629  1.00  0.00     0.014 A 
HETATM   32  C19 UNL     1      12.967  -2.931  26.893  1.00  0.00     0.092 A 
HETATM   33  N4  UNL     1      11.791  -3.586  26.892  1.00  0.00    -0.370 N 
HETATM   34  C20 UNL     1      11.004  -3.606  28.137  1.00  0.00     0.154 C 
HETATM   35  C21 UNL     1      11.317  -4.213  25.808  1.00  0.00     0.104 A 
ENDBRANCH  24  25
ENDBRANCH  23  24
BRANCH  23  36
HETATM   36  N5  UNL     1       9.726  -7.523  21.834  1.00  0.00    -0.074 N 
HETATM   37  C23 UNL     1       8.924  -8.324  22.745  1.00  0.00     0.272 C 
HETATM   38  C24 UNL     1       8.764  -6.486  21.375  1.00  0.00     0.272 C 
HETATM   39  C25 UNL     1       9.988  -8.318  20.685  1.00  0.00     0.272 C 
ENDBRANCH  23  36
ENDBRANCH  22  23
ENDBRANCH  21  22
ENDBRANCH   1  21
TORSDOF 8
ENDMDL
MODEL 5
REMARK VINA RESULT: -7.190010959      4.588      7.815
REMARK  8 active torsions:
REMARK  status: ('A' for Active; 'I' for Inactive)
REMARK    1  A    between atoms: C9_14  and  C10_15 
REMARK    2  A    between atoms: C10_15  and  C11_16 
REMARK    3  A    between atoms: C11_16  and  C12_17 
REMARK    4  A    between atoms: C12_17  and  C13_18 
REMARK    5  A    between atoms: C13_18  and  C14_19 
REMARK    6  A    between atoms: C13_18  and  N5_31 
REMARK    7  A    between atoms: C14_19  and  C15_20 
REMARK    8  A    between atoms: C26_37  and  O2_38 
ROOT
HETATM    1  C10 UNL     1      14.054  -8.642  21.377  1.00  0.00     0.025 C 
ENDROOT
BRANCH   1   2
HETATM    2  C9  UNL     1      13.986  -9.482  20.133  1.00  0.00     0.083 C 
HETATM    3  C8  UNL     1      15.073 -10.589  20.248  1.00  0.00     0.029 C 
HETATM    4  C7  UNL     1      16.436 -10.143  19.746  1.00  0.00     0.030 C 
HETATM    5  C6  UNL     1      16.731 -10.429  18.330  1.00  0.00    -0.010 C 
HETATM    6  C5  UNL     1      17.611  -9.584  17.519  1.00  0.00     0.079 C 
HETATM    7  N2  UNL     1      17.461  -8.215  17.368  1.00  0.00    -0.390 N 
HETATM    8  C4  UNL     1      16.645  -7.690  16.276  1.00  0.00     0.221 C 
ATOM      9  H2  UNL     1      17.919  -7.575  18.017  1.00  0.00     0.159 HD
HETATM   10  C3  UNL     1      15.846  -6.499  16.651  1.00  0.00     0.235 C 
HETATM   11  N1  UNL     1      14.480  -6.199  16.587  1.00  0.00    -0.348 N 
HETATM   12  O1  UNL     1      16.611  -5.567  17.133  1.00  0.00    -0.272 OA
HETATM   13  C2  UNL     1      13.374  -6.829  17.345  1.00  0.00     0.154 C 
ATOM     14  H1  UNL     1      14.213  -5.458  15.940  1.00  0.00     0.163 HD
HETATM   15  C1  UNL     1      12.232  -6.958  16.346  1.00  0.00     0.041 C 
HETATM   16  C26 UNL     1      13.802  -8.165  17.834  1.00  0.00     0.134 C 
HETATM   17  N6  UNL     1      14.276  -8.657  19.012  1.00  0.00    -0.368 N 
ATOM     18  H6  UNL     1      15.217  -8.286  19.141  1.00  0.00     0.161 HD
BRANCH  16  19
HETATM   19  O2  UNL     1      13.642  -8.947  16.806  1.00  0.00    -0.348 OA
ATOM     20  H2  UNL     1      13.228  -9.722  17.166  1.00  0.00     0.219 HD
ENDBRANCH  16  19
ENDBRANCH   1   2
BRANCH   1  21
HETATM   21  C11 UNL     1      13.178  -9.025  22.512  1.00  0.00     0.004 C 
BRANCH  21  22
HETATM   22  C12 UNL     1      11.761  -8.650  22.291  1.00  0.00     0.034 C 
BRANCH  22  23
HETATM   23  C13 UNL     1      11.515  -7.207  21.878  1.00  0.00     0.193 C 
BRANCH  23  24
HETATM   24  C14 UNL     1      11.349  -6.336  23.062  1.00  0.00     0.074 C 
BRANCH  24  25
HETATM   25  C15 UNL     1      12.475  -5.488  23.487  1.00  0.00    -0.027 A 
HETATM   26  C16 UNL     1      13.682  -5.291  22.859  1.00  0.00     0.096 A 
HETATM   27  N3  UNL     1      14.381  -4.421  23.585  1.00  0.00    -0.365 N 
HETATM   28  C17 UNL     1      13.691  -4.037  24.659  1.00  0.00     0.045 A 
ATOM     29  H3  UNL     1      15.318  -4.094  23.352  1.00  0.00     0.165 HD
HETATM   30  C18 UNL     1      13.965  -3.167  25.700  1.00  0.00     0.047 A 
HETATM   31  C22 UNL     1      12.488  -4.692  24.625  1.00  0.00     0.014 A 
HETATM   32  C19 UNL     1      13.012  -2.973  26.695  1.00  0.00     0.092 A 
HETATM   33  N4  UNL     1      11.841  -3.633  26.630  1.00  0.00    -0.370 N 
HETATM   34  C20 UNL     1      10.853  -3.403  27.699  1.00  0.00     0.154 C 
HETATM   35  C21 UNL     1      11.545  -4.480  25.636  1.00  0.00     0.104 A 
ENDBRANCH  24  25
ENDBRANCH  23  24
BRANCH  23  36
HETATM   36  N5  UNL     1      10.642  -7.081  20.776  1.00  0.00    -0.074 N 
HETATM   37  C23 UNL     1       9.289  -6.646  21.086  1.00  0.00     0.272 C 
HETATM   38  C24 UNL     1      11.156  -5.974  19.927  1.00  0.00     0.272 C 
HETATM   39  C25 UNL     1      10.540  -8.198  19.903  1.00  0.00     0.272 C 
ENDBRANCH  23  36
ENDBRANCH  22  23
ENDBRANCH  21  22
ENDBRANCH   1  21
TORSDOF 8
ENDMDL
