MODEL 1
REMARK VINA RESULT: -6.572971756      0.000      0.000
REMARK  10 active torsions:
REMARK  status: ('A' for Active; 'I' for Inactive)
REMARK    1  A    between atoms: C4_4  and  C5_5 
REMARK    2  A    between atoms: C5_5  and  N1_6 
REMARK    3  A    between atoms: C7_8  and  C8_9 
REMARK    4  A    between atoms: C9_10  and  C10_11 
REMARK    5  A    between atoms: C18_21  and  N3_22 
REMARK    6  A    between atoms: N3_22  and  S2_24 
REMARK    7  A    between atoms: S2_24  and  N4_25 
REMARK    8  A    between atoms: C19_30  and  C20_31 
REMARK    9  A    between atoms: C20_31  and  C21_32 
REMARK   10  A    between atoms: C22_33  and  C23_34 
ROOT
HETATM    1  C1  UNL     1      15.400  -8.201  22.013  1.00  0.00     0.020 C 
HETATM    2  C2  UNL     1      14.468  -7.867  21.202  1.00  0.00    -0.054 C 
HETATM    3  C3  UNL     1      14.691  -7.569  19.820  1.00  0.00    -0.039 C 
HETATM    4  C4  UNL     1      15.478  -8.236  19.018  1.00  0.00     0.002 C 
HETATM    5  C16 UNL     1      13.899  -6.439  19.242  1.00  0.00     0.096 A 
HETATM    6  S1  UNL     1      12.215  -6.965  18.831  1.00  0.00    -0.150 SA
HETATM    7  C17 UNL     1      12.860  -5.836  20.089  1.00  0.00     0.090 A 
HETATM    8  C18 UNL     1      12.882  -6.198  21.536  1.00  0.00     0.118 C 
HETATM    9  C19 UNL     1      13.044  -7.677  21.705  1.00  0.00     0.046 C 
ENDROOT
BRANCH   4  10
HETATM   10  C5  UNL     1      16.310  -9.408  19.235  1.00  0.00     0.157 C 
BRANCH  10  11
HETATM   11  N1  UNL     1      15.488 -10.640  19.263  1.00  0.00    -0.348 N 
HETATM   12  C6  UNL     1      15.192 -11.159  20.456  1.00  0.00     0.114 A 
HETATM   13  C7  UNL     1      14.422 -12.322  20.537  1.00  0.00     0.048 A 
HETATM   14  C13 UNL     1      14.019 -12.855  19.334  1.00  0.00     0.113 A 
HETATM   15  N2  UNL     1      14.334 -12.305  18.147  1.00  0.00    -0.356 N 
HETATM   16  C14 UNL     1      13.900 -12.881  16.889  1.00  0.00     0.156 C 
HETATM   17  C15 UNL     1      15.081 -11.180  18.109  1.00  0.00     0.184 A 
BRANCH  13  18
HETATM   18  C8  UNL     1      14.085 -12.907  21.807  1.00  0.00    -0.064 C 
HETATM   19  C9  UNL     1      13.788 -13.388  22.876  1.00  0.00    -0.097 C 
BRANCH  19  20
HETATM   20  C10 UNL     1      13.418 -13.952  24.178  1.00  0.00     0.057 C 
HETATM   21  C11 UNL     1      13.933 -13.115  25.327  1.00  0.00     0.023 C 
HETATM   22  C12 UNL     1      11.910 -14.063  24.195  1.00  0.00     0.023 C 
ENDBRANCH  19  20
ENDBRANCH  13  18
ENDBRANCH  10  11
ENDBRANCH   4  10
BRANCH   9  23
HETATM   23  C20 UNL     1      12.929  -8.238  23.078  1.00  0.00     0.038 C 
BRANCH  23  24
HETATM   24  C21 UNL     1      12.839  -9.702  23.121  1.00  0.00    -0.030 C 
HETATM   25  C22 UNL     1      11.958 -10.406  23.812  1.00  0.00    -0.031 C 
BRANCH  25  26
HETATM   26  C23 UNL     1      10.908  -9.796  24.664  1.00  0.00     0.022 C 
HETATM   27  C24 UNL     1      10.034 -10.915  25.215  1.00  0.00     0.009 C 
ENDBRANCH  25  26
ENDBRANCH  23  24
ENDBRANCH   9  23
BRANCH   8  28
HETATM   28  N3  UNL     1      11.841  -5.556  22.274  1.00  0.00    -0.296 N 
ATOM     29  H3  UNL     1      10.861  -5.589  21.994  1.00  0.00     0.174 HD
BRANCH  28  30
HETATM   30  S2  UNL     1      12.382  -4.730  23.668  1.00  0.00     0.313 S 
HETATM   31  O1  UNL     1      11.802  -3.329  23.611  1.00  0.00    -0.183 OA
HETATM   32  O2  UNL     1      11.861  -5.459  24.875  1.00  0.00    -0.183 OA
BRANCH  30  33
HETATM   33  N4  UNL     1      14.069  -4.587  23.814  1.00  0.00    -0.312 N 
ATOM     34  H42 UNL     1      14.664  -5.405  23.945  1.00  0.00     0.170 HD
ATOM     35  H41 UNL     1      14.429  -3.634  23.761  1.00  0.00     0.170 HD
ENDBRANCH  30  33
ENDBRANCH  28  30
ENDBRANCH   8  28
TORSDOF 10
ENDMDL
MODEL 2
REMARK VINA RESULT: -6.291355240      4.412      7.370
REMARK  10 active torsions:
REMARK  status: ('A' for Active; 'I' for Inactive)
REMARK    1  A    between atoms: C4_4  and  C5_5 
REMARK    2  A    between atoms: C5_5  and  N1_6 
REMARK    3  A    between atoms: C7_8  and  C8_9 
REMARK    4  A    between atoms: C9_10  and  C10_11 
REMARK    5  A    between atoms: C18_21  and  N3_22 
REMARK    6  A    between atoms: N3_22  and  S2_24 
REMARK    7  A    between atoms: S2_24  and  N4_25 
REMARK    8  A    between atoms: C19_30  and  C20_31 
REMARK    9  A    between atoms: C20_31  and  C21_32 
REMARK   10  A    between atoms: C22_33  and  C23_34 
ROOT
HETATM    1  C1  UNL     1      12.238 -10.346  24.408  1.00  0.00     0.020 C 
HETATM    2  C2  UNL     1      11.370 -10.711  23.540  1.00  0.00    -0.054 C 
HETATM    3  C3  UNL     1      10.881  -9.854  22.503  1.00  0.00    -0.039 C 
HETATM    4  C4  UNL     1      11.609  -9.040  21.785  1.00  0.00     0.002 C 
HETATM    5  C16 UNL     1       9.425  -9.960  22.177  1.00  0.00     0.096 A 
HETATM    6  S1  UNL     1       9.095 -11.392  21.117  1.00  0.00    -0.150 SA
HETATM    7  C17 UNL     1       8.659 -11.029  22.835  1.00  0.00     0.090 A 
HETATM    8  C18 UNL     1       9.321 -11.721  23.978  1.00  0.00     0.118 C 
HETATM    9  C19 UNL     1      10.729 -12.088  23.627  1.00  0.00     0.046 C 
ENDROOT
BRANCH   4  10
HETATM   10  C5  UNL     1      13.036  -8.761  21.790  1.00  0.00     0.157 C 
BRANCH  10  11
HETATM   11  N1  UNL     1      13.287  -7.303  21.840  1.00  0.00    -0.348 N 
HETATM   12  C6  UNL     1      13.025  -6.669  22.985  1.00  0.00     0.114 A 
HETATM   13  C7  UNL     1      13.242  -5.292  23.084  1.00  0.00     0.048 A 
HETATM   14  C13 UNL     1      13.726  -4.683  21.949  1.00  0.00     0.113 A 
HETATM   15  N2  UNL     1      13.981  -5.351  20.810  1.00  0.00    -0.356 N 
HETATM   16  C14 UNL     1      14.492  -4.692  19.623  1.00  0.00     0.156 C 
HETATM   17  C15 UNL     1      13.758  -6.682  20.753  1.00  0.00     0.184 A 
BRANCH  13  18
HETATM   18  C8  UNL     1      12.969  -4.579  24.303  1.00  0.00    -0.064 C 
HETATM   19  C9  UNL     1      12.737  -3.965  25.318  1.00  0.00    -0.097 C 
BRANCH  19  20
HETATM   20  C10 UNL     1      12.468  -3.202  26.541  1.00  0.00     0.057 C 
HETATM   21  C11 UNL     1      11.179  -3.631  27.206  1.00  0.00     0.023 C 
HETATM   22  C12 UNL     1      13.660  -3.395  27.449  1.00  0.00     0.023 C 
ENDBRANCH  19  20
ENDBRANCH  13  18
ENDBRANCH  10  11
ENDBRANCH   4  10
BRANCH   9  23
HETATM   23  C20 UNL     1      11.493 -12.926  24.590  1.00  0.00     0.038 C 
BRANCH  23  24
HETATM   24  C21 UNL     1      12.537 -13.749  23.970  1.00  0.00    -0.030 C 
HETATM   25  C22 UNL     1      13.755 -13.947  24.448  1.00  0.00    -0.031 C 
BRANCH  25  26
HETATM   26  C23 UNL     1      14.247 -13.347  25.711  1.00  0.00     0.022 C 
HETATM   27  C24 UNL     1      14.231 -14.425  26.787  1.00  0.00     0.009 C 
ENDBRANCH  25  26
ENDBRANCH  23  24
ENDBRANCH   9  23
BRANCH   8  28
HETATM   28  N3  UNL     1       8.496 -12.735  24.555  1.00  0.00    -0.296 N 
ATOM     29  H3  UNL     1       8.203 -13.568  24.044  1.00  0.00     0.174 HD
BRANCH  28  30
HETATM   30  S2  UNL     1       8.042 -12.428  26.172  1.00  0.00     0.313 S 
HETATM   31  O1  UNL     1       9.001 -11.387  26.718  1.00  0.00    -0.183 OA
HETATM   32  O2  UNL     1       6.638 -11.891  26.169  1.00  0.00    -0.183 OA
BRANCH  30  33
HETATM   33  N4  UNL     1       8.097 -13.776  27.206  1.00  0.00    -0.312 N 
ATOM     34  H42 UNL     1       8.869 -14.443  27.173  1.00  0.00     0.170 HD
ATOM     35  H41 UNL     1       7.309 -13.862  27.849  1.00  0.00     0.170 HD
ENDBRANCH  30  33
ENDBRANCH  28  30
ENDBRANCH   8  28
TORSDOF 10
ENDMDL
MODEL 3
REMARK VINA RESULT: -6.270033329      2.906      5.315
REMARK  10 active torsions:
REMARK  status: ('A' for Active; 'I' for Inactive)
REMARK    1  A    between atoms: C4_4  and  C5_5 
REMARK    2  A    between atoms: C5_5  and  N1_6 
REMARK    3  A    between atoms: C7_8  and  C8_9 
REMARK    4  A    between atoms: C9_10  and  C10_11 
REMARK    5  A    between atoms: C18_21  and  N3_22 
REMARK    6  A    between atoms: N3_22  and  S2_24 
REMARK    7  A    between atoms: S2_24  and  N4_25 
REMARK    8  A    between atoms: C19_30  and  C20_31 
REMARK    9  A    between atoms: C20_31  and  C21_32 
REMARK   10  A    between atoms: C22_33  and  C23_34 
ROOT
HETATM    1  C1  UNL     1      11.635  -7.628  19.746  1.00  0.00     0.020 C 
HETATM    2  C2  UNL     1      11.910  -7.104  20.881  1.00  0.00    -0.054 C 
HETATM    3  C3  UNL     1      10.917  -6.748  21.849  1.00  0.00    -0.039 C 
HETATM    4  C4  UNL     1       9.873  -7.466  22.164  1.00  0.00     0.002 C 
HETATM    5  C16 UNL     1      11.144  -5.476  22.604  1.00  0.00     0.096 A 
HETATM    6  S1  UNL     1      12.333  -5.718  23.949  1.00  0.00    -0.150 SA
HETATM    7  C17 UNL     1      12.426  -4.786  22.401  1.00  0.00     0.090 A 
HETATM    8  C18 UNL     1      13.260  -5.247  21.253  1.00  0.00     0.118 C 
HETATM    9  C19 UNL     1      13.346  -6.741  21.232  1.00  0.00     0.046 C 
ENDROOT
BRANCH   4  10
HETATM   10  C5  UNL     1       9.412  -8.761  21.689  1.00  0.00     0.157 C 
BRANCH  10  11
HETATM   11  N1  UNL     1       9.374  -9.745  22.796  1.00  0.00    -0.348 N 
HETATM   12  C6  UNL     1      10.523 -10.329  23.142  1.00  0.00     0.114 A 
HETATM   13  C7  UNL     1      10.542 -11.268  24.178  1.00  0.00     0.048 A 
HETATM   14  C13 UNL     1       9.327 -11.520  24.775  1.00  0.00     0.113 A 
HETATM   15  N2  UNL     1       8.187 -10.913  24.401  1.00  0.00    -0.356 N 
HETATM   16  C14 UNL     1       6.916 -11.191  25.042  1.00  0.00     0.156 C 
HETATM   17  C15 UNL     1       8.209 -10.011  23.395  1.00  0.00     0.184 A 
BRANCH  13  18
HETATM   18  C8  UNL     1      11.763 -11.915  24.576  1.00  0.00    -0.064 C 
HETATM   19  C9  UNL     1      12.792 -12.463  24.893  1.00  0.00    -0.097 C 
BRANCH  19  20
HETATM   20  C10 UNL     1      14.039 -13.143  25.261  1.00  0.00     0.057 C 
HETATM   21  C11 UNL     1      13.863 -14.042  26.464  1.00  0.00     0.023 C 
HETATM   22  C12 UNL     1      14.492 -13.915  24.043  1.00  0.00     0.023 C 
ENDBRANCH  19  20
ENDBRANCH  13  18
ENDBRANCH  10  11
ENDBRANCH   4  10
BRANCH   9  23
HETATM   23  C20 UNL     1      14.267  -7.373  20.248  1.00  0.00     0.038 C 
BRANCH  23  24
HETATM   24  C21 UNL     1      15.296  -8.224  20.855  1.00  0.00    -0.030 C 
HETATM   25  C22 UNL     1      15.306  -9.547  20.859  1.00  0.00    -0.031 C 
BRANCH  25  26
HETATM   26  C23 UNL     1      14.247 -10.376  20.234  1.00  0.00     0.022 C 
HETATM   27  C24 UNL     1      13.605 -11.227  21.322  1.00  0.00     0.009 C 
ENDBRANCH  25  26
ENDBRANCH  23  24
ENDBRANCH   9  23
BRANCH   8  28
HETATM   28  N3  UNL     1      14.479  -4.511  21.134  1.00  0.00    -0.296 N 
ATOM     29  H3  UNL     1      15.205  -4.522  21.851  1.00  0.00     0.174 HD
BRANCH  28  30
HETATM   30  S2  UNL     1      14.612  -3.611  19.689  1.00  0.00     0.313 S 
HETATM   31  O1  UNL     1      14.460  -2.147  20.057  1.00  0.00    -0.183 OA
HETATM   32  O2  UNL     1      15.975  -3.862  19.107  1.00  0.00    -0.183 OA
BRANCH  30  33
HETATM   33  N4  UNL     1      13.449  -3.970  18.504  1.00  0.00    -0.312 N 
ATOM     34  H42 UNL     1      12.822  -4.769  18.597  1.00  0.00     0.170 HD
ATOM     35  H41 UNL     1      13.431  -3.334  17.706  1.00  0.00     0.170 HD
ENDBRANCH  30  33
ENDBRANCH  28  30
ENDBRANCH   8  28
TORSDOF 10
ENDMDL
MODEL 4
REMARK VINA RESULT: -6.269839679      2.506      5.627
REMARK  10 active torsions:
REMARK  status: ('A' for Active; 'I' for Inactive)
REMARK    1  A    between atoms: C4_4  and  C5_5 
REMARK    2  A    between atoms: C5_5  and  N1_6 
REMARK    3  A    between atoms: C7_8  and  C8_9 
REMARK    4  A    between atoms: C9_10  and  C10_11 
REMARK    5  A    between atoms: C18_21  and  N3_22 
REMARK    6  A    between atoms: N3_22  and  S2_24 
REMARK    7  A    between atoms: S2_24  and  N4_25 
REMARK    8  A    between atoms: C19_30  and  C20_31 
REMARK    9  A    between atoms: C20_31  and  C21_32 
REMARK   10  A    between atoms: C22_33  and  C23_34 
ROOT
HETATM    1  C1  UNL     1      14.051  -8.617  21.877  1.00  0.00     0.020 C 
HETATM    2  C2  UNL     1      12.911  -8.079  21.655  1.00  0.00    -0.054 C 
HETATM    3  C3  UNL     1      12.534  -7.516  20.394  1.00  0.00    -0.039 C 
HETATM    4  C4  UNL     1      12.782  -8.043  19.224  1.00  0.00     0.002 C 
HETATM    5  C16 UNL     1      11.731  -6.255  20.436  1.00  0.00     0.096 A 
HETATM    6  S1  UNL     1       9.986  -6.603  20.775  1.00  0.00    -0.150 SA
HETATM    7  C17 UNL     1      11.271  -5.787  21.752  1.00  0.00     0.090 A 
HETATM    8  C18 UNL     1      11.885  -6.438  22.946  1.00  0.00     0.118 C 
HETATM    9  C19 UNL     1      11.901  -7.927  22.783  1.00  0.00     0.046 C 
ENDROOT
BRANCH   4  10
HETATM   10  C5  UNL     1      13.454  -9.274  18.842  1.00  0.00     0.157 C 
BRANCH  10  11
HETATM   11  N1  UNL     1      14.796  -8.990  18.283  1.00  0.00    -0.348 N 
HETATM   12  C6  UNL     1      15.045  -7.743  17.878  1.00  0.00     0.114 A 
HETATM   13  C7  UNL     1      16.295  -7.423  17.339  1.00  0.00     0.048 A 
HETATM   14  C13 UNL     1      17.196  -8.461  17.269  1.00  0.00     0.113 A 
HETATM   15  N2  UNL     1      16.913  -9.708  17.687  1.00  0.00    -0.356 N 
HETATM   16  C14 UNL     1      17.876 -10.788  17.606  1.00  0.00     0.156 C 
HETATM   17  C15 UNL     1      15.693  -9.978  18.202  1.00  0.00     0.184 A 
BRANCH  13  18
HETATM   18  C8  UNL     1      16.596  -6.090  16.894  1.00  0.00    -0.064 C 
HETATM   19  C9  UNL     1      16.867  -4.972  16.520  1.00  0.00    -0.097 C 
BRANCH  19  20
HETATM   20  C10 UNL     1      17.213  -3.617  16.080  1.00  0.00     0.057 C 
HETATM   21  C11 UNL     1      16.638  -2.557  16.993  1.00  0.00     0.023 C 
HETATM   22  C12 UNL     1      18.722  -3.548  16.020  1.00  0.00     0.023 C 
ENDBRANCH  19  20
ENDBRANCH  13  18
ENDBRANCH  10  11
ENDBRANCH   4  10
BRANCH   9  23
HETATM   23  C20 UNL     1      12.333  -8.750  23.945  1.00  0.00     0.038 C 
BRANCH  23  24
HETATM   24  C21 UNL     1      11.336  -9.733  24.384  1.00  0.00    -0.030 C 
HETATM   25  C22 UNL     1      11.499 -11.046  24.408  1.00  0.00    -0.031 C 
BRANCH  25  26
HETATM   26  C23 UNL     1      12.746 -11.725  23.982  1.00  0.00     0.022 C 
HETATM   27  C24 UNL     1      13.157 -12.698  25.080  1.00  0.00     0.009 C 
ENDBRANCH  25  26
ENDBRANCH  23  24
ENDBRANCH   9  23
BRANCH   8  28
HETATM   28  N3  UNL     1      11.381  -5.911  24.174  1.00  0.00    -0.296 N 
ATOM     29  H3  UNL     1      10.629  -6.356  24.701  1.00  0.00     0.174 HD
BRANCH  28  30
HETATM   30  S2  UNL     1      12.146  -4.471  24.682  1.00  0.00     0.313 S 
HETATM   31  O1  UNL     1      11.431  -3.319  24.002  1.00  0.00    -0.183 OA
HETATM   32  O2  UNL     1      12.000  -4.366  26.174  1.00  0.00    -0.183 OA
BRANCH  30  33
HETATM   33  N4  UNL     1      13.797  -4.356  24.296  1.00  0.00    -0.312 N 
ATOM     34  H42 UNL     1      14.477  -5.028  24.654  1.00  0.00     0.170 HD
ATOM     35  H41 UNL     1      14.047  -3.574  23.690  1.00  0.00     0.170 HD
ENDBRANCH  30  33
ENDBRANCH  28  30
ENDBRANCH   8  28
TORSDOF 10
ENDMDL
MODEL 5
REMARK VINA RESULT: -6.240312639      4.482      7.939
REMARK  10 active torsions:
REMARK  status: ('A' for Active; 'I' for Inactive)
REMARK    1  A    between atoms: C4_4  and  C5_5 
REMARK    2  A    between atoms: C5_5  and  N1_6 
REMARK    3  A    between atoms: C7_8  and  C8_9 
REMARK    4  A    between atoms: C9_10  and  C10_11 
REMARK    5  A    between atoms: C18_21  and  N3_22 
REMARK    6  A    between atoms: N3_22  and  S2_24 
REMARK    7  A    between atoms: S2_24  and  N4_25 
REMARK    8  A    between atoms: C19_30  and  C20_31 
REMARK    9  A    between atoms: C20_31  and  C21_32 
REMARK   10  A    between atoms: C22_33  and  C23_34 
ROOT
HETATM    1  C1  UNL     1      11.106 -11.290  22.570  1.00  0.00     0.020 C 
HETATM    2  C2  UNL     1      12.262 -11.226  22.023  1.00  0.00    -0.054 C 
HETATM    3  C3  UNL     1      12.611 -10.264  21.022  1.00  0.00    -0.039 C 
HETATM    4  C4  UNL     1      12.284  -8.999  21.040  1.00  0.00     0.002 C 
HETATM    5  C16 UNL     1      13.479 -10.746  19.904  1.00  0.00     0.096 A 
HETATM    6  S1  UNL     1      15.218 -10.814  20.410  1.00  0.00    -0.150 SA
HETATM    7  C17 UNL     1      14.021 -12.109  20.005  1.00  0.00     0.090 A 
HETATM    8  C18 UNL     1      13.428 -12.990  21.053  1.00  0.00     0.118 C 
HETATM    9  C19 UNL     1      13.327 -12.260  22.357  1.00  0.00     0.046 C 
ENDROOT
BRANCH   4  10
HETATM   10  C5  UNL     1      11.533  -8.208  22.001  1.00  0.00     0.157 C 
BRANCH  10  11
HETATM   11  N1  UNL     1      12.155  -6.877  22.189  1.00  0.00    -0.348 N 
HETATM   12  C6  UNL     1      12.019  -6.295  23.382  1.00  0.00     0.114 A 
HETATM   13  C7  UNL     1      12.584  -5.037  23.610  1.00  0.00     0.048 A 
HETATM   14  C13 UNL     1      13.258  -4.485  22.545  1.00  0.00     0.113 A 
HETATM   15  N2  UNL     1      13.377  -5.100  21.354  1.00  0.00    -0.356 N 
HETATM   16  C14 UNL     1      14.092  -4.502  20.243  1.00  0.00     0.156 C 
HETATM   17  C15 UNL     1      12.817  -6.315  21.172  1.00  0.00     0.184 A 
BRANCH  13  18
HETATM   18  C8  UNL     1      12.456  -4.382  24.884  1.00  0.00    -0.064 C 
HETATM   19  C9  UNL     1      12.349  -3.815  25.946  1.00  0.00    -0.097 C 
BRANCH  19  20
HETATM   20  C10 UNL     1      12.233  -3.111  27.228  1.00  0.00     0.057 C 
HETATM   21  C11 UNL     1      11.046  -3.589  28.034  1.00  0.00     0.023 C 
HETATM   22  C12 UNL     1      13.536  -3.325  27.964  1.00  0.00     0.023 C 
ENDBRANCH  19  20
ENDBRANCH  13  18
ENDBRANCH  10  11
ENDBRANCH   4  10
BRANCH   9  23
HETATM   23  C20 UNL     1      12.905 -13.032  23.556  1.00  0.00     0.038 C 
BRANCH  23  24
HETATM   24  C21 UNL     1      13.550 -12.601  24.802  1.00  0.00    -0.030 C 
HETATM   25  C22 UNL     1      14.052 -13.396  25.732  1.00  0.00    -0.031 C 
BRANCH  25  26
HETATM   26  C23 UNL     1      14.034 -14.876  25.642  1.00  0.00     0.022 C 
HETATM   27  C24 UNL     1      14.388 -15.441  27.012  1.00  0.00     0.009 C 
ENDBRANCH  25  26
ENDBRANCH  23  24
ENDBRANCH   9  23
BRANCH   8  28
HETATM   28  N3  UNL     1      14.013 -14.293  21.066  1.00  0.00    -0.296 N 
ATOM     29  H3  UNL     1      14.847 -14.521  21.608  1.00  0.00     0.174 HD
BRANCH  28  30
HETATM   30  S2  UNL     1      13.196 -15.434  20.093  1.00  0.00     0.313 S 
HETATM   31  O1  UNL     1      11.822 -14.865  19.792  1.00  0.00    -0.183 OA
HETATM   32  O2  UNL     1      13.976 -15.608  18.820  1.00  0.00    -0.183 OA
BRANCH  30  33
HETATM   33  N4  UNL     1      12.979 -16.963  20.801  1.00  0.00    -0.312 N 
ATOM     34  H42 UNL     1      12.453 -17.700  20.330  1.00  0.00     0.170 HD
ATOM     35  H41 UNL     1      13.409 -17.081  21.719  1.00  0.00     0.170 HD
ENDBRANCH  30  33
ENDBRANCH  28  30
ENDBRANCH   8  28
TORSDOF 10
ENDMDL
