MODEL 1
REMARK VINA RESULT: -8.352286791      0.000      0.000
REMARK  7 active torsions:
REMARK  status: ('A' for Active; 'I' for Inactive)
REMARK    1  A    between atoms: N2_6  and  C5_7 
REMARK    2  A    between atoms: C9_11  and  C10_12 
REMARK    3  A    between atoms: C10_12  and  O1_13 
REMARK    4  A    between atoms: O1_13  and  C11_14 
REMARK    5  A    between atoms: C14_17  and  C15_18 
REMARK    6  A    between atoms: C15_18  and  N3_19 
REMARK    7  A    between atoms: C18_22  and  C19_23 
ROOT
HETATM    1  C1  UNL     1      10.375  -6.298  21.589  1.00  0.00     0.124 C 
HETATM    2  C2  UNL     1      10.898  -5.697  22.518  1.00  0.00    -0.068 C 
HETATM    3  N1  UNL     1      11.468  -5.009  23.604  1.00  0.00    -0.291 N 
HETATM    4  C3  UNL     1      10.651  -4.830  24.677  1.00  0.00     0.123 A 
HETATM    5  C4  UNL     1      11.125  -4.169  25.785  1.00  0.00     0.109 A 
HETATM    6  N2  UNL     1      12.388  -3.700  25.813  1.00  0.00    -0.358 N 
HETATM    7  C7  UNL     1      13.157  -3.894  24.743  1.00  0.00     0.033 A 
HETATM    8  C8  UNL     1      14.549  -3.378  24.773  1.00  0.00     0.070 C 
HETATM    9  C9  UNL     1      12.727  -4.561  23.587  1.00  0.00     0.070 A 
ENDROOT
BRANCH   9  10
HETATM   10  C10 UNL     1      13.632  -4.732  22.452  1.00  0.00     0.236 C 
BRANCH  10  11
HETATM   11  O1  UNL     1      14.568  -5.747  22.528  1.00  0.00    -0.345 OA
BRANCH  11  12
HETATM   12  C11 UNL     1      14.241  -7.031  22.143  1.00  0.00     0.069 A 
HETATM   13  C12 UNL     1      14.482  -7.448  20.832  1.00  0.00     0.037 A 
HETATM   14  C13 UNL     1      14.145  -8.738  20.470  1.00  0.00     0.011 A 
HETATM   15  C14 UNL     1      13.578  -9.648  21.341  1.00  0.00    -0.038 A 
HETATM   16  C26 UNL     1      13.346  -9.218  22.633  1.00  0.00     0.011 A 
HETATM   17  C27 UNL     1      13.677  -7.917  23.029  1.00  0.00     0.037 A 
BRANCH  15  18
HETATM   18  C15 UNL     1      13.233 -11.021  20.892  1.00  0.00     0.186 C 
BRANCH  18  19
HETATM   19  N3  UNL     1      12.723 -11.857  21.961  1.00  0.00    -0.299 N 
HETATM   20  C16 UNL     1      11.534 -11.703  22.559  1.00  0.00     0.113 A 
HETATM   21  C17 UNL     1      11.435 -12.686  23.512  1.00  0.00     0.052 A 
HETATM   22  C18 UNL     1      12.566 -13.430  23.489  1.00  0.00     0.078 A 
HETATM   23  N6  UNL     1      13.347 -12.879  22.504  1.00  0.00    -0.296 N 
ATOM     24  H6  UNL     1      14.272 -13.212  22.234  1.00  0.00     0.187 HD
BRANCH  22  25
HETATM   25  C19 UNL     1      12.995 -14.583  24.282  1.00  0.00     0.086 A 
HETATM   26  C20 UNL     1      13.792 -14.460  25.314  1.00  0.00     0.035 A 
HETATM   27  C21 UNL     1      14.278 -13.120  25.700  1.00  0.00     0.070 C 
HETATM   28  N4  UNL     1      14.204 -15.618  26.086  1.00  0.00    -0.354 N 
HETATM   29  C22 UNL     1      13.768 -16.928  25.762  1.00  0.00     0.097 A 
ATOM     30  H4  UNL     1      14.825 -15.486  26.885  1.00  0.00     0.166 HD
HETATM   31  C23 UNL     1      14.143 -17.980  26.468  1.00  0.00     0.004 C 
HETATM   32  C25 UNL     1      12.881 -17.043  24.605  1.00  0.00     0.272 A 
HETATM   33  C24 UNL     1      15.041 -17.764  27.626  1.00  0.00     0.038 C 
HETATM   34  O2  UNL     1      12.476 -18.177  24.287  1.00  0.00    -0.266 OA
HETATM   35  N5  UNL     1      12.505 -15.881  23.880  1.00  0.00    -0.318 N 
ATOM     36  H5  UNL     1      11.887 -15.963  23.073  1.00  0.00     0.169 HD
ENDBRANCH  22  25
ENDBRANCH  18  19
ENDBRANCH  15  18
ENDBRANCH  11  12
ENDBRANCH  10  11
ENDBRANCH   9  10
BRANCH   6  37
HETATM   37  C5  UNL     1      12.830  -3.020  26.996  1.00  0.00     0.124 C 
HETATM   38  C6  UNL     1      11.921  -3.398  28.158  1.00  0.00     0.027 C 
ENDBRANCH   6  37
TORSDOF 7
ENDMDL
MODEL 2
REMARK VINA RESULT: -8.229861740      2.012      9.596
REMARK  7 active torsions:
REMARK  status: ('A' for Active; 'I' for Inactive)
REMARK    1  A    between atoms: N2_6  and  C5_7 
REMARK    2  A    between atoms: C9_11  and  C10_12 
REMARK    3  A    between atoms: C10_12  and  O1_13 
REMARK    4  A    between atoms: O1_13  and  C11_14 
REMARK    5  A    between atoms: C14_17  and  C15_18 
REMARK    6  A    between atoms: C15_18  and  N3_19 
REMARK    7  A    between atoms: C18_22  and  C19_23 
ROOT
HETATM    1  C1  UNL     1      12.323 -10.537  24.294  1.00  0.00     0.124 C 
HETATM    2  C2  UNL     1      12.539 -11.729  24.461  1.00  0.00    -0.068 C 
HETATM    3  N1  UNL     1      12.808 -13.092  24.682  1.00  0.00    -0.291 N 
HETATM    4  C3  UNL     1      13.633 -13.363  25.729  1.00  0.00     0.123 A 
HETATM    5  C4  UNL     1      13.950 -14.668  26.021  1.00  0.00     0.109 A 
HETATM    6  N2  UNL     1      13.451 -15.675  25.277  1.00  0.00    -0.358 N 
HETATM    7  C7  UNL     1      12.647 -15.369  24.260  1.00  0.00     0.033 A 
HETATM    8  C8  UNL     1      12.096 -16.478  23.440  1.00  0.00     0.070 C 
HETATM    9  C9  UNL     1      12.290 -14.057  23.918  1.00  0.00     0.070 A 
ENDROOT
BRANCH   9  10
HETATM   10  C10 UNL     1      11.403 -13.804  22.784  1.00  0.00     0.236 C 
BRANCH  10  11
HETATM   11  O1  UNL     1      11.980 -13.711  21.530  1.00  0.00    -0.345 OA
BRANCH  11  12
HETATM   12  C11 UNL     1      12.784 -12.637  21.208  1.00  0.00     0.069 A 
HETATM   13  C12 UNL     1      12.207 -11.413  20.861  1.00  0.00     0.037 A 
HETATM   14  C13 UNL     1      13.035 -10.354  20.543  1.00  0.00     0.011 A 
HETATM   15  C14 UNL     1      14.414 -10.437  20.549  1.00  0.00    -0.038 A 
HETATM   16  C26 UNL     1      14.965 -11.654  20.894  1.00  0.00     0.011 A 
HETATM   17  C27 UNL     1      14.154 -12.747  21.222  1.00  0.00     0.037 A 
BRANCH  15  18
HETATM   18  C15 UNL     1      15.250  -9.262  20.192  1.00  0.00     0.186 C 
BRANCH  18  19
HETATM   19  N3  UNL     1      14.631  -7.999  20.542  1.00  0.00    -0.299 N 
HETATM   20  C16 UNL     1      14.217  -7.074  19.665  1.00  0.00     0.113 A 
HETATM   21  C17 UNL     1      13.697  -6.034  20.394  1.00  0.00     0.052 A 
HETATM   22  C18 UNL     1      13.800  -6.332  21.711  1.00  0.00     0.078 A 
HETATM   23  N6  UNL     1      14.389  -7.571  21.761  1.00  0.00    -0.296 N 
ATOM     24  H6  UNL     1      14.607  -8.082  22.617  1.00  0.00     0.187 HD
BRANCH  22  25
HETATM   25  C19 UNL     1      13.417  -5.593  22.914  1.00  0.00     0.086 A 
HETATM   26  C20 UNL     1      12.293  -5.823  23.545  1.00  0.00     0.035 A 
HETATM   27  C21 UNL     1      11.373  -6.860  23.034  1.00  0.00     0.070 C 
HETATM   28  N4  UNL     1      11.935  -5.076  24.738  1.00  0.00    -0.354 N 
HETATM   29  C22 UNL     1      12.779  -4.071  25.273  1.00  0.00     0.097 A 
ATOM     30  H4  UNL     1      11.051  -5.282  25.205  1.00  0.00     0.166 HD
HETATM   31  C23 UNL     1      12.452  -3.395  26.361  1.00  0.00     0.004 C 
HETATM   32  C25 UNL     1      14.029  -3.829  24.554  1.00  0.00     0.272 A 
HETATM   33  C24 UNL     1      11.166  -3.713  27.025  1.00  0.00     0.038 C 
HETATM   34  O2  UNL     1      14.798  -2.952  24.992  1.00  0.00    -0.266 OA
HETATM   35  N5  UNL     1      14.335  -4.584  23.390  1.00  0.00    -0.318 N 
ATOM     36  H5  UNL     1      15.207  -4.413  22.889  1.00  0.00     0.169 HD
ENDBRANCH  22  25
ENDBRANCH  18  19
ENDBRANCH  15  18
ENDBRANCH  11  12
ENDBRANCH  10  11
ENDBRANCH   9  10
BRANCH   6  37
HETATM   37  C5  UNL     1      13.812 -17.018  25.628  1.00  0.00     0.124 C 
HETATM   38  C6  UNL     1      14.512 -17.009  26.980  1.00  0.00     0.027 C 
ENDBRANCH   6  37
TORSDOF 7
ENDMDL
MODEL 3
REMARK VINA RESULT: -8.031999409      2.636      3.380
REMARK  7 active torsions:
REMARK  status: ('A' for Active; 'I' for Inactive)
REMARK    1  A    between atoms: N2_6  and  C5_7 
REMARK    2  A    between atoms: C9_11  and  C10_12 
REMARK    3  A    between atoms: C10_12  and  O1_13 
REMARK    4  A    between atoms: O1_13  and  C11_14 
REMARK    5  A    between atoms: C14_17  and  C15_18 
REMARK    6  A    between atoms: C15_18  and  N3_19 
REMARK    7  A    between atoms: C18_22  and  C19_23 
ROOT
HETATM    1  C1  UNL     1      10.472  -6.293  21.463  1.00  0.00     0.124 C 
HETATM    2  C2  UNL     1      10.942  -5.678  22.410  1.00  0.00    -0.068 C 
HETATM    3  N1  UNL     1      11.455  -4.980  23.518  1.00  0.00    -0.291 N 
HETATM    4  C3  UNL     1      10.699  -5.039  24.647  1.00  0.00     0.123 A 
HETATM    5  C4  UNL     1      11.123  -4.388  25.781  1.00  0.00     0.109 A 
HETATM    6  N2  UNL     1      12.278  -3.694  25.779  1.00  0.00    -0.358 N 
HETATM    7  C7  UNL     1      12.990  -3.660  24.653  1.00  0.00     0.033 A 
HETATM    8  C8  UNL     1      14.264  -2.895  24.650  1.00  0.00     0.070 C 
HETATM    9  C9  UNL     1      12.607  -4.304  23.469  1.00  0.00     0.070 A 
ENDROOT
BRANCH   9  10
HETATM   10  C10 UNL     1      13.444  -4.216  22.274  1.00  0.00     0.236 C 
BRANCH  10  11
HETATM   11  O1  UNL     1      14.569  -5.019  22.221  1.00  0.00    -0.345 OA
BRANCH  11  12
HETATM   12  C11 UNL     1      14.504  -6.279  21.662  1.00  0.00     0.069 A 
HETATM   13  C12 UNL     1      14.890  -7.394  22.409  1.00  0.00     0.037 A 
HETATM   14  C13 UNL     1      14.815  -8.644  21.826  1.00  0.00     0.011 A 
HETATM   15  C14 UNL     1      14.376  -8.856  20.534  1.00  0.00    -0.038 A 
HETATM   16  C26 UNL     1      13.998  -7.742  19.811  1.00  0.00     0.011 A 
HETATM   17  C27 UNL     1      14.063  -6.461  20.373  1.00  0.00     0.037 A 
BRANCH  15  18
HETATM   18  C15 UNL     1      14.323 -10.225  19.962  1.00  0.00     0.186 C 
BRANCH  18  19
HETATM   19  N3  UNL     1      13.754 -11.199  20.873  1.00  0.00    -0.299 N 
HETATM   20  C16 UNL     1      14.162 -12.470  20.996  1.00  0.00     0.113 A 
HETATM   21  C17 UNL     1      13.371 -13.053  21.954  1.00  0.00     0.052 A 
HETATM   22  C18 UNL     1      12.486 -12.134  22.406  1.00  0.00     0.078 A 
HETATM   23  N6  UNL     1      12.759 -10.986  21.705  1.00  0.00    -0.296 N 
ATOM     24  H6  UNL     1      12.263 -10.101  21.813  1.00  0.00     0.187 HD
BRANCH  22  25
HETATM   25  C19 UNL     1      11.420 -12.211  23.406  1.00  0.00     0.086 A 
HETATM   26  C20 UNL     1      11.668 -12.444  24.671  1.00  0.00     0.035 A 
HETATM   27  C21 UNL     1      13.064 -12.639  25.113  1.00  0.00     0.070 C 
HETATM   28  N4  UNL     1      10.595 -12.516  25.646  1.00  0.00    -0.354 N 
HETATM   29  C22 UNL     1       9.237 -12.337  25.278  1.00  0.00     0.097 A 
ATOM     30  H4  UNL     1      10.823 -12.700  26.623  1.00  0.00     0.166 HD
HETATM   31  C23 UNL     1       8.262 -12.399  26.168  1.00  0.00     0.004 C 
HETATM   32  C25 UNL     1       8.982 -12.078  23.862  1.00  0.00     0.272 A 
HETATM   33  C24 UNL     1       8.618 -12.663  27.582  1.00  0.00     0.038 C 
HETATM   34  O2  UNL     1       7.801 -11.916  23.498  1.00  0.00    -0.266 OA
HETATM   35  N5  UNL     1      10.065 -12.018  22.945  1.00  0.00    -0.318 N 
ATOM     36  H5  UNL     1       9.886 -11.839  21.958  1.00  0.00     0.169 HD
ENDBRANCH  22  25
ENDBRANCH  18  19
ENDBRANCH  15  18
ENDBRANCH  11  12
ENDBRANCH  10  11
ENDBRANCH   9  10
BRANCH   6  37
HETATM   37  C5  UNL     1      12.674  -3.036  26.990  1.00  0.00     0.124 C 
HETATM   38  C6  UNL     1      11.665  -3.357  28.084  1.00  0.00     0.027 C 
ENDBRANCH   6  37
TORSDOF 7
ENDMDL
MODEL 4
REMARK VINA RESULT: -7.982872490      2.091     10.053
REMARK  7 active torsions:
REMARK  status: ('A' for Active; 'I' for Inactive)
REMARK    1  A    between atoms: N2_6  and  C5_7 
REMARK    2  A    between atoms: C9_11  and  C10_12 
REMARK    3  A    between atoms: C10_12  and  O1_13 
REMARK    4  A    between atoms: O1_13  and  C11_14 
REMARK    5  A    between atoms: C14_17  and  C15_18 
REMARK    6  A    between atoms: C15_18  and  N3_19 
REMARK    7  A    between atoms: C18_22  and  C19_23 
ROOT
HETATM    1  C1  UNL     1      10.377 -16.618  21.540  1.00  0.00     0.124 C 
HETATM    2  C2  UNL     1      11.125 -16.407  22.484  1.00  0.00    -0.068 C 
HETATM    3  N1  UNL     1      11.985 -16.198  23.577  1.00  0.00    -0.291 N 
HETATM    4  C3  UNL     1      12.304 -17.312  24.290  1.00  0.00     0.123 A 
HETATM    5  C4  UNL     1      13.141 -17.204  25.376  1.00  0.00     0.109 A 
HETATM    6  N2  UNL     1      13.642 -16.005  25.735  1.00  0.00    -0.358 N 
HETATM    7  C7  UNL     1      13.305 -14.938  25.012  1.00  0.00     0.033 A 
HETATM    8  C8  UNL     1      13.858 -13.617  25.407  1.00  0.00     0.070 C 
HETATM    9  C9  UNL     1      12.458 -14.990  23.896  1.00  0.00     0.070 A 
ENDROOT
BRANCH   9  10
HETATM   10  C10 UNL     1      12.134 -13.772  23.156  1.00  0.00     0.236 C 
BRANCH  10  11
HETATM   11  O1  UNL     1      12.666 -13.636  21.886  1.00  0.00    -0.345 OA
BRANCH  11  12
HETATM   12  C11 UNL     1      13.362 -12.496  21.538  1.00  0.00     0.069 A 
HETATM   13  C12 UNL     1      12.895 -11.243  21.943  1.00  0.00     0.037 A 
HETATM   14  C13 UNL     1      13.610 -10.118  21.582  1.00  0.00     0.011 A 
HETATM   15  C14 UNL     1      14.772 -10.162  20.835  1.00  0.00    -0.038 A 
HETATM   16  C26 UNL     1      15.217 -11.408  20.444  1.00  0.00     0.011 A 
HETATM   17  C27 UNL     1      14.515 -12.568  20.795  1.00  0.00     0.037 A 
BRANCH  15  18
HETATM   18  C15 UNL     1      15.493  -8.915  20.474  1.00  0.00     0.186 C 
BRANCH  18  19
HETATM   19  N3  UNL     1      14.760  -7.714  20.824  1.00  0.00    -0.299 N 
HETATM   20  C16 UNL     1      14.183  -6.880  19.948  1.00  0.00     0.113 A 
HETATM   21  C17 UNL     1      13.599  -5.874  20.677  1.00  0.00     0.052 A 
HETATM   22  C18 UNL     1      13.828  -6.101  21.992  1.00  0.00     0.078 A 
HETATM   23  N6  UNL     1      14.557  -7.263  22.042  1.00  0.00    -0.296 N 
ATOM     24  H6  UNL     1      14.892  -7.709  22.896  1.00  0.00     0.187 HD
BRANCH  22  25
HETATM   25  C19 UNL     1      13.449  -5.357  23.194  1.00  0.00     0.086 A 
HETATM   26  C20 UNL     1      12.301  -5.544  23.795  1.00  0.00     0.035 A 
HETATM   27  C21 UNL     1      11.350  -6.535  23.252  1.00  0.00     0.070 C 
HETATM   28  N4  UNL     1      11.946  -4.794  24.987  1.00  0.00    -0.354 N 
HETATM   29  C22 UNL     1      12.820  -3.831  25.552  1.00  0.00     0.097 A 
ATOM     30  H4  UNL     1      11.043  -4.965  25.430  1.00  0.00     0.166 HD
HETATM   31  C23 UNL     1      12.496  -3.152  26.639  1.00  0.00     0.004 C 
HETATM   32  C25 UNL     1      14.096  -3.637  24.865  1.00  0.00     0.272 A 
HETATM   33  C24 UNL     1      11.182  -3.420  27.269  1.00  0.00     0.038 C 
HETATM   34  O2  UNL     1      14.891  -2.798  25.330  1.00  0.00    -0.266 OA
HETATM   35  N5  UNL     1      14.398  -4.394  23.702  1.00  0.00    -0.318 N 
ATOM     36  H5  UNL     1      15.287  -4.256  23.223  1.00  0.00     0.169 HD
ENDBRANCH  22  25
ENDBRANCH  18  19
ENDBRANCH  15  18
ENDBRANCH  11  12
ENDBRANCH  10  11
ENDBRANCH   9  10
BRANCH   6  37
HETATM   37  C5  UNL     1      14.512 -15.951  26.874  1.00  0.00     0.124 C 
HETATM   38  C6  UNL     1      14.882 -17.368  27.288  1.00  0.00     0.027 C 
ENDBRANCH   6  37
TORSDOF 7
ENDMDL
MODEL 5
REMARK VINA RESULT: -7.888253037      2.635      8.885
REMARK  7 active torsions:
REMARK  status: ('A' for Active; 'I' for Inactive)
REMARK    1  A    between atoms: N2_6  and  C5_7 
REMARK    2  A    between atoms: C9_11  and  C10_12 
REMARK    3  A    between atoms: C10_12  and  O1_13 
REMARK    4  A    between atoms: O1_13  and  C11_14 
REMARK    5  A    between atoms: C14_17  and  C15_18 
REMARK    6  A    between atoms: C15_18  and  N3_19 
REMARK    7  A    between atoms: C18_22  and  C19_23 
ROOT
HETATM    1  C1  UNL     1      13.444 -13.047  25.330  1.00  0.00     0.124 C 
HETATM    2  C2  UNL     1      12.312 -12.710  25.011  1.00  0.00    -0.068 C 
HETATM    3  N1  UNL     1      11.012 -12.296  24.670  1.00  0.00    -0.291 N 
HETATM    4  C3  UNL     1      10.512 -11.269  25.409  1.00  0.00     0.123 A 
HETATM    5  C4  UNL     1       9.248 -10.798  25.145  1.00  0.00     0.109 A 
HETATM    6  N2  UNL     1       8.506 -11.346  24.163  1.00  0.00    -0.358 N 
HETATM    7  C7  UNL     1       9.031 -12.350  23.461  1.00  0.00     0.033 A 
HETATM    8  C8  UNL     1       8.213 -12.954  22.378  1.00  0.00     0.070 C 
HETATM    9  C9  UNL     1      10.313 -12.870  23.687  1.00  0.00     0.070 A 
ENDROOT
BRANCH   9  10
HETATM   10  C10 UNL     1      10.816 -13.976  22.874  1.00  0.00     0.236 C 
BRANCH  10  11
HETATM   11  O1  UNL     1      11.231 -13.686  21.587  1.00  0.00    -0.345 OA
BRANCH  11  12
HETATM   12  C11 UNL     1      12.195 -12.724  21.363  1.00  0.00     0.069 A 
HETATM   13  C12 UNL     1      11.819 -11.436  20.978  1.00  0.00     0.037 A 
HETATM   14  C13 UNL     1      12.803 -10.492  20.760  1.00  0.00     0.011 A 
HETATM   15  C14 UNL     1      14.152 -10.752  20.903  1.00  0.00    -0.038 A 
HETATM   16  C26 UNL     1      14.505 -12.031  21.284  1.00  0.00     0.011 A 
HETATM   17  C27 UNL     1      13.531 -13.011  21.512  1.00  0.00     0.037 A 
BRANCH  15  18
HETATM   18  C15 UNL     1      15.164  -9.695  20.649  1.00  0.00     0.186 C 
BRANCH  18  19
HETATM   19  N3  UNL     1      14.661  -8.358  20.896  1.00  0.00    -0.299 N 
HETATM   20  C16 UNL     1      14.442  -7.430  19.954  1.00  0.00     0.113 A 
HETATM   21  C17 UNL     1      13.974  -6.311  20.595  1.00  0.00     0.052 A 
HETATM   22  C18 UNL     1      13.914  -6.564  21.924  1.00  0.00     0.078 A 
HETATM   23  N6  UNL     1      14.352  -7.856  22.071  1.00  0.00    -0.296 N 
ATOM     24  H6  UNL     1      14.426  -8.352  22.959  1.00  0.00     0.187 HD
BRANCH  22  25
HETATM   25  C19 UNL     1      13.502  -5.738  23.060  1.00  0.00     0.086 A 
HETATM   26  C20 UNL     1      12.343  -5.891  23.648  1.00  0.00     0.035 A 
HETATM   27  C21 UNL     1      11.412  -6.929  23.159  1.00  0.00     0.070 C 
HETATM   28  N4  UNL     1      11.956  -5.060  24.774  1.00  0.00    -0.354 N 
HETATM   29  C22 UNL     1      12.809  -4.050  25.287  1.00  0.00     0.097 A 
ATOM     30  H4  UNL     1      11.045  -5.207  25.209  1.00  0.00     0.166 HD
HETATM   31  C23 UNL     1      12.456  -3.297  26.313  1.00  0.00     0.004 C 
HETATM   32  C25 UNL     1      14.098  -3.894  24.615  1.00  0.00     0.272 A 
HETATM   33  C24 UNL     1      11.130  -3.531  26.933  1.00  0.00     0.038 C 
HETATM   34  O2  UNL     1      14.876  -3.016  25.034  1.00  0.00    -0.266 OA
HETATM   35  N5  UNL     1      14.432  -4.731  23.516  1.00  0.00    -0.318 N 
ATOM     36  H5  UNL     1      15.331  -4.620  23.048  1.00  0.00     0.169 HD
ENDBRANCH  22  25
ENDBRANCH  18  19
ENDBRANCH  15  18
ENDBRANCH  11  12
ENDBRANCH  10  11
ENDBRANCH   9  10
BRANCH   6  37
HETATM   37  C5  UNL     1       7.195 -10.812  23.929  1.00  0.00     0.124 C 
HETATM   38  C6  UNL     1       7.287  -9.297  23.812  1.00  0.00     0.027 C 
ENDBRANCH   6  37
TORSDOF 7
ENDMDL
