MODEL 1
REMARK VINA RESULT: -2.495233028      0.000      0.000
REMARK  2 active torsions:
REMARK  status: ('A' for Active; 'I' for Inactive)
REMARK    1  A    between atoms: N1_3  and  C3_4 
REMARK    2  A    between atoms: C3_4  and  C4_5 
ROOT
HETATM    1  C4  UNL     1      24.128  10.768  27.383  1.00  0.00     0.410 C 
HETATM    2  N2  UNL     1      24.528   9.394  27.401  1.00  0.00    -0.043 N 
ATOM      3  H21 UNL     1      24.881   9.070  26.501  1.00  0.00     0.279 HD
ATOM      4  H22 UNL     1      23.740   8.750  27.473  1.00  0.00     0.279 HD
HETATM    5  C5  UNL     1      25.483   9.240  28.472  1.00  0.00     0.262 C 
HETATM    6  C6  UNL     1      26.024  10.633  28.636  1.00  0.00     0.262 C 
HETATM    7  N3  UNL     1      25.385  11.467  27.649  1.00  0.00    -0.043 N 
ATOM      8  H31 UNL     1      25.277  12.443  27.924  1.00  0.00     0.279 HD
ATOM      9  H32 UNL     1      25.950  11.655  26.821  1.00  0.00     0.279 HD
ENDROOT
BRANCH   1  10
HETATM   10  C3  UNL     1      23.190  11.129  28.515  1.00  0.00     0.337 C 
BRANCH  10  11
HETATM   11  N1  UNL     1      21.835  10.818  28.098  1.00  0.00     0.119 N 
HETATM   12  C2  UNL     1      20.962  11.952  28.251  1.00  0.00     0.302 C 
HETATM   13  C1  UNL     1      19.692  11.426  28.891  1.00  0.00     0.264 C 
HETATM   14  N4  UNL     1      19.801   9.999  28.640  1.00  0.00    -0.047 N 
HETATM   15  C7  UNL     1      21.233   9.786  28.890  1.00  0.00     0.502 C 
ATOM     16  H42 UNL     1      19.168   9.408  29.178  1.00  0.00     0.279 HD
ATOM     17  H41 UNL     1      19.462   9.685  27.731  1.00  0.00     0.279 HD
ENDBRANCH  10  11
ENDBRANCH   1  10
TORSDOF 2
ENDMDL
MODEL 2
REMARK VINA RESULT: -2.430152974      1.467      4.627
REMARK  2 active torsions:
REMARK  status: ('A' for Active; 'I' for Inactive)
REMARK    1  A    between atoms: N1_3  and  C3_4 
REMARK    2  A    between atoms: C3_4  and  C4_5 
ROOT
HETATM    1  C4  UNL     1      22.649  11.128  27.448  1.00  0.00     0.410 C 
HETATM    2  N2  UNL     1      21.913  12.150  26.768  1.00  0.00    -0.043 N 
ATOM      3  H21 UNL     1      21.321  11.786  26.022  1.00  0.00     0.279 HD
ATOM      4  H22 UNL     1      22.502  12.749  26.189  1.00  0.00     0.279 HD
HETATM    5  C5  UNL     1      21.175  12.883  27.769  1.00  0.00     0.262 C 
HETATM    6  C6  UNL     1      21.061  11.890  28.891  1.00  0.00     0.262 C 
HETATM    7  N3  UNL     1      21.696  10.669  28.457  1.00  0.00    -0.043 N 
ATOM      8  H31 UNL     1      22.107  10.115  29.208  1.00  0.00     0.279 HD
ATOM      9  H32 UNL     1      21.052   9.946  28.136  1.00  0.00     0.279 HD
ENDROOT
BRANCH   1  10
HETATM   10  C3  UNL     1      23.848  11.661  28.202  1.00  0.00     0.337 C 
BRANCH  10  11
HETATM   11  N1  UNL     1      25.047  11.113  27.594  1.00  0.00     0.119 N 
HETATM   12  C2  UNL     1      25.410  11.832  26.401  1.00  0.00     0.302 C 
HETATM   13  C1  UNL     1      25.754  10.784  25.361  1.00  0.00     0.264 C 
HETATM   14  N4  UNL     1      25.967   9.607  26.185  1.00  0.00    -0.047 N 
HETATM   15  C7  UNL     1      24.882   9.756  27.164  1.00  0.00     0.502 C 
ATOM     16  H42 UNL     1      25.990   8.719  25.686  1.00  0.00     0.279 HD
ATOM     17  H41 UNL     1      26.903   9.510  26.579  1.00  0.00     0.279 HD
ENDBRANCH  10  11
ENDBRANCH   1  10
TORSDOF 2
ENDMDL
MODEL 3
REMARK VINA RESULT: -2.374137901      1.312      1.725
REMARK  2 active torsions:
REMARK  status: ('A' for Active; 'I' for Inactive)
REMARK    1  A    between atoms: N1_3  and  C3_4 
REMARK    2  A    between atoms: C3_4  and  C4_5 
ROOT
HETATM    1  C4  UNL     1      23.881  10.998  28.045  1.00  0.00     0.410 C 
HETATM    2  N2  UNL     1      25.183  11.359  28.518  1.00  0.00    -0.043 N 
ATOM      3  H21 UNL     1      25.888  10.647  28.328  1.00  0.00     0.279 HD
ATOM      4  H22 UNL     1      25.256  11.348  29.535  1.00  0.00     0.279 HD
HETATM    5  C5  UNL     1      25.507  12.642  27.943  1.00  0.00     0.262 C 
HETATM    6  C6  UNL     1      24.640  12.685  26.716  1.00  0.00     0.262 C 
HETATM    7  N3  UNL     1      23.918  11.437  26.650  1.00  0.00    -0.043 N 
ATOM      8  H31 UNL     1      23.005  11.499  26.201  1.00  0.00     0.279 HD
ATOM      9  H32 UNL     1      24.308  10.755  26.000  1.00  0.00     0.279 HD
ENDROOT
BRANCH   1  10
HETATM   10  C3  UNL     1      22.770  11.780  28.711  1.00  0.00     0.337 C 
BRANCH  10  11
HETATM   11  N1  UNL     1      21.504  11.325  28.165  1.00  0.00     0.119 N 
HETATM   12  C2  UNL     1      20.450  12.271  28.416  1.00  0.00     0.302 C 
HETATM   13  C1  UNL     1      19.258  11.463  28.891  1.00  0.00     0.264 C 
HETATM   14  N4  UNL     1      19.613  10.125  28.452  1.00  0.00    -0.047 N 
HETATM   15  C7  UNL     1      21.048  10.105  28.764  1.00  0.00     0.502 C 
ATOM     16  H42 UNL     1      19.064   9.368  28.859  1.00  0.00     0.279 HD
ATOM     17  H41 UNL     1      19.370   9.900  27.487  1.00  0.00     0.279 HD
ENDBRANCH  10  11
ENDBRANCH   1  10
TORSDOF 2
ENDMDL
MODEL 4
REMARK VINA RESULT: -2.353647392      1.981      4.817
REMARK  2 active torsions:
REMARK  status: ('A' for Active; 'I' for Inactive)
REMARK    1  A    between atoms: N1_3  and  C3_4 
REMARK    2  A    between atoms: C3_4  and  C4_5 
ROOT
HETATM    1  C4  UNL     1      22.858  11.285  27.099  1.00  0.00     0.410 C 
HETATM    2  N2  UNL     1      21.902  12.256  26.662  1.00  0.00    -0.043 N 
ATOM      3  H21 UNL     1      21.253  11.891  25.965  1.00  0.00     0.279 HD
ATOM      4  H22 UNL     1      22.314  12.991  26.087  1.00  0.00     0.279 HD
HETATM    5  C5  UNL     1      21.241  12.765  27.839  1.00  0.00     0.262 C 
HETATM    6  C6  UNL     1      21.428  11.653  28.832  1.00  0.00     0.262 C 
HETATM    7  N3  UNL     1      22.138  10.589  28.165  1.00  0.00    -0.043 N 
ATOM      8  H31 UNL     1      22.727  10.024  28.776  1.00  0.00     0.279 HD
ATOM      9  H32 UNL     1      21.549   9.819  27.847  1.00  0.00     0.279 HD
ENDROOT
BRANCH   1  10
HETATM   10  C3  UNL     1      24.082  11.902  27.741  1.00  0.00     0.337 C 
BRANCH  10  11
HETATM   11  N1  UNL     1      25.185  11.806  26.802  1.00  0.00     0.119 N 
HETATM   12  C2  UNL     1      25.316  13.005  26.017  1.00  0.00     0.302 C 
HETATM   13  C1  UNL     1      25.524  12.554  24.585  1.00  0.00     0.264 C 
HETATM   14  N4  UNL     1      25.919  11.167  24.765  1.00  0.00    -0.047 N 
HETATM   15  C7  UNL     1      25.005  10.759  25.840  1.00  0.00     0.502 C 
ATOM     16  H42 UNL     1      25.895  10.591  23.924  1.00  0.00     0.279 HD
ATOM     17  H41 UNL     1      26.911  11.013  24.948  1.00  0.00     0.279 HD
ENDBRANCH  10  11
ENDBRANCH   1  10
TORSDOF 2
ENDMDL
MODEL 5
REMARK VINA RESULT: -2.348885120      1.683      1.877
REMARK  2 active torsions:
REMARK  status: ('A' for Active; 'I' for Inactive)
REMARK    1  A    between atoms: N1_3  and  C3_4 
REMARK    2  A    between atoms: C3_4  and  C4_5 
ROOT
HETATM    1  C4  UNL     1      23.890  12.585  26.822  1.00  0.00     0.410 C 
HETATM    2  N2  UNL     1      23.829  12.008  25.514  1.00  0.00    -0.043 N 
ATOM      3  H21 UNL     1      23.772  12.705  24.772  1.00  0.00     0.279 HD
ATOM      4  H22 UNL     1      22.943  11.540  25.324  1.00  0.00     0.279 HD
HETATM    5  C5  UNL     1      24.969  11.132  25.380  1.00  0.00     0.262 C 
HETATM    6  C6  UNL     1      25.938  11.693  26.382  1.00  0.00     0.262 C 
HETATM    7  N3  UNL     1      25.319  12.847  26.987  1.00  0.00    -0.043 N 
ATOM      8  H31 UNL     1      25.609  13.029  27.947  1.00  0.00     0.279 HD
ATOM      9  H32 UNL     1      25.633  13.742  26.612  1.00  0.00     0.279 HD
ENDROOT
BRANCH   1  10
HETATM   10  C3  UNL     1      23.503  11.616  27.918  1.00  0.00     0.337 C 
BRANCH  10  11
HETATM   11  N1  UNL     1      22.131  11.199  27.692  1.00  0.00     0.119 N 
HETATM   12  C2  UNL     1      21.198  12.226  28.073  1.00  0.00     0.302 C 
HETATM   13  C1  UNL     1      20.100  11.533  28.857  1.00  0.00     0.264 C 
HETATM   14  N4  UNL     1      20.293  10.145  28.474  1.00  0.00    -0.047 N 
HETATM   15  C7  UNL     1      21.760  10.060  28.479  1.00  0.00     0.502 C 
ATOM     16  H42 UNL     1      19.811   9.458  29.052  1.00  0.00     0.279 HD
ATOM     17  H41 UNL     1      19.840   9.862  27.605  1.00  0.00     0.279 HD
ENDBRANCH  10  11
ENDBRANCH   1  10
TORSDOF 2
ENDMDL
