MODEL 1
REMARK VINA RESULT: -2.816389753      0.000      0.000
REMARK  1 active torsions:
REMARK  status: ('A' for Active; 'I' for Inactive)
REMARK    1  A    between atoms: N3_4  and  N4_6 
ROOT
HETATM    1  N4  UNL     1      17.027   6.819  18.821  1.00  0.00    -0.287 N 
ATOM      2  H4  UNL     1      16.498   6.583  17.982  1.00  0.00     0.188 HD
HETATM    3  C2  UNL     1      17.796   5.918  19.380  1.00  0.00     0.099 C 
HETATM    4  C3  UNL     1      18.557   6.286  20.600  1.00  0.00     0.097 C 
HETATM    5  C4  UNL     1      18.963   5.107  21.431  1.00  0.00     0.130 C 
HETATM    6  N5  UNL     1      18.311   3.895  21.022  1.00  0.00    -0.364 N 
ATOM      7  H5  UNL     1      17.964   3.238  21.719  1.00  0.00     0.162 HD
HETATM    8  C5  UNL     1      18.154   3.618  19.638  1.00  0.00     0.189 C 
HETATM    9  N6  UNL     1      18.270   2.278  19.152  1.00  0.00    -0.064 NA
HETATM   10  N7  UNL     1      17.902   4.608  18.831  1.00  0.00    -0.319 N 
ATOM     11  H7  UNL     1      17.783   4.450  17.830  1.00  0.00     0.169 HD
ENDROOT
BRANCH   1  12
HETATM   12  N3  UNL     1      16.930   8.091  19.364  1.00  0.00    -0.275 N 
HETATM   13  C1  UNL     1      16.171   8.958  18.802  1.00  0.00     0.215 C 
HETATM   14  N1  UNL     1      15.446   8.607  17.647  1.00  0.00    -0.065 NA
HETATM   15  N2  UNL     1      16.093  10.254  19.383  1.00  0.00    -0.065 NA
ATOM     16  H3  UNL     1      17.458   8.335  20.201  1.00  0.00     0.189 HD
ENDBRANCH   1  12
TORSDOF 1
ENDMDL
MODEL 2
REMARK VINA RESULT: -0.835694526     10.409     11.394
REMARK  1 active torsions:
REMARK  status: ('A' for Active; 'I' for Inactive)
REMARK    1  A    between atoms: N3_4  and  N4_6 
ROOT
HETATM    1  N4  UNL     1      21.358  12.255  27.046  1.00  0.00    -0.287 N 
ATOM      2  H4  UNL     1      21.014  12.007  26.119  1.00  0.00     0.188 HD
HETATM    3  C2  UNL     1      22.646  12.368  27.254  1.00  0.00     0.099 C 
HETATM    4  C3  UNL     1      23.121  12.732  28.613  1.00  0.00     0.097 C 
HETATM    5  C4  UNL     1      24.541  12.332  28.877  1.00  0.00     0.130 C 
HETATM    6  N5  UNL     1      25.062  11.453  27.869  1.00  0.00    -0.364 N 
ATOM      7  H5  UNL     1      25.645  10.659  28.131  1.00  0.00     0.162 HD
HETATM    8  C5  UNL     1      24.760  11.698  26.503  1.00  0.00     0.189 C 
HETATM    9  N6  UNL     1      25.741  11.452  25.491  1.00  0.00    -0.064 NA
HETATM   10  N7  UNL     1      23.577  12.147  26.199  1.00  0.00    -0.319 N 
ATOM     11  H7  UNL     1      23.322  12.337  25.230  1.00  0.00     0.169 HD
ENDROOT
BRANCH   1  12
HETATM   12  N3  UNL     1      20.459  12.472  28.080  1.00  0.00    -0.275 N 
HETATM   13  C1  UNL     1      19.226  12.689  27.807  1.00  0.00     0.215 C 
HETATM   14  N1  UNL     1      18.801  12.704  26.464  1.00  0.00    -0.065 NA
HETATM   15  N2  UNL     1      18.330  12.907  28.889  1.00  0.00    -0.065 NA
ATOM     16  H3  UNL     1      20.777  12.458  29.049  1.00  0.00     0.189 HD
ENDBRANCH   1  12
TORSDOF 1
ENDMDL
MODEL 3
REMARK VINA RESULT: -0.046690422     10.255     11.188
REMARK  1 active torsions:
REMARK  status: ('A' for Active; 'I' for Inactive)
REMARK    1  A    between atoms: N3_4  and  N4_6 
ROOT
HETATM    1  N4  UNL     1      25.263   9.987  25.420  1.00  0.00    -0.287 N 
ATOM      2  H4  UNL     1      24.983   9.238  24.787  1.00  0.00     0.188 HD
HETATM    3  C2  UNL     1      24.997   9.892  26.699  1.00  0.00     0.099 C 
HETATM    4  C3  UNL     1      25.417  10.995  27.600  1.00  0.00     0.097 C 
HETATM    5  C4  UNL     1      24.641  11.049  28.881  1.00  0.00     0.130 C 
HETATM    6  N5  UNL     1      23.486  10.197  28.861  1.00  0.00    -0.364 N 
ATOM      7  H5  UNL     1      22.604  10.517  29.261  1.00  0.00     0.162 HD
HETATM    8  C5  UNL     1      23.579   8.905  28.279  1.00  0.00     0.189 C 
HETATM    9  N6  UNL     1      22.869   7.802  28.851  1.00  0.00    -0.064 NA
HETATM   10  N7  UNL     1      24.320   8.752  27.220  1.00  0.00    -0.319 N 
ATOM     11  H7  UNL     1      24.413   7.840  26.773  1.00  0.00     0.169 HD
ENDROOT
BRANCH   1  12
HETATM   12  N3  UNL     1      25.923  11.101  24.922  1.00  0.00    -0.275 N 
HETATM   13  C1  UNL     1      25.322  11.868  24.090  1.00  0.00     0.215 C 
HETATM   14  N1  UNL     1      24.003  11.571  23.694  1.00  0.00    -0.065 NA
HETATM   15  N2  UNL     1      26.025  13.002  23.598  1.00  0.00    -0.065 NA
ATOM     16  H3  UNL     1      26.877  11.307  25.217  1.00  0.00     0.189 HD
ENDBRANCH   1  12
TORSDOF 1
ENDMDL
MODEL 4
REMARK VINA RESULT: 0.285371952     10.417     11.657
REMARK  1 active torsions:
REMARK  status: ('A' for Active; 'I' for Inactive)
REMARK    1  A    between atoms: N3_4  and  N4_6 
ROOT
HETATM    1  N4  UNL     1      21.922  10.780  27.825  1.00  0.00    -0.287 N 
ATOM      2  H4  UNL     1      21.444  11.587  27.427  1.00  0.00     0.188 HD
HETATM    3  C2  UNL     1      23.218  10.817  28.011  1.00  0.00     0.099 C 
HETATM    4  C3  UNL     1      23.891   9.629  28.594  1.00  0.00     0.097 C 
HETATM    5  C4  UNL     1      25.356   9.560  28.287  1.00  0.00     0.130 C 
HETATM    6  N5  UNL     1      25.753  10.506  27.283  1.00  0.00    -0.364 N 
ATOM      7  H5  UNL     1      26.417  10.237  26.557  1.00  0.00     0.162 HD
HETATM    8  C5  UNL     1      25.213  11.820  27.306  1.00  0.00     0.189 C 
HETATM    9  N6  UNL     1      26.024  12.940  26.941  1.00  0.00    -0.064 NA
HETATM   10  N7  UNL     1      23.971  11.975  27.664  1.00  0.00    -0.319 N 
ATOM     11  H7  UNL     1      23.547  12.902  27.694  1.00  0.00     0.169 HD
ENDROOT
BRANCH   1  12
HETATM   12  N3  UNL     1      21.198   9.647  28.167  1.00  0.00    -0.275 N 
HETATM   13  C1  UNL     1      19.979   9.771  28.544  1.00  0.00     0.215 C 
HETATM   14  N1  UNL     1      19.394  11.050  28.605  1.00  0.00    -0.065 NA
HETATM   15  N2  UNL     1      19.263   8.591  28.888  1.00  0.00    -0.065 NA
ATOM     16  H3  UNL     1      21.631   8.725  28.118  1.00  0.00     0.189 HD
ENDBRANCH   1  12
TORSDOF 1
ENDMDL
MODEL 5
REMARK VINA RESULT: 0.405504837      1.346      2.366
REMARK  1 active torsions:
REMARK  status: ('A' for Active; 'I' for Inactive)
REMARK    1  A    between atoms: N3_4  and  N4_6 
ROOT
HETATM    1  N4  UNL     1      16.893   7.472  19.926  1.00  0.00    -0.287 N 
ATOM      2  H4  UNL     1      16.794   8.208  20.624  1.00  0.00     0.188 HD
HETATM    3  C2  UNL     1      17.382   6.307  20.271  1.00  0.00     0.099 C 
HETATM    4  C3  UNL     1      17.515   5.252  19.235  1.00  0.00     0.097 C 
HETATM    5  C4  UNL     1      18.524   4.199  19.580  1.00  0.00     0.130 C 
HETATM    6  N5  UNL     1      19.337   4.563  20.706  1.00  0.00    -0.364 N 
ATOM      7  H5  UNL     1      20.338   4.368  20.701  1.00  0.00     0.162 HD
HETATM    8  C5  UNL     1      18.738   5.198  21.826  1.00  0.00     0.189 C 
HETATM    9  N6  UNL     1      19.186   4.899  23.151  1.00  0.00    -0.064 NA
HETATM   10  N7  UNL     1      17.778   6.053  21.615  1.00  0.00    -0.319 N 
ATOM     11  H7  UNL     1      17.322   6.529  22.393  1.00  0.00     0.169 HD
ENDROOT
BRANCH   1  12
HETATM   12  N3  UNL     1      16.510   7.710  18.614  1.00  0.00    -0.275 N 
HETATM   13  C1  UNL     1      16.004   8.846  18.303  1.00  0.00     0.215 C 
HETATM   14  N1  UNL     1      15.846   9.834  19.293  1.00  0.00    -0.065 NA
HETATM   15  N2  UNL     1      15.622   9.059  16.950  1.00  0.00    -0.065 NA
ATOM     16  H3  UNL     1      16.630   6.988  17.904  1.00  0.00     0.189 HD
ENDBRANCH   1  12
TORSDOF 1
ENDMDL
