MODEL 1
REMARK VINA RESULT: -2.866101435      0.000      0.000
REMARK  3 active torsions:
REMARK  status: ('A' for Active; 'I' for Inactive)
REMARK    1  A    between atoms: C1_4  and  C2_6 
REMARK    2  A    between atoms: C2_6  and  N3_7 
REMARK    3  A    between atoms: C2_6  and  C3_11 
ROOT
HETATM    1  C2  UNL     1      24.756   9.711  26.909  1.00  0.00     0.277 C 
ENDROOT
BRANCH   1   2
HETATM    2  C1  UNL     1      24.719   8.879  28.140  1.00  0.00     0.119 C 
HETATM    3  N1  UNL     1      25.755   8.833  28.891  1.00  0.00    -0.389 N 
ATOM      4  H12 UNL     1      25.730   8.262  29.736  1.00  0.00     0.157 HD
ATOM      5  H11 UNL     1      26.579   9.370  28.620  1.00  0.00     0.157 HD
HETATM    6  N2  UNL     1      23.569   8.128  28.519  1.00  0.00    -0.086 NA
ENDBRANCH   1   2
BRANCH   1   7
HETATM    7  N3  UNL     1      26.028   9.632  26.321  1.00  0.00    -0.067 N 
ATOM      8  H33 UNL     1      26.540  10.512  26.394  1.00  0.00     0.275 HD
ATOM      9  H32 UNL     1      26.665   9.045  26.860  1.00  0.00     0.275 HD
ATOM     10  H31 UNL     1      25.942   9.317  25.354  1.00  0.00     0.275 HD
ENDBRANCH   1   7
BRANCH   1  11
HETATM   11  C3  UNL     1      24.264  11.091  27.229  1.00  0.00     0.223 C 
HETATM   12  C4  UNL     1      24.515  12.112  26.188  1.00  0.00     0.036 C 
HETATM   13  C5  UNL     1      23.281  12.250  25.317  1.00  0.00     0.004 C 
HETATM   14  C6  UNL     1      22.238  12.954  26.146  1.00  0.00     0.027 C 
HETATM   15  C7  UNL     1      22.186  12.283  27.497  1.00  0.00     0.233 C 
HETATM   16  N4  UNL     1      22.849  11.004  27.511  1.00  0.00    -0.069 N 
ATOM     17  H42 UNL     1      22.392  10.351  26.874  1.00  0.00     0.277 HD
ATOM     18  H41 UNL     1      22.684  10.520  28.394  1.00  0.00     0.277 HD
ENDBRANCH   1  11
TORSDOF 3
ENDMDL
MODEL 2
REMARK VINA RESULT: -2.775467347      1.736      2.597
REMARK  3 active torsions:
REMARK  status: ('A' for Active; 'I' for Inactive)
REMARK    1  A    between atoms: C1_4  and  C2_6 
REMARK    2  A    between atoms: C2_6  and  N3_7 
REMARK    3  A    between atoms: C2_6  and  C3_11 
ROOT
HETATM    1  C2  UNL     1      24.858  11.240  25.118  1.00  0.00     0.277 C 
ENDROOT
BRANCH   1   2
HETATM    2  C1  UNL     1      25.524   9.911  25.148  1.00  0.00     0.119 C 
HETATM    3  N1  UNL     1      25.653   9.255  24.056  1.00  0.00    -0.389 N 
ATOM      4  H12 UNL     1      26.110   8.343  24.076  1.00  0.00     0.157 HD
ATOM      5  H11 UNL     1      25.293   9.666  23.195  1.00  0.00     0.157 HD
HETATM    6  N2  UNL     1      26.027   9.337  26.351  1.00  0.00    -0.086 NA
ENDBRANCH   1   2
BRANCH   1   7
HETATM    7  N3  UNL     1      25.655  12.154  24.411  1.00  0.00    -0.067 N 
ATOM      8  H33 UNL     1      25.417  13.121  24.631  1.00  0.00     0.275 HD
ATOM      9  H32 UNL     1      26.620  12.160  24.743  1.00  0.00     0.275 HD
ATOM     10  H31 UNL     1      25.595  11.961  23.411  1.00  0.00     0.275 HD
ENDBRANCH   1   7
BRANCH   1  11
HETATM   11  C3  UNL     1      24.484  11.637  26.516  1.00  0.00     0.223 C 
HETATM   12  C4  UNL     1      23.939  13.005  26.661  1.00  0.00     0.036 C 
HETATM   13  C5  UNL     1      22.424  12.941  26.646  1.00  0.00     0.004 C 
HETATM   14  C6  UNL     1      21.998  12.334  27.957  1.00  0.00     0.027 C 
HETATM   15  C7  UNL     1      22.843  11.106  28.198  1.00  0.00     0.233 C 
HETATM   16  N4  UNL     1      23.538  10.666  27.015  1.00  0.00    -0.069 N 
ATOM     17  H42 UNL     1      22.878  10.395  26.285  1.00  0.00     0.277 HD
ATOM     18  H41 UNL     1      23.991   9.766  27.175  1.00  0.00     0.277 HD
ENDBRANCH   1  11
TORSDOF 3
ENDMDL
MODEL 3
REMARK VINA RESULT: -2.660867311      1.846      3.387
REMARK  3 active torsions:
REMARK  status: ('A' for Active; 'I' for Inactive)
REMARK    1  A    between atoms: C1_4  and  C2_6 
REMARK    2  A    between atoms: C2_6  and  N3_7 
REMARK    3  A    between atoms: C2_6  and  C3_11 
ROOT
HETATM    1  C2  UNL     1      22.164  11.341  28.073  1.00  0.00     0.277 C 
ENDROOT
BRANCH   1   2
HETATM    2  C1  UNL     1      21.522  10.074  28.509  1.00  0.00     0.119 C 
HETATM    3  N1  UNL     1      20.244  10.003  28.543  1.00  0.00    -0.389 N 
ATOM      4  H12 UNL     1      19.803   9.133  28.842  1.00  0.00     0.157 HD
ATOM      5  H11 UNL     1      19.703  10.823  28.270  1.00  0.00     0.157 HD
HETATM    6  N2  UNL     1      22.278   8.928  28.891  1.00  0.00    -0.086 NA
ENDBRANCH   1   2
BRANCH   1   7
HETATM    7  N3  UNL     1      21.230  12.137  27.392  1.00  0.00    -0.067 N 
ATOM      8  H33 UNL     1      20.634  11.585  26.774  1.00  0.00     0.275 HD
ATOM      9  H32 UNL     1      20.505  12.496  28.014  1.00  0.00     0.275 HD
ATOM     10  H31 UNL     1      21.713  12.885  26.894  1.00  0.00     0.275 HD
ENDBRANCH   1   7
BRANCH   1  11
HETATM   11  C3  UNL     1      23.427  11.025  27.328  1.00  0.00     0.223 C 
HETATM   12  C4  UNL     1      23.732  11.920  26.190  1.00  0.00     0.036 C 
HETATM   13  C5  UNL     1      24.687  13.005  26.650  1.00  0.00     0.004 C 
HETATM   14  C6  UNL     1      26.028  12.349  26.852  1.00  0.00     0.027 C 
HETATM   15  C7  UNL     1      25.814  11.087  27.651  1.00  0.00     0.233 C 
HETATM   16  N4  UNL     1      24.517  11.035  28.276  1.00  0.00    -0.069 N 
ATOM     17  H42 UNL     1      24.407  11.796  28.948  1.00  0.00     0.277 HD
ATOM     18  H41 UNL     1      24.452  10.240  28.912  1.00  0.00     0.277 HD
ENDBRANCH   1  11
TORSDOF 3
ENDMDL
MODEL 4
REMARK VINA RESULT: -2.644442687      2.578      4.753
REMARK  3 active torsions:
REMARK  status: ('A' for Active; 'I' for Inactive)
REMARK    1  A    between atoms: C1_4  and  C2_6 
REMARK    2  A    between atoms: C2_6  and  N3_7 
REMARK    3  A    between atoms: C2_6  and  C3_11 
ROOT
HETATM    1  C2  UNL     1      20.915  11.448  28.890  1.00  0.00     0.277 C 
ENDROOT
BRANCH   1   2
HETATM    2  C1  UNL     1      19.467  11.243  28.626  1.00  0.00     0.119 C 
HETATM    3  N1  UNL     1      18.779  12.209  28.143  1.00  0.00    -0.389 N 
ATOM      4  H12 UNL     1      17.785  12.068  27.962  1.00  0.00     0.157 HD
ATOM      5  H11 UNL     1      19.248  13.095  27.954  1.00  0.00     0.157 HD
HETATM    6  N2  UNL     1      18.811  10.005  28.891  1.00  0.00    -0.086 NA
ENDBRANCH   1   2
BRANCH   1   7
HETATM    7  N3  UNL     1      21.223  12.815  28.809  1.00  0.00    -0.067 N 
ATOM      8  H33 UNL     1      20.556  13.325  28.228  1.00  0.00     0.275 HD
ATOM      9  H32 UNL     1      21.052  13.300  29.690  1.00  0.00     0.275 HD
ATOM     10  H31 UNL     1      22.183  12.933  28.486  1.00  0.00     0.275 HD
ENDBRANCH   1   7
BRANCH   1  11
HETATM   11  C3  UNL     1      21.713  10.540  28.002  1.00  0.00     0.223 C 
HETATM   12  C4  UNL     1      22.965  11.118  27.464  1.00  0.00     0.036 C 
HETATM   13  C5  UNL     1      24.125  10.703  28.348  1.00  0.00     0.004 C 
HETATM   14  C6  UNL     1      24.367   9.238  28.091  1.00  0.00     0.027 C 
HETATM   15  C7  UNL     1      23.035   8.530  28.145  1.00  0.00     0.233 C 
HETATM   16  N4  UNL     1      21.999   9.333  28.744  1.00  0.00    -0.069 N 
ATOM     17  H42 UNL     1      22.224   9.549  29.715  1.00  0.00     0.277 HD
ATOM     18  H41 UNL     1      21.151   8.784  28.885  1.00  0.00     0.277 HD
ENDBRANCH   1  11
TORSDOF 3
ENDMDL
MODEL 5
REMARK VINA RESULT: -2.640232203      1.425      2.316
REMARK  3 active torsions:
REMARK  status: ('A' for Active; 'I' for Inactive)
REMARK    1  A    between atoms: C1_4  and  C2_6 
REMARK    2  A    between atoms: C2_6  and  N3_7 
REMARK    3  A    between atoms: C2_6  and  C3_11 
ROOT
HETATM    1  C2  UNL     1      24.450   9.513  27.672  1.00  0.00     0.277 C 
ENDROOT
BRANCH   1   2
HETATM    2  C1  UNL     1      23.107   9.381  28.294  1.00  0.00     0.119 C 
HETATM    3  N1  UNL     1      22.567   8.222  28.371  1.00  0.00    -0.389 N 
ATOM      4  H12 UNL     1      21.645   8.131  28.799  1.00  0.00     0.157 HD
ATOM      5  H11 UNL     1      23.078   7.421  28.001  1.00  0.00     0.157 HD
HETATM    6  N2  UNL     1      22.393  10.501  28.812  1.00  0.00    -0.086 NA
ENDBRANCH   1   2
BRANCH   1   7
HETATM    7  N3  UNL     1      25.418   8.934  28.507  1.00  0.00    -0.067 N 
ATOM      8  H33 UNL     1      25.543   9.459  29.372  1.00  0.00     0.275 HD
ATOM      9  H32 UNL     1      25.098   8.054  28.913  1.00  0.00     0.275 HD
ATOM     10  H31 UNL     1      26.293   8.824  27.994  1.00  0.00     0.275 HD
ENDBRANCH   1   7
BRANCH   1  11
HETATM   11  C3  UNL     1      24.680  10.946  27.292  1.00  0.00     0.223 C 
HETATM   12  C4  UNL     1      26.028  11.252  26.763  1.00  0.00     0.036 C 
HETATM   13  C5  UNL     1      25.987  11.220  25.247  1.00  0.00     0.004 C 
HETATM   14  C6  UNL     1      25.231  12.446  24.805  1.00  0.00     0.027 C 
HETATM   15  C7  UNL     1      23.972  12.542  25.631  1.00  0.00     0.233 C 
HETATM   16  N4  UNL     1      23.669  11.318  26.330  1.00  0.00    -0.069 N 
ATOM     17  H42 UNL     1      23.497  10.558  25.672  1.00  0.00     0.277 HD
ATOM     18  H41 UNL     1      22.750  11.371  26.771  1.00  0.00     0.277 HD
ENDBRANCH   1  11
TORSDOF 3
ENDMDL
