MODEL 1
REMARK VINA RESULT: -3.763429300      0.000      0.000
REMARK  5 active torsions:
REMARK  status: ('A' for Active; 'I' for Inactive)
REMARK    1  A    between atoms: C2_3  and  N2_4 
REMARK    2  A    between atoms: C2_3  and  N3_8 
REMARK    3  A    between atoms: N3_8  and  N4_9 
REMARK    4  A    between atoms: N3_8  and  C3_12 
REMARK    5  A    between atoms: C3_12  and  C4_13 
ROOT
HETATM    1  N1  UNL     1      19.007   3.078  20.253  1.00  0.00    -0.194 NA
HETATM    2  C1  UNL     1      18.502   4.103  20.422  1.00  0.00     0.110 C 
HETATM    3  C2  UNL     1      17.902   5.382  20.658  1.00  0.00     0.387 C 
ENDROOT
BRANCH   3   4
HETATM    4  N2  UNL     1      18.916   6.296  21.235  1.00  0.00    -0.048 N 
ATOM      5  H23 UNL     1      18.687   6.578  22.188  1.00  0.00     0.277 HD
ATOM      6  H22 UNL     1      19.797   5.821  21.435  1.00  0.00     0.277 HD
ATOM      7  H21 UNL     1      19.039   7.095  20.613  1.00  0.00     0.277 HD
ENDBRANCH   3   4
BRANCH   3   8
HETATM    8  N3  UNL     1      17.349   6.040  19.559  1.00  0.00    -0.168 NA
BRANCH   8   9
HETATM    9  N4  UNL     1      17.427   5.245  18.409  1.00  0.00    -0.357 NA
ATOM     10  H42 UNL     1      18.329   4.768  18.388  1.00  0.00     0.171 HD
ATOM     11  H41 UNL     1      16.542   4.767  18.236  1.00  0.00     0.171 HD
ENDBRANCH   8   9
BRANCH   8  12
HETATM   12  C3  UNL     1      17.657   7.361  19.230  1.00  0.00     0.118 C 
BRANCH  12  13
HETATM   13  C4  UNL     1      16.562   8.235  18.764  1.00  0.00     0.077 A 
HETATM   14  C5  UNL     1      15.946   9.366  19.246  1.00  0.00     0.139 A 
HETATM   15  N5  UNL     1      15.142   9.340  18.172  1.00  0.00    -0.309 N 
HETATM   16  N6  UNL     1      15.727   8.269  17.717  1.00  0.00    -0.299 N 
ATOM     17  H5  UNL     1      14.376   9.928  17.842  1.00  0.00     0.186 HD
ATOM     18  H6  UNL     1      15.598   7.686  16.890  1.00  0.00     0.187 HD
ENDBRANCH  12  13
ENDBRANCH   8  12
ENDBRANCH   3   8
TORSDOF 5
ENDMDL
MODEL 2
REMARK VINA RESULT: -3.562486284      0.890      1.740
REMARK  5 active torsions:
REMARK  status: ('A' for Active; 'I' for Inactive)
REMARK    1  A    between atoms: C2_3  and  N2_4 
REMARK    2  A    between atoms: C2_3  and  N3_8 
REMARK    3  A    between atoms: N3_8  and  N4_9 
REMARK    4  A    between atoms: N3_8  and  C3_12 
REMARK    5  A    between atoms: C3_12  and  C4_13 
ROOT
HETATM    1  N1  UNL     1      18.189   6.716  22.860  1.00  0.00    -0.194 NA
HETATM    2  C1  UNL     1      18.297   6.274  21.798  1.00  0.00     0.110 C 
HETATM    3  C2  UNL     1      18.439   5.692  20.496  1.00  0.00     0.387 C 
ENDROOT
BRANCH   3   4
HETATM    4  N2  UNL     1      18.243   4.226  20.596  1.00  0.00    -0.048 N 
ATOM      5  H23 UNL     1      18.976   3.772  21.141  1.00  0.00     0.277 HD
ATOM      6  H22 UNL     1      17.450   3.980  21.189  1.00  0.00     0.277 HD
ATOM      7  H21 UNL     1      18.160   3.835  19.657  1.00  0.00     0.277 HD
ENDBRANCH   3   4
BRANCH   3   8
HETATM    8  N3  UNL     1      17.578   6.145  19.498  1.00  0.00    -0.168 NA
BRANCH   8   9
HETATM    9  N4  UNL     1      17.317   5.133  18.565  1.00  0.00    -0.357 NA
ATOM     10  H42 UNL     1      16.916   4.326  19.045  1.00  0.00     0.171 HD
ATOM     11  H41 UNL     1      16.925   5.521  17.707  1.00  0.00     0.171 HD
ENDBRANCH   8   9
BRANCH   8  12
HETATM   12  C3  UNL     1      17.761   7.355  18.827  1.00  0.00     0.118 C 
BRANCH  12  13
HETATM   13  C4  UNL     1      16.584   8.221  18.621  1.00  0.00     0.077 A 
HETATM   14  C5  UNL     1      15.981   9.232  19.333  1.00  0.00     0.139 A 
HETATM   15  N5  UNL     1      15.058   9.315  18.362  1.00  0.00    -0.309 N 
HETATM   16  N6  UNL     1      15.630   8.359  17.689  1.00  0.00    -0.299 N 
ATOM     17  H5  UNL     1      14.234   9.898  18.211  1.00  0.00     0.186 HD
ATOM     18  H6  UNL     1      15.431   7.896  16.802  1.00  0.00     0.187 HD
ENDBRANCH  12  13
ENDBRANCH   8  12
ENDBRANCH   3   8
TORSDOF 5
ENDMDL
MODEL 3
REMARK VINA RESULT: -3.137338336     10.512     10.849
REMARK  5 active torsions:
REMARK  status: ('A' for Active; 'I' for Inactive)
REMARK    1  A    between atoms: C2_3  and  N2_4 
REMARK    2  A    between atoms: C2_3  and  N3_8 
REMARK    3  A    between atoms: N3_8  and  N4_9 
REMARK    4  A    between atoms: N3_8  and  C3_12 
REMARK    5  A    between atoms: C3_12  and  C4_13 
ROOT
HETATM    1  N1  UNL     1      24.978   8.915  27.638  1.00  0.00    -0.194 NA
HETATM    2  C1  UNL     1      25.281   9.583  26.746  1.00  0.00     0.110 C 
HETATM    3  C2  UNL     1      25.668  10.380  25.620  1.00  0.00     0.387 C 
ENDROOT
BRANCH   3   4
HETATM    4  N2  UNL     1      25.714   9.524  24.411  1.00  0.00    -0.048 N 
ATOM      5  H23 UNL     1      25.798  10.069  23.553  1.00  0.00     0.277 HD
ATOM      6  H22 UNL     1      26.589   9.005  24.337  1.00  0.00     0.277 HD
ATOM      7  H21 UNL     1      24.898   8.912  24.403  1.00  0.00     0.277 HD
ENDBRANCH   3   4
BRANCH   3   8
HETATM    8  N3  UNL     1      24.863  11.474  25.306  1.00  0.00    -0.168 NA
BRANCH   8   9
HETATM    9  N4  UNL     1      25.389  12.188  24.223  1.00  0.00    -0.357 NA
ATOM     10  H42 UNL     1      25.658  11.535  23.487  1.00  0.00     0.171 HD
ATOM     11  H41 UNL     1      24.846  13.033  24.045  1.00  0.00     0.171 HD
ENDBRANCH   8   9
BRANCH   8  12
HETATM   12  C3  UNL     1      24.392  12.372  26.266  1.00  0.00     0.118 C 
BRANCH  12  13
HETATM   13  C4  UNL     1      22.984  12.257  26.695  1.00  0.00     0.077 A 
HETATM   14  C5  UNL     1      22.329  11.630  27.729  1.00  0.00     0.139 A 
HETATM   15  N5  UNL     1      21.174  12.093  27.229  1.00  0.00    -0.309 N 
HETATM   16  N6  UNL     1      21.795  12.686  26.251  1.00  0.00    -0.299 N 
ATOM     17  H5  UNL     1      20.195  12.012  27.506  1.00  0.00     0.186 HD
ATOM     18  H6  UNL     1      21.495  13.253  25.458  1.00  0.00     0.187 HD
ENDBRANCH  12  13
ENDBRANCH   8  12
ENDBRANCH   3   8
TORSDOF 5
ENDMDL
MODEL 4
REMARK VINA RESULT: -3.057771464      9.966     10.990
REMARK  5 active torsions:
REMARK  status: ('A' for Active; 'I' for Inactive)
REMARK    1  A    between atoms: C2_3  and  N2_4 
REMARK    2  A    between atoms: C2_3  and  N3_8 
REMARK    3  A    between atoms: N3_8  and  N4_9 
REMARK    4  A    between atoms: N3_8  and  C3_12 
REMARK    5  A    between atoms: C3_12  and  C4_13 
ROOT
HETATM    1  N1  UNL     1      23.017   7.745  28.276  1.00  0.00    -0.194 NA
HETATM    2  C1  UNL     1      23.795   8.596  28.211  1.00  0.00     0.110 C 
HETATM    3  C2  UNL     1      24.776   9.635  28.102  1.00  0.00     0.387 C 
ENDROOT
BRANCH   3   4
HETATM    4  N2  UNL     1      25.366   9.604  26.742  1.00  0.00    -0.048 N 
ATOM      5  H23 UNL     1      25.825   8.716  26.538  1.00  0.00     0.277 HD
ATOM      6  H22 UNL     1      24.655   9.569  26.012  1.00  0.00     0.277 HD
ATOM      7  H21 UNL     1      25.995  10.400  26.633  1.00  0.00     0.277 HD
ENDBRANCH   3   4
BRANCH   3   8
HETATM    8  N3  UNL     1      24.349  10.943  28.324  1.00  0.00    -0.168 NA
BRANCH   8   9
HETATM    9  N4  UNL     1      23.041  10.963  28.824  1.00  0.00    -0.357 NA
ATOM     10  H42 UNL     1      22.821  10.055  29.233  1.00  0.00     0.171 HD
ATOM     11  H41 UNL     1      22.845  11.847  29.296  1.00  0.00     0.171 HD
ENDBRANCH   8   9
BRANCH   8  12
HETATM   12  C3  UNL     1      24.500  11.963  27.384  1.00  0.00     0.118 C 
BRANCH  12  13
HETATM   13  C4  UNL     1      23.417  12.170  26.402  1.00  0.00     0.077 A 
HETATM   14  C5  UNL     1      23.356  12.323  25.037  1.00  0.00     0.139 A 
HETATM   15  N5  UNL     1      22.026  12.459  25.149  1.00  0.00    -0.309 N 
HETATM   16  N6  UNL     1      22.085  12.315  26.441  1.00  0.00    -0.299 N 
ATOM     17  H5  UNL     1      21.268  12.615  24.484  1.00  0.00     0.186 HD
ATOM     18  H6  UNL     1      21.392  12.312  27.189  1.00  0.00     0.187 HD
ENDBRANCH  12  13
ENDBRANCH   8  12
ENDBRANCH   3   8
TORSDOF 5
ENDMDL
MODEL 5
REMARK VINA RESULT: -3.054659158      2.084      4.827
REMARK  5 active torsions:
REMARK  status: ('A' for Active; 'I' for Inactive)
REMARK    1  A    between atoms: C2_3  and  N2_4 
REMARK    2  A    between atoms: C2_3  and  N3_8 
REMARK    3  A    between atoms: N3_8  and  N4_9 
REMARK    4  A    between atoms: N3_8  and  C3_12 
REMARK    5  A    between atoms: C3_12  and  C4_13 
ROOT
HETATM    1  N1  UNL     1      17.341   7.189  19.275  1.00  0.00    -0.194 NA
HETATM    2  C1  UNL     1      17.972   6.617  20.055  1.00  0.00     0.110 C 
HETATM    3  C2  UNL     1      18.772   5.939  21.032  1.00  0.00     0.387 C 
ENDROOT
BRANCH   3   4
HETATM    4  N2  UNL     1      19.260   6.924  22.027  1.00  0.00    -0.048 N 
ATOM      5  H23 UNL     1      19.712   7.726  21.590  1.00  0.00     0.277 HD
ATOM      6  H22 UNL     1      18.497   7.421  22.487  1.00  0.00     0.277 HD
ATOM      7  H21 UNL     1      19.871   6.450  22.694  1.00  0.00     0.277 HD
ENDBRANCH   3   4
BRANCH   3   8
HETATM    8  N3  UNL     1      18.166   4.910  21.750  1.00  0.00    -0.168 NA
BRANCH   8   9
HETATM    9  N4  UNL     1      18.652   4.862  23.062  1.00  0.00    -0.357 NA
ATOM     10  H42 UNL     1      17.943   5.228  23.699  1.00  0.00     0.171 HD
ATOM     11  H41 UNL     1      19.155   3.990  23.233  1.00  0.00     0.171 HD
ENDBRANCH   8   9
BRANCH   8  12
HETATM   12  C3  UNL     1      18.039   3.610  21.257  1.00  0.00     0.118 C 
BRANCH  12  13
HETATM   13  C4  UNL     1      18.578   3.320  19.913  1.00  0.00     0.077 A 
HETATM   14  C5  UNL     1      18.149   2.595  18.827  1.00  0.00     0.139 A 
HETATM   15  N5  UNL     1      19.285   2.933  18.199  1.00  0.00    -0.309 N 
HETATM   16  N6  UNL     1      19.690   3.620  19.228  1.00  0.00    -0.299 N 
ATOM     17  H5  UNL     1      19.676   2.731  17.278  1.00  0.00     0.186 HD
ATOM     18  H6  UNL     1      20.525   4.169  19.433  1.00  0.00     0.187 HD
ENDBRANCH  12  13
ENDBRANCH   8  12
ENDBRANCH   3   8
TORSDOF 5
ENDMDL
