MODEL 1
REMARK VINA RESULT: -3.699712620      0.000      0.000
REMARK  5 active torsions:
REMARK  status: ('A' for Active; 'I' for Inactive)
REMARK    1  A    between atoms: N1_1  and  S1_4 
REMARK    2  A    between atoms: S1_4  and  N2_5 
REMARK    3  A    between atoms: S1_4  and  N3_8 
REMARK    4  A    between atoms: S1_4  and  C1_11 
REMARK    5  A    between atoms: C3_13  and  N4_14 
ROOT
HETATM    1  S1  UNL     1      18.412   3.658  19.188  1.00  0.00    -0.031 SA
ENDROOT
BRANCH   1   2
HETATM    2  N1  UNL     1      17.499   2.502  19.693  1.00  0.00    -0.361 N 
ATOM      3  H12 UNL     1      17.820   1.592  20.024  1.00  0.00     0.165 HD
ATOM      4  H11 UNL     1      16.535   2.829  19.628  1.00  0.00     0.165 HD
ENDBRANCH   1   2
BRANCH   1   5
HETATM    5  N2  UNL     1      19.525   3.016  18.318  1.00  0.00    -0.361 N 
ATOM      6  H22 UNL     1      19.910   3.412  17.460  1.00  0.00     0.165 HD
ATOM      7  H21 UNL     1      19.788   2.139  18.765  1.00  0.00     0.165 HD
ENDBRANCH   1   5
BRANCH   1   8
HETATM    8  N3  UNL     1      17.413   4.723  18.272  1.00  0.00    -0.361 N 
ATOM      9  H32 UNL     1      16.644   5.284  18.640  1.00  0.00     0.165 HD
ATOM     10  H31 UNL     1      17.740   4.681  17.308  1.00  0.00     0.165 HD
ENDBRANCH   1   8
BRANCH   1  11
HETATM   11  C1  UNL     1      19.095   4.582  20.533  1.00  0.00     0.088 C 
HETATM   12  C2  UNL     1      18.293   4.542  21.812  1.00  0.00     0.051 C 
HETATM   13  C3  UNL     1      18.338   6.047  21.835  1.00  0.00     0.186 C 
HETATM   14  C4  UNL     1      18.781   6.048  20.383  1.00  0.00     0.051 C 
BRANCH  13  15
HETATM   15  N4  UNL     1      19.383   6.625  22.653  1.00  0.00    -0.075 N 
ATOM     16  H43 UNL     1      20.092   7.060  22.060  1.00  0.00     0.274 HD
ATOM     17  H42 UNL     1      19.029   7.447  23.143  1.00  0.00     0.274 HD
ATOM     18  H41 UNL     1      19.825   5.987  23.314  1.00  0.00     0.274 HD
ENDBRANCH  13  15
ENDBRANCH   1  11
TORSDOF 5
ENDMDL
MODEL 2
REMARK VINA RESULT: -3.509899430      0.090      1.512
REMARK  5 active torsions:
REMARK  status: ('A' for Active; 'I' for Inactive)
REMARK    1  A    between atoms: N1_1  and  S1_4 
REMARK    2  A    between atoms: S1_4  and  N2_5 
REMARK    3  A    between atoms: S1_4  and  N3_8 
REMARK    4  A    between atoms: S1_4  and  C1_11 
REMARK    5  A    between atoms: C3_13  and  N4_14 
ROOT
HETATM    1  S1  UNL     1      18.312   3.658  19.191  1.00  0.00    -0.031 SA
ENDROOT
BRANCH   1   2
HETATM    2  N1  UNL     1      17.434   4.569  18.284  1.00  0.00    -0.361 N 
ATOM      3  H12 UNL     1      16.446   4.424  18.075  1.00  0.00     0.165 HD
ATOM      4  H11 UNL     1      18.031   5.324  17.947  1.00  0.00     0.165 HD
ENDBRANCH   1   2
BRANCH   1   5
HETATM    5  N2  UNL     1      17.396   2.528  19.729  1.00  0.00    -0.361 N 
ATOM      6  H22 UNL     1      16.459   2.312  19.391  1.00  0.00     0.165 HD
ATOM      7  H21 UNL     1      17.908   2.054  20.473  1.00  0.00     0.165 HD
ENDBRANCH   1   5
BRANCH   1   8
HETATM    8  N3  UNL     1      19.583   3.041  18.202  1.00  0.00    -0.361 N 
ATOM      9  H32 UNL     1      20.205   2.269  18.443  1.00  0.00     0.165 HD
ATOM     10  H31 UNL     1      19.586   3.593  17.345  1.00  0.00     0.165 HD
ENDBRANCH   1   8
BRANCH   1  11
HETATM   11  C1  UNL     1      19.052   4.574  20.511  1.00  0.00     0.088 C 
HETATM   12  C2  UNL     1      18.289   4.555  21.814  1.00  0.00     0.051 C 
HETATM   13  C3  UNL     1      18.363   6.059  21.828  1.00  0.00     0.186 C 
HETATM   14  C4  UNL     1      18.763   6.045  20.363  1.00  0.00     0.051 C 
BRANCH  13  15
HETATM   15  N4  UNL     1      19.443   6.620  22.612  1.00  0.00    -0.075 N 
ATOM     16  H43 UNL     1      19.783   5.931  23.283  1.00  0.00     0.274 HD
ATOM     17  H42 UNL     1      20.274   6.732  22.031  1.00  0.00     0.274 HD
ATOM     18  H41 UNL     1      19.229   7.496  23.089  1.00  0.00     0.274 HD
ENDBRANCH  13  15
ENDBRANCH   1  11
TORSDOF 5
ENDMDL
MODEL 3
REMARK VINA RESULT: -3.417500204      0.090      1.507
REMARK  5 active torsions:
REMARK  status: ('A' for Active; 'I' for Inactive)
REMARK    1  A    between atoms: N1_1  and  S1_4 
REMARK    2  A    between atoms: S1_4  and  N2_5 
REMARK    3  A    between atoms: S1_4  and  N3_8 
REMARK    4  A    between atoms: S1_4  and  C1_11 
REMARK    5  A    between atoms: C3_13  and  N4_14 
ROOT
HETATM    1  S1  UNL     1      18.417   3.732  19.156  1.00  0.00    -0.031 SA
ENDROOT
BRANCH   1   2
HETATM    2  N1  UNL     1      19.534   3.084  18.286  1.00  0.00    -0.361 N 
ATOM      3  H12 UNL     1      19.404   2.673  17.362  1.00  0.00     0.165 HD
ATOM      4  H11 UNL     1      20.404   3.152  18.813  1.00  0.00     0.165 HD
ENDBRANCH   1   2
BRANCH   1   5
HETATM    5  N2  UNL     1      17.589   4.657  18.225  1.00  0.00    -0.361 N 
ATOM      6  H22 UNL     1      17.974   5.321  17.554  1.00  0.00     0.165 HD
ATOM      7  H21 UNL     1      16.605   4.472  18.416  1.00  0.00     0.165 HD
ENDBRANCH   1   5
BRANCH   1   8
HETATM    8  N3  UNL     1      17.466   2.443  19.793  1.00  0.00    -0.361 N 
ATOM      9  H32 UNL     1      16.447   2.401  19.802  1.00  0.00     0.165 HD
ATOM     10  H31 UNL     1      18.116   1.744  20.151  1.00  0.00     0.165 HD
ENDBRANCH   1   8
BRANCH   1  11
HETATM   11  C1  UNL     1      19.094   4.628  20.522  1.00  0.00     0.088 C 
HETATM   12  C2  UNL     1      18.291   4.557  21.799  1.00  0.00     0.051 C 
HETATM   13  C3  UNL     1      18.330   6.061  21.856  1.00  0.00     0.186 C 
HETATM   14  C4  UNL     1      18.775   6.096  20.404  1.00  0.00     0.051 C 
BRANCH  13  15
HETATM   15  N4  UNL     1      19.372   6.625  22.688  1.00  0.00    -0.075 N 
ATOM     16  H43 UNL     1      18.985   6.911  23.588  1.00  0.00     0.274 HD
ATOM     17  H42 UNL     1      20.011   5.890  22.992  1.00  0.00     0.274 HD
ATOM     18  H41 UNL     1      19.895   7.395  22.272  1.00  0.00     0.274 HD
ENDBRANCH  13  15
ENDBRANCH   1  11
TORSDOF 5
ENDMDL
MODEL 4
REMARK VINA RESULT: -2.100321091      0.865      1.934
REMARK  5 active torsions:
REMARK  status: ('A' for Active; 'I' for Inactive)
REMARK    1  A    between atoms: N1_1  and  S1_4 
REMARK    2  A    between atoms: S1_4  and  N2_5 
REMARK    3  A    between atoms: S1_4  and  N3_8 
REMARK    4  A    between atoms: S1_4  and  C1_11 
REMARK    5  A    between atoms: C3_13  and  N4_14 
ROOT
HETATM    1  S1  UNL     1      18.160   4.100  19.313  1.00  0.00    -0.031 SA
ENDROOT
BRANCH   1   2
HETATM    2  N1  UNL     1      19.687   3.824  19.181  1.00  0.00    -0.361 N 
ATOM      3  H12 UNL     1      20.116   3.151  18.545  1.00  0.00     0.165 HD
ATOM      4  H11 UNL     1      20.163   4.438  19.842  1.00  0.00     0.165 HD
ENDBRANCH   1   2
BRANCH   1   5
HETATM    5  N2  UNL     1      17.659   4.582  17.926  1.00  0.00    -0.361 N 
ATOM      6  H22 UNL     1      17.408   5.540  17.685  1.00  0.00     0.165 HD
ATOM      7  H21 UNL     1      17.631   3.765  17.317  1.00  0.00     0.165 HD
ENDBRANCH   1   5
BRANCH   1   8
HETATM    8  N3  UNL     1      17.421   2.615  19.785  1.00  0.00    -0.361 N 
ATOM      9  H32 UNL     1      17.015   1.925  19.154  1.00  0.00     0.165 HD
ATOM     10  H31 UNL     1      17.473   2.568  20.802  1.00  0.00     0.165 HD
ENDBRANCH   1   8
BRANCH   1  11
HETATM   11  C1  UNL     1      17.822   5.294  20.574  1.00  0.00     0.088 C 
HETATM   12  C2  UNL     1      18.873   6.366  20.741  1.00  0.00     0.051 C 
HETATM   13  C3  UNL     1      18.907   6.041  22.211  1.00  0.00     0.186 C 
HETATM   14  C4  UNL     1      18.168   4.744  21.932  1.00  0.00     0.051 C 
BRANCH  13  15
HETATM   15  N4  UNL     1      18.087   6.885  23.054  1.00  0.00    -0.075 N 
ATOM     16  H43 UNL     1      17.317   7.279  22.512  1.00  0.00     0.274 HD
ATOM     17  H42 UNL     1      17.566   6.314  23.719  1.00  0.00     0.274 HD
ATOM     18  H41 UNL     1      18.584   7.628  23.545  1.00  0.00     0.274 HD
ENDBRANCH  13  15
ENDBRANCH   1  11
TORSDOF 5
ENDMDL
MODEL 5
REMARK VINA RESULT: -2.029296855     10.192     11.004
REMARK  5 active torsions:
REMARK  status: ('A' for Active; 'I' for Inactive)
REMARK    1  A    between atoms: N1_1  and  S1_4 
REMARK    2  A    between atoms: S1_4  and  N2_5 
REMARK    3  A    between atoms: S1_4  and  N3_8 
REMARK    4  A    between atoms: S1_4  and  C1_11 
REMARK    5  A    between atoms: C3_13  and  N4_14 
ROOT
HETATM    1  S1  UNL     1      25.028  11.652  25.183  1.00  0.00    -0.031 SA
ENDROOT
BRANCH   1   2
HETATM    2  N1  UNL     1      26.028  11.946  26.340  1.00  0.00    -0.361 N 
ATOM      3  H12 UNL     1      25.992  12.750  26.967  1.00  0.00     0.165 HD
ATOM      4  H11 UNL     1      26.713  11.191  26.346  1.00  0.00     0.165 HD
ENDBRANCH   1   2
BRANCH   1   5
HETATM    5  N2  UNL     1      25.260  12.728  24.091  1.00  0.00    -0.361 N 
ATOM      6  H22 UNL     1      25.027  13.717  24.173  1.00  0.00     0.165 HD
ATOM      7  H21 UNL     1      25.684  12.258  23.291  1.00  0.00     0.165 HD
ENDBRANCH   1   5
BRANCH   1   8
HETATM    8  N3  UNL     1      25.380  10.065  24.608  1.00  0.00    -0.361 N 
ATOM      9  H32 UNL     1      25.975   9.380  25.075  1.00  0.00     0.165 HD
ATOM     10  H31 UNL     1      24.882   9.952  23.726  1.00  0.00     0.165 HD
ENDBRANCH   1   8
BRANCH   1  11
HETATM   11  C1  UNL     1      23.354  11.659  25.753  1.00  0.00     0.088 C 
HETATM   12  C2  UNL     1      22.668  13.005  25.717  1.00  0.00     0.051 C 
HETATM   13  C3  UNL     1      22.292  12.804  27.161  1.00  0.00     0.186 C 
HETATM   14  C4  UNL     1      23.306  11.677  27.259  1.00  0.00     0.051 C 
BRANCH  13  15
HETATM   15  N4  UNL     1      20.965  12.272  27.388  1.00  0.00    -0.075 N 
ATOM     16  H43 UNL     1      20.458  12.206  26.505  1.00  0.00     0.274 HD
ATOM     17  H42 UNL     1      21.023  11.284  27.638  1.00  0.00     0.274 HD
ATOM     18  H41 UNL     1      20.405  12.775  28.076  1.00  0.00     0.274 HD
ENDBRANCH  13  15
ENDBRANCH   1  11
TORSDOF 5
ENDMDL
