MODEL 1
REMARK VINA RESULT: -9.162595539      0.000      0.000
REMARK  18 active torsions:
REMARK  status: ('A' for Active; 'I' for Inactive)
REMARK    1  A    between atoms: S1_2  and  C2_3 
REMARK    2  A    between atoms: C2_3  and  N3_15 
REMARK    3  A    between atoms: N1_4  and  S2_6 
REMARK    4  A    between atoms: S2_6  and  N2_9 
REMARK    5  A    between atoms: N3_15  and  C8_17 
REMARK    6  A    between atoms: C8_17  and  C9_18 
REMARK    7  A    between atoms: C9_18  and  C10_19 
REMARK    8  A    between atoms: C10_19  and  C11_20 
REMARK    9  A    between atoms: C11_20  and  C12_21 
REMARK       I    between atoms: C12_21  and  N4_23 
REMARK   10  A    between atoms: N4_23  and  C13_25 
REMARK   11  A    between atoms: C17_29  and  O4_30 
REMARK   12  A    between atoms: C18_32  and  C19_33 
REMARK   13  A    between atoms: C19_33  and  O5_34 
REMARK   14  A    between atoms: C19_33  and  N5_36 
REMARK   15  A    between atoms: N5_36  and  C20_38 
REMARK   16  A    between atoms: C20_38  and  C21_39 
REMARK   17  A    between atoms: C22_42  and  C23_43 
REMARK   18  A    between atoms: C23_43  and  C26_46 
ROOT
HETATM    1  C13 UNL     1      14.248  22.479   5.559  1.00  0.00     0.052 A 
HETATM    2  C14 UNL     1      14.342  22.831   6.918  1.00  0.00     0.038 A 
HETATM    3  C15 UNL     1      15.039  22.092   7.843  1.00  0.00    -0.046 A 
HETATM    4  C16 UNL     1      15.687  20.946   7.440  1.00  0.00    -0.012 A 
HETATM    5  C17 UNL     1      15.595  20.586   6.113  1.00  0.00     0.089 A 
HETATM    6  C18 UNL     1      14.875  21.339   5.137  1.00  0.00     0.075 A 
HETATM    7  C22 UNL     1      16.485  20.160   8.389  1.00  0.00     0.036 C 
HETATM    8  C27 UNL     1      15.896  20.159   9.787  1.00  0.00     0.011 C 
HETATM    9  C28 UNL     1      14.994  21.270  10.140  1.00  0.00     0.005 C 
HETATM   10  C29 UNL     1      15.006  22.481   9.286  1.00  0.00     0.039 C 
ENDROOT
BRANCH   1  11
HETATM   11  N4  UNL     1      13.670  23.409   4.671  1.00  0.00    -0.326 N 
HETATM   12  C12 UNL     1      12.302  23.601   4.384  1.00  0.00     0.222 C 
HETATM   13  O3  UNL     1      11.386  22.936   4.910  1.00  0.00    -0.273 OA
ATOM     14  H4  UNL     1      14.322  24.018   4.176  1.00  0.00     0.169 HD
BRANCH  12  15
HETATM   15  C11 UNL     1      11.880  24.639   3.412  1.00  0.00     0.103 C 
BRANCH  15  16
HETATM   16  C10 UNL     1      11.158  24.155   2.220  1.00  0.00     0.011 C 
BRANCH  16  17
HETATM   17  C9  UNL     1       9.655  24.207   2.259  1.00  0.00     0.020 C 
BRANCH  17  18
HETATM   18  C8  UNL     1       9.171  25.620   2.117  1.00  0.00     0.121 C 
BRANCH  18  19
HETATM   19  N3  UNL     1       8.676  26.102   3.382  1.00  0.00    -0.370 N 
ATOM     20  H3  UNL     1       9.300  26.641   3.983  1.00  0.00     0.161 HD
BRANCH  19  21
HETATM   21  C2  UNL     1       7.357  25.853   3.816  1.00  0.00     0.150 C 
HETATM   22  N1  UNL     1       6.965  26.202   4.987  1.00  0.00    -0.251 N 
ATOM     23  H1  UNL     1       5.999  26.010   5.250  1.00  0.00     0.182 HD
BRANCH  21  24
HETATM   24  S1  UNL     1       6.192  25.058   2.731  1.00  0.00    -0.098 SA
HETATM   25  C1  UNL     1       4.507  25.342   3.327  1.00  0.00     0.099 C 
ENDBRANCH  21  24
BRANCH  22  26
HETATM   26  S2  UNL     1       7.966  26.967   6.116  1.00  0.00     0.304 S 
HETATM   27  O1  UNL     1       8.789  28.094   5.567  1.00  0.00    -0.188 OA
HETATM   28  O2  UNL     1       7.163  27.507   7.286  1.00  0.00    -0.188 OA
BRANCH  26  29
HETATM   29  N2  UNL     1       9.083  25.806   6.747  1.00  0.00    -0.193 NA
HETATM   30  C3  UNL     1      10.435  26.171   6.457  1.00  0.00     0.109 C 
HETATM   31  C4  UNL     1      11.395  25.588   7.447  1.00  0.00     0.015 C 
HETATM   32  C5  UNL     1      11.134  26.235   8.792  1.00  0.00     0.002 C 
HETATM   33  C6  UNL     1       9.665  26.354   9.070  1.00  0.00     0.015 C 
HETATM   34  C7  UNL     1       8.826  25.521   8.137  1.00  0.00     0.109 C 
ENDBRANCH  26  29
ENDBRANCH  22  26
ENDBRANCH  19  21
ENDBRANCH  18  19
ENDBRANCH  17  18
ENDBRANCH  16  17
ENDBRANCH  15  16
ENDBRANCH  12  15
ENDBRANCH   1  11
BRANCH   6  35
HETATM   35  C19 UNL     1      14.831  20.823   3.795  1.00  0.00     0.151 C 
BRANCH  35  36
HETATM   36  O5  UNL     1      14.876  21.744   2.860  1.00  0.00    -0.346 OA
ATOM     37  H5  UNL     1      14.045  21.902   2.427  1.00  0.00     0.219 HD
ENDBRANCH  35  36
BRANCH  35  38
HETATM   38  N5  UNL     1      14.758  19.530   3.272  1.00  0.00    -0.360 N 
ATOM     39  H5  UNL     1      14.181  18.824   3.729  1.00  0.00     0.162 HD
BRANCH  38  40
HETATM   40  C20 UNL     1      15.527  19.190   2.048  1.00  0.00     0.235 C 
BRANCH  40  41
HETATM   41  C21 UNL     1      16.765  18.519   2.446  1.00  0.00     0.191 C 
HETATM   42  O6  UNL     1      17.888  18.761   1.899  1.00  0.00    -0.647 OA
HETATM   43  O7  UNL     1      16.754  17.572   3.456  1.00  0.00    -0.647 OA
ENDBRANCH  40  41
ENDBRANCH  38  40
ENDBRANCH  35  38
ENDBRANCH   6  35
BRANCH   5  44
HETATM   44  O4  UNL     1      16.184  19.454   5.618  1.00  0.00    -0.359 OA
ATOM     45  H4  UNL     1      15.679  18.729   5.267  1.00  0.00     0.217 HD
ENDBRANCH   5  44
BRANCH   7  46
HETATM   46  C23 UNL     1      17.940  20.512   8.508  1.00  0.00     0.013 C 
HETATM   47  C24 UNL     1      18.683  19.687   7.432  1.00  0.00     0.023 C 
HETATM   48  C25 UNL     1      18.311  21.933   8.275  1.00  0.00     0.023 C 
BRANCH  46  49
HETATM   49  C26 UNL     1      18.570  20.110   9.795  1.00  0.00     0.240 C 
HETATM   50  O8  UNL     1      19.104  19.026   9.962  1.00  0.00    -0.306 OA
ENDBRANCH  46  49
ENDBRANCH   7  46
TORSDOF 18
ENDMDL
MODEL 2
REMARK VINA RESULT: -9.122118137      0.782      1.093
REMARK  18 active torsions:
REMARK  status: ('A' for Active; 'I' for Inactive)
REMARK    1  A    between atoms: S1_2  and  C2_3 
REMARK    2  A    between atoms: C2_3  and  N3_15 
REMARK    3  A    between atoms: N1_4  and  S2_6 
REMARK    4  A    between atoms: S2_6  and  N2_9 
REMARK    5  A    between atoms: N3_15  and  C8_17 
REMARK    6  A    between atoms: C8_17  and  C9_18 
REMARK    7  A    between atoms: C9_18  and  C10_19 
REMARK    8  A    between atoms: C10_19  and  C11_20 
REMARK    9  A    between atoms: C11_20  and  C12_21 
REMARK       I    between atoms: C12_21  and  N4_23 
REMARK   10  A    between atoms: N4_23  and  C13_25 
REMARK   11  A    between atoms: C17_29  and  O4_30 
REMARK   12  A    between atoms: C18_32  and  C19_33 
REMARK   13  A    between atoms: C19_33  and  O5_34 
REMARK   14  A    between atoms: C19_33  and  N5_36 
REMARK   15  A    between atoms: N5_36  and  C20_38 
REMARK   16  A    between atoms: C20_38  and  C21_39 
REMARK   17  A    between atoms: C22_42  and  C23_43 
REMARK   18  A    between atoms: C23_43  and  C26_46 
ROOT
HETATM    1  C13 UNL     1      14.336  22.295   5.640  1.00  0.00     0.052 A 
HETATM    2  C14 UNL     1      14.457  22.685   6.986  1.00  0.00     0.038 A 
HETATM    3  C15 UNL     1      15.134  21.950   7.928  1.00  0.00    -0.046 A 
HETATM    4  C16 UNL     1      15.734  20.767   7.556  1.00  0.00    -0.012 A 
HETATM    5  C17 UNL     1      15.615  20.369   6.243  1.00  0.00     0.089 A 
HETATM    6  C18 UNL     1      14.914  21.118   5.249  1.00  0.00     0.075 A 
HETATM    7  C22 UNL     1      16.510  19.981   8.524  1.00  0.00     0.036 C 
HETATM    8  C27 UNL     1      15.935  20.047   9.925  1.00  0.00     0.011 C 
HETATM    9  C28 UNL     1      15.080  21.203  10.251  1.00  0.00     0.005 C 
HETATM   10  C29 UNL     1      15.130  22.385   9.358  1.00  0.00     0.039 C 
ENDROOT
BRANCH   1  11
HETATM   11  N4  UNL     1      13.786  23.218   4.728  1.00  0.00    -0.326 N 
HETATM   12  C12 UNL     1      12.423  23.467   4.461  1.00  0.00     0.222 C 
HETATM   13  O3  UNL     1      11.487  22.868   5.029  1.00  0.00    -0.273 OA
ATOM     14  H4  UNL     1      14.456  23.775   4.196  1.00  0.00     0.169 HD
BRANCH  12  15
HETATM   15  C11 UNL     1      12.031  24.487   3.457  1.00  0.00     0.103 C 
BRANCH  15  16
HETATM   16  C10 UNL     1      11.270  23.992   2.294  1.00  0.00     0.011 C 
BRANCH  16  17
HETATM   17  C9  UNL     1       9.775  24.155   2.332  1.00  0.00     0.020 C 
BRANCH  17  18
HETATM   18  C8  UNL     1       9.376  25.500   1.799  1.00  0.00     0.121 C 
BRANCH  18  19
HETATM   19  N3  UNL     1       8.741  26.274   2.836  1.00  0.00    -0.370 N 
ATOM     20  H3  UNL     1       9.135  27.181   3.087  1.00  0.00     0.161 HD
BRANCH  19  21
HETATM   21  C2  UNL     1       7.592  25.817   3.517  1.00  0.00     0.150 C 
HETATM   22  N1  UNL     1       7.489  25.921   4.792  1.00  0.00    -0.251 N 
ATOM     23  H1  UNL     1       6.635  25.587   5.237  1.00  0.00     0.182 HD
BRANCH  21  24
HETATM   24  S1  UNL     1       6.240  25.099   2.611  1.00  0.00    -0.098 SA
HETATM   25  C1  UNL     1       4.702  25.305   3.541  1.00  0.00     0.099 C 
ENDBRANCH  21  24
BRANCH  22  26
HETATM   26  S2  UNL     1       8.697  26.586   5.773  1.00  0.00     0.304 S 
HETATM   27  O1  UNL     1      10.050  25.958   5.618  1.00  0.00    -0.188 OA
HETATM   28  O2  UNL     1       8.847  28.076   5.526  1.00  0.00    -0.188 OA
BRANCH  26  29
HETATM   29  N2  UNL     1       8.245  26.378   7.430  1.00  0.00    -0.193 NA
HETATM   30  C3  UNL     1       8.952  25.289   8.031  1.00  0.00     0.109 C 
HETATM   31  C4  UNL     1       9.067  25.450   9.515  1.00  0.00     0.015 C 
HETATM   32  C5  UNL     1       9.958  26.645   9.790  1.00  0.00     0.002 C 
HETATM   33  C6  UNL     1       9.637  27.792   8.880  1.00  0.00     0.015 C 
HETATM   34  C7  UNL     1       8.324  27.618   8.163  1.00  0.00     0.109 C 
ENDBRANCH  26  29
ENDBRANCH  22  26
ENDBRANCH  19  21
ENDBRANCH  18  19
ENDBRANCH  17  18
ENDBRANCH  16  17
ENDBRANCH  15  16
ENDBRANCH  12  15
ENDBRANCH   1  11
BRANCH   6  35
HETATM   35  C19 UNL     1      14.838  20.562   3.925  1.00  0.00     0.151 C 
BRANCH  35  36
HETATM   36  O5  UNL     1      14.893  21.453   2.961  1.00  0.00    -0.346 OA
ATOM     37  H5  UNL     1      15.543  21.267   2.294  1.00  0.00     0.219 HD
ENDBRANCH  35  36
BRANCH  35  38
HETATM   38  N5  UNL     1      14.724  19.256   3.444  1.00  0.00    -0.360 N 
ATOM     39  H5  UNL     1      14.132  18.582   3.927  1.00  0.00     0.162 HD
BRANCH  38  40
HETATM   40  C20 UNL     1      15.472  18.856   2.225  1.00  0.00     0.235 C 
BRANCH  40  41
HETATM   41  C21 UNL     1      16.765  18.304   2.630  1.00  0.00     0.191 C 
HETATM   42  O6  UNL     1      16.883  17.416   3.533  1.00  0.00    -0.647 OA
HETATM   43  O7  UNL     1      17.932  18.744   2.030  1.00  0.00    -0.647 OA
ENDBRANCH  40  41
ENDBRANCH  38  40
ENDBRANCH  35  38
ENDBRANCH   6  35
BRANCH   5  44
HETATM   44  O4  UNL     1      16.155  19.200   5.779  1.00  0.00    -0.359 OA
ATOM     45  H4  UNL     1      16.666  19.158   4.979  1.00  0.00     0.217 HD
ENDBRANCH   5  44
BRANCH   7  46
HETATM   46  C23 UNL     1      17.978  20.281   8.619  1.00  0.00     0.013 C 
HETATM   47  C24 UNL     1      18.702  19.218   7.760  1.00  0.00     0.023 C 
HETATM   48  C25 UNL     1      18.431  21.604   8.115  1.00  0.00     0.023 C 
BRANCH  46  49
HETATM   49  C26 UNL     1      18.555  20.122   9.982  1.00  0.00     0.240 C 
HETATM   50  O8  UNL     1      19.206  19.146  10.316  1.00  0.00    -0.306 OA
ENDBRANCH  46  49
ENDBRANCH   7  46
TORSDOF 18
ENDMDL
MODEL 3
REMARK VINA RESULT: -9.043686672      3.693      9.905
REMARK  18 active torsions:
REMARK  status: ('A' for Active; 'I' for Inactive)
REMARK    1  A    between atoms: S1_2  and  C2_3 
REMARK    2  A    between atoms: C2_3  and  N3_15 
REMARK    3  A    between atoms: N1_4  and  S2_6 
REMARK    4  A    between atoms: S2_6  and  N2_9 
REMARK    5  A    between atoms: N3_15  and  C8_17 
REMARK    6  A    between atoms: C8_17  and  C9_18 
REMARK    7  A    between atoms: C9_18  and  C10_19 
REMARK    8  A    between atoms: C10_19  and  C11_20 
REMARK    9  A    between atoms: C11_20  and  C12_21 
REMARK       I    between atoms: C12_21  and  N4_23 
REMARK   10  A    between atoms: N4_23  and  C13_25 
REMARK   11  A    between atoms: C17_29  and  O4_30 
REMARK   12  A    between atoms: C18_32  and  C19_33 
REMARK   13  A    between atoms: C19_33  and  O5_34 
REMARK   14  A    between atoms: C19_33  and  N5_36 
REMARK   15  A    between atoms: N5_36  and  C20_38 
REMARK   16  A    between atoms: C20_38  and  C21_39 
REMARK   17  A    between atoms: C22_42  and  C23_43 
REMARK   18  A    between atoms: C23_43  and  C26_46 
ROOT
HETATM    1  C13 UNL     1      11.042  24.308   6.318  1.00  0.00     0.052 A 
HETATM    2  C14 UNL     1      10.962  24.723   7.659  1.00  0.00     0.038 A 
HETATM    3  C15 UNL     1      10.337  25.880   8.056  1.00  0.00    -0.046 A 
HETATM    4  C16 UNL     1       9.750  26.689   7.108  1.00  0.00    -0.012 A 
HETATM    5  C17 UNL     1       9.829  26.297   5.789  1.00  0.00     0.089 A 
HETATM    6  C18 UNL     1      10.476  25.100   5.356  1.00  0.00     0.075 A 
HETATM    7  C22 UNL     1       9.028  27.905   7.500  1.00  0.00     0.036 C 
HETATM    8  C27 UNL     1       9.653  28.595   8.697  1.00  0.00     0.011 C 
HETATM    9  C28 UNL     1      10.493  27.774   9.587  1.00  0.00     0.005 C 
HETATM   10  C29 UNL     1      10.384  26.299   9.490  1.00  0.00     0.039 C 
ENDROOT
BRANCH   1  11
HETATM   11  N4  UNL     1      11.537  23.016   6.051  1.00  0.00    -0.326 N 
HETATM   12  C12 UNL     1      12.883  22.598   5.990  1.00  0.00     0.222 C 
HETATM   13  O3  UNL     1      13.853  23.362   6.174  1.00  0.00    -0.273 OA
ATOM     14  H4  UNL     1      10.836  22.294   5.882  1.00  0.00     0.169 HD
BRANCH  12  15
HETATM   15  C11 UNL     1      13.215  21.182   5.694  1.00  0.00     0.103 C 
BRANCH  15  16
HETATM   16  C10 UNL     1      14.294  20.961   4.713  1.00  0.00     0.011 C 
BRANCH  16  17
HETATM   17  C9  UNL     1      15.070  19.678   4.822  1.00  0.00     0.020 C 
BRANCH  17  18
HETATM   18  C8  UNL     1      16.336  19.755   4.020  1.00  0.00     0.121 C 
BRANCH  18  19
HETATM   19  N3  UNL     1      17.480  19.681   4.894  1.00  0.00    -0.370 N 
ATOM     20  H3  UNL     1      18.031  20.524   5.058  1.00  0.00     0.161 HD
BRANCH  19  21
HETATM   21  C2  UNL     1      17.863  18.481   5.529  1.00  0.00     0.150 C 
HETATM   22  N1  UNL     1      18.206  18.463   6.766  1.00  0.00    -0.251 N 
ATOM     23  H1  UNL     1      18.464  17.570   7.183  1.00  0.00     0.182 HD
BRANCH  21  24
HETATM   24  S1  UNL     1      17.860  16.948   4.626  1.00  0.00    -0.098 SA
HETATM   25  C1  UNL     1      18.499  17.219   2.956  1.00  0.00     0.099 C 
ENDBRANCH  21  24
BRANCH  22  26
HETATM   26  S2  UNL     1      18.250  19.846   7.740  1.00  0.00     0.304 S 
HETATM   27  O1  UNL     1      18.635  19.598   9.168  1.00  0.00    -0.188 OA
HETATM   28  O2  UNL     1      19.204  20.884   7.177  1.00  0.00    -0.188 OA
BRANCH  26  29
HETATM   29  N2  UNL     1      16.673  20.556   7.772  1.00  0.00    -0.193 NA
HETATM   30  C3  UNL     1      16.015  20.311   9.019  1.00  0.00     0.109 C 
HETATM   31  C4  UNL     1      14.987  21.356   9.323  1.00  0.00     0.015 C 
HETATM   32  C5  UNL     1      15.707  22.669   9.554  1.00  0.00     0.002 C 
HETATM   33  C6  UNL     1      16.798  22.883   8.549  1.00  0.00     0.015 C 
HETATM   34  C7  UNL     1      16.704  21.942   7.376  1.00  0.00     0.109 C 
ENDBRANCH  26  29
ENDBRANCH  22  26
ENDBRANCH  19  21
ENDBRANCH  18  19
ENDBRANCH  17  18
ENDBRANCH  16  17
ENDBRANCH  15  16
ENDBRANCH  12  15
ENDBRANCH   1  11
BRANCH   6  35
HETATM   35  C19 UNL     1      10.515  24.837   3.943  1.00  0.00     0.151 C 
BRANCH  35  36
HETATM   36  O5  UNL     1      11.724  24.831   3.428  1.00  0.00    -0.346 OA
ATOM     37  H5  UNL     1      12.244  24.072   3.662  1.00  0.00     0.219 HD
ENDBRANCH  35  36
BRANCH  35  38
HETATM   38  N5  UNL     1       9.525  24.576   2.994  1.00  0.00    -0.360 N 
ATOM     39  H5  UNL     1       8.756  23.944   3.215  1.00  0.00     0.162 HD
BRANCH  38  40
HETATM   40  C20 UNL     1       9.599  25.224   1.659  1.00  0.00     0.235 C 
BRANCH  40  41
HETATM   41  C21 UNL     1       8.519  26.205   1.557  1.00  0.00     0.191 C 
HETATM   42  O6  UNL     1       7.346  25.902   1.169  1.00  0.00    -0.647 OA
HETATM   43  O7  UNL     1       8.745  27.531   1.886  1.00  0.00    -0.647 OA
ENDBRANCH  40  41
ENDBRANCH  38  40
ENDBRANCH  35  38
ENDBRANCH   6  35
BRANCH   5  44
HETATM   44  O4  UNL     1       9.299  27.042   4.770  1.00  0.00    -0.359 OA
ATOM     45  H4  UNL     1       9.799  27.275   3.997  1.00  0.00     0.217 HD
ENDBRANCH   5  44
BRANCH   7  46
HETATM   46  C23 UNL     1       7.558  27.764   7.771  1.00  0.00     0.013 C 
HETATM   47  C24 UNL     1       7.315  26.277   8.121  1.00  0.00     0.023 C 
HETATM   48  C25 UNL     1       7.000  28.555   8.900  1.00  0.00     0.023 C 
BRANCH  46  49
HETATM   49  C26 UNL     1       6.684  28.024   6.594  1.00  0.00     0.240 C 
HETATM   50  O8  UNL     1       6.451  27.181   5.744  1.00  0.00    -0.306 OA
ENDBRANCH  46  49
ENDBRANCH   7  46
TORSDOF 18
ENDMDL
MODEL 4
REMARK VINA RESULT: -9.018559407      3.535     10.075
REMARK  18 active torsions:
REMARK  status: ('A' for Active; 'I' for Inactive)
REMARK    1  A    between atoms: S1_2  and  C2_3 
REMARK    2  A    between atoms: C2_3  and  N3_15 
REMARK    3  A    between atoms: N1_4  and  S2_6 
REMARK    4  A    between atoms: S2_6  and  N2_9 
REMARK    5  A    between atoms: N3_15  and  C8_17 
REMARK    6  A    between atoms: C8_17  and  C9_18 
REMARK    7  A    between atoms: C9_18  and  C10_19 
REMARK    8  A    between atoms: C10_19  and  C11_20 
REMARK    9  A    between atoms: C11_20  and  C12_21 
REMARK       I    between atoms: C12_21  and  N4_23 
REMARK   10  A    between atoms: N4_23  and  C13_25 
REMARK   11  A    between atoms: C17_29  and  O4_30 
REMARK   12  A    between atoms: C18_32  and  C19_33 
REMARK   13  A    between atoms: C19_33  and  O5_34 
REMARK   14  A    between atoms: C19_33  and  N5_36 
REMARK   15  A    between atoms: N5_36  and  C20_38 
REMARK   16  A    between atoms: C20_38  and  C21_39 
REMARK   17  A    between atoms: C22_42  and  C23_43 
REMARK   18  A    between atoms: C23_43  and  C26_46 
ROOT
HETATM    1  C13 UNL     1      11.980  24.982   6.916  1.00  0.00     0.052 A 
HETATM    2  C14 UNL     1      11.613  25.479   8.179  1.00  0.00     0.038 A 
HETATM    3  C15 UNL     1      10.602  26.390   8.369  1.00  0.00    -0.046 A 
HETATM    4  C16 UNL     1       9.898  26.852   7.279  1.00  0.00    -0.012 A 
HETATM    5  C17 UNL     1      10.254  26.380   6.035  1.00  0.00     0.089 A 
HETATM    6  C18 UNL     1      11.302  25.435   5.816  1.00  0.00     0.075 A 
HETATM    7  C22 UNL     1       8.778  27.785   7.449  1.00  0.00     0.036 C 
HETATM    8  C27 UNL     1       8.998  28.762   8.587  1.00  0.00     0.011 C 
HETATM    9  C28 UNL     1       9.951  28.368   9.641  1.00  0.00     0.005 C 
HETATM   10  C29 UNL     1      10.342  26.941   9.734  1.00  0.00     0.039 C 
ENDROOT
BRANCH   1  11
HETATM   11  N4  UNL     1      12.897  23.914   6.863  1.00  0.00    -0.326 N 
HETATM   12  C12 UNL     1      12.633  22.556   6.587  1.00  0.00     0.222 C 
HETATM   13  O3  UNL     1      11.493  22.109   6.343  1.00  0.00    -0.273 OA
ATOM     14  H4  UNL     1      13.873  24.152   7.046  1.00  0.00     0.169 HD
BRANCH  12  15
HETATM   15  C11 UNL     1      13.738  21.565   6.574  1.00  0.00     0.103 C 
BRANCH  15  16
HETATM   16  C10 UNL     1      14.740  21.700   7.649  1.00  0.00     0.011 C 
BRANCH  16  17
HETATM   17  C9  UNL     1      15.904  22.616   7.393  1.00  0.00     0.020 C 
BRANCH  17  18
HETATM   18  C8  UNL     1      17.136  22.111   8.085  1.00  0.00     0.121 C 
BRANCH  18  19
HETATM   19  N3  UNL     1      17.731  21.043   7.320  1.00  0.00    -0.370 N 
ATOM     20  H3  UNL     1      18.048  21.234   6.370  1.00  0.00     0.161 HD
BRANCH  19  21
HETATM   21  C2  UNL     1      17.888  19.743   7.844  1.00  0.00     0.150 C 
HETATM   22  N1  UNL     1      17.926  18.716   7.075  1.00  0.00    -0.251 N 
ATOM     23  H1  UNL     1      18.052  17.798   7.500  1.00  0.00     0.182 HD
BRANCH  21  24
HETATM   24  S1  UNL     1      18.057  19.497   9.598  1.00  0.00    -0.098 SA
HETATM   25  C1  UNL     1      16.434  19.190  10.334  1.00  0.00     0.099 C 
ENDBRANCH  21  24
BRANCH  22  26
HETATM   26  S2  UNL     1      17.780  18.807   5.392  1.00  0.00     0.304 S 
HETATM   27  O1  UNL     1      18.682  19.809   4.734  1.00  0.00    -0.188 OA
HETATM   28  O2  UNL     1      18.038  17.457   4.745  1.00  0.00    -0.188 OA
BRANCH  26  29
HETATM   29  N2  UNL     1      16.161  19.269   4.996  1.00  0.00    -0.193 NA
HETATM   30  C3  UNL     1      16.135  20.476   4.228  1.00  0.00     0.109 C 
HETATM   31  C4  UNL     1      14.904  20.573   3.382  1.00  0.00     0.015 C 
HETATM   32  C5  UNL     1      14.969  19.484   2.331  1.00  0.00     0.002 C 
HETATM   33  C6  UNL     1      15.446  18.186   2.911  1.00  0.00     0.015 C 
HETATM   34  C7  UNL     1      15.421  18.176   4.417  1.00  0.00     0.109 C 
ENDBRANCH  26  29
ENDBRANCH  22  26
ENDBRANCH  19  21
ENDBRANCH  18  19
ENDBRANCH  17  18
ENDBRANCH  16  17
ENDBRANCH  15  16
ENDBRANCH  12  15
ENDBRANCH   1  11
BRANCH   6  35
HETATM   35  C19 UNL     1      11.590  25.060   4.458  1.00  0.00     0.151 C 
BRANCH  35  36
HETATM   36  O5  UNL     1      12.864  25.108   4.142  1.00  0.00    -0.346 OA
ATOM     37  H5  UNL     1      13.037  25.404   3.256  1.00  0.00     0.219 HD
ENDBRANCH  35  36
BRANCH  35  38
HETATM   38  N5  UNL     1      10.789  24.643   3.394  1.00  0.00    -0.360 N 
ATOM     39  H5  UNL     1      10.850  25.112   2.490  1.00  0.00     0.162 HD
BRANCH  38  40
HETATM   40  C20 UNL     1       9.845  23.512   3.586  1.00  0.00     0.235 C 
BRANCH  40  41
HETATM   41  C21 UNL     1       8.500  23.959   3.222  1.00  0.00     0.191 C 
HETATM   42  O6  UNL     1       8.212  25.181   3.015  1.00  0.00    -0.647 OA
HETATM   43  O7  UNL     1       7.471  23.043   3.089  1.00  0.00    -0.647 OA
ENDBRANCH  40  41
ENDBRANCH  38  40
ENDBRANCH  35  38
ENDBRANCH   6  35
BRANCH   5  44
HETATM   44  O4  UNL     1       9.632  26.794   4.888  1.00  0.00    -0.359 OA
ATOM     45  H4  UNL     1      10.107  27.191   4.166  1.00  0.00     0.217 HD
ENDBRANCH   5  44
BRANCH   7  46
HETATM   46  C23 UNL     1       7.413  27.183   7.624  1.00  0.00     0.013 C 
HETATM   47  C24 UNL     1       6.832  26.990   6.204  1.00  0.00     0.023 C 
HETATM   48  C25 UNL     1       7.342  25.855   8.289  1.00  0.00     0.023 C 
BRANCH  46  49
HETATM   49  C26 UNL     1       6.433  28.062   8.317  1.00  0.00     0.240 C 
HETATM   50  O8  UNL     1       5.337  28.328   7.853  1.00  0.00    -0.306 OA
ENDBRANCH  46  49
ENDBRANCH   7  46
TORSDOF 18
ENDMDL
MODEL 5
REMARK VINA RESULT: -8.970498906      1.774      4.112
REMARK  18 active torsions:
REMARK  status: ('A' for Active; 'I' for Inactive)
REMARK    1  A    between atoms: S1_2  and  C2_3 
REMARK    2  A    between atoms: C2_3  and  N3_15 
REMARK    3  A    between atoms: N1_4  and  S2_6 
REMARK    4  A    between atoms: S2_6  and  N2_9 
REMARK    5  A    between atoms: N3_15  and  C8_17 
REMARK    6  A    between atoms: C8_17  and  C9_18 
REMARK    7  A    between atoms: C9_18  and  C10_19 
REMARK    8  A    between atoms: C10_19  and  C11_20 
REMARK    9  A    between atoms: C11_20  and  C12_21 
REMARK       I    between atoms: C12_21  and  N4_23 
REMARK   10  A    between atoms: N4_23  and  C13_25 
REMARK   11  A    between atoms: C17_29  and  O4_30 
REMARK   12  A    between atoms: C18_32  and  C19_33 
REMARK   13  A    between atoms: C19_33  and  O5_34 
REMARK   14  A    between atoms: C19_33  and  N5_36 
REMARK   15  A    between atoms: N5_36  and  C20_38 
REMARK   16  A    between atoms: C20_38  and  C21_39 
REMARK   17  A    between atoms: C22_42  and  C23_43 
REMARK   18  A    between atoms: C23_43  and  C26_46 
ROOT
HETATM    1  C13 UNL     1      14.566  21.535   4.433  1.00  0.00     0.052 A 
HETATM    2  C14 UNL     1      14.555  20.605   3.379  1.00  0.00     0.038 A 
HETATM    3  C15 UNL     1      15.563  19.698   3.160  1.00  0.00    -0.046 A 
HETATM    4  C16 UNL     1      16.649  19.680   4.007  1.00  0.00    -0.012 A 
HETATM    5  C17 UNL     1      16.676  20.592   5.039  1.00  0.00     0.089 A 
HETATM    6  C18 UNL     1      15.640  21.544   5.282  1.00  0.00     0.075 A 
HETATM    7  C22 UNL     1      17.719  18.690   3.835  1.00  0.00     0.036 C 
HETATM    8  C27 UNL     1      17.980  18.357   2.379  1.00  0.00     0.011 C 
HETATM    9  C28 UNL     1      16.887  18.611   1.423  1.00  0.00     0.005 C 
HETATM   10  C29 UNL     1      15.520  18.811   1.957  1.00  0.00     0.039 C 
ENDROOT
BRANCH   1  11
HETATM   11  N4  UNL     1      13.396  22.283   4.672  1.00  0.00    -0.326 N 
HETATM   12  C12 UNL     1      12.353  21.997   5.578  1.00  0.00     0.222 C 
HETATM   13  O3  UNL     1      12.337  20.992   6.319  1.00  0.00    -0.273 OA
ATOM     14  H4  UNL     1      13.290  23.136   4.122  1.00  0.00     0.169 HD
BRANCH  12  15
HETATM   15  C11 UNL     1      11.189  22.910   5.693  1.00  0.00     0.103 C 
BRANCH  15  16
HETATM   16  C10 UNL     1      10.522  23.271   4.427  1.00  0.00     0.011 C 
BRANCH  16  17
HETATM   17  C9  UNL     1      11.085  24.438   3.663  1.00  0.00     0.020 C 
BRANCH  17  18
HETATM   18  C8  UNL     1      10.078  24.961   2.680  1.00  0.00     0.121 C 
BRANCH  18  19
HETATM   19  N3  UNL     1       9.179  25.878   3.335  1.00  0.00    -0.370 N 
ATOM     20  H3  UNL     1       9.528  26.794   3.619  1.00  0.00     0.161 HD
BRANCH  19  21
HETATM   21  C2  UNL     1       7.832  25.550   3.595  1.00  0.00     0.150 C 
HETATM   22  N1  UNL     1       7.254  25.924   4.679  1.00  0.00    -0.251 N 
ATOM     23  H1  UNL     1       6.275  25.671   4.817  1.00  0.00     0.182 HD
BRANCH  21  24
HETATM   24  S1  UNL     1       6.889  24.620   2.407  1.00  0.00    -0.098 SA
HETATM   25  C1  UNL     1       5.197  24.396   3.007  1.00  0.00     0.099 C 
ENDBRANCH  21  24
BRANCH  22  26
HETATM   26  S2  UNL     1       8.030  26.814   5.890  1.00  0.00     0.304 S 
HETATM   27  O1  UNL     1       8.789  28.013   5.403  1.00  0.00    -0.188 OA
HETATM   28  O2  UNL     1       7.043  27.288   6.942  1.00  0.00    -0.188 OA
BRANCH  26  29
HETATM   29  N2  UNL     1       9.180  25.793   6.682  1.00  0.00    -0.193 NA
HETATM   30  C3  UNL     1      10.487  26.375   6.675  1.00  0.00     0.109 C 
HETATM   31  C4  UNL     1      11.326  25.877   7.810  1.00  0.00     0.015 C 
HETATM   32  C5  UNL     1      10.719  26.385   9.102  1.00  0.00     0.002 C 
HETATM   33  C6  UNL     1       9.225  26.264   9.093  1.00  0.00     0.015 C 
HETATM   34  C7  UNL     1       8.718  25.379   7.984  1.00  0.00     0.109 C 
ENDBRANCH  26  29
ENDBRANCH  22  26
ENDBRANCH  19  21
ENDBRANCH  18  19
ENDBRANCH  17  18
ENDBRANCH  16  17
ENDBRANCH  15  16
ENDBRANCH  12  15
ENDBRANCH   1  11
BRANCH   6  35
HETATM   35  C19 UNL     1      15.820  22.462   6.374  1.00  0.00     0.151 C 
BRANCH  35  36
HETATM   36  O5  UNL     1      15.612  23.721   6.062  1.00  0.00    -0.346 OA
ATOM     37  H5  UNL     1      14.703  23.937   5.894  1.00  0.00     0.219 HD
ENDBRANCH  35  36
BRANCH  35  38
HETATM   38  N5  UNL     1      16.167  22.292   7.715  1.00  0.00    -0.360 N 
ATOM     39  H5  UNL     1      17.033  22.691   8.077  1.00  0.00     0.162 HD
BRANCH  38  40
HETATM   40  C20 UNL     1      15.266  21.525   8.614  1.00  0.00     0.235 C 
BRANCH  40  41
HETATM   41  C21 UNL     1      16.037  20.455   9.247  1.00  0.00     0.191 C 
HETATM   42  O6  UNL     1      15.714  19.939  10.363  1.00  0.00    -0.647 OA
HETATM   43  O7  UNL     1      17.176  19.959   8.635  1.00  0.00    -0.647 OA
ENDBRANCH  40  41
ENDBRANCH  38  40
ENDBRANCH  35  38
ENDBRANCH   6  35
BRANCH   5  44
HETATM   44  O4  UNL     1      17.720  20.670   5.920  1.00  0.00    -0.359 OA
ATOM     45  H4  UNL     1      17.590  20.746   6.859  1.00  0.00     0.217 HD
ENDBRANCH   5  44
BRANCH   7  46
HETATM   46  C23 UNL     1      17.570  17.394   4.579  1.00  0.00     0.013 C 
HETATM   47  C24 UNL     1      16.058  17.070   4.603  1.00  0.00     0.023 C 
HETATM   48  C25 UNL     1      18.244  16.202   4.000  1.00  0.00     0.023 C 
BRANCH  46  49
HETATM   49  C26 UNL     1      17.966  17.454   6.013  1.00  0.00     0.240 C 
HETATM   50  O8  UNL     1      18.897  18.132   6.415  1.00  0.00    -0.306 OA
ENDBRANCH  46  49
ENDBRANCH   7  46
TORSDOF 18
ENDMDL
